MODEL 1
REMARK VINA RESULT:     -13.0      0.000      0.000
REMARK SMILES O=C(NCCCCNC(=O)[C@@H]1CC[C@@H](CN2C(=O)CC3(CCCC3)CC2=O)O1)c1ccc(-c2c3nc(c(-c4cccc(S(=O)(=O)[O-])c4F)c4ccc([nH]4)c(-c4cccc(S(=O)(=O)[O-])c4F)c4nc(c(-c5cccc(S(=O)(=O)[O-])c5F)c5ccc2[nH]5)C=C4)C=C3)cc1
REMARK SMILES IDX 5 1 4 2 3 3 1 4 2 5 29 7 30 8 91 9 31 10 90 11 32 12 33 13
REMARK SMILES IDX 34 14 84 15 35 16 89 17 83 18 85 19 36 20 88 21 82 22 81 23
REMARK SMILES IDX 37 25 69 26 49 27 68 28 50 29 53 30 67 31 86 32 51 33 52 34
REMARK SMILES IDX 66 36 87 37 54 38 38 39 39 40 47 41 40 42 42 43 48 44 41 45
REMARK SMILES IDX 43 46 44 47 45 48 46 49 70 50 71 51 79 52 72 53 74 54 80 55
REMARK SMILES IDX 73 56 75 57 76 58 77 59 78 60 55 61 56 62 64 63 57 64 59 65
REMARK SMILES IDX 65 66 58 67 60 68 61 69 62 70 63 71 6 72 7 73 8 74 9 75
REMARK SMILES IDX 10 77 11 78 12 79 28 80 13 81 14 82 15 83 16 84 17 85 26 86
REMARK SMILES IDX 18 87 19 88 25 89 27 90 20 91 21 92 24 93 22 94 23 95
REMARK H PARENT 3 6 85 24 53 35 8 76
REMARK Flexibility Score: inf
ROOT
ATOM      1  C   UNL A   1      32.055  29.453  25.178  1.00  0.00     0.023 C 
ENDROOT
BRANCH   1   2
ATOM      2  C   UNL A   1      32.268  29.958  26.600  1.00  0.00     0.116 C 
BRANCH   2   3
ATOM      3  N   UNL A   1      32.140  31.403  26.724  1.00  0.00    -0.352 N 
ATOM      4  O   UNL A   1      32.680  33.474  27.434  1.00  0.00    -0.269 OA
ATOM      5  C   UNL A   1      33.009  32.297  27.309  1.00  0.00     0.251 C 
ATOM      6  H   UNL A   1      31.324  31.793  26.336  1.00  0.00     0.163 HD
BRANCH   5   7
ATOM      7  C   UNL A   1      34.314  31.821  27.823  1.00  0.00     0.039 A 
ATOM      8  C   UNL A   1      34.476  30.494  28.225  1.00  0.00     0.014 A 
ATOM      9  C   UNL A   1      35.373  32.724  27.944  1.00  0.00     0.014 A 
ATOM     10  C   UNL A   1      35.629  30.116  28.906  1.00  0.00     0.010 A 
ATOM     11  C   UNL A   1      36.568  32.316  28.548  1.00  0.00     0.010 A 
ATOM     12  C   UNL A   1      36.688  31.023  29.081  1.00  0.00    -0.014 A 
BRANCH  12  13
ATOM     13  C   UNL A   1      37.913  30.578  29.796  1.00  0.00     0.031 A 
ATOM     14  C   UNL A   1      38.180  30.977  31.224  1.00  0.00     0.074 A 
ATOM     15  C   UNL A   1      38.783  29.774  29.150  1.00  0.00     0.049 A 
ATOM     16  N   UNL A   1      39.158  30.604  32.011  1.00  0.00    -0.248 NA
ATOM     17  C   UNL A   1      37.240  31.919  31.850  1.00  0.00     0.031 C 
ATOM     18  C   UNL A   1      38.662  29.357  27.752  1.00  0.00     0.029 A 
ATOM     19  N   UNL A   1      39.928  29.156  29.583  1.00  0.00    -0.354 N 
ATOM     20  C   UNL A   1      38.980  31.298  33.202  1.00  0.00     0.074 A 
ATOM     21  C   UNL A   1      37.800  32.119  33.036  1.00  0.00     0.031 C 
ATOM     22  C   UNL A   1      39.662  28.516  27.456  1.00  0.00     0.029 A 
ATOM     23  C   UNL A   1      40.522  28.368  28.624  1.00  0.00     0.049 A 
ATOM     24  H   UNL A   1      40.290  29.264  30.493  1.00  0.00     0.167 HD
ATOM     25  C   UNL A   1      39.719  31.241  34.337  1.00  0.00     0.034 A 
ATOM     26  C   UNL A   1      41.631  27.607  28.678  1.00  0.00     0.034 A 
ATOM     27  C   UNL A   1      40.858  30.380  34.521  1.00  0.00     0.049 A 
ATOM     28  C   UNL A   1      42.399  27.524  29.966  1.00  0.00     0.074 A 
ATOM     29  C   UNL A   1      41.618  30.191  35.662  1.00  0.00     0.029 A 
ATOM     30  N   UNL A   1      41.402  29.566  33.541  1.00  0.00    -0.354 N 
ATOM     31  N   UNL A   1      42.128  28.077  31.123  1.00  0.00    -0.248 NA
ATOM     32  C   UNL A   1      43.609  26.692  29.963  1.00  0.00     0.031 C 
ATOM     33  C   UNL A   1      42.631  29.272  35.368  1.00  0.00     0.029 A 
ATOM     34  C   UNL A   1      42.494  28.879  34.047  1.00  0.00     0.049 A 
ATOM     35  H   UNL A   1      41.063  29.486  32.621  1.00  0.00     0.167 HD
ATOM     36  C   UNL A   1      43.119  27.640  31.993  1.00  0.00     0.074 A 
ATOM     37  C   UNL A   1      43.980  26.755  31.234  1.00  0.00     0.031 C 
ATOM     38  C   UNL A   1      43.311  27.961  33.296  1.00  0.00     0.034 A 
BRANCH  25  39
ATOM     39  C   UNL A   1      39.293  32.104  35.498  1.00  0.00     0.023 A 
ATOM     40  C   UNL A   1      38.450  31.566  36.491  1.00  0.00     0.012 A 
ATOM     41  C   UNL A   1      39.783  33.416  35.645  1.00  0.00     0.148 A 
ATOM     42  C   UNL A   1      38.080  32.329  37.598  1.00  0.00     0.002 A 
ATOM     43  C   UNL A   1      39.438  34.158  36.770  1.00  0.00     0.091 A 
ATOM     44  F   UNL A   1      40.565  33.921  34.680  1.00  0.00    -0.205 F 
ATOM     45  C   UNL A   1      38.582  33.619  37.743  1.00  0.00     0.022 A 
BRANCH  43  46
ATOM     46  S   UNL A   1      40.097  35.803  37.074  1.00  0.00     0.127 S 
ATOM     47  O   UNL A   1      39.639  36.528  35.891  1.00  0.00    -0.237 OA
ATOM     48  O   UNL A   1      39.427  36.184  38.319  1.00  0.00    -0.237 OA
ATOM     49  O   UNL A   1      41.538  35.635  37.196  1.00  0.00    -0.744 OA
ENDBRANCH  43  46
ENDBRANCH  25  39
BRANCH  26  50
ATOM     50  C   UNL A   1      42.029  26.802  27.489  1.00  0.00     0.023 A 
ATOM     51  C   UNL A   1      42.724  27.429  26.436  1.00  0.00     0.012 A 
ATOM     52  C   UNL A   1      41.779  25.419  27.421  1.00  0.00     0.148 A 
ATOM     53  C   UNL A   1      43.147  26.694  25.328  1.00  0.00     0.002 A 
ATOM     54  C   UNL A   1      42.253  24.682  26.342  1.00  0.00     0.091 A 
ATOM     55  F   UNL A   1      41.097  24.845  28.423  1.00  0.00    -0.205 F 
ATOM     56  C   UNL A   1      42.924  25.320  25.287  1.00  0.00     0.022 A 
BRANCH  54  57
ATOM     57  S   UNL A   1      42.136  22.890  26.289  1.00  0.00     0.127 S 
ATOM     58  O   UNL A   1      42.708  22.591  24.978  1.00  0.00    -0.237 OA
ATOM     59  O   UNL A   1      42.965  22.494  27.429  1.00  0.00    -0.237 OA
ATOM     60  O   UNL A   1      40.720  22.591  26.451  1.00  0.00    -0.744 OA
ENDBRANCH  54  57
ENDBRANCH  26  50
BRANCH  38  61
ATOM     61  C   UNL A   1      44.491  27.338  33.994  1.00  0.00     0.023 A 
ATOM     62  C   UNL A   1      45.735  28.001  33.979  1.00  0.00     0.012 A 
ATOM     63  C   UNL A   1      44.357  26.134  34.710  1.00  0.00     0.148 A 
ATOM     64  C   UNL A   1      46.835  27.456  34.640  1.00  0.00     0.002 A 
ATOM     65  C   UNL A   1      45.447  25.618  35.402  1.00  0.00     0.091 A 
ATOM     66  F   UNL A   1      43.172  25.505  34.693  1.00  0.00    -0.205 F 
ATOM     67  C   UNL A   1      46.689  26.272  35.359  1.00  0.00     0.022 A 
BRANCH  65  68
ATOM     68  S   UNL A   1      45.315  24.147  36.424  1.00  0.00     0.127 S 
ATOM     69  O   UNL A   1      46.718  23.853  36.707  1.00  0.00    -0.237 OA
ATOM     70  O   UNL A   1      44.549  24.628  37.574  1.00  0.00    -0.237 OA
ATOM     71  O   UNL A   1      44.615  23.164  35.607  1.00  0.00    -0.744 OA
ENDBRANCH  65  68
ENDBRANCH  38  61
ENDBRANCH  12  13
ENDBRANCH   5   7
ENDBRANCH   2   3
ENDBRANCH   1   2
BRANCH   1  72
ATOM     72  C   UNL A   1      33.324  29.309  24.339  1.00  0.00     0.023 C 
BRANCH  72  73
ATOM     73  C   UNL A   1      33.097  28.785  22.921  1.00  0.00     0.116 C 
BRANCH  73  74
ATOM     74  N   UNL A   1      31.939  29.391  22.283  1.00  0.00    -0.354 N 
ATOM     75  C   UNL A   1      30.669  28.915  22.095  1.00  0.00     0.249 C 
ATOM     76  H   UNL A   1      32.094  30.296  21.927  1.00  0.00     0.163 HD
ATOM     77  O   UNL A   1      29.839  29.663  21.573  1.00  0.00    -0.272 OA
BRANCH  75  78
ATOM     78  C   UNL A   1      30.321  27.481  22.512  1.00  0.00     0.207 C 
ATOM     79  C   UNL A   1      29.314  27.443  23.643  1.00  0.00     0.045 C 
ATOM     80  O   UNL A   1      31.429  26.707  22.971  1.00  0.00    -0.363 OA
ATOM     81  C   UNL A   1      29.475  26.031  24.162  1.00  0.00     0.037 C 
ATOM     82  C   UNL A   1      30.950  25.715  23.902  1.00  0.00     0.139 C 
BRANCH  82  83
ATOM     83  C   UNL A   1      31.253  24.290  23.363  1.00  0.00     0.160 C 
BRANCH  83  84
ATOM     84  N   UNL A   1      32.597  23.831  23.741  1.00  0.00    -0.280 N 
ATOM     85  C   UNL A   1      33.572  23.757  22.763  1.00  0.00     0.229 C 
ATOM     86  C   UNL A   1      32.784  23.333  25.019  1.00  0.00     0.229 C 
ATOM     87  O   UNL A   1      33.326  23.840  21.557  1.00  0.00    -0.274 OA
ATOM     88  C   UNL A   1      35.013  23.689  23.222  1.00  0.00     0.108 C 
ATOM     89  C   UNL A   1      34.171  23.533  25.571  1.00  0.00     0.108 C 
ATOM     90  O   UNL A   1      31.897  22.837  25.707  1.00  0.00    -0.274 OA
ATOM     91  C   UNL A   1      35.273  23.107  24.613  1.00  0.00    -0.012 C 
ATOM     92  C   UNL A   1      36.640  23.635  25.137  1.00  0.00     0.008 C 
ATOM     93  C   UNL A   1      35.427  21.568  24.592  1.00  0.00     0.008 C 
ATOM     94  C   UNL A   1      37.380  22.420  25.665  1.00  0.00     0.001 C 
ATOM     95  C   UNL A   1      36.923  21.314  24.733  1.00  0.00     0.001 C 
ENDBRANCH  83  84
ENDBRANCH  82  83
ENDBRANCH  75  78
ENDBRANCH  73  74
ENDBRANCH  72  73
ENDBRANCH   1  72
TORSDOF 16
ENDMDL
MODEL 2
REMARK VINA RESULT:     -12.7      1.656      2.325
REMARK SMILES O=C(NCCCCNC(=O)[C@@H]1CC[C@@H](CN2C(=O)CC3(CCCC3)CC2=O)O1)c1ccc(-c2c3nc(c(-c4cccc(S(=O)(=O)[O-])c4F)c4ccc([nH]4)c(-c4cccc(S(=O)(=O)[O-])c4F)c4nc(c(-c5cccc(S(=O)(=O)[O-])c5F)c5ccc2[nH]5)C=C4)C=C3)cc1
REMARK SMILES IDX 5 1 4 2 3 3 1 4 2 5 29 7 30 8 91 9 31 10 90 11 32 12 33 13
REMARK SMILES IDX 34 14 84 15 35 16 89 17 83 18 85 19 36 20 88 21 82 22 81 23
REMARK SMILES IDX 37 25 69 26 49 27 68 28 50 29 53 30 67 31 86 32 51 33 52 34
REMARK SMILES IDX 66 36 87 37 54 38 38 39 39 40 47 41 40 42 42 43 48 44 41 45
REMARK SMILES IDX 43 46 44 47 45 48 46 49 70 50 71 51 79 52 72 53 74 54 80 55
REMARK SMILES IDX 73 56 75 57 76 58 77 59 78 60 55 61 56 62 64 63 57 64 59 65
REMARK SMILES IDX 65 66 58 67 60 68 61 69 62 70 63 71 6 72 7 73 8 74 9 75
REMARK SMILES IDX 10 77 11 78 12 79 28 80 13 81 14 82 15 83 16 84 17 85 26 86
REMARK SMILES IDX 18 87 19 88 25 89 27 90 20 91 21 92 24 93 22 94 23 95
REMARK H PARENT 3 6 85 24 53 35 8 76
REMARK Flexibility Score: inf
ROOT
ATOM      1  C   UNL A   1      32.330  29.900  25.269  1.00  0.00     0.023 C 
ENDROOT
BRANCH   1   2
ATOM      2  C   UNL A   1      32.059  30.372  26.692  1.00  0.00     0.116 C 
BRANCH   2   3
ATOM      3  N   UNL A   1      31.976  31.821  26.813  1.00  0.00    -0.352 N 
ATOM      4  O   UNL A   1      32.585  33.876  27.513  1.00  0.00    -0.269 OA
ATOM      5  C   UNL A   1      32.877  32.690  27.388  1.00  0.00     0.251 C 
ATOM      6  H   UNL A   1      31.170  32.235  26.430  1.00  0.00     0.163 HD
BRANCH   5   7
ATOM      7  C   UNL A   1      34.170  32.175  27.894  1.00  0.00     0.039 A 
ATOM      8  C   UNL A   1      34.289  30.850  28.317  1.00  0.00     0.014 A 
ATOM      9  C   UNL A   1      35.262  33.041  27.987  1.00  0.00     0.014 A 
ATOM     10  C   UNL A   1      35.437  30.442  28.989  1.00  0.00     0.010 A 
ATOM     11  C   UNL A   1      36.449  32.600  28.584  1.00  0.00     0.010 A 
ATOM     12  C   UNL A   1      36.530  31.313  29.136  1.00  0.00    -0.014 A 
BRANCH  12  13
ATOM     13  C   UNL A   1      37.747  30.835  29.844  1.00  0.00     0.031 A 
ATOM     14  C   UNL A   1      38.033  31.227  31.270  1.00  0.00     0.074 A 
ATOM     15  C   UNL A   1      38.592  30.009  29.193  1.00  0.00     0.049 A 
ATOM     16  N   UNL A   1      39.006  30.829  32.051  1.00  0.00    -0.248 NA
ATOM     17  C   UNL A   1      37.123  32.194  31.902  1.00  0.00     0.031 C 
ATOM     18  C   UNL A   1      38.450  29.595  27.796  1.00  0.00     0.029 A 
ATOM     19  N   UNL A   1      39.722  29.360  29.618  1.00  0.00    -0.354 N 
ATOM     20  C   UNL A   1      38.854  31.527  33.243  1.00  0.00     0.074 A 
ATOM     21  C   UNL A   1      37.696  32.379  33.084  1.00  0.00     0.031 C 
ATOM     22  C   UNL A   1      39.426  28.727  27.493  1.00  0.00     0.029 A 
ATOM     23  C   UNL A   1      40.289  28.557  28.656  1.00  0.00     0.049 A 
ATOM     24  H   UNL A   1      40.093  29.459  30.526  1.00  0.00     0.167 HD
ATOM     25  C   UNL A   1      39.599  31.451  34.373  1.00  0.00     0.034 A 
ATOM     26  C   UNL A   1      41.378  27.766  28.703  1.00  0.00     0.034 A 
ATOM     27  C   UNL A   1      40.715  30.560  34.550  1.00  0.00     0.049 A 
ATOM     28  C   UNL A   1      42.151  27.664  29.986  1.00  0.00     0.074 A 
ATOM     29  C   UNL A   1      41.478  30.351  35.687  1.00  0.00     0.029 A 
ATOM     30  N   UNL A   1      41.232  29.732  33.567  1.00  0.00    -0.354 N 
ATOM     31  N   UNL A   1      41.903  28.224  31.145  1.00  0.00    -0.248 NA
ATOM     32  C   UNL A   1      43.339  26.799  29.975  1.00  0.00     0.031 C 
ATOM     33  C   UNL A   1      42.464  29.405  35.387  1.00  0.00     0.029 A 
ATOM     34  C   UNL A   1      42.309  29.016  34.066  1.00  0.00     0.049 A 
ATOM     35  H   UNL A   1      40.885  29.661  32.649  1.00  0.00     0.167 HD
ATOM     36  C   UNL A   1      42.887  27.761  32.008  1.00  0.00     0.074 A 
ATOM     37  C   UNL A   1      43.720  26.853  31.245  1.00  0.00     0.031 C 
ATOM     38  C   UNL A   1      43.096  28.077  33.310  1.00  0.00     0.034 A 
BRANCH  25  39
ATOM     39  C   UNL A   1      39.203  32.325  35.536  1.00  0.00     0.023 A 
ATOM     40  C   UNL A   1      38.347  31.812  36.531  1.00  0.00     0.012 A 
ATOM     41  C   UNL A   1      39.735  33.621  35.684  1.00  0.00     0.148 A 
ATOM     42  C   UNL A   1      38.004  32.584  37.641  1.00  0.00     0.002 A 
ATOM     43  C   UNL A   1      39.416  34.372  36.811  1.00  0.00     0.091 A 
ATOM     44  F   UNL A   1      40.529  34.103  34.717  1.00  0.00    -0.205 F 
ATOM     45  C   UNL A   1      38.546  33.858  37.786  1.00  0.00     0.022 A 
BRANCH  43  46
ATOM     46  S   UNL A   1      40.126  35.995  37.116  1.00  0.00     0.127 S 
ATOM     47  O   UNL A   1      39.453  36.385  38.352  1.00  0.00    -0.237 OA
ATOM     48  O   UNL A   1      41.550  35.691  37.268  1.00  0.00    -0.237 OA
ATOM     49  O   UNL A   1      39.805  36.793  35.941  1.00  0.00    -0.744 OA
ENDBRANCH  43  46
ENDBRANCH  25  39
BRANCH  26  50
ATOM     50  C   UNL A   1      41.747  26.952  27.511  1.00  0.00     0.023 A 
ATOM     51  C   UNL A   1      42.390  27.575  26.425  1.00  0.00     0.012 A 
ATOM     52  C   UNL A   1      41.521  25.563  27.473  1.00  0.00     0.148 A 
ATOM     53  C   UNL A   1      42.785  26.831  25.312  1.00  0.00     0.002 A 
ATOM     54  C   UNL A   1      41.969  24.819  26.388  1.00  0.00     0.091 A 
ATOM     55  F   UNL A   1      40.888  24.991  28.508  1.00  0.00    -0.205 F 
ATOM     56  C   UNL A   1      42.588  25.453  25.300  1.00  0.00     0.022 A 
BRANCH  54  57
ATOM     57  S   UNL A   1      41.885  23.024  26.365  1.00  0.00     0.127 S 
ATOM     58  O   UNL A   1      40.443  22.792  26.375  1.00  0.00    -0.237 OA
ATOM     59  O   UNL A   1      42.554  22.701  25.104  1.00  0.00    -0.237 OA
ATOM     60  O   UNL A   1      42.611  22.590  27.552  1.00  0.00    -0.744 OA
ENDBRANCH  54  57
ENDBRANCH  26  50
BRANCH  38  61
ATOM     61  C   UNL A   1      44.263  27.423  34.001  1.00  0.00     0.023 A 
ATOM     62  C   UNL A   1      45.539  28.017  33.920  1.00  0.00     0.012 A 
ATOM     63  C   UNL A   1      44.089  26.260  34.774  1.00  0.00     0.148 A 
ATOM     64  C   UNL A   1      46.630  27.443  34.572  1.00  0.00     0.002 A 
ATOM     65  C   UNL A   1      45.173  25.718  35.457  1.00  0.00     0.091 A 
ATOM     66  F   UNL A   1      42.874  25.695  34.820  1.00  0.00    -0.205 F 
ATOM     67  C   UNL A   1      46.445  26.302  35.348  1.00  0.00     0.022 A 
BRANCH  65  68
ATOM     68  S   UNL A   1      44.997  24.301  36.548  1.00  0.00     0.127 S 
ATOM     69  O   UNL A   1      46.369  24.109  37.011  1.00  0.00    -0.237 OA
ATOM     70  O   UNL A   1      44.074  24.800  37.568  1.00  0.00    -0.237 OA
ATOM     71  O   UNL A   1      44.453  23.233  35.719  1.00  0.00    -0.744 OA
ENDBRANCH  65  68
ENDBRANCH  38  61
ENDBRANCH  12  13
ENDBRANCH   5   7
ENDBRANCH   2   3
ENDBRANCH   1   2
BRANCH   1  72
ATOM     72  C   UNL A   1      33.570  29.023  25.097  1.00  0.00     0.023 C 
BRANCH  72  73
ATOM     73  C   UNL A   1      33.643  27.826  26.044  1.00  0.00     0.116 C 
BRANCH  73  74
ATOM     74  N   UNL A   1      32.335  27.426  26.538  1.00  0.00    -0.354 N 
ATOM     75  C   UNL A   1      31.493  26.427  26.132  1.00  0.00     0.249 C 
ATOM     76  H   UNL A   1      31.999  27.966  27.290  1.00  0.00     0.163 HD
ATOM     77  O   UNL A   1      30.450  26.251  26.767  1.00  0.00    -0.272 OA
BRANCH  75  78
ATOM     78  C   UNL A   1      31.849  25.577  24.907  1.00  0.00     0.207 C 
ATOM     79  C   UNL A   1      30.695  25.465  23.933  1.00  0.00     0.045 C 
ATOM     80  O   UNL A   1      32.221  24.231  25.202  1.00  0.00    -0.363 OA
ATOM     81  C   UNL A   1      31.102  24.272  23.096  1.00  0.00     0.037 C 
ATOM     82  C   UNL A   1      31.894  23.398  24.071  1.00  0.00     0.139 C 
BRANCH  82  83
ATOM     83  C   UNL A   1      33.183  22.744  23.501  1.00  0.00     0.160 C 
BRANCH  83  84
ATOM     84  N   UNL A   1      33.270  21.316  23.833  1.00  0.00    -0.280 N 
ATOM     85  C   UNL A   1      34.312  20.883  24.634  1.00  0.00     0.229 C 
ATOM     86  C   UNL A   1      32.408  20.441  23.194  1.00  0.00     0.229 C 
ATOM     87  O   UNL A   1      35.291  21.582  24.904  1.00  0.00    -0.274 OA
ATOM     88  C   UNL A   1      34.164  19.528  25.295  1.00  0.00     0.108 C 
ATOM     89  C   UNL A   1      32.049  19.219  23.999  1.00  0.00     0.108 C 
ATOM     90  O   UNL A   1      31.895  20.647  22.099  1.00  0.00    -0.274 OA
ATOM     91  C   UNL A   1      33.252  18.512  24.603  1.00  0.00    -0.012 C 
ATOM     92  C   UNL A   1      32.764  17.472  25.651  1.00  0.00     0.008 C 
ATOM     93  C   UNL A   1      33.999  17.677  23.537  1.00  0.00     0.008 C 
ATOM     94  C   UNL A   1      32.972  16.111  25.014  1.00  0.00     0.001 C 
ATOM     95  C   UNL A   1      34.224  16.315  24.182  1.00  0.00     0.001 C 
ENDBRANCH  83  84
ENDBRANCH  82  83
ENDBRANCH  75  78
ENDBRANCH  73  74
ENDBRANCH  72  73
ENDBRANCH   1  72
TORSDOF 16
ENDMDL
MODEL 3
REMARK VINA RESULT:     -12.6      2.039      2.751
REMARK SMILES O=C(NCCCCNC(=O)[C@@H]1CC[C@@H](CN2C(=O)CC3(CCCC3)CC2=O)O1)c1ccc(-c2c3nc(c(-c4cccc(S(=O)(=O)[O-])c4F)c4ccc([nH]4)c(-c4cccc(S(=O)(=O)[O-])c4F)c4nc(c(-c5cccc(S(=O)(=O)[O-])c5F)c5ccc2[nH]5)C=C4)C=C3)cc1
REMARK SMILES IDX 5 1 4 2 3 3 1 4 2 5 29 7 30 8 91 9 31 10 90 11 32 12 33 13
REMARK SMILES IDX 34 14 84 15 35 16 89 17 83 18 85 19 36 20 88 21 82 22 81 23
REMARK SMILES IDX 37 25 69 26 49 27 68 28 50 29 53 30 67 31 86 32 51 33 52 34
REMARK SMILES IDX 66 36 87 37 54 38 38 39 39 40 47 41 40 42 42 43 48 44 41 45
REMARK SMILES IDX 43 46 44 47 45 48 46 49 70 50 71 51 79 52 72 53 74 54 80 55
REMARK SMILES IDX 73 56 75 57 76 58 77 59 78 60 55 61 56 62 64 63 57 64 59 65
REMARK SMILES IDX 65 66 58 67 60 68 61 69 62 70 63 71 6 72 7 73 8 74 9 75
REMARK SMILES IDX 10 77 11 78 12 79 28 80 13 81 14 82 15 83 16 84 17 85 26 86
REMARK SMILES IDX 18 87 19 88 25 89 27 90 20 91 21 92 24 93 22 94 23 95
REMARK H PARENT 3 6 85 24 53 35 8 76
REMARK Flexibility Score: inf
ROOT
ATOM      1  C   UNL A   1      31.719  30.257  25.728  1.00  0.00     0.023 C 
ENDROOT
BRANCH   1   2
ATOM      2  C   UNL A   1      32.701  30.677  26.815  1.00  0.00     0.116 C 
BRANCH   2   3
ATOM      3  N   UNL A   1      32.665  32.103  27.104  1.00  0.00    -0.352 N 
ATOM      4  O   UNL A   1      33.333  34.039  28.047  1.00  0.00    -0.269 OA
ATOM      5  C   UNL A   1      33.586  32.866  27.787  1.00  0.00     0.251 C 
ATOM      6  H   UNL A   1      31.878  32.586  26.766  1.00  0.00     0.163 HD
BRANCH   5   7
ATOM      7  C   UNL A   1      34.855  32.251  28.239  1.00  0.00     0.039 A 
ATOM      8  C   UNL A   1      34.869  30.958  28.765  1.00  0.00     0.014 A 
ATOM      9  C   UNL A   1      36.037  32.995  28.177  1.00  0.00     0.014 A 
ATOM     10  C   UNL A   1      36.018  30.478  29.385  1.00  0.00     0.010 A 
ATOM     11  C   UNL A   1      37.216  32.471  28.722  1.00  0.00     0.010 A 
ATOM     12  C   UNL A   1      37.205  31.230  29.376  1.00  0.00    -0.014 A 
BRANCH  12  13
ATOM     13  C   UNL A   1      38.419  30.676  30.031  1.00  0.00     0.031 A 
ATOM     14  C   UNL A   1      38.779  31.032  31.450  1.00  0.00     0.074 A 
ATOM     15  C   UNL A   1      39.191  29.813  29.340  1.00  0.00     0.049 A 
ATOM     16  N   UNL A   1      39.757  30.569  32.189  1.00  0.00    -0.248 NA
ATOM     17  C   UNL A   1      37.948  32.039  32.127  1.00  0.00     0.031 C 
ATOM     18  C   UNL A   1      38.975  29.426  27.944  1.00  0.00     0.029 A 
ATOM     19  N   UNL A   1      40.299  29.096  29.715  1.00  0.00    -0.354 N 
ATOM     20  C   UNL A   1      39.688  31.259  33.395  1.00  0.00     0.074 A 
ATOM     21  C   UNL A   1      38.574  32.176  33.289  1.00  0.00     0.031 C 
ATOM     22  C   UNL A   1      39.889  28.510  27.595  1.00  0.00     0.029 A 
ATOM     23  C   UNL A   1      40.783  28.276  28.723  1.00  0.00     0.049 A 
ATOM     24  H   UNL A   1      40.707  29.162  30.609  1.00  0.00     0.167 HD
ATOM     25  C   UNL A   1      40.468  31.126  34.495  1.00  0.00     0.034 A 
ATOM     26  C   UNL A   1      41.827  27.426  28.720  1.00  0.00     0.034 A 
ATOM     27  C   UNL A   1      41.539  30.172  34.619  1.00  0.00     0.049 A 
ATOM     28  C   UNL A   1      42.640  27.263  29.971  1.00  0.00     0.074 A 
ATOM     29  C   UNL A   1      42.330  29.906  35.724  1.00  0.00     0.029 A 
ATOM     30  N   UNL A   1      41.972  29.330  33.608  1.00  0.00    -0.354 N 
ATOM     31  N   UNL A   1      42.467  27.820  31.145  1.00  0.00    -0.248 NA
ATOM     32  C   UNL A   1      43.777  26.334  29.906  1.00  0.00     0.031 C 
ATOM     33  C   UNL A   1      43.250  28.911  35.376  1.00  0.00     0.029 A 
ATOM     34  C   UNL A   1      43.024  28.549  34.058  1.00  0.00     0.049 A 
ATOM     35  H   UNL A   1      41.587  29.291  32.703  1.00  0.00     0.167 HD
ATOM     36  C   UNL A   1      43.455  27.292  31.965  1.00  0.00     0.074 A 
ATOM     37  C   UNL A   1      44.207  26.349  31.161  1.00  0.00     0.031 C 
ATOM     38  C   UNL A   1      43.730  27.577  33.262  1.00  0.00     0.034 A 
BRANCH  25  39
ATOM     39  C   UNL A   1      40.166  32.004  35.682  1.00  0.00     0.023 A 
ATOM     40  C   UNL A   1      40.948  33.153  35.914  1.00  0.00     0.012 A 
ATOM     41  C   UNL A   1      39.067  31.736  36.522  1.00  0.00     0.148 A 
ATOM     42  C   UNL A   1      40.659  34.007  36.979  1.00  0.00     0.002 A 
ATOM     43  C   UNL A   1      38.764  32.611  37.560  1.00  0.00     0.091 A 
ATOM     44  F   UNL A   1      38.347  30.626  36.303  1.00  0.00    -0.205 F 
ATOM     45  C   UNL A   1      39.563  33.742  37.794  1.00  0.00     0.022 A 
BRANCH  43  46
ATOM     46  S   UNL A   1      37.327  32.387  38.617  1.00  0.00     0.127 S 
ATOM     47  O   UNL A   1      36.276  33.024  37.826  1.00  0.00    -0.237 OA
ATOM     48  O   UNL A   1      37.225  30.929  38.702  1.00  0.00    -0.237 OA
ATOM     49  O   UNL A   1      37.656  33.039  39.876  1.00  0.00    -0.744 OA
ENDBRANCH  43  46
ENDBRANCH  25  39
BRANCH  26  50
ATOM     50  C   UNL A   1      42.105  26.608  27.506  1.00  0.00     0.023 A 
ATOM     51  C   UNL A   1      42.752  27.207  26.407  1.00  0.00     0.012 A 
ATOM     52  C   UNL A   1      41.791  25.237  27.456  1.00  0.00     0.148 A 
ATOM     53  C   UNL A   1      43.064  26.457  25.272  1.00  0.00     0.002 A 
ATOM     54  C   UNL A   1      42.156  24.484  26.347  1.00  0.00     0.091 A 
ATOM     55  F   UNL A   1      41.157  24.690  28.504  1.00  0.00    -0.205 F 
ATOM     56  C   UNL A   1      42.779  25.094  25.247  1.00  0.00     0.022 A 
BRANCH  54  57
ATOM     57  S   UNL A   1      41.958  22.698  26.303  1.00  0.00     0.127 S 
ATOM     58  O   UNL A   1      40.504  22.558  26.314  1.00  0.00    -0.237 OA
ATOM     59  O   UNL A   1      42.603  22.348  25.036  1.00  0.00    -0.237 OA
ATOM     60  O   UNL A   1      42.656  22.204  27.482  1.00  0.00    -0.744 OA
ENDBRANCH  54  57
ENDBRANCH  26  50
BRANCH  38  61
ATOM     61  C   UNL A   1      44.883  26.850  33.901  1.00  0.00     0.023 A 
ATOM     62  C   UNL A   1      46.175  27.411  33.842  1.00  0.00     0.012 A 
ATOM     63  C   UNL A   1      44.681  25.648  34.605  1.00  0.00     0.148 A 
ATOM     64  C   UNL A   1      47.254  26.769  34.448  1.00  0.00     0.002 A 
ATOM     65  C   UNL A   1      45.754  25.036  35.243  1.00  0.00     0.091 A 
ATOM     66  F   UNL A   1      43.450  25.117  34.630  1.00  0.00    -0.205 F 
ATOM     67  C   UNL A   1      47.042  25.588  35.157  1.00  0.00     0.022 A 
BRANCH  65  68
ATOM     68  S   UNL A   1      45.546  23.562  36.250  1.00  0.00     0.127 S 
ATOM     69  O   UNL A   1      44.713  22.726  35.388  1.00  0.00    -0.237 OA
ATOM     70  O   UNL A   1      46.923  23.091  36.410  1.00  0.00    -0.237 OA
ATOM     71  O   UNL A   1      44.922  24.017  37.486  1.00  0.00    -0.744 OA
ENDBRANCH  65  68
ENDBRANCH  38  61
ENDBRANCH  12  13
ENDBRANCH   5   7
ENDBRANCH   2   3
ENDBRANCH   1   2
BRANCH   1  72
ATOM     72  C   UNL A   1      31.762  28.778  25.345  1.00  0.00     0.023 C 
BRANCH  72  73
ATOM     73  C   UNL A   1      32.107  27.829  26.492  1.00  0.00     0.116 C 
BRANCH  73  74
ATOM     74  N   UNL A   1      31.040  26.883  26.772  1.00  0.00    -0.354 N 
ATOM     75  C   UNL A   1      30.769  25.654  26.234  1.00  0.00     0.249 C 
ATOM     76  H   UNL A   1      30.404  27.176  27.466  1.00  0.00     0.163 HD
ATOM     77  O   UNL A   1      29.823  25.012  26.697  1.00  0.00    -0.272 OA
BRANCH  75  78
ATOM     78  C   UNL A   1      31.620  25.123  25.074  1.00  0.00     0.207 C 
ATOM     79  C   UNL A   1      31.006  25.433  23.725  1.00  0.00     0.045 C 
ATOM     80  O   UNL A   1      31.819  23.709  25.079  1.00  0.00    -0.363 OA
ATOM     81  C   UNL A   1      31.732  24.463  22.818  1.00  0.00     0.037 C 
ATOM     82  C   UNL A   1      32.014  23.262  23.723  1.00  0.00     0.139 C 
BRANCH  82  83
ATOM     83  C   UNL A   1      33.420  22.616  23.573  1.00  0.00     0.160 C 
BRANCH  83  84
ATOM     84  N   UNL A   1      33.401  21.178  23.873  1.00  0.00    -0.280 N 
ATOM     85  C   UNL A   1      32.528  20.366  23.172  1.00  0.00     0.229 C 
ATOM     86  C   UNL A   1      34.131  20.725  24.958  1.00  0.00     0.229 C 
ATOM     87  O   UNL A   1      31.613  20.804  22.471  1.00  0.00    -0.274 OA
ATOM     88  C   UNL A   1      32.800  18.876  23.188  1.00  0.00     0.108 C 
ATOM     89  C   UNL A   1      34.639  19.313  24.825  1.00  0.00     0.108 C 
ATOM     90  O   UNL A   1      34.431  21.413  25.929  1.00  0.00    -0.274 OA
ATOM     91  C   UNL A   1      33.571  18.322  24.389  1.00  0.00    -0.012 C 
ATOM     92  C   UNL A   1      34.249  16.983  23.983  1.00  0.00     0.008 C 
ATOM     93  C   UNL A   1      32.642  17.952  25.568  1.00  0.00     0.008 C 
ATOM     94  C   UNL A   1      33.930  16.001  25.095  1.00  0.00     0.001 C 
ATOM     95  C   UNL A   1      32.545  16.431  25.539  1.00  0.00     0.001 C 
ENDBRANCH  83  84
ENDBRANCH  82  83
ENDBRANCH  75  78
ENDBRANCH  73  74
ENDBRANCH  72  73
ENDBRANCH   1  72
TORSDOF 16
ENDMDL
