MODEL 1
REMARK VINA RESULT:     -11.6      0.000      0.000
REMARK SMILES Cc1ccc(C(N)=O)c(NCc2ccc(C(=O)NCCCCNC(=O)c3ccc(-c4c5nc(c(-c6cccc(S(=O)(=O)[O-])c6F)c6ccc([nH]6)c(-c6cccc(S(=O)(=O)[O-])c6F)c6nc(c(-c7cccc(S(=O)(=O)[O-])c7F)c7ccc4[nH]7)C=C6)C=C5)cc3)o2)n1
REMARK SMILES IDX 20 1 19 2 18 3 16 4 17 5 15 7 12 8 13 9 89 10 14 11 11 12
REMARK SMILES IDX 10 13 9 15 1 16 2 17 3 18 90 19 4 20 5 21 6 22 7 23 8 24
REMARK SMILES IDX 21 27 22 28 23 29 24 30 25 32 26 33 27 34 88 35 28 36 87 37
REMARK SMILES IDX 29 38 30 39 31 40 81 41 32 42 86 43 80 44 82 45 33 46 85 47
REMARK SMILES IDX 79 48 78 49 34 51 66 52 46 53 65 54 47 55 50 56 64 57 83 58
REMARK SMILES IDX 48 59 49 60 63 62 84 63 51 64 35 65 36 66 44 67 37 68 39 69
REMARK SMILES IDX 45 70 38 71 40 72 41 73 42 74 43 75 67 76 68 77 76 78 69 79
REMARK SMILES IDX 71 80 77 81 70 82 72 83 73 84 74 85 75 86 52 87 53 88 61 89
REMARK SMILES IDX 54 90 56 91 62 92 55 93 57 94 58 95 59 96 60 97
REMARK H PARENT 18 6 10 14 7 25 7 26 23 31 82 50 50 61
REMARK Flexibility Score: inf
ROOT
ATOM      1  C   UNL A   1      31.719  29.099  25.298  1.00  0.00     0.023 C 
ENDROOT
BRANCH   1   2
ATOM      2  C   UNL A   1      31.084  28.285  24.172  1.00  0.00     0.116 C 
BRANCH   2   3
ATOM      3  N   UNL A   1      32.090  27.757  23.278  1.00  0.00    -0.349 N 
ATOM      4  C   UNL A   1      32.469  26.462  23.007  1.00  0.00     0.286 C 
ATOM      5  O   UNL A   1      33.314  26.320  22.121  1.00  0.00    -0.266 OA
ATOM      6  H   UNL A   1      32.590  28.442  22.776  1.00  0.00     0.163 HD
BRANCH   4   7
ATOM      7  C   UNL A   1      31.884  25.338  23.720  1.00  0.00     0.191 A 
ATOM      8  C   UNL A   1      31.716  24.016  25.491  1.00  0.00     0.124 A 
ATOM      9  C   UNL A   1      30.829  23.527  24.559  1.00  0.00     0.048 A 
ATOM     10  O   UNL A   1      32.365  25.100  24.988  1.00  0.00    -0.454 OA
ATOM     11  C   UNL A   1      30.892  24.407  23.455  1.00  0.00     0.056 A 
BRANCH   8  12
ATOM     12  C   UNL A   1      32.050  23.624  26.890  1.00  0.00     0.190 C 
BRANCH  12  13
ATOM     13  N   UNL A   1      32.597  22.278  26.983  1.00  0.00    -0.362 N 
ATOM     14  H   UNL A   1      32.124  21.595  27.511  1.00  0.00     0.162 HD
BRANCH  13  15
ATOM     15  C   UNL A   1      33.777  21.949  26.339  1.00  0.00     0.139 A 
ATOM     16  C   UNL A   1      37.008  23.659  25.863  1.00  0.00     0.067 C 
ATOM     17  C   UNL A   1      35.960  22.593  25.777  1.00  0.00     0.040 A 
ATOM     18  C   UNL A   1      36.208  21.390  25.137  1.00  0.00     0.024 A 
ATOM     19  N   UNL A   1      34.766  22.874  26.352  1.00  0.00    -0.236 NA
ATOM     20  C   UNL A   1      35.190  20.447  25.091  1.00  0.00     0.019 A 
ATOM     21  C   UNL A   1      33.951  20.722  25.686  1.00  0.00     0.081 A 
BRANCH  21  22
ATOM     22  C   UNL A   1      32.896  19.682  25.550  1.00  0.00     0.252 C 
ATOM     23  N   UNL A   1      33.000  18.553  26.313  1.00  0.00    -0.365 N 
ATOM     24  O   UNL A   1      31.933  19.844  24.808  1.00  0.00    -0.269 OA
ATOM     25  H   UNL A   1      33.776  18.430  26.906  1.00  0.00     0.159 HD
ATOM     26  H   UNL A   1      32.300  17.864  26.269  1.00  0.00     0.159 HD
ENDBRANCH  21  22
ENDBRANCH  13  15
ENDBRANCH  12  13
ENDBRANCH   8  12
ENDBRANCH   4   7
ENDBRANCH   2   3
ENDBRANCH   1   2
BRANCH   1  27
ATOM     27  C   UNL A   1      32.101  28.261  26.523  1.00  0.00     0.023 C 
BRANCH  27  28
ATOM     28  C   UNL A   1      33.367  28.715  27.242  1.00  0.00     0.116 C 
BRANCH  28  29
ATOM     29  N   UNL A   1      33.427  30.156  27.452  1.00  0.00    -0.352 N 
ATOM     30  C   UNL A   1      34.452  30.887  28.003  1.00  0.00     0.251 C 
ATOM     31  H   UNL A   1      32.636  30.667  27.165  1.00  0.00     0.163 HD
ATOM     32  O   UNL A   1      34.316  32.086  28.225  1.00  0.00    -0.269 OA
BRANCH  30  33
ATOM     33  C   UNL A   1      35.707  30.194  28.356  1.00  0.00     0.039 A 
ATOM     34  C   UNL A   1      36.776  30.223  27.458  1.00  0.00     0.014 A 
ATOM     35  C   UNL A   1      35.842  29.585  29.606  1.00  0.00     0.014 A 
ATOM     36  C   UNL A   1      38.010  29.696  27.845  1.00  0.00     0.010 A 
ATOM     37  C   UNL A   1      37.091  29.134  30.016  1.00  0.00     0.010 A 
ATOM     38  C   UNL A   1      38.187  29.183  29.140  1.00  0.00    -0.014 A 
BRANCH  38  39
ATOM     39  C   UNL A   1      39.506  28.692  29.613  1.00  0.00     0.031 A 
ATOM     40  C   UNL A   1      40.235  29.439  30.696  1.00  0.00     0.074 A 
ATOM     41  C   UNL A   1      40.093  27.645  28.999  1.00  0.00     0.049 A 
ATOM     42  N   UNL A   1      41.439  29.245  31.165  1.00  0.00    -0.248 NA
ATOM     43  C   UNL A   1      39.527  30.574  31.314  1.00  0.00     0.031 C 
ATOM     44  C   UNL A   1      39.516  26.879  27.891  1.00  0.00     0.029 A 
ATOM     45  N   UNL A   1      41.322  27.066  29.196  1.00  0.00    -0.354 N 
ATOM     46  C   UNL A   1      41.651  30.255  32.096  1.00  0.00     0.074 A 
ATOM     47  C   UNL A   1      40.463  31.079  32.103  1.00  0.00     0.031 C 
ATOM     48  C   UNL A   1      40.390  25.935  27.507  1.00  0.00     0.029 A 
ATOM     49  C   UNL A   1      41.603  26.051  28.309  1.00  0.00     0.049 A 
ATOM     50  H   UNL A   1      41.945  27.350  29.904  1.00  0.00     0.167 HD
ATOM     51  C   UNL A   1      42.725  30.463  32.893  1.00  0.00     0.034 A 
ATOM     52  C   UNL A   1      42.719  25.312  28.149  1.00  0.00     0.034 A 
ATOM     53  C   UNL A   1      43.887  29.617  32.909  1.00  0.00     0.049 A 
ATOM     54  C   UNL A   1      43.890  25.549  29.063  1.00  0.00     0.074 A 
ATOM     55  C   UNL A   1      44.994  29.695  33.735  1.00  0.00     0.029 A 
ATOM     56  N   UNL A   1      44.098  28.545  32.056  1.00  0.00    -0.354 N 
ATOM     57  N   UNL A   1      44.017  26.423  30.032  1.00  0.00    -0.248 NA
ATOM     58  C   UNL A   1      45.061  24.678  28.886  1.00  0.00     0.031 C 
ATOM     59  C   UNL A   1      45.890  28.689  33.359  1.00  0.00     0.029 A 
ATOM     60  C   UNL A   1      45.320  27.957  32.329  1.00  0.00     0.049 A 
ATOM     61  H   UNL A   1      43.470  28.246  31.358  1.00  0.00     0.167 HD
ATOM     62  C   UNL A   1      45.256  26.173  30.612  1.00  0.00     0.074 A 
ATOM     63  C   UNL A   1      45.838  25.061  29.889  1.00  0.00     0.031 C 
ATOM     64  C   UNL A   1      45.859  26.811  31.644  1.00  0.00     0.034 A 
BRANCH  51  65
ATOM     65  C   UNL A   1      42.678  31.630  33.844  1.00  0.00     0.023 A 
ATOM     66  C   UNL A   1      43.042  32.915  33.393  1.00  0.00     0.012 A 
ATOM     67  C   UNL A   1      42.220  31.467  35.166  1.00  0.00     0.148 A 
ATOM     68  C   UNL A   1      42.987  34.012  34.250  1.00  0.00     0.002 A 
ATOM     69  C   UNL A   1      42.120  32.573  36.001  1.00  0.00     0.091 A 
ATOM     70  F   UNL A   1      41.899  30.234  35.584  1.00  0.00    -0.205 F 
ATOM     71  C   UNL A   1      42.516  33.844  35.549  1.00  0.00     0.022 A 
BRANCH  69  72
ATOM     72  S   UNL A   1      41.447  32.476  37.663  1.00  0.00     0.127 S 
ATOM     73  O   UNL A   1      41.616  33.852  38.130  1.00  0.00    -0.237 OA
ATOM     74  O   UNL A   1      40.061  32.085  37.409  1.00  0.00    -0.237 OA
ATOM     75  O   UNL A   1      42.244  31.478  38.362  1.00  0.00    -0.744 OA
ENDBRANCH  69  72
ENDBRANCH  51  65
BRANCH  52  76
ATOM     76  C   UNL A   1      42.765  24.241  27.112  1.00  0.00     0.023 A 
ATOM     77  C   UNL A   1      43.473  24.466  25.915  1.00  0.00     0.012 A 
ATOM     78  C   UNL A   1      42.126  23.002  27.309  1.00  0.00     0.148 A 
ATOM     79  C   UNL A   1      43.511  23.491  24.916  1.00  0.00     0.002 A 
ATOM     80  C   UNL A   1      42.216  22.014  26.335  1.00  0.00     0.091 A 
ATOM     81  F   UNL A   1      41.451  22.810  28.451  1.00  0.00    -0.205 F 
ATOM     82  C   UNL A   1      42.891  22.263  25.131  1.00  0.00     0.022 A 
BRANCH  80  83
ATOM     83  S   UNL A   1      41.560  20.360  26.575  1.00  0.00     0.127 S 
ATOM     84  O   UNL A   1      40.120  20.607  26.581  1.00  0.00    -0.237 OA
ATOM     85  O   UNL A   1      42.061  19.662  25.389  1.00  0.00    -0.237 OA
ATOM     86  O   UNL A   1      42.127  19.889  27.832  1.00  0.00    -0.744 OA
ENDBRANCH  80  83
ENDBRANCH  52  76
BRANCH  64  87
ATOM     87  C   UNL A   1      47.190  26.289  32.116  1.00  0.00     0.023 A 
ATOM     88  C   UNL A   1      47.255  25.341  33.156  1.00  0.00     0.012 A 
ATOM     89  C   UNL A   1      48.374  26.673  31.454  1.00  0.00     0.148 A 
ATOM     90  C   UNL A   1      48.481  24.806  33.549  1.00  0.00     0.002 A 
ATOM     91  C   UNL A   1      49.584  26.094  31.814  1.00  0.00     0.091 A 
ATOM     92  F   UNL A   1      48.291  27.589  30.478  1.00  0.00    -0.205 F 
ATOM     93  C   UNL A   1      49.642  25.171  32.870  1.00  0.00     0.022 A 
BRANCH  91  94
ATOM     94  S   UNL A   1      51.111  26.426  30.928  1.00  0.00     0.127 S 
ATOM     95  O   UNL A   1      51.991  25.383  31.452  1.00  0.00    -0.237 OA
ATOM     96  O   UNL A   1      50.705  26.240  29.534  1.00  0.00    -0.237 OA
ATOM     97  O   UNL A   1      51.490  27.789  31.272  1.00  0.00    -0.744 OA
ENDBRANCH  91  94
ENDBRANCH  64  87
ENDBRANCH  38  39
ENDBRANCH  30  33
ENDBRANCH  28  29
ENDBRANCH  27  28
ENDBRANCH   1  27
TORSDOF 18
ENDMDL
MODEL 2
REMARK VINA RESULT:     -11.4      4.596      8.200
REMARK SMILES Cc1ccc(C(N)=O)c(NCc2ccc(C(=O)NCCCCNC(=O)c3ccc(-c4c5nc(c(-c6cccc(S(=O)(=O)[O-])c6F)c6ccc([nH]6)c(-c6cccc(S(=O)(=O)[O-])c6F)c6nc(c(-c7cccc(S(=O)(=O)[O-])c7F)c7ccc4[nH]7)C=C6)C=C5)cc3)o2)n1
REMARK SMILES IDX 20 1 19 2 18 3 16 4 17 5 15 7 12 8 13 9 89 10 14 11 11 12
REMARK SMILES IDX 10 13 9 15 1 16 2 17 3 18 90 19 4 20 5 21 6 22 7 23 8 24
REMARK SMILES IDX 21 27 22 28 23 29 24 30 25 32 26 33 27 34 88 35 28 36 87 37
REMARK SMILES IDX 29 38 30 39 31 40 81 41 32 42 86 43 80 44 82 45 33 46 85 47
REMARK SMILES IDX 79 48 78 49 34 51 66 52 46 53 65 54 47 55 50 56 64 57 83 58
REMARK SMILES IDX 48 59 49 60 63 62 84 63 51 64 35 65 36 66 44 67 37 68 39 69
REMARK SMILES IDX 45 70 38 71 40 72 41 73 42 74 43 75 67 76 68 77 76 78 69 79
REMARK SMILES IDX 71 80 77 81 70 82 72 83 73 84 74 85 75 86 52 87 53 88 61 89
REMARK SMILES IDX 54 90 56 91 62 92 55 93 57 94 58 95 59 96 60 97
REMARK H PARENT 18 6 10 14 7 25 7 26 23 31 82 50 50 61
REMARK Flexibility Score: inf
ROOT
ATOM      1  C   UNL A   1      37.155  21.067  24.508  1.00  0.00     0.023 C 
ENDROOT
BRANCH   1   2
ATOM      2  C   UNL A   1      36.368  21.667  25.673  1.00  0.00     0.116 C 
BRANCH   2   3
ATOM      3  N   UNL A   1      35.190  20.881  25.967  1.00  0.00    -0.349 N 
ATOM      4  C   UNL A   1      33.926  20.910  25.423  1.00  0.00     0.286 C 
ATOM      5  O   UNL A   1      33.144  20.048  25.829  1.00  0.00    -0.266 OA
ATOM      6  H   UNL A   1      35.313  20.212  26.679  1.00  0.00     0.163 HD
BRANCH   4   7
ATOM      7  C   UNL A   1      33.557  21.892  24.416  1.00  0.00     0.191 A 
ATOM      8  C   UNL A   1      32.060  23.106  23.323  1.00  0.00     0.124 A 
ATOM      9  C   UNL A   1      33.281  23.403  22.762  1.00  0.00     0.048 A 
ATOM     10  O   UNL A   1      32.216  22.187  24.312  1.00  0.00    -0.454 OA
ATOM     11  C   UNL A   1      34.241  22.675  23.501  1.00  0.00     0.056 A 
BRANCH   8  12
ATOM     12  C   UNL A   1      30.677  23.610  23.087  1.00  0.00     0.190 C 
BRANCH  12  13
ATOM     13  N   UNL A   1      30.144  24.348  24.224  1.00  0.00    -0.362 N 
ATOM     14  H   UNL A   1      29.522  23.905  24.844  1.00  0.00     0.162 HD
BRANCH  13  15
ATOM     15  C   UNL A   1      30.502  25.668  24.440  1.00  0.00     0.139 A 
ATOM     16  C   UNL A   1      29.601  28.869  22.849  1.00  0.00     0.067 C 
ATOM     17  C   UNL A   1      30.251  27.907  23.796  1.00  0.00     0.040 A 
ATOM     18  C   UNL A   1      31.092  28.348  24.804  1.00  0.00     0.024 A 
ATOM     19  N   UNL A   1      29.974  26.595  23.606  1.00  0.00    -0.236 NA
ATOM     20  C   UNL A   1      31.664  27.402  25.645  1.00  0.00     0.019 A 
ATOM     21  C   UNL A   1      31.381  26.041  25.465  1.00  0.00     0.081 A 
BRANCH  21  22
ATOM     22  C   UNL A   1      32.072  25.087  26.373  1.00  0.00     0.252 C 
ATOM     23  N   UNL A   1      33.434  25.001  26.304  1.00  0.00    -0.365 N 
ATOM     24  O   UNL A   1      31.449  24.425  27.196  1.00  0.00    -0.269 OA
ATOM     25  H   UNL A   1      33.928  25.536  25.642  1.00  0.00     0.159 HD
ATOM     26  H   UNL A   1      33.921  24.404  26.916  1.00  0.00     0.159 HD
ENDBRANCH  21  22
ENDBRANCH  13  15
ENDBRANCH  12  13
ENDBRANCH   8  12
ENDBRANCH   4   7
ENDBRANCH   2   3
ENDBRANCH   1   2
BRANCH   1  27
ATOM     27  C   UNL A   1      37.925  19.795  24.878  1.00  0.00     0.023 C 
BRANCH  27  28
ATOM     28  C   UNL A   1      38.863  19.937  26.072  1.00  0.00     0.116 C 
BRANCH  28  29
ATOM     29  N   UNL A   1      40.078  19.140  25.950  1.00  0.00    -0.352 N 
ATOM     30  C   UNL A   1      41.380  19.561  26.080  1.00  0.00     0.251 C 
ATOM     31  H   UNL A   1      39.949  18.186  25.749  1.00  0.00     0.163 HD
ATOM     32  O   UNL A   1      42.311  18.800  25.835  1.00  0.00    -0.269 OA
BRANCH  30  33
ATOM     33  C   UNL A   1      41.637  20.957  26.487  1.00  0.00     0.039 A 
ATOM     34  C   UNL A   1      42.023  21.223  27.802  1.00  0.00     0.014 A 
ATOM     35  C   UNL A   1      41.566  21.985  25.543  1.00  0.00     0.014 A 
ATOM     36  C   UNL A   1      42.406  22.518  28.155  1.00  0.00     0.010 A 
ATOM     37  C   UNL A   1      42.023  23.254  25.877  1.00  0.00     0.010 A 
ATOM     38  C   UNL A   1      42.446  23.534  27.186  1.00  0.00    -0.014 A 
BRANCH  38  39
ATOM     39  C   UNL A   1      42.929  24.902  27.506  1.00  0.00     0.031 A 
ATOM     40  C   UNL A   1      41.993  25.894  28.140  1.00  0.00     0.074 A 
ATOM     41  C   UNL A   1      44.167  25.282  27.131  1.00  0.00     0.049 A 
ATOM     42  N   UNL A   1      42.180  27.163  28.389  1.00  0.00    -0.248 NA
ATOM     43  C   UNL A   1      40.656  25.401  28.517  1.00  0.00     0.031 C 
ATOM     44  C   UNL A   1      45.145  24.431  26.449  1.00  0.00     0.029 A 
ATOM     45  N   UNL A   1      44.801  26.495  27.238  1.00  0.00    -0.354 N 
ATOM     46  C   UNL A   1      40.978  27.629  28.908  1.00  0.00     0.074 A 
ATOM     47  C   UNL A   1      40.057  26.515  28.908  1.00  0.00     0.031 C 
ATOM     48  C   UNL A   1      46.252  25.149  26.198  1.00  0.00     0.029 A 
ATOM     49  C   UNL A   1      46.051  26.517  26.662  1.00  0.00     0.049 A 
ATOM     50  H   UNL A   1      44.400  27.276  27.684  1.00  0.00     0.167 HD
ATOM     51  C   UNL A   1      40.675  28.866  29.368  1.00  0.00     0.034 A 
ATOM     52  C   UNL A   1      46.927  27.530  26.508  1.00  0.00     0.034 A 
ATOM     53  C   UNL A   1      41.608  29.959  29.401  1.00  0.00     0.049 A 
ATOM     54  C   UNL A   1      46.574  28.890  27.049  1.00  0.00     0.074 A 
ATOM     55  C   UNL A   1      41.425  31.228  29.921  1.00  0.00     0.029 A 
ATOM     56  N   UNL A   1      42.895  29.918  28.888  1.00  0.00    -0.354 N 
ATOM     57  N   UNL A   1      45.481  29.276  27.661  1.00  0.00    -0.248 NA
ATOM     58  C   UNL A   1      47.587  29.946  26.908  1.00  0.00     0.031 C 
ATOM     59  C   UNL A   1      42.591  31.966  29.691  1.00  0.00     0.029 A 
ATOM     60  C   UNL A   1      43.516  31.141  29.071  1.00  0.00     0.049 A 
ATOM     61  H   UNL A   1      43.306  29.134  28.457  1.00  0.00     0.167 HD
ATOM     62  C   UNL A   1      45.694  30.601  28.023  1.00  0.00     0.074 A 
ATOM     63  C   UNL A   1      47.025  30.949  27.568  1.00  0.00     0.031 C 
ATOM     64  C   UNL A   1      44.863  31.454  28.669  1.00  0.00     0.034 A 
BRANCH  51  65
ATOM     65  C   UNL A   1      39.289  29.094  29.911  1.00  0.00     0.023 A 
ATOM     66  C   UNL A   1      38.980  28.696  31.228  1.00  0.00     0.012 A 
ATOM     67  C   UNL A   1      38.311  29.752  29.141  1.00  0.00     0.148 A 
ATOM     68  C   UNL A   1      37.709  28.915  31.757  1.00  0.00     0.002 A 
ATOM     69  C   UNL A   1      37.062  30.012  29.693  1.00  0.00     0.091 A 
ATOM     70  F   UNL A   1      38.616  30.105  27.884  1.00  0.00    -0.205 F 
ATOM     71  C   UNL A   1      36.755  29.582  30.995  1.00  0.00     0.022 A 
BRANCH  69  72
ATOM     72  S   UNL A   1      35.792  30.939  28.824  1.00  0.00     0.127 S 
ATOM     73  O   UNL A   1      36.595  31.867  28.030  1.00  0.00    -0.237 OA
ATOM     74  O   UNL A   1      35.126  29.892  28.049  1.00  0.00    -0.237 OA
ATOM     75  O   UNL A   1      34.966  31.552  29.854  1.00  0.00    -0.744 OA
ENDBRANCH  69  72
ENDBRANCH  51  65
BRANCH  52  76
ATOM     76  C   UNL A   1      48.246  27.287  25.857  1.00  0.00     0.023 A 
ATOM     77  C   UNL A   1      49.335  26.856  26.639  1.00  0.00     0.012 A 
ATOM     78  C   UNL A   1      48.425  27.465  24.471  1.00  0.00     0.148 A 
ATOM     79  C   UNL A   1      50.588  26.645  26.061  1.00  0.00     0.002 A 
ATOM     80  C   UNL A   1      49.660  27.198  23.892  1.00  0.00     0.091 A 
ATOM     81  F   UNL A   1      47.378  27.883  23.745  1.00  0.00    -0.205 F 
ATOM     82  C   UNL A   1      50.747  26.807  24.688  1.00  0.00     0.022 A 
BRANCH  80  83
ATOM     83  S   UNL A   1      49.925  27.255  22.117  1.00  0.00     0.127 S 
ATOM     84  O   UNL A   1      48.892  26.345  21.631  1.00  0.00    -0.237 OA
ATOM     85  O   UNL A   1      49.690  28.670  21.824  1.00  0.00    -0.237 OA
ATOM     86  O   UNL A   1      51.300  26.820  21.910  1.00  0.00    -0.744 OA
ENDBRANCH  80  83
ENDBRANCH  52  76
BRANCH  64  87
ATOM     87  C   UNL A   1      45.377  32.831  28.994  1.00  0.00     0.023 A 
ATOM     88  C   UNL A   1      46.166  33.044  30.142  1.00  0.00     0.012 A 
ATOM     89  C   UNL A   1      45.152  33.898  28.100  1.00  0.00     0.148 A 
ATOM     90  C   UNL A   1      46.698  34.305  30.408  1.00  0.00     0.002 A 
ATOM     91  C   UNL A   1      45.732  35.136  28.344  1.00  0.00     0.091 A 
ATOM     92  F   UNL A   1      44.384  33.677  27.023  1.00  0.00    -0.205 F 
ATOM     93  C   UNL A   1      46.494  35.345  29.504  1.00  0.00     0.022 A 
BRANCH  91  94
ATOM     94  S   UNL A   1      45.609  36.502  27.186  1.00  0.00     0.127 S 
ATOM     95  O   UNL A   1      46.402  37.533  27.854  1.00  0.00    -0.237 OA
ATOM     96  O   UNL A   1      46.225  35.942  25.982  1.00  0.00    -0.237 OA
ATOM     97  O   UNL A   1      44.188  36.797  27.057  1.00  0.00    -0.744 OA
ENDBRANCH  91  94
ENDBRANCH  64  87
ENDBRANCH  38  39
ENDBRANCH  30  33
ENDBRANCH  28  29
ENDBRANCH  27  28
ENDBRANCH   1  27
TORSDOF 18
ENDMDL
MODEL 3
REMARK VINA RESULT:     -11.3      3.768      8.856
REMARK SMILES Cc1ccc(C(N)=O)c(NCc2ccc(C(=O)NCCCCNC(=O)c3ccc(-c4c5nc(c(-c6cccc(S(=O)(=O)[O-])c6F)c6ccc([nH]6)c(-c6cccc(S(=O)(=O)[O-])c6F)c6nc(c(-c7cccc(S(=O)(=O)[O-])c7F)c7ccc4[nH]7)C=C6)C=C5)cc3)o2)n1
REMARK SMILES IDX 20 1 19 2 18 3 16 4 17 5 15 7 12 8 13 9 89 10 14 11 11 12
REMARK SMILES IDX 10 13 9 15 1 16 2 17 3 18 90 19 4 20 5 21 6 22 7 23 8 24
REMARK SMILES IDX 21 27 22 28 23 29 24 30 25 32 26 33 27 34 88 35 28 36 87 37
REMARK SMILES IDX 29 38 30 39 31 40 81 41 32 42 86 43 80 44 82 45 33 46 85 47
REMARK SMILES IDX 79 48 78 49 34 51 66 52 46 53 65 54 47 55 50 56 64 57 83 58
REMARK SMILES IDX 48 59 49 60 63 62 84 63 51 64 35 65 36 66 44 67 37 68 39 69
REMARK SMILES IDX 45 70 38 71 40 72 41 73 42 74 43 75 67 76 68 77 76 78 69 79
REMARK SMILES IDX 71 80 77 81 70 82 72 83 73 84 74 85 75 86 52 87 53 88 61 89
REMARK SMILES IDX 54 90 56 91 62 92 55 93 57 94 58 95 59 96 60 97
REMARK H PARENT 18 6 10 14 7 25 7 26 23 31 82 50 50 61
REMARK Flexibility Score: inf
ROOT
ATOM      1  C   UNL A   1      32.262  30.339  26.436  1.00  0.00     0.023 C 
ENDROOT
BRANCH   1   2
ATOM      2  C   UNL A   1      31.512  29.861  25.193  1.00  0.00     0.116 C 
BRANCH   2   3
ATOM      3  N   UNL A   1      32.406  29.213  24.260  1.00  0.00    -0.349 N 
ATOM      4  C   UNL A   1      32.622  27.880  23.992  1.00  0.00     0.286 C 
ATOM      5  O   UNL A   1      33.400  27.634  23.069  1.00  0.00    -0.266 OA
ATOM      6  H   UNL A   1      32.956  29.831  23.725  1.00  0.00     0.163 HD
BRANCH   4   7
ATOM      7  C   UNL A   1      31.948  26.837  24.749  1.00  0.00     0.191 A 
ATOM      8  C   UNL A   1      31.478  24.710  25.160  1.00  0.00     0.124 A 
ATOM      9  C   UNL A   1      30.752  25.449  26.067  1.00  0.00     0.048 A 
ATOM     10  O   UNL A   1      32.192  25.541  24.354  1.00  0.00    -0.454 OA
ATOM     11  C   UNL A   1      31.101  26.800  25.845  1.00  0.00     0.056 A 
BRANCH   8  12
ATOM     12  C   UNL A   1      31.649  23.247  24.937  1.00  0.00     0.190 C 
BRANCH  12  13
ATOM     13  N   UNL A   1      32.530  22.626  25.917  1.00  0.00    -0.362 N 
ATOM     14  H   UNL A   1      32.247  22.565  26.857  1.00  0.00     0.162 HD
BRANCH  13  15
ATOM     15  C   UNL A   1      33.762  22.122  25.539  1.00  0.00     0.139 A 
ATOM     16  C   UNL A   1      37.066  23.623  24.895  1.00  0.00     0.067 C 
ATOM     17  C   UNL A   1      36.006  22.575  25.039  1.00  0.00     0.040 A 
ATOM     18  C   UNL A   1      36.290  21.234  24.842  1.00  0.00     0.024 A 
ATOM     19  N   UNL A   1      34.767  23.013  25.364  1.00  0.00    -0.236 NA
ATOM     20  C   UNL A   1      35.259  20.315  24.988  1.00  0.00     0.019 A 
ATOM     21  C   UNL A   1      33.973  20.752  25.331  1.00  0.00     0.081 A 
BRANCH  21  22
ATOM     22  C   UNL A   1      32.913  19.712  25.418  1.00  0.00     0.252 C 
ATOM     23  N   UNL A   1      32.933  18.859  26.484  1.00  0.00    -0.365 N 
ATOM     24  O   UNL A   1      32.015  19.645  24.585  1.00  0.00    -0.269 OA
ATOM     25  H   UNL A   1      33.656  18.919  27.150  1.00  0.00     0.159 HD
ATOM     26  H   UNL A   1      32.225  18.183  26.587  1.00  0.00     0.159 HD
ENDBRANCH  21  22
ENDBRANCH  13  15
ENDBRANCH  12  13
ENDBRANCH   8  12
ENDBRANCH   4   7
ENDBRANCH   2   3
ENDBRANCH   1   2
BRANCH   1  27
ATOM     27  C   UNL A   1      31.811  31.716  26.934  1.00  0.00     0.023 C 
BRANCH  27  28
ATOM     28  C   UNL A   1      32.924  32.588  27.504  1.00  0.00     0.116 C 
BRANCH  28  29
ATOM     29  N   UNL A   1      32.515  33.967  27.739  1.00  0.00    -0.352 N 
ATOM     30  C   UNL A   1      33.034  34.860  28.647  1.00  0.00     0.251 C 
ATOM     31  H   UNL A   1      31.775  34.299  27.180  1.00  0.00     0.163 HD
ATOM     32  O   UNL A   1      32.510  35.956  28.815  1.00  0.00    -0.269 OA
BRANCH  30  33
ATOM     33  C   UNL A   1      34.213  34.459  29.440  1.00  0.00     0.039 A 
ATOM     34  C   UNL A   1      34.024  33.892  30.701  1.00  0.00     0.014 A 
ATOM     35  C   UNL A   1      35.495  34.580  28.897  1.00  0.00     0.014 A 
ATOM     36  C   UNL A   1      35.122  33.379  31.394  1.00  0.00     0.010 A 
ATOM     37  C   UNL A   1      36.573  33.998  29.553  1.00  0.00     0.010 A 
ATOM     38  C   UNL A   1      36.399  33.394  30.809  1.00  0.00    -0.014 A 
BRANCH  38  39
ATOM     39  C   UNL A   1      37.574  32.782  31.480  1.00  0.00     0.031 A 
ATOM     40  C   UNL A   1      38.280  31.620  30.836  1.00  0.00     0.074 A 
ATOM     41  C   UNL A   1      37.938  33.199  32.709  1.00  0.00     0.049 A 
ATOM     42  N   UNL A   1      39.244  30.876  31.308  1.00  0.00    -0.248 NA
ATOM     43  C   UNL A   1      37.819  31.223  29.493  1.00  0.00     0.031 C 
ATOM     44  C   UNL A   1      37.290  34.272  33.467  1.00  0.00     0.029 A 
ATOM     45  N   UNL A   1      38.919  32.744  33.554  1.00  0.00    -0.354 N 
ATOM     46  C   UNL A   1      39.475  29.899  30.347  1.00  0.00     0.074 A 
ATOM     47  C   UNL A   1      38.529  30.126  29.277  1.00  0.00     0.031 C 
ATOM     48  C   UNL A   1      37.890  34.391  34.662  1.00  0.00     0.029 A 
ATOM     49  C   UNL A   1      38.935  33.380  34.775  1.00  0.00     0.049 A 
ATOM     50  H   UNL A   1      39.552  32.030  33.311  1.00  0.00     0.167 HD
ATOM     51  C   UNL A   1      40.408  28.918  30.341  1.00  0.00     0.034 A 
ATOM     52  C   UNL A   1      39.693  33.159  35.868  1.00  0.00     0.034 A 
ATOM     53  C   UNL A   1      41.372  28.722  31.389  1.00  0.00     0.049 A 
ATOM     54  C   UNL A   1      40.738  32.077  35.826  1.00  0.00     0.074 A 
ATOM     55  C   UNL A   1      42.409  27.809  31.442  1.00  0.00     0.029 A 
ATOM     56  N   UNL A   1      41.412  29.443  32.572  1.00  0.00    -0.354 N 
ATOM     57  N   UNL A   1      41.034  31.252  34.851  1.00  0.00    -0.248 NA
ATOM     58  C   UNL A   1      41.579  31.916  37.021  1.00  0.00     0.031 C 
ATOM     59  C   UNL A   1      43.057  27.955  32.672  1.00  0.00     0.029 A 
ATOM     60  C   UNL A   1      42.452  28.991  33.365  1.00  0.00     0.049 A 
ATOM     61  H   UNL A   1      40.792  30.170  32.812  1.00  0.00     0.167 HD
ATOM     62  C   UNL A   1      42.123  30.511  35.294  1.00  0.00     0.074 A 
ATOM     63  C   UNL A   1      42.441  30.990  36.623  1.00  0.00     0.031 C 
ATOM     64  C   UNL A   1      42.796  29.520  34.660  1.00  0.00     0.034 A 
BRANCH  51  65
ATOM     65  C   UNL A   1      40.459  28.005  29.144  1.00  0.00     0.023 A 
ATOM     66  C   UNL A   1      39.514  26.967  29.016  1.00  0.00     0.012 A 
ATOM     67  C   UNL A   1      41.404  28.209  28.119  1.00  0.00     0.148 A 
ATOM     68  C   UNL A   1      39.531  26.123  27.907  1.00  0.00     0.002 A 
ATOM     69  C   UNL A   1      41.383  27.395  26.993  1.00  0.00     0.091 A 
ATOM     70  F   UNL A   1      42.308  29.188  28.268  1.00  0.00    -0.205 F 
ATOM     71  C   UNL A   1      40.456  26.344  26.892  1.00  0.00     0.022 A 
BRANCH  69  72
ATOM     72  S   UNL A   1      42.478  27.650  25.592  1.00  0.00     0.127 S 
ATOM     73  O   UNL A   1      41.966  28.904  25.042  1.00  0.00    -0.237 OA
ATOM     74  O   UNL A   1      43.784  27.757  26.241  1.00  0.00    -0.237 OA
ATOM     75  O   UNL A   1      42.316  26.482  24.738  1.00  0.00    -0.744 OA
ENDBRANCH  69  72
ENDBRANCH  51  65
BRANCH  52  76
ATOM     76  C   UNL A   1      39.529  34.014  37.078  1.00  0.00     0.023 A 
ATOM     77  C   UNL A   1      39.911  35.369  37.026  1.00  0.00     0.012 A 
ATOM     78  C   UNL A   1      38.985  33.500  38.271  1.00  0.00     0.148 A 
ATOM     79  C   UNL A   1      39.792  36.187  38.151  1.00  0.00     0.002 A 
ATOM     80  C   UNL A   1      38.815  34.334  39.371  1.00  0.00     0.091 A 
ATOM     81  F   UNL A   1      38.634  32.207  38.303  1.00  0.00    -0.205 F 
ATOM     82  C   UNL A   1      39.236  35.671  39.319  1.00  0.00     0.022 A 
BRANCH  80  83
ATOM     83  S   UNL A   1      37.992  33.794  40.872  1.00  0.00     0.127 S 
ATOM     84  O   UNL A   1      38.104  34.980  41.718  1.00  0.00    -0.237 OA
ATOM     85  O   UNL A   1      36.641  33.506  40.387  1.00  0.00    -0.237 OA
ATOM     86  O   UNL A   1      38.729  32.622  41.326  1.00  0.00    -0.744 OA
ENDBRANCH  80  83
ENDBRANCH  52  76
BRANCH  64  87
ATOM     87  C   UNL A   1      43.992  28.923  35.353  1.00  0.00     0.023 A 
ATOM     88  C   UNL A   1      45.269  29.495  35.189  1.00  0.00     0.012 A 
ATOM     89  C   UNL A   1      43.824  27.846  36.247  1.00  0.00     0.148 A 
ATOM     90  C   UNL A   1      46.365  28.984  35.883  1.00  0.00     0.002 A 
ATOM     91  C   UNL A   1      44.911  27.379  36.975  1.00  0.00     0.091 A 
ATOM     92  F   UNL A   1      42.604  27.306  36.374  1.00  0.00    -0.205 F 
ATOM     93  C   UNL A   1      46.184  27.938  36.785  1.00  0.00     0.022 A 
BRANCH  91  94
ATOM     94  S   UNL A   1      44.752  26.107  38.233  1.00  0.00     0.127 S 
ATOM     95  O   UNL A   1      46.150  25.862  38.587  1.00  0.00    -0.237 OA
ATOM     96  O   UNL A   1      43.971  26.790  39.265  1.00  0.00    -0.237 OA
ATOM     97  O   UNL A   1      44.068  24.990  37.595  1.00  0.00    -0.744 OA
ENDBRANCH  91  94
ENDBRANCH  64  87
ENDBRANCH  38  39
ENDBRANCH  30  33
ENDBRANCH  28  29
ENDBRANCH  27  28
ENDBRANCH   1  27
TORSDOF 18
ENDMDL
