MODEL 1
REMARK VINA RESULT:     -12.5      0.000      0.000
REMARK SMILES O=C(NCCCCNC(=O)c1cc(Cl)ncc1-c1cccc(C(F)(F)F)c1)c1ccc(-c2c3nc(c(-c4cccc(S(=O)(=O)[O-])c4F)c4ccc([nH]4)c(-c4cccc(S(=O)(=O)[O-])c4F)c4nc(c(-c5cccc(S(=O)(=O)[O-])c5F)c5ccc2[nH]5)C=C4)C=C3)cc1
REMARK SMILES IDX 5 1 4 2 3 3 1 4 2 5 28 7 29 8 90 9 30 10 89 11 31 12 32 13
REMARK SMILES IDX 33 14 83 15 34 16 88 17 82 18 84 19 35 20 87 21 81 22 80 23
REMARK SMILES IDX 36 25 68 26 48 27 67 28 49 29 52 30 66 31 85 32 50 33 51 34
REMARK SMILES IDX 65 36 86 37 53 38 37 39 38 40 46 41 39 42 41 43 47 44 40 45
REMARK SMILES IDX 42 46 43 47 44 48 45 49 69 50 70 51 78 52 71 53 73 54 79 55
REMARK SMILES IDX 72 56 74 57 75 58 76 59 77 60 54 61 55 62 63 63 56 64 58 65
REMARK SMILES IDX 64 66 57 67 59 68 60 69 61 70 62 71 6 72 7 73 8 74 9 75
REMARK SMILES IDX 10 77 11 78 12 79 17 80 13 81 16 82 14 83 15 84 18 85 19 86
REMARK SMILES IDX 27 87 20 88 22 89 21 90 23 91 24 92 25 93 26 94
REMARK H PARENT 3 6 84 24 52 35 8 76
REMARK Flexibility Score: inf
ROOT
ATOM      1  C   UNL A   1      31.447  31.494  26.472  1.00  0.00     0.023 C 
ENDROOT
BRANCH   1   2
ATOM      2  C   UNL A   1      32.721  32.143  27.002  1.00  0.00     0.116 C 
BRANCH   2   3
ATOM      3  N   UNL A   1      32.519  33.517  27.433  1.00  0.00    -0.352 N 
ATOM      4  O   UNL A   1      32.774  35.354  28.702  1.00  0.00    -0.269 OA
ATOM      5  C   UNL A   1      33.197  34.247  28.380  1.00  0.00     0.251 C 
ATOM      6  H   UNL A   1      31.789  33.996  26.979  1.00  0.00     0.163 HD
BRANCH   5   7
ATOM      7  C   UNL A   1      34.404  33.689  29.026  1.00  0.00     0.039 A 
ATOM      8  C   UNL A   1      35.677  34.190  28.737  1.00  0.00     0.014 A 
ATOM      9  C   UNL A   1      34.253  32.651  29.949  1.00  0.00     0.014 A 
ATOM     10  C   UNL A   1      36.806  33.566  29.265  1.00  0.00     0.010 A 
ATOM     11  C   UNL A   1      35.382  32.073  30.532  1.00  0.00     0.010 A 
ATOM     12  C   UNL A   1      36.669  32.503  30.170  1.00  0.00    -0.014 A 
BRANCH  12  13
ATOM     13  C   UNL A   1      37.866  31.874  30.779  1.00  0.00     0.031 A 
ATOM     14  C   UNL A   1      38.631  30.808  30.048  1.00  0.00     0.074 A 
ATOM     15  C   UNL A   1      38.223  32.225  32.029  1.00  0.00     0.049 A 
ATOM     16  N   UNL A   1      39.641  30.087  30.463  1.00  0.00    -0.248 NA
ATOM     17  C   UNL A   1      38.199  30.500  28.676  1.00  0.00     0.031 C 
ATOM     18  C   UNL A   1      37.531  33.218  32.852  1.00  0.00     0.029 A 
ATOM     19  N   UNL A   1      39.228  31.760  32.840  1.00  0.00    -0.354 N 
ATOM     20  C   UNL A   1      39.936  29.210  29.426  1.00  0.00     0.074 A 
ATOM     21  C   UNL A   1      38.995  29.488  28.361  1.00  0.00     0.031 C 
ATOM     22  C   UNL A   1      38.117  33.275  34.057  1.00  0.00     0.029 A 
ATOM     23  C   UNL A   1      39.191  32.289  34.108  1.00  0.00     0.049 A 
ATOM     24  H   UNL A   1      39.907  31.112  32.542  1.00  0.00     0.167 HD
ATOM     25  C   UNL A   1      40.907  28.268  29.365  1.00  0.00     0.034 A 
ATOM     26  C   UNL A   1      39.914  31.990  35.205  1.00  0.00     0.034 A 
ATOM     27  C   UNL A   1      41.858  28.021  30.416  1.00  0.00     0.049 A 
ATOM     28  C   UNL A   1      40.996  30.955  35.110  1.00  0.00     0.074 A 
ATOM     29  C   UNL A   1      42.931  27.147  30.417  1.00  0.00     0.029 A 
ATOM     30  N   UNL A   1      41.842  28.636  31.659  1.00  0.00    -0.354 N 
ATOM     31  N   UNL A   1      41.350  30.232  34.075  1.00  0.00    -0.248 NA
ATOM     32  C   UNL A   1      41.798  30.712  36.317  1.00  0.00     0.031 C 
ATOM     33  C   UNL A   1      43.548  27.216  31.670  1.00  0.00     0.029 A 
ATOM     34  C   UNL A   1      42.877  28.152  32.441  1.00  0.00     0.049 A 
ATOM     35  H   UNL A   1      41.191  29.317  31.943  1.00  0.00     0.167 HD
ATOM     36  C   UNL A   1      42.436  29.473  34.494  1.00  0.00     0.074 A 
ATOM     37  C   UNL A   1      42.687  29.832  35.875  1.00  0.00     0.031 C 
ATOM     38  C   UNL A   1      43.151  28.557  33.796  1.00  0.00     0.034 A 
BRANCH  25  39
ATOM     39  C   UNL A   1      41.008  27.448  28.104  1.00  0.00     0.023 A 
ATOM     40  C   UNL A   1      41.621  27.999  26.959  1.00  0.00     0.012 A 
ATOM     41  C   UNL A   1      40.540  26.120  28.063  1.00  0.00     0.148 A 
ATOM     42  C   UNL A   1      41.731  27.256  25.784  1.00  0.00     0.002 A 
ATOM     43  C   UNL A   1      40.690  25.372  26.900  1.00  0.00     0.091 A 
ATOM     44  F   UNL A   1      39.939  25.618  29.150  1.00  0.00    -0.205 F 
ATOM     45  C   UNL A   1      41.274  25.941  25.757  1.00  0.00     0.022 A 
BRANCH  43  46
ATOM     46  S   UNL A   1      40.199  23.646  26.804  1.00  0.00     0.127 S 
ATOM     47  O   UNL A   1      40.486  23.181  28.160  1.00  0.00    -0.237 OA
ATOM     48  O   UNL A   1      38.774  23.742  26.482  1.00  0.00    -0.237 OA
ATOM     49  O   UNL A   1      41.014  23.064  25.747  1.00  0.00    -0.744 OA
ENDBRANCH  43  46
ENDBRANCH  25  39
BRANCH  26  50
ATOM     50  C   UNL A   1      39.638  32.724  36.471  1.00  0.00     0.023 A 
ATOM     51  C   UNL A   1      40.243  33.974  36.693  1.00  0.00     0.012 A 
ATOM     52  C   UNL A   1      38.699  32.235  37.401  1.00  0.00     0.148 A 
ATOM     53  C   UNL A   1      39.926  34.722  37.828  1.00  0.00     0.002 A 
ATOM     54  C   UNL A   1      38.346  33.011  38.499  1.00  0.00     0.091 A 
ATOM     55  F   UNL A   1      38.140  31.039  37.169  1.00  0.00    -0.205 F 
ATOM     56  C   UNL A   1      38.968  34.248  38.722  1.00  0.00     0.022 A 
BRANCH  54  57
ATOM     57  S   UNL A   1      37.020  32.551  39.621  1.00  0.00     0.127 S 
ATOM     58  O   UNL A   1      37.419  31.203  40.017  1.00  0.00    -0.237 OA
ATOM     59  O   UNL A   1      37.149  33.566  40.667  1.00  0.00    -0.237 OA
ATOM     60  O   UNL A   1      35.793  32.642  38.842  1.00  0.00    -0.744 OA
ENDBRANCH  54  57
ENDBRANCH  26  50
BRANCH  38  61
ATOM     61  C   UNL A   1      44.311  27.893  34.490  1.00  0.00     0.023 A 
ATOM     62  C   UNL A   1      45.579  28.506  34.474  1.00  0.00     0.012 A 
ATOM     63  C   UNL A   1      44.113  26.725  35.252  1.00  0.00     0.148 A 
ATOM     64  C   UNL A   1      46.639  27.955  35.196  1.00  0.00     0.002 A 
ATOM     65  C   UNL A   1      45.160  26.208  36.005  1.00  0.00     0.091 A 
ATOM     66  F   UNL A   1      42.902  26.151  35.237  1.00  0.00    -0.205 F 
ATOM     67  C   UNL A   1      46.426  26.817  35.971  1.00  0.00     0.022 A 
BRANCH  65  68
ATOM     68  S   UNL A   1      44.957  24.805  37.107  1.00  0.00     0.127 S 
ATOM     69  O   UNL A   1      46.311  24.641  37.635  1.00  0.00    -0.237 OA
ATOM     70  O   UNL A   1      43.982  25.309  38.074  1.00  0.00    -0.237 OA
ATOM     71  O   UNL A   1      44.477  23.707  36.278  1.00  0.00    -0.744 OA
ENDBRANCH  65  68
ENDBRANCH  38  61
ENDBRANCH  12  13
ENDBRANCH   5   7
ENDBRANCH   2   3
ENDBRANCH   1   2
BRANCH   1  72
ATOM     72  C   UNL A   1      31.651  30.396  25.429  1.00  0.00     0.023 C 
BRANCH  72  73
ATOM     73  C   UNL A   1      32.372  29.147  25.924  1.00  0.00     0.116 C 
BRANCH  73  74
ATOM     74  N   UNL A   1      31.469  28.139  26.459  1.00  0.00    -0.352 N 
ATOM     75  C   UNL A   1      31.049  26.959  25.900  1.00  0.00     0.252 C 
ATOM     76  H   UNL A   1      31.105  28.334  27.352  1.00  0.00     0.163 HD
ATOM     77  O   UNL A   1      30.278  26.216  26.499  1.00  0.00    -0.269 OA
BRANCH  75  78
ATOM     78  C   UNL A   1      31.545  26.576  24.566  1.00  0.00     0.052 A 
ATOM     79  C   UNL A   1      32.660  25.732  24.513  1.00  0.00     0.055 A 
ATOM     80  C   UNL A   1      30.902  27.008  23.394  1.00  0.00     0.013 A 
ATOM     81  C   UNL A   1      33.149  25.406  23.270  1.00  0.00     0.129 A 
ATOM     82  C   UNL A   1      31.504  26.600  22.203  1.00  0.00     0.122 A 
ATOM     83  Cl  UNL A   1      34.548  24.431  23.103  1.00  0.00    -0.062 Cl
ATOM     84  N   UNL A   1      32.611  25.825  22.111  1.00  0.00    -0.244 NA
BRANCH  80  85
ATOM     85  C   UNL A   1      29.671  27.816  23.359  1.00  0.00    -0.015 A 
ATOM     86  C   UNL A   1      28.419  27.197  23.528  1.00  0.00     0.009 A 
ATOM     87  C   UNL A   1      29.697  29.206  23.155  1.00  0.00     0.021 A 
ATOM     88  C   UNL A   1      27.235  27.936  23.494  1.00  0.00     0.001 A 
ATOM     89  C   UNL A   1      28.512  29.964  23.131  1.00  0.00     0.056 A 
ATOM     90  C   UNL A   1      27.281  29.313  23.296  1.00  0.00     0.013 A 
BRANCH  89  91
ATOM     91  C   UNL A   1      28.545  31.459  22.928  1.00  0.00     0.416 C 
ATOM     92  F   UNL A   1      27.295  32.004  22.935  1.00  0.00    -0.166 F 
ATOM     93  F   UNL A   1      29.238  32.106  23.905  1.00  0.00    -0.166 F 
ATOM     94  F   UNL A   1      29.111  31.838  21.749  1.00  0.00    -0.166 F 
ENDBRANCH  89  91
ENDBRANCH  80  85
ENDBRANCH  75  78
ENDBRANCH  73  74
ENDBRANCH  72  73
ENDBRANCH   1  72
TORSDOF 16
ENDMDL
MODEL 2
REMARK VINA RESULT:     -12.4      6.551     11.709
REMARK SMILES O=C(NCCCCNC(=O)c1cc(Cl)ncc1-c1cccc(C(F)(F)F)c1)c1ccc(-c2c3nc(c(-c4cccc(S(=O)(=O)[O-])c4F)c4ccc([nH]4)c(-c4cccc(S(=O)(=O)[O-])c4F)c4nc(c(-c5cccc(S(=O)(=O)[O-])c5F)c5ccc2[nH]5)C=C4)C=C3)cc1
REMARK SMILES IDX 5 1 4 2 3 3 1 4 2 5 28 7 29 8 90 9 30 10 89 11 31 12 32 13
REMARK SMILES IDX 33 14 83 15 34 16 88 17 82 18 84 19 35 20 87 21 81 22 80 23
REMARK SMILES IDX 36 25 68 26 48 27 67 28 49 29 52 30 66 31 85 32 50 33 51 34
REMARK SMILES IDX 65 36 86 37 53 38 37 39 38 40 46 41 39 42 41 43 47 44 40 45
REMARK SMILES IDX 42 46 43 47 44 48 45 49 69 50 70 51 78 52 71 53 73 54 79 55
REMARK SMILES IDX 72 56 74 57 75 58 76 59 77 60 54 61 55 62 63 63 56 64 58 65
REMARK SMILES IDX 64 66 57 67 59 68 60 69 61 70 62 71 6 72 7 73 8 74 9 75
REMARK SMILES IDX 10 77 11 78 12 79 17 80 13 81 16 82 14 83 15 84 18 85 19 86
REMARK SMILES IDX 27 87 20 88 22 89 21 90 23 91 24 92 25 93 26 94
REMARK H PARENT 3 6 84 24 52 35 8 76
REMARK Flexibility Score: inf
ROOT
ATOM      1  C   UNL A   1      37.621  20.114  24.808  1.00  0.00     0.023 C 
ENDROOT
BRANCH   1   2
ATOM      2  C   UNL A   1      38.767  20.597  25.690  1.00  0.00     0.116 C 
BRANCH   2   3
ATOM      3  N   UNL A   1      39.814  19.603  25.854  1.00  0.00    -0.352 N 
ATOM      4  O   UNL A   1      41.899  18.807  26.117  1.00  0.00    -0.269 OA
ATOM      5  C   UNL A   1      41.141  19.771  26.170  1.00  0.00     0.251 C 
ATOM      6  H   UNL A   1      39.531  18.670  25.718  1.00  0.00     0.163 HD
BRANCH   5   7
ATOM      7  C   UNL A   1      41.654  21.108  26.540  1.00  0.00     0.039 A 
ATOM      8  C   UNL A   1      42.074  21.387  27.843  1.00  0.00     0.014 A 
ATOM      9  C   UNL A   1      41.726  22.095  25.554  1.00  0.00     0.014 A 
ATOM     10  C   UNL A   1      42.437  22.686  28.194  1.00  0.00     0.010 A 
ATOM     11  C   UNL A   1      42.158  23.380  25.891  1.00  0.00     0.010 A 
ATOM     12  C   UNL A   1      42.484  23.695  27.221  1.00  0.00    -0.014 A 
BRANCH  12  13
ATOM     13  C   UNL A   1      42.926  25.065  27.577  1.00  0.00     0.031 A 
ATOM     14  C   UNL A   1      41.968  26.047  28.191  1.00  0.00     0.074 A 
ATOM     15  C   UNL A   1      44.184  25.443  27.281  1.00  0.00     0.049 A 
ATOM     16  N   UNL A   1      42.154  27.308  28.480  1.00  0.00    -0.248 NA
ATOM     17  C   UNL A   1      40.620  25.550  28.511  1.00  0.00     0.031 C 
ATOM     18  C   UNL A   1      45.190  24.590  26.647  1.00  0.00     0.029 A 
ATOM     19  N   UNL A   1      44.819  26.650  27.437  1.00  0.00    -0.354 N 
ATOM     20  C   UNL A   1      40.939  27.771  28.970  1.00  0.00     0.074 A 
ATOM     21  C   UNL A   1      40.020  26.653  28.938  1.00  0.00     0.031 C 
ATOM     22  C   UNL A   1      46.308  25.302  26.449  1.00  0.00     0.029 A 
ATOM     23  C   UNL A   1      46.082  26.673  26.895  1.00  0.00     0.049 A 
ATOM     24  H   UNL A   1      44.410  27.421  27.893  1.00  0.00     0.167 HD
ATOM     25  C   UNL A   1      40.623  29.011  29.416  1.00  0.00     0.034 A 
ATOM     26  C   UNL A   1      46.950  27.691  26.737  1.00  0.00     0.034 A 
ATOM     27  C   UNL A   1      41.552  30.107  29.474  1.00  0.00     0.049 A 
ATOM     28  C   UNL A   1      46.585  29.052  27.252  1.00  0.00     0.074 A 
ATOM     29  C   UNL A   1      41.352  31.377  29.986  1.00  0.00     0.029 A 
ATOM     30  N   UNL A   1      42.852  30.071  28.991  1.00  0.00    -0.354 N 
ATOM     31  N   UNL A   1      45.479  29.436  27.840  1.00  0.00    -0.248 NA
ATOM     32  C   UNL A   1      47.593  30.112  27.113  1.00  0.00     0.031 C 
ATOM     33  C   UNL A   1      42.523  32.117  29.789  1.00  0.00     0.029 A 
ATOM     34  C   UNL A   1      43.462  31.299  29.179  1.00  0.00     0.049 A 
ATOM     35  H   UNL A   1      43.277  29.286  28.576  1.00  0.00     0.167 HD
ATOM     36  C   UNL A   1      45.667  30.773  28.172  1.00  0.00     0.074 A 
ATOM     37  C   UNL A   1      47.000  31.128  27.727  1.00  0.00     0.031 C 
ATOM     38  C   UNL A   1      44.808  31.626  28.782  1.00  0.00     0.034 A 
BRANCH  25  39
ATOM     39  C   UNL A   1      39.215  29.241  29.903  1.00  0.00     0.023 A 
ATOM     40  C   UNL A   1      38.867  28.896  31.224  1.00  0.00     0.012 A 
ATOM     41  C   UNL A   1      38.249  29.840  29.070  1.00  0.00     0.148 A 
ATOM     42  C   UNL A   1      37.572  29.106  31.698  1.00  0.00     0.002 A 
ATOM     43  C   UNL A   1      36.971  30.085  29.562  1.00  0.00     0.091 A 
ATOM     44  F   UNL A   1      38.587  30.142  27.809  1.00  0.00    -0.205 F 
ATOM     45  C   UNL A   1      36.628  29.708  30.870  1.00  0.00     0.022 A 
BRANCH  43  46
ATOM     46  S   UNL A   1      35.717  30.926  28.588  1.00  0.00     0.127 S 
ATOM     47  O   UNL A   1      34.840  31.457  29.631  1.00  0.00    -0.237 OA
ATOM     48  O   UNL A   1      36.499  31.938  27.876  1.00  0.00    -0.237 OA
ATOM     49  O   UNL A   1      35.136  29.903  27.729  1.00  0.00    -0.744 OA
ENDBRANCH  43  46
ENDBRANCH  25  39
BRANCH  26  50
ATOM     50  C   UNL A   1      48.262  27.423  26.085  1.00  0.00     0.023 A 
ATOM     51  C   UNL A   1      49.320  26.897  26.847  1.00  0.00     0.012 A 
ATOM     52  C   UNL A   1      48.426  27.588  24.695  1.00  0.00     0.148 A 
ATOM     53  C   UNL A   1      50.527  26.550  26.239  1.00  0.00     0.002 A 
ATOM     54  C   UNL A   1      49.610  27.187  24.087  1.00  0.00     0.091 A 
ATOM     55  F   UNL A   1      47.404  28.095  23.992  1.00  0.00    -0.205 F 
ATOM     56  C   UNL A   1      50.666  26.682  24.859  1.00  0.00     0.022 A 
BRANCH  54  57
ATOM     57  S   UNL A   1      49.826  27.180  22.303  1.00  0.00     0.127 S 
ATOM     58  O   UNL A   1      48.776  26.258  21.879  1.00  0.00    -0.237 OA
ATOM     59  O   UNL A   1      49.586  28.586  21.969  1.00  0.00    -0.237 OA
ATOM     60  O   UNL A   1      51.191  26.731  22.071  1.00  0.00    -0.744 OA
ENDBRANCH  54  57
ENDBRANCH  26  50
BRANCH  38  61
ATOM     61  C   UNL A   1      45.283  33.029  29.052  1.00  0.00     0.023 A 
ATOM     62  C   UNL A   1      45.999  33.311  30.232  1.00  0.00     0.012 A 
ATOM     63  C   UNL A   1      45.119  34.036  28.081  1.00  0.00     0.148 A 
ATOM     64  C   UNL A   1      46.532  34.582  30.447  1.00  0.00     0.002 A 
ATOM     65  C   UNL A   1      45.691  35.286  28.282  1.00  0.00     0.091 A 
ATOM     66  F   UNL A   1      44.419  33.749  26.975  1.00  0.00    -0.205 F 
ATOM     67  C   UNL A   1      46.391  35.564  29.469  1.00  0.00     0.022 A 
BRANCH  65  68
ATOM     68  S   UNL A   1      45.645  36.582  27.038  1.00  0.00     0.127 S 
ATOM     69  O   UNL A   1      46.229  35.904  25.881  1.00  0.00    -0.237 OA
ATOM     70  O   UNL A   1      44.212  36.853  26.927  1.00  0.00    -0.237 OA
ATOM     71  O   UNL A   1      46.431  37.684  27.575  1.00  0.00    -0.744 OA
ENDBRANCH  65  68
ENDBRANCH  38  61
ENDBRANCH  12  13
ENDBRANCH   5   7
ENDBRANCH   2   3
ENDBRANCH   1   2
BRANCH   1  72
ATOM     72  C   UNL A   1      36.245  20.689  25.139  1.00  0.00     0.023 C 
BRANCH  72  73
ATOM     73  C   UNL A   1      36.103  22.196  24.957  1.00  0.00     0.116 C 
BRANCH  73  74
ATOM     74  N   UNL A   1      35.631  22.570  23.631  1.00  0.00    -0.352 N 
ATOM     75  C   UNL A   1      34.377  22.950  23.226  1.00  0.00     0.252 C 
ATOM     76  H   UNL A   1      36.312  22.545  22.921  1.00  0.00     0.163 HD
ATOM     77  O   UNL A   1      34.152  23.239  22.055  1.00  0.00    -0.269 OA
BRANCH  75  78
ATOM     78  C   UNL A   1      33.290  23.024  24.220  1.00  0.00     0.052 A 
ATOM     79  C   UNL A   1      33.057  24.265  24.823  1.00  0.00     0.055 A 
ATOM     80  C   UNL A   1      32.495  21.906  24.520  1.00  0.00     0.013 A 
ATOM     81  C   UNL A   1      32.070  24.328  25.780  1.00  0.00     0.129 A 
ATOM     82  C   UNL A   1      31.529  22.114  25.506  1.00  0.00     0.122 A 
ATOM     83  Cl  UNL A   1      31.752  25.787  26.622  1.00  0.00    -0.062 Cl
ATOM     84  N   UNL A   1      31.306  23.285  26.150  1.00  0.00    -0.244 NA
BRANCH  80  85
ATOM     85  C   UNL A   1      32.608  20.593  23.864  1.00  0.00    -0.015 A 
ATOM     86  C   UNL A   1      32.029  20.386  22.599  1.00  0.00     0.009 A 
ATOM     87  C   UNL A   1      33.281  19.515  24.464  1.00  0.00     0.021 A 
ATOM     88  C   UNL A   1      32.115  19.150  21.955  1.00  0.00     0.001 A 
ATOM     89  C   UNL A   1      33.387  18.269  23.821  1.00  0.00     0.056 A 
ATOM     90  C   UNL A   1      32.791  18.096  22.563  1.00  0.00     0.013 A 
BRANCH  89  91
ATOM     91  C   UNL A   1      34.125  17.118  24.462  1.00  0.00     0.416 C 
ATOM     92  F   UNL A   1      33.542  16.721  25.627  1.00  0.00    -0.166 F 
ATOM     93  F   UNL A   1      34.163  16.013  23.668  1.00  0.00    -0.166 F 
ATOM     94  F   UNL A   1      35.420  17.406  24.771  1.00  0.00    -0.166 F 
ENDBRANCH  89  91
ENDBRANCH  80  85
ENDBRANCH  75  78
ENDBRANCH  73  74
ENDBRANCH  72  73
ENDBRANCH   1  72
TORSDOF 16
ENDMDL
MODEL 3
REMARK VINA RESULT:     -12.4      1.375      1.660
REMARK SMILES O=C(NCCCCNC(=O)c1cc(Cl)ncc1-c1cccc(C(F)(F)F)c1)c1ccc(-c2c3nc(c(-c4cccc(S(=O)(=O)[O-])c4F)c4ccc([nH]4)c(-c4cccc(S(=O)(=O)[O-])c4F)c4nc(c(-c5cccc(S(=O)(=O)[O-])c5F)c5ccc2[nH]5)C=C4)C=C3)cc1
REMARK SMILES IDX 5 1 4 2 3 3 1 4 2 5 28 7 29 8 90 9 30 10 89 11 31 12 32 13
REMARK SMILES IDX 33 14 83 15 34 16 88 17 82 18 84 19 35 20 87 21 81 22 80 23
REMARK SMILES IDX 36 25 68 26 48 27 67 28 49 29 52 30 66 31 85 32 50 33 51 34
REMARK SMILES IDX 65 36 86 37 53 38 37 39 38 40 46 41 39 42 41 43 47 44 40 45
REMARK SMILES IDX 42 46 43 47 44 48 45 49 69 50 70 51 78 52 71 53 73 54 79 55
REMARK SMILES IDX 72 56 74 57 75 58 76 59 77 60 54 61 55 62 63 63 56 64 58 65
REMARK SMILES IDX 64 66 57 67 59 68 60 69 61 70 62 71 6 72 7 73 8 74 9 75
REMARK SMILES IDX 10 77 11 78 12 79 17 80 13 81 16 82 14 83 15 84 18 85 19 86
REMARK SMILES IDX 27 87 20 88 22 89 21 90 23 91 24 92 25 93 26 94
REMARK H PARENT 3 6 84 24 52 35 8 76
REMARK Flexibility Score: inf
ROOT
ATOM      1  C   UNL A   1      31.626  31.444  26.881  1.00  0.00     0.023 C 
ENDROOT
BRANCH   1   2
ATOM      2  C   UNL A   1      32.887  32.231  27.221  1.00  0.00     0.116 C 
BRANCH   2   3
ATOM      3  N   UNL A   1      32.609  33.596  27.634  1.00  0.00    -0.352 N 
ATOM      4  O   UNL A   1      32.744  35.455  28.890  1.00  0.00    -0.269 OA
ATOM      5  C   UNL A   1      33.228  34.367  28.589  1.00  0.00     0.251 C 
ATOM      6  H   UNL A   1      31.867  34.035  27.158  1.00  0.00     0.163 HD
BRANCH   5   7
ATOM      7  C   UNL A   1      34.445  33.875  29.268  1.00  0.00     0.039 A 
ATOM      8  C   UNL A   1      35.716  34.307  28.880  1.00  0.00     0.014 A 
ATOM      9  C   UNL A   1      34.305  32.970  30.325  1.00  0.00     0.014 A 
ATOM     10  C   UNL A   1      36.850  33.736  29.453  1.00  0.00     0.010 A 
ATOM     11  C   UNL A   1      35.442  32.451  30.947  1.00  0.00     0.010 A 
ATOM     12  C   UNL A   1      36.724  32.804  30.494  1.00  0.00    -0.014 A 
BRANCH  12  13
ATOM     13  C   UNL A   1      37.929  32.236  31.147  1.00  0.00     0.031 A 
ATOM     14  C   UNL A   1      38.664  31.079  30.532  1.00  0.00     0.074 A 
ATOM     15  C   UNL A   1      38.320  32.730  32.338  1.00  0.00     0.049 A 
ATOM     16  N   UNL A   1      39.676  30.400  31.008  1.00  0.00    -0.248 NA
ATOM     17  C   UNL A   1      38.195  30.615  29.217  1.00  0.00     0.031 C 
ATOM     18  C   UNL A   1      37.659  33.824  33.050  1.00  0.00     0.029 A 
ATOM     19  N   UNL A   1      39.339  32.352  33.175  1.00  0.00    -0.354 N 
ATOM     20  C   UNL A   1      39.936  29.401  30.078  1.00  0.00     0.074 A 
ATOM     21  C   UNL A   1      38.972  29.562  29.009  1.00  0.00     0.031 C 
ATOM     22  C   UNL A   1      38.274  34.017  34.226  1.00  0.00     0.029 A 
ATOM     23  C   UNL A   1      39.339  33.030  34.371  1.00  0.00     0.049 A 
ATOM     24  H   UNL A   1      40.004  31.664  32.942  1.00  0.00     0.167 HD
ATOM     25  C   UNL A   1      40.895  28.445  30.108  1.00  0.00     0.034 A 
ATOM     26  C   UNL A   1      40.085  32.855  35.479  1.00  0.00     0.034 A 
ATOM     27  C   UNL A   1      41.868  28.313  31.159  1.00  0.00     0.049 A 
ATOM     28  C   UNL A   1      41.153  31.801  35.484  1.00  0.00     0.074 A 
ATOM     29  C   UNL A   1      42.932  27.432  31.241  1.00  0.00     0.029 A 
ATOM     30  N   UNL A   1      41.890  29.073  32.319  1.00  0.00    -0.354 N 
ATOM     31  N   UNL A   1      41.474  30.955  34.537  1.00  0.00    -0.248 NA
ATOM     32  C   UNL A   1      41.981  31.694  36.693  1.00  0.00     0.031 C 
ATOM     33  C   UNL A   1      43.580  27.641  32.462  1.00  0.00     0.029 A 
ATOM     34  C   UNL A   1      42.938  28.673  33.130  1.00  0.00     0.049 A 
ATOM     35  H   UNL A   1      41.253  29.793  32.534  1.00  0.00     0.167 HD
ATOM     36  C   UNL A   1      42.562  30.236  35.018  1.00  0.00     0.074 A 
ATOM     37  C   UNL A   1      42.850  30.755  36.340  1.00  0.00     0.031 C 
ATOM     38  C   UNL A   1      43.250  29.233  34.420  1.00  0.00     0.034 A 
BRANCH  25  39
ATOM     39  C   UNL A   1      40.957  27.479  28.953  1.00  0.00     0.023 A 
ATOM     40  C   UNL A   1      40.083  26.373  28.918  1.00  0.00     0.012 A 
ATOM     41  C   UNL A   1      41.847  27.687  27.881  1.00  0.00     0.148 A 
ATOM     42  C   UNL A   1      40.119  25.470  27.856  1.00  0.00     0.002 A 
ATOM     43  C   UNL A   1      41.849  26.806  26.805  1.00  0.00     0.091 A 
ATOM     44  F   UNL A   1      42.689  28.728  27.938  1.00  0.00    -0.205 F 
ATOM     45  C   UNL A   1      40.995  25.691  26.796  1.00  0.00     0.022 A 
BRANCH  43  46
ATOM     46  S   UNL A   1      42.891  27.059  25.363  1.00  0.00     0.127 S 
ATOM     47  O   UNL A   1      44.202  27.262  25.978  1.00  0.00    -0.237 OA
ATOM     48  O   UNL A   1      42.746  25.793  24.644  1.00  0.00    -0.237 OA
ATOM     49  O   UNL A   1      42.329  28.210  24.670  1.00  0.00    -0.744 OA
ENDBRANCH  43  46
ENDBRANCH  25  39
BRANCH  26  50
ATOM     50  C   UNL A   1      39.848  33.740  36.653  1.00  0.00     0.023 A 
ATOM     51  C   UNL A   1      40.152  35.110  36.562  1.00  0.00     0.012 A 
ATOM     52  C   UNL A   1      39.226  33.245  37.817  1.00  0.00     0.148 A 
ATOM     53  C   UNL A   1      39.851  35.973  37.615  1.00  0.00     0.002 A 
ATOM     54  C   UNL A   1      38.877  34.121  38.838  1.00  0.00     0.091 A 
ATOM     55  F   UNL A   1      38.951  31.936  37.882  1.00  0.00    -0.205 F 
ATOM     56  C   UNL A   1      39.201  35.483  38.746  1.00  0.00     0.022 A 
BRANCH  54  57
ATOM     57  S   UNL A   1      37.909  33.608  40.263  1.00  0.00     0.127 S 
ATOM     58  O   UNL A   1      38.779  32.602  40.867  1.00  0.00    -0.237 OA
ATOM     59  O   UNL A   1      37.798  34.860  41.014  1.00  0.00    -0.237 OA
ATOM     60  O   UNL A   1      36.649  33.113  39.729  1.00  0.00    -0.744 OA
ENDBRANCH  54  57
ENDBRANCH  26  50
BRANCH  38  61
ATOM     61  C   UNL A   1      44.419  28.642  35.162  1.00  0.00     0.023 A 
ATOM     62  C   UNL A   1      45.719  29.126  34.918  1.00  0.00     0.012 A 
ATOM     63  C   UNL A   1      44.211  27.691  36.180  1.00  0.00     0.148 A 
ATOM     64  C   UNL A   1      46.799  28.659  35.669  1.00  0.00     0.002 A 
ATOM     65  C   UNL A   1      45.283  27.265  36.954  1.00  0.00     0.091 A 
ATOM     66  F   UNL A   1      42.967  27.233  36.380  1.00  0.00    -0.205 F 
ATOM     67  C   UNL A   1      46.579  27.742  36.694  1.00  0.00     0.022 A 
BRANCH  65  68
ATOM     68  S   UNL A   1      45.084  26.160  38.356  1.00  0.00     0.127 S 
ATOM     69  O   UNL A   1      45.061  24.852  37.704  1.00  0.00    -0.237 OA
ATOM     70  O   UNL A   1      46.290  26.432  39.138  1.00  0.00    -0.237 OA
ATOM     71  O   UNL A   1      43.839  26.552  39.005  1.00  0.00    -0.744 OA
ENDBRANCH  65  68
ENDBRANCH  38  61
ENDBRANCH  12  13
ENDBRANCH   5   7
ENDBRANCH   2   3
ENDBRANCH   1   2
BRANCH   1  72
ATOM     72  C   UNL A   1      31.745  30.488  25.694  1.00  0.00     0.023 C 
BRANCH  72  73
ATOM     73  C   UNL A   1      32.425  29.156  25.991  1.00  0.00     0.116 C 
BRANCH  73  74
ATOM     74  N   UNL A   1      31.513  28.157  26.531  1.00  0.00    -0.352 N 
ATOM     75  C   UNL A   1      31.096  26.971  25.984  1.00  0.00     0.252 C 
ATOM     76  H   UNL A   1      31.142  28.364  27.419  1.00  0.00     0.163 HD
ATOM     77  O   UNL A   1      30.318  26.238  26.585  1.00  0.00    -0.269 OA
BRANCH  75  78
ATOM     78  C   UNL A   1      31.603  26.570  24.659  1.00  0.00     0.052 A 
ATOM     79  C   UNL A   1      32.709  25.714  24.628  1.00  0.00     0.055 A 
ATOM     80  C   UNL A   1      30.977  26.997  23.476  1.00  0.00     0.013 A 
ATOM     81  C   UNL A   1      33.210  25.371  23.393  1.00  0.00     0.129 A 
ATOM     82  C   UNL A   1      31.588  26.570  22.296  1.00  0.00     0.122 A 
ATOM     83  Cl  UNL A   1      34.600  24.379  23.251  1.00  0.00    -0.062 Cl
ATOM     84  N   UNL A   1      32.689  25.783  22.224  1.00  0.00    -0.244 NA
BRANCH  80  85
ATOM     85  C   UNL A   1      29.755  27.817  23.419  1.00  0.00    -0.015 A 
ATOM     86  C   UNL A   1      28.493  27.204  23.514  1.00  0.00     0.009 A 
ATOM     87  C   UNL A   1      29.800  29.212  23.265  1.00  0.00     0.021 A 
ATOM     88  C   UNL A   1      27.317  27.955  23.457  1.00  0.00     0.001 A 
ATOM     89  C   UNL A   1      28.624  29.982  23.220  1.00  0.00     0.056 A 
ATOM     90  C   UNL A   1      27.382  29.337  23.311  1.00  0.00     0.013 A 
BRANCH  89  91
ATOM     91  C   UNL A   1      28.677  31.483  23.072  1.00  0.00     0.416 C 
ATOM     92  F   UNL A   1      29.283  31.863  21.912  1.00  0.00    -0.166 F 
ATOM     93  F   UNL A   1      27.440  32.052  23.050  1.00  0.00    -0.166 F 
ATOM     94  F   UNL A   1      29.361  32.106  24.071  1.00  0.00    -0.166 F 
ENDBRANCH  89  91
ENDBRANCH  80  85
ENDBRANCH  75  78
ENDBRANCH  73  74
ENDBRANCH  72  73
ENDBRANCH   1  72
TORSDOF 16
ENDMDL
