MODEL 1
REMARK VINA RESULT:     -13.1      0.000      0.000
REMARK SMILES Cc1ccc(-c2c[nH]c(=O)cc2C(=O)NCCCCNC(=O)c2ccc(-c3c4nc(c(-c5cccc(S(=O)(=O)[O-])c5F)c5ccc([nH]5)c(-c5cccc(S(=O)(=O)[O-])c5F)c5nc(c(-c6cccc(S(=O)(=O)[O-])c6F)c6ccc3[nH]6)C=C5)C=C4)cc2)cc1Cl
REMARK SMILES IDX 18 1 17 2 16 3 15 4 13 5 14 6 12 8 6 9 7 10 8 11 11 12 9 13
REMARK SMILES IDX 10 15 5 16 1 17 2 18 3 19 87 20 4 21 86 22 88 23 19 24 20 25
REMARK SMILES IDX 21 26 22 28 23 29 24 30 85 31 25 32 84 33 26 34 27 35 28 36
REMARK SMILES IDX 78 37 29 38 83 39 77 40 79 41 30 42 82 43 76 44 75 45 31 47
REMARK SMILES IDX 63 48 43 49 62 50 44 51 47 52 61 53 80 54 45 55 46 56 60 58
REMARK SMILES IDX 81 59 48 60 32 61 33 62 41 63 34 64 36 65 42 66 35 67 37 68
REMARK SMILES IDX 38 69 39 70 40 71 64 72 65 73 73 74 66 75 68 76 74 77 67 78
REMARK SMILES IDX 69 79 70 80 71 81 72 82 49 83 50 84 58 85 51 86 53 87 59 88
REMARK SMILES IDX 52 89 54 90 55 91 56 92 57 93
REMARK H PARENT 15 7 8 14 20 27 79 46 47 57
REMARK Flexibility Score: inf
ROOT
ATOM      1  C   UNL A   1      36.114  21.232  25.365  1.00  0.00     0.023 C 
ENDROOT
BRANCH   1   2
ATOM      2  C   UNL A   1      35.477  22.391  26.145  1.00  0.00     0.023 C 
BRANCH   2   3
ATOM      3  C   UNL A   1      35.987  23.771  25.730  1.00  0.00     0.116 C 
BRANCH   3   4
ATOM      4  N   UNL A   1      35.388  24.183  24.478  1.00  0.00    -0.352 N 
ATOM      5  C   UNL A   1      34.158  24.572  24.061  1.00  0.00     0.252 C 
ATOM      6  O   UNL A   1      34.117  24.865  22.864  1.00  0.00    -0.269 OA
ATOM      7  H   UNL A   1      36.040  24.179  23.742  1.00  0.00     0.163 HD
BRANCH   5   8
ATOM      8  C   UNL A   1      32.928  24.712  24.936  1.00  0.00     0.054 A 
ATOM      9  C   UNL A   1      31.908  23.626  24.957  1.00  0.00     0.011 A 
ATOM     10  C   UNL A   1      30.759  23.821  25.634  1.00  0.00     0.095 A 
ATOM     11  N   UNL A   1      30.523  24.979  26.320  1.00  0.00    -0.328 N 
ATOM     12  C   UNL A   1      32.721  25.782  25.726  1.00  0.00     0.086 A 
ATOM     13  C   UNL A   1      31.436  25.988  26.435  1.00  0.00     0.248 A 
ATOM     14  H   UNL A   1      29.648  25.092  26.755  1.00  0.00     0.169 HD
ATOM     15  O   UNL A   1      31.216  27.012  27.065  1.00  0.00    -0.270 OA
BRANCH   9  16
ATOM     16  C   UNL A   1      32.057  22.273  24.371  1.00  0.00    -0.015 A 
ATOM     17  C   UNL A   1      32.398  18.338  22.597  1.00  0.00     0.046 C 
ATOM     18  C   UNL A   1      32.308  19.698  23.230  1.00  0.00    -0.032 A 
ATOM     19  C   UNL A   1      32.080  20.819  22.421  1.00  0.00     0.005 A 
ATOM     20  C   UNL A   1      32.435  19.885  24.614  1.00  0.00     0.044 A 
ATOM     21  C   UNL A   1      31.974  22.094  22.983  1.00  0.00     0.009 A 
ATOM     22  C   UNL A   1      32.300  21.157  25.182  1.00  0.00     0.029 A 
ATOM     23  Cl  UNL A   1      32.770  18.563  25.677  1.00  0.00    -0.084 Cl
ENDBRANCH   9  16
ENDBRANCH   5   8
ENDBRANCH   3   4
ENDBRANCH   2   3
ENDBRANCH   1   2
BRANCH   1  24
ATOM     24  C   UNL A   1      37.576  21.437  24.974  1.00  0.00     0.116 C 
BRANCH  24  25
ATOM     25  N   UNL A   1      38.444  20.353  25.416  1.00  0.00    -0.352 N 
ATOM     26  C   UNL A   1      39.600  20.434  26.155  1.00  0.00     0.251 C 
ATOM     27  H   UNL A   1      38.167  19.447  25.151  1.00  0.00     0.163 HD
ATOM     28  O   UNL A   1      40.286  19.436  26.348  1.00  0.00    -0.269 OA
BRANCH  26  29
ATOM     29  C   UNL A   1      40.019  21.748  26.678  1.00  0.00     0.039 A 
ATOM     30  C   UNL A   1      40.985  21.798  27.685  1.00  0.00     0.014 A 
ATOM     31  C   UNL A   1      39.506  22.922  26.122  1.00  0.00     0.014 A 
ATOM     32  C   UNL A   1      41.498  23.034  28.081  1.00  0.00     0.010 A 
ATOM     33  C   UNL A   1      40.067  24.145  26.470  1.00  0.00     0.010 A 
ATOM     34  C   UNL A   1      41.075  24.214  27.445  1.00  0.00    -0.014 A 
BRANCH  34  35
ATOM     35  C   UNL A   1      41.696  25.526  27.755  1.00  0.00     0.031 A 
ATOM     36  C   UNL A   1      40.902  26.586  28.467  1.00  0.00     0.074 A 
ATOM     37  C   UNL A   1      42.942  25.793  27.313  1.00  0.00     0.049 A 
ATOM     38  N   UNL A   1      41.231  27.822  28.735  1.00  0.00    -0.248 NA
ATOM     39  C   UNL A   1      39.549  26.214  28.920  1.00  0.00     0.031 C 
ATOM     40  C   UNL A   1      43.791  24.868  26.557  1.00  0.00     0.029 A 
ATOM     41  N   UNL A   1      43.701  26.933  27.406  1.00  0.00    -0.354 N 
ATOM     42  C   UNL A   1      40.126  28.382  29.365  1.00  0.00     0.074 A 
ATOM     43  C   UNL A   1      39.101  27.363  29.404  1.00  0.00     0.031 C 
ATOM     44  C   UNL A   1      44.950  25.476  26.258  1.00  0.00     0.029 A 
ATOM     45  C   UNL A   1      44.913  26.844  26.761  1.00  0.00     0.049 A 
ATOM     46  H   UNL A   1      43.406  27.738  27.890  1.00  0.00     0.167 HD
ATOM     47  C   UNL A   1      39.988  29.622  29.891  1.00  0.00     0.034 A 
ATOM     48  C   UNL A   1      45.876  27.769  26.577  1.00  0.00     0.034 A 
ATOM     49  C   UNL A   1      41.019  30.624  29.872  1.00  0.00     0.049 A 
ATOM     50  C   UNL A   1      45.686  29.144  27.161  1.00  0.00     0.074 A 
ATOM     51  C   UNL A   1      40.995  31.892  30.425  1.00  0.00     0.029 A 
ATOM     52  N   UNL A   1      42.257  30.476  29.266  1.00  0.00    -0.354 N 
ATOM     53  N   UNL A   1      44.687  29.610  27.872  1.00  0.00    -0.248 NA
ATOM     54  C   UNL A   1      46.769  30.114  26.944  1.00  0.00     0.031 C 
ATOM     55  C   UNL A   1      42.209  32.520  30.132  1.00  0.00     0.029 A 
ATOM     56  C   UNL A   1      43.002  31.632  29.425  1.00  0.00     0.049 A 
ATOM     57  H   UNL A   1      42.561  29.668  28.793  1.00  0.00     0.167 HD
ATOM     58  C   UNL A   1      45.042  30.909  28.220  1.00  0.00     0.074 A 
ATOM     59  C   UNL A   1      46.357  31.146  27.664  1.00  0.00     0.031 C 
ATOM     60  C   UNL A   1      44.335  31.830  28.919  1.00  0.00     0.034 A 
BRANCH  47  61
ATOM     61  C   UNL A   1      38.695  29.949  30.589  1.00  0.00     0.023 A 
ATOM     62  C   UNL A   1      38.486  29.489  31.906  1.00  0.00     0.012 A 
ATOM     63  C   UNL A   1      37.727  30.772  29.983  1.00  0.00     0.148 A 
ATOM     64  C   UNL A   1      37.323  29.821  32.599  1.00  0.00     0.002 A 
ATOM     65  C   UNL A   1      36.591  31.138  30.696  1.00  0.00     0.091 A 
ATOM     66  F   UNL A   1      37.936  31.186  28.725  1.00  0.00    -0.205 F 
ATOM     67  C   UNL A   1      36.382  30.655  31.999  1.00  0.00     0.022 A 
BRANCH  65  68
ATOM     68  S   UNL A   1      35.354  32.266  30.048  1.00  0.00     0.127 S 
ATOM     69  O   UNL A   1      34.427  32.367  31.174  1.00  0.00    -0.237 OA
ATOM     70  O   UNL A   1      36.143  33.473  29.798  1.00  0.00    -0.237 OA
ATOM     71  O   UNL A   1      34.812  31.631  28.855  1.00  0.00    -0.744 OA
ENDBRANCH  65  68
ENDBRANCH  47  61
BRANCH  48  72
ATOM     72  C   UNL A   1      47.127  27.431  25.838  1.00  0.00     0.023 A 
ATOM     73  C   UNL A   1      48.214  26.868  26.537  1.00  0.00     0.012 A 
ATOM     74  C   UNL A   1      47.259  27.685  24.459  1.00  0.00     0.148 A 
ATOM     75  C   UNL A   1      49.424  26.616  25.890  1.00  0.00     0.002 A 
ATOM     76  C   UNL A   1      48.448  27.375  23.808  1.00  0.00     0.091 A 
ATOM     77  F   UNL A   1      46.222  28.232  23.810  1.00  0.00    -0.205 F 
ATOM     78  C   UNL A   1      49.540  26.862  24.525  1.00  0.00     0.022 A 
BRANCH  76  79
ATOM     79  S   UNL A   1      48.639  27.540  22.029  1.00  0.00     0.127 S 
ATOM     80  O   UNL A   1      49.861  28.334  21.932  1.00  0.00    -0.237 OA
ATOM     81  O   UNL A   1      48.774  26.146  21.607  1.00  0.00    -0.237 OA
ATOM     82  O   UNL A   1      47.421  28.190  21.565  1.00  0.00    -0.744 OA
ENDBRANCH  76  79
ENDBRANCH  48  72
BRANCH  60  83
ATOM     83  C   UNL A   1      44.986  33.166  29.169  1.00  0.00     0.023 A 
ATOM     84  C   UNL A   1      45.711  33.383  30.356  1.00  0.00     0.012 A 
ATOM     85  C   UNL A   1      44.934  34.182  28.193  1.00  0.00     0.148 A 
ATOM     86  C   UNL A   1      46.343  34.605  30.588  1.00  0.00     0.002 A 
ATOM     87  C   UNL A   1      45.610  35.377  28.407  1.00  0.00     0.091 A 
ATOM     88  F   UNL A   1      44.227  33.961  27.076  1.00  0.00    -0.205 F 
ATOM     89  C   UNL A   1      46.303  35.595  29.609  1.00  0.00     0.022 A 
BRANCH  87  90
ATOM     90  S   UNL A   1      45.698  36.673  27.167  1.00  0.00     0.127 S 
ATOM     91  O   UNL A   1      44.300  37.090  27.072  1.00  0.00    -0.237 OA
ATOM     92  O   UNL A   1      46.583  37.649  27.804  1.00  0.00    -0.237 OA
ATOM     93  O   UNL A   1      46.245  36.049  25.969  1.00  0.00    -0.744 OA
ENDBRANCH  87  90
ENDBRANCH  60  83
ENDBRANCH  34  35
ENDBRANCH  26  29
ENDBRANCH  24  25
ENDBRANCH   1  24
TORSDOF 15
ENDMDL
MODEL 2
REMARK VINA RESULT:     -12.9      5.629     10.851
REMARK SMILES Cc1ccc(-c2c[nH]c(=O)cc2C(=O)NCCCCNC(=O)c2ccc(-c3c4nc(c(-c5cccc(S(=O)(=O)[O-])c5F)c5ccc([nH]5)c(-c5cccc(S(=O)(=O)[O-])c5F)c5nc(c(-c6cccc(S(=O)(=O)[O-])c6F)c6ccc3[nH]6)C=C5)C=C4)cc2)cc1Cl
REMARK SMILES IDX 18 1 17 2 16 3 15 4 13 5 14 6 12 8 6 9 7 10 8 11 11 12 9 13
REMARK SMILES IDX 10 15 5 16 1 17 2 18 3 19 87 20 4 21 86 22 88 23 19 24 20 25
REMARK SMILES IDX 21 26 22 28 23 29 24 30 85 31 25 32 84 33 26 34 27 35 28 36
REMARK SMILES IDX 78 37 29 38 83 39 77 40 79 41 30 42 82 43 76 44 75 45 31 47
REMARK SMILES IDX 63 48 43 49 62 50 44 51 47 52 61 53 80 54 45 55 46 56 60 58
REMARK SMILES IDX 81 59 48 60 32 61 33 62 41 63 34 64 36 65 42 66 35 67 37 68
REMARK SMILES IDX 38 69 39 70 40 71 64 72 65 73 73 74 66 75 68 76 74 77 67 78
REMARK SMILES IDX 69 79 70 80 71 81 72 82 49 83 50 84 58 85 51 86 53 87 59 88
REMARK SMILES IDX 52 89 54 90 55 91 56 92 57 93
REMARK H PARENT 15 7 8 14 20 27 79 46 47 57
REMARK Flexibility Score: inf
ROOT
ATOM      1  C   UNL A   1      31.956  30.112  25.460  1.00  0.00     0.023 C 
ENDROOT
BRANCH   1   2
ATOM      2  C   UNL A   1      33.189  29.293  25.050  1.00  0.00     0.023 C 
BRANCH   2   3
ATOM      3  C   UNL A   1      33.468  28.098  25.960  1.00  0.00     0.116 C 
BRANCH   3   4
ATOM      4  N   UNL A   1      32.286  27.275  26.103  1.00  0.00    -0.352 N 
ATOM      5  C   UNL A   1      31.622  26.371  25.341  1.00  0.00     0.252 C 
ATOM      6  O   UNL A   1      30.639  25.884  25.904  1.00  0.00    -0.269 OA
ATOM      7  H   UNL A   1      31.853  27.405  26.978  1.00  0.00     0.163 HD
BRANCH   5   8
ATOM      8  C   UNL A   1      32.025  25.917  23.952  1.00  0.00     0.054 A 
ATOM      9  C   UNL A   1      31.314  26.460  22.761  1.00  0.00     0.011 A 
ATOM     10  C   UNL A   1      31.591  25.949  21.545  1.00  0.00     0.095 A 
ATOM     11  N   UNL A   1      32.526  24.967  21.380  1.00  0.00    -0.328 N 
ATOM     12  C   UNL A   1      33.029  25.045  23.740  1.00  0.00     0.086 A 
ATOM     13  C   UNL A   1      33.293  24.475  22.398  1.00  0.00     0.248 A 
ATOM     14  H   UNL A   1      32.654  24.592  20.479  1.00  0.00     0.169 HD
ATOM     15  O   UNL A   1      34.136  23.605  22.232  1.00  0.00    -0.270 OA
BRANCH   9  16
ATOM     16  C   UNL A   1      30.368  27.601  22.750  1.00  0.00    -0.015 A 
ATOM     17  C   UNL A   1      27.685  30.999  22.771  1.00  0.00     0.046 C 
ATOM     18  C   UNL A   1      28.593  29.801  22.747  1.00  0.00    -0.032 A 
ATOM     19  C   UNL A   1      29.926  29.958  22.344  1.00  0.00     0.005 A 
ATOM     20  C   UNL A   1      28.153  28.525  23.127  1.00  0.00     0.044 A 
ATOM     21  C   UNL A   1      30.798  28.867  22.328  1.00  0.00     0.009 A 
ATOM     22  C   UNL A   1      29.033  27.437  23.139  1.00  0.00     0.029 A 
ATOM     23  Cl  UNL A   1      26.512  28.236  23.587  1.00  0.00    -0.084 Cl
ENDBRANCH   9  16
ENDBRANCH   5   8
ENDBRANCH   3   4
ENDBRANCH   2   3
ENDBRANCH   1   2
BRANCH   1  24
ATOM     24  C   UNL A   1      31.969  30.632  26.896  1.00  0.00     0.116 C 
BRANCH  24  25
ATOM     25  N   UNL A   1      31.890  32.085  26.979  1.00  0.00    -0.352 N 
ATOM     26  C   UNL A   1      32.805  32.960  27.515  1.00  0.00     0.251 C 
ATOM     27  H   UNL A   1      31.078  32.493  26.602  1.00  0.00     0.163 HD
ATOM     28  O   UNL A   1      32.541  34.152  27.617  1.00  0.00    -0.269 OA
BRANCH  26  29
ATOM     29  C   UNL A   1      34.094  32.431  28.002  1.00  0.00     0.039 A 
ATOM     30  C   UNL A   1      35.172  33.306  28.147  1.00  0.00     0.014 A 
ATOM     31  C   UNL A   1      34.207  31.090  28.376  1.00  0.00     0.014 A 
ATOM     32  C   UNL A   1      36.347  32.850  28.745  1.00  0.00     0.010 A 
ATOM     33  C   UNL A   1      35.352  30.658  29.034  1.00  0.00     0.010 A 
ATOM     34  C   UNL A   1      36.430  31.535  29.235  1.00  0.00    -0.014 A 
BRANCH  34  35
ATOM     35  C   UNL A   1      37.618  31.064  29.991  1.00  0.00     0.031 A 
ATOM     36  C   UNL A   1      38.564  30.075  29.367  1.00  0.00     0.074 A 
ATOM     37  C   UNL A   1      37.790  31.455  31.270  1.00  0.00     0.049 A 
ATOM     38  N   UNL A   1      39.594  29.471  29.900  1.00  0.00    -0.248 NA
ATOM     39  C   UNL A   1      38.308  29.701  27.964  1.00  0.00     0.031 C 
ATOM     40  C   UNL A   1      36.906  32.362  32.007  1.00  0.00     0.029 A 
ATOM     41  N   UNL A   1      38.750  31.113  32.190  1.00  0.00    -0.354 N 
ATOM     42  C   UNL A   1      40.094  28.632  28.912  1.00  0.00     0.074 A 
ATOM     43  C   UNL A   1      39.232  28.773  27.759  1.00  0.00     0.031 C 
ATOM     44  C   UNL A   1      37.365  32.506  33.260  1.00  0.00     0.029 A 
ATOM     45  C   UNL A   1      38.548  31.671  33.432  1.00  0.00     0.049 A 
ATOM     46  H   UNL A   1      39.512  30.526  31.981  1.00  0.00     0.167 HD
ATOM     47  C   UNL A   1      41.190  27.837  28.950  1.00  0.00     0.034 A 
ATOM     48  C   UNL A   1      39.228  31.509  34.585  1.00  0.00     0.034 A 
ATOM     49  C   UNL A   1      42.060  27.718  30.089  1.00  0.00     0.049 A 
ATOM     50  C   UNL A   1      40.433  30.606  34.599  1.00  0.00     0.074 A 
ATOM     51  C   UNL A   1      43.224  26.981  30.208  1.00  0.00     0.029 A 
ATOM     52  N   UNL A   1      41.859  28.347  31.308  1.00  0.00    -0.354 N 
ATOM     53  N   UNL A   1      40.968  29.926  33.613  1.00  0.00    -0.248 NA
ATOM     54  C   UNL A   1      41.148  30.472  35.876  1.00  0.00     0.031 C 
ATOM     55  C   UNL A   1      43.715  27.144  31.506  1.00  0.00     0.029 A 
ATOM     56  C   UNL A   1      42.873  28.009  32.186  1.00  0.00     0.049 A 
ATOM     57  H   UNL A   1      41.106  28.946  31.517  1.00  0.00     0.167 HD
ATOM     58  C   UNL A   1      42.103  29.319  34.142  1.00  0.00     0.074 A 
ATOM     59  C   UNL A   1      42.191  29.733  35.526  1.00  0.00     0.031 C 
ATOM     60  C   UNL A   1      42.981  28.479  33.543  1.00  0.00     0.034 A 
BRANCH  47  61
ATOM     61  C   UNL A   1      41.552  27.078  27.700  1.00  0.00     0.023 A 
ATOM     62  C   UNL A   1      42.057  27.782  26.588  1.00  0.00     0.012 A 
ATOM     63  C   UNL A   1      41.471  25.674  27.652  1.00  0.00     0.148 A 
ATOM     64  C   UNL A   1      42.451  27.102  25.436  1.00  0.00     0.002 A 
ATOM     65  C   UNL A   1      41.910  24.998  26.518  1.00  0.00     0.091 A 
ATOM     66  F   UNL A   1      40.973  25.024  28.714  1.00  0.00    -0.205 F 
ATOM     67  C   UNL A   1      42.389  25.711  25.406  1.00  0.00     0.022 A 
BRANCH  65  68
ATOM     68  S   UNL A   1      41.945  23.207  26.403  1.00  0.00     0.127 S 
ATOM     69  O   UNL A   1      42.652  23.006  25.139  1.00  0.00    -0.237 OA
ATOM     70  O   UNL A   1      42.711  22.840  27.595  1.00  0.00    -0.237 OA
ATOM     71  O   UNL A   1      40.555  22.773  26.411  1.00  0.00    -0.744 OA
ENDBRANCH  65  68
ENDBRANCH  47  61
BRANCH  48  72
ATOM     72  C   UNL A   1      38.817  32.236  35.821  1.00  0.00     0.023 A 
ATOM     73  C   UNL A   1      39.125  33.605  35.953  1.00  0.00     0.012 A 
ATOM     74  C   UNL A   1      38.149  31.581  36.874  1.00  0.00     0.148 A 
ATOM     75  C   UNL A   1      38.826  34.292  37.130  1.00  0.00     0.002 A 
ATOM     76  C   UNL A   1      37.800  32.287  38.019  1.00  0.00     0.091 A 
ATOM     77  F   UNL A   1      37.873  30.276  36.738  1.00  0.00    -0.205 F 
ATOM     78  C   UNL A   1      38.159  33.637  38.160  1.00  0.00     0.022 A 
BRANCH  76  79
ATOM     79  S   UNL A   1      36.827  31.554  39.339  1.00  0.00     0.127 S 
ATOM     80  O   UNL A   1      37.850  31.263  40.339  1.00  0.00    -0.237 OA
ATOM     81  O   UNL A   1      35.916  32.645  39.686  1.00  0.00    -0.237 OA
ATOM     82  O   UNL A   1      36.172  30.397  38.744  1.00  0.00    -0.744 OA
ENDBRANCH  76  79
ENDBRANCH  48  72
BRANCH  60  83
ATOM     83  C   UNL A   1      44.146  27.987  34.363  1.00  0.00     0.023 A 
ATOM     84  C   UNL A   1      45.314  28.768  34.465  1.00  0.00     0.012 A 
ATOM     85  C   UNL A   1      44.053  26.782  35.088  1.00  0.00     0.148 A 
ATOM     86  C   UNL A   1      46.387  28.338  35.243  1.00  0.00     0.002 A 
ATOM     87  C   UNL A   1      45.106  26.386  35.904  1.00  0.00     0.091 A 
ATOM     88  F   UNL A   1      42.939  26.046  34.966  1.00  0.00    -0.205 F 
ATOM     89  C   UNL A   1      46.279  27.156  35.971  1.00  0.00     0.022 A 
BRANCH  87  90
ATOM     90  S   UNL A   1      45.022  24.931  36.953  1.00  0.00     0.127 S 
ATOM     91  O   UNL A   1      43.829  25.208  37.752  1.00  0.00    -0.237 OA
ATOM     92  O   UNL A   1      44.864  23.855  35.974  1.00  0.00    -0.237 OA
ATOM     93  O   UNL A   1      46.275  24.897  37.696  1.00  0.00    -0.744 OA
ENDBRANCH  87  90
ENDBRANCH  60  83
ENDBRANCH  34  35
ENDBRANCH  26  29
ENDBRANCH  24  25
ENDBRANCH   1  24
TORSDOF 15
ENDMDL
MODEL 3
REMARK VINA RESULT:     -12.7      5.991     10.988
REMARK SMILES Cc1ccc(-c2c[nH]c(=O)cc2C(=O)NCCCCNC(=O)c2ccc(-c3c4nc(c(-c5cccc(S(=O)(=O)[O-])c5F)c5ccc([nH]5)c(-c5cccc(S(=O)(=O)[O-])c5F)c5nc(c(-c6cccc(S(=O)(=O)[O-])c6F)c6ccc3[nH]6)C=C5)C=C4)cc2)cc1Cl
REMARK SMILES IDX 18 1 17 2 16 3 15 4 13 5 14 6 12 8 6 9 7 10 8 11 11 12 9 13
REMARK SMILES IDX 10 15 5 16 1 17 2 18 3 19 87 20 4 21 86 22 88 23 19 24 20 25
REMARK SMILES IDX 21 26 22 28 23 29 24 30 85 31 25 32 84 33 26 34 27 35 28 36
REMARK SMILES IDX 78 37 29 38 83 39 77 40 79 41 30 42 82 43 76 44 75 45 31 47
REMARK SMILES IDX 63 48 43 49 62 50 44 51 47 52 61 53 80 54 45 55 46 56 60 58
REMARK SMILES IDX 81 59 48 60 32 61 33 62 41 63 34 64 36 65 42 66 35 67 37 68
REMARK SMILES IDX 38 69 39 70 40 71 64 72 65 73 73 74 66 75 68 76 74 77 67 78
REMARK SMILES IDX 69 79 70 80 71 81 72 82 49 83 50 84 58 85 51 86 53 87 59 88
REMARK SMILES IDX 52 89 54 90 55 91 56 92 57 93
REMARK H PARENT 15 7 8 14 20 27 79 46 47 57
REMARK Flexibility Score: inf
ROOT
ATOM      1  C   UNL A   1      31.904  31.307  26.880  1.00  0.00     0.023 C 
ENDROOT
BRANCH   1   2
ATOM      2  C   UNL A   1      32.386  30.205  25.927  1.00  0.00     0.023 C 
BRANCH   2   3
ATOM      3  C   UNL A   1      33.054  29.025  26.631  1.00  0.00     0.116 C 
BRANCH   3   4
ATOM      4  N   UNL A   1      32.093  27.975  26.895  1.00  0.00    -0.352 N 
ATOM      5  C   UNL A   1      31.314  27.149  26.153  1.00  0.00     0.252 C 
ATOM      6  O   UNL A   1      30.646  26.366  26.830  1.00  0.00    -0.269 OA
ATOM      7  H   UNL A   1      31.975  27.820  27.860  1.00  0.00     0.163 HD
BRANCH   5   8
ATOM      8  C   UNL A   1      31.264  27.102  24.638  1.00  0.00     0.054 A 
ATOM      9  C   UNL A   1      32.117  26.129  23.900  1.00  0.00     0.011 A 
ATOM     10  C   UNL A   1      32.162  26.188  22.554  1.00  0.00     0.095 A 
ATOM     11  N   UNL A   1      31.424  27.102  21.856  1.00  0.00    -0.328 N 
ATOM     12  C   UNL A   1      30.453  27.899  23.917  1.00  0.00     0.086 A 
ATOM     13  C   UNL A   1      30.545  27.969  22.440  1.00  0.00     0.248 A 
ATOM     14  H   UNL A   1      31.531  27.137  20.878  1.00  0.00     0.169 HD
ATOM     15  O   UNL A   1      29.881  28.771  21.799  1.00  0.00    -0.270 OA
BRANCH   9  16
ATOM     16  C   UNL A   1      32.878  25.005  24.494  1.00  0.00    -0.015 A 
ATOM     17  C   UNL A   1      35.194  21.749  26.161  1.00  0.00     0.046 C 
ATOM     18  C   UNL A   1      34.365  22.871  25.603  1.00  0.00    -0.032 A 
ATOM     19  C   UNL A   1      34.932  24.146  25.475  1.00  0.00     0.005 A 
ATOM     20  C   UNL A   1      33.037  22.684  25.193  1.00  0.00     0.044 A 
ATOM     21  C   UNL A   1      34.191  25.205  24.944  1.00  0.00     0.009 A 
ATOM     22  C   UNL A   1      32.303  23.736  24.635  1.00  0.00     0.029 A 
ATOM     23  Cl  UNL A   1      32.246  21.157  25.367  1.00  0.00    -0.084 Cl
ENDBRANCH   9  16
ENDBRANCH   5   8
ENDBRANCH   3   4
ENDBRANCH   2   3
ENDBRANCH   1   2
BRANCH   1  24
ATOM     24  C   UNL A   1      33.005  32.191  27.463  1.00  0.00     0.116 C 
BRANCH  24  25
ATOM     25  N   UNL A   1      32.602  33.583  27.613  1.00  0.00    -0.352 N 
ATOM     26  C   UNL A   1      33.110  34.530  28.471  1.00  0.00     0.251 C 
ATOM     27  H   UNL A   1      31.874  33.885  27.024  1.00  0.00     0.163 HD
ATOM     28  O   UNL A   1      32.583  35.634  28.561  1.00  0.00    -0.269 OA
BRANCH  26  29
ATOM     29  C   UNL A   1      34.273  34.182  29.308  1.00  0.00     0.039 A 
ATOM     30  C   UNL A   1      34.062  33.510  30.514  1.00  0.00     0.014 A 
ATOM     31  C   UNL A   1      35.568  34.459  28.862  1.00  0.00     0.014 A 
ATOM     32  C   UNL A   1      35.159  33.044  31.238  1.00  0.00     0.010 A 
ATOM     33  C   UNL A   1      36.655  33.933  29.550  1.00  0.00     0.010 A 
ATOM     34  C   UNL A   1      36.463  33.212  30.739  1.00  0.00    -0.014 A 
BRANCH  34  35
ATOM     35  C   UNL A   1      37.637  32.614  31.423  1.00  0.00     0.031 A 
ATOM     36  C   UNL A   1      38.346  31.437  30.809  1.00  0.00     0.074 A 
ATOM     37  C   UNL A   1      38.003  33.071  32.637  1.00  0.00     0.049 A 
ATOM     38  N   UNL A   1      39.320  30.716  31.299  1.00  0.00    -0.248 NA
ATOM     39  C   UNL A   1      37.886  31.001  29.479  1.00  0.00     0.031 C 
ATOM     40  C   UNL A   1      37.355  34.166  33.363  1.00  0.00     0.029 A 
ATOM     41  N   UNL A   1      38.992  32.650  33.492  1.00  0.00    -0.354 N 
ATOM     42  C   UNL A   1      39.576  29.731  30.353  1.00  0.00     0.074 A 
ATOM     43  C   UNL A   1      38.627  29.921  29.278  1.00  0.00     0.031 C 
ATOM     44  C   UNL A   1      37.963  34.330  34.550  1.00  0.00     0.029 A 
ATOM     45  C   UNL A   1      39.013  33.329  34.689  1.00  0.00     0.049 A 
ATOM     46  H   UNL A   1      39.627  31.931  33.269  1.00  0.00     0.167 HD
ATOM     47  C   UNL A   1      40.533  28.774  30.364  1.00  0.00     0.034 A 
ATOM     48  C   UNL A   1      39.779  33.149  35.783  1.00  0.00     0.034 A 
ATOM     49  C   UNL A   1      41.490  28.603  31.423  1.00  0.00     0.049 A 
ATOM     50  C   UNL A   1      40.825  32.065  35.770  1.00  0.00     0.074 A 
ATOM     51  C   UNL A   1      42.532  27.697  31.503  1.00  0.00     0.029 A 
ATOM     52  N   UNL A   1      41.522  29.351  32.591  1.00  0.00    -0.354 N 
ATOM     53  N   UNL A   1      41.139  31.231  34.808  1.00  0.00    -0.248 NA
ATOM     54  C   UNL A   1      41.642  31.916  36.982  1.00  0.00     0.031 C 
ATOM     55  C   UNL A   1      43.179  27.879  32.729  1.00  0.00     0.029 A 
ATOM     56  C   UNL A   1      42.560  28.921  33.399  1.00  0.00     0.049 A 
ATOM     57  H   UNL A   1      40.898  30.080  32.811  1.00  0.00     0.167 HD
ATOM     58  C   UNL A   1      42.216  30.490  35.284  1.00  0.00     0.074 A 
ATOM     59  C   UNL A   1      42.515  30.992  36.609  1.00  0.00     0.031 C 
ATOM     60  C   UNL A   1      42.884  29.472  34.689  1.00  0.00     0.034 A 
BRANCH  47  61
ATOM     61  C   UNL A   1      40.636  27.869  29.164  1.00  0.00     0.023 A 
ATOM     62  C   UNL A   1      39.773  26.758  29.062  1.00  0.00     0.012 A 
ATOM     63  C   UNL A   1      41.520  28.157  28.108  1.00  0.00     0.148 A 
ATOM     64  C   UNL A   1      39.807  25.933  27.939  1.00  0.00     0.002 A 
ATOM     65  C   UNL A   1      41.516  27.358  26.970  1.00  0.00     0.091 A 
ATOM     66  F   UNL A   1      42.343  29.208  28.231  1.00  0.00    -0.205 F 
ATOM     67  C   UNL A   1      40.668  26.240  26.889  1.00  0.00     0.022 A 
BRANCH  65  68
ATOM     68  S   UNL A   1      42.529  27.707  25.530  1.00  0.00     0.127 S 
ATOM     69  O   UNL A   1      43.855  27.854  26.130  1.00  0.00    -0.237 OA
ATOM     70  O   UNL A   1      42.353  26.493  24.732  1.00  0.00    -0.237 OA
ATOM     71  O   UNL A   1      41.982  28.917  24.933  1.00  0.00    -0.744 OA
ENDBRANCH  65  68
ENDBRANCH  47  61
BRANCH  48  72
ATOM     72  C   UNL A   1      39.621  34.029  36.978  1.00  0.00     0.023 A 
ATOM     73  C   UNL A   1      40.102  35.354  36.930  1.00  0.00     0.012 A 
ATOM     74  C   UNL A   1      39.025  33.560  38.164  1.00  0.00     0.148 A 
ATOM     75  C   UNL A   1      40.041  36.174  38.057  1.00  0.00     0.002 A 
ATOM     76  C   UNL A   1      38.914  34.403  39.264  1.00  0.00     0.091 A 
ATOM     77  F   UNL A   1      38.584  32.295  38.198  1.00  0.00    -0.205 F 
ATOM     78  C   UNL A   1      39.442  35.703  39.221  1.00  0.00     0.022 A 
BRANCH  76  79
ATOM     79  S   UNL A   1      38.042  33.920  40.759  1.00  0.00     0.127 S 
ATOM     80  O   UNL A   1      39.000  33.012  41.383  1.00  0.00    -0.237 OA
ATOM     81  O   UNL A   1      37.874  35.204  41.441  1.00  0.00    -0.237 OA
ATOM     82  O   UNL A   1      36.796  33.317  40.306  1.00  0.00    -0.744 OA
ENDBRANCH  76  79
ENDBRANCH  48  72
BRANCH  60  83
ATOM     83  C   UNL A   1      44.039  28.863  35.440  1.00  0.00     0.023 A 
ATOM     84  C   UNL A   1      45.330  29.410  35.309  1.00  0.00     0.012 A 
ATOM     85  C   UNL A   1      43.829  27.789  36.328  1.00  0.00     0.148 A 
ATOM     86  C   UNL A   1      46.403  28.874  36.020  1.00  0.00     0.002 A 
ATOM     87  C   UNL A   1      44.892  27.294  37.073  1.00  0.00     0.091 A 
ATOM     88  F   UNL A   1      42.596  27.272  36.427  1.00  0.00    -0.205 F 
ATOM     89  C   UNL A   1      46.181  27.825  36.910  1.00  0.00     0.022 A 
BRANCH  87  90
ATOM     90  S   UNL A   1      44.688  26.012  38.315  1.00  0.00     0.127 S 
ATOM     91  O   UNL A   1      46.071  25.769  38.722  1.00  0.00    -0.237 OA
ATOM     92  O   UNL A   1      43.865  26.685  39.320  1.00  0.00    -0.237 OA
ATOM     93  O   UNL A   1      44.033  24.899  37.641  1.00  0.00    -0.744 OA
ENDBRANCH  87  90
ENDBRANCH  60  83
ENDBRANCH  34  35
ENDBRANCH  26  29
ENDBRANCH  24  25
ENDBRANCH   1  24
TORSDOF 15
ENDMDL
