MODEL 1
REMARK VINA RESULT:     -11.3      0.000      0.000
REMARK SMILES CC[NH+](CC)[C@@H](C(=O)NCCCCNC(=O)c1ccc(-c2c3nc(c(-c4cccc(S(=O)(=O)[O-])c4F)c4ccc([nH]4)c(-c4cccc(S(=O)(=O)[O-])c4F)c4nc(c(-c5cccc(S(=O)(=O)[O-])c5F)c5ccc2[nH]5)C=C4)C=C3)cc1)c1ccc(C2CC2)cc1
REMARK SMILES IDX 12 1 11 2 10 3 9 4 7 5 8 6 6 8 3 9 2 11 1 12 4 13 5 14 80 15
REMARK SMILES IDX 81 16 88 17 82 18 87 19 83 20 84 21 85 22 86 23 13 24 14 25
REMARK SMILES IDX 15 26 16 28 17 29 18 30 79 31 19 32 78 33 20 34 21 35 22 36
REMARK SMILES IDX 72 37 23 38 77 39 71 40 73 41 24 42 76 43 70 44 69 45 25 47
REMARK SMILES IDX 57 48 37 49 56 50 38 51 41 52 55 53 74 54 39 55 40 56 54 58
REMARK SMILES IDX 75 59 42 60 26 61 27 62 35 63 28 64 30 65 36 66 29 67 31 68
REMARK SMILES IDX 32 69 33 70 34 71 58 72 59 73 67 74 60 75 62 76 68 77 61 78
REMARK SMILES IDX 63 79 64 80 65 81 66 82 43 83 44 84 52 85 45 86 47 87 53 88
REMARK SMILES IDX 46 89 48 90 49 91 50 92 51 93
REMARK H PARENT 9 7 3 10 14 27 73 46 41 57
REMARK Flexibility Score: inf
ROOT
ATOM      1  C   UNL A   1      37.757  19.902  24.628  1.00  0.00     0.023 C 
ENDROOT
BRANCH   1   2
ATOM      2  C   UNL A   1      36.270  19.767  24.956  1.00  0.00     0.023 C 
BRANCH   2   3
ATOM      3  C   UNL A   1      35.542  21.064  25.344  1.00  0.00     0.116 C 
BRANCH   3   4
ATOM      4  N   UNL A   1      35.412  22.028  24.262  1.00  0.00    -0.351 N 
ATOM      5  C   UNL A   1      34.338  22.562  23.594  1.00  0.00     0.283 C 
ATOM      6  O   UNL A   1      34.634  23.337  22.677  1.00  0.00    -0.268 OA
ATOM      7  H   UNL A   1      36.277  22.370  23.942  1.00  0.00     0.163 HD
BRANCH   5   8
ATOM      8  C   UNL A   1      32.866  22.176  23.943  1.00  0.00     0.305 C 
BRANCH   8   9
ATOM      9  N   UNL A   1      32.343  22.867  25.179  1.00  0.00    -0.321 N 
ATOM     10  H   UNL A   1      32.096  22.054  25.742  1.00  0.00     0.349 HD
BRANCH   9  11
ATOM     11  C   UNL A   1      33.308  23.596  26.014  1.00  0.00     0.259 C 
ATOM     12  C   UNL A   1      33.042  25.094  26.106  1.00  0.00     0.071 C 
ENDBRANCH   9  11
BRANCH   9  13
ATOM     13  C   UNL A   1      31.134  23.661  24.957  1.00  0.00     0.259 C 
ATOM     14  C   UNL A   1      30.656  23.796  23.506  1.00  0.00     0.071 C 
ENDBRANCH   9  13
ENDBRANCH   8   9
BRANCH   8  15
ATOM     15  C   UNL A   1      32.570  20.663  24.003  1.00  0.00     0.019 A 
ATOM     16  C   UNL A   1      32.525  19.841  22.871  1.00  0.00     0.011 A 
ATOM     17  C   UNL A   1      32.576  20.029  25.258  1.00  0.00     0.011 A 
ATOM     18  C   UNL A   1      32.654  18.450  22.988  1.00  0.00     0.004 A 
ATOM     19  C   UNL A   1      32.711  18.636  25.365  1.00  0.00     0.004 A 
ATOM     20  C   UNL A   1      32.840  17.821  24.230  1.00  0.00    -0.045 A 
BRANCH  20  21
ATOM     21  C   UNL A   1      33.286  16.372  24.261  1.00  0.00     0.019 C 
ATOM     22  C   UNL A   1      34.488  15.901  25.045  1.00  0.00     0.009 C 
ATOM     23  C   UNL A   1      33.104  15.525  25.491  1.00  0.00     0.009 C 
ENDBRANCH  20  21
ENDBRANCH   8  15
ENDBRANCH   5   8
ENDBRANCH   3   4
ENDBRANCH   2   3
ENDBRANCH   1   2
BRANCH   1  24
ATOM     24  C   UNL A   1      38.598  20.316  25.819  1.00  0.00     0.116 C 
BRANCH  24  25
ATOM     25  N   UNL A   1      39.707  19.389  26.030  1.00  0.00    -0.352 N 
ATOM     26  C   UNL A   1      41.037  19.662  26.199  1.00  0.00     0.251 C 
ATOM     27  H   UNL A   1      39.464  18.435  26.053  1.00  0.00     0.163 HD
ATOM     28  O   UNL A   1      41.868  18.756  26.098  1.00  0.00    -0.269 OA
BRANCH  26  29
ATOM     29  C   UNL A   1      41.460  21.038  26.506  1.00  0.00     0.039 A 
ATOM     30  C   UNL A   1      41.753  21.391  27.825  1.00  0.00     0.014 A 
ATOM     31  C   UNL A   1      41.565  21.978  25.478  1.00  0.00     0.014 A 
ATOM     32  C   UNL A   1      42.187  22.685  28.104  1.00  0.00     0.010 A 
ATOM     33  C   UNL A   1      42.096  23.229  25.742  1.00  0.00     0.010 A 
ATOM     34  C   UNL A   1      42.382  23.606  27.060  1.00  0.00    -0.014 A 
BRANCH  34  35
ATOM     35  C   UNL A   1      42.855  24.983  27.321  1.00  0.00     0.031 A 
ATOM     36  C   UNL A   1      41.935  25.973  27.980  1.00  0.00     0.074 A 
ATOM     37  C   UNL A   1      44.070  25.357  26.877  1.00  0.00     0.049 A 
ATOM     38  N   UNL A   1      42.137  27.237  28.239  1.00  0.00    -0.248 NA
ATOM     39  C   UNL A   1      40.594  25.492  28.362  1.00  0.00     0.031 C 
ATOM     40  C   UNL A   1      45.002  24.502  26.139  1.00  0.00     0.029 A 
ATOM     41  N   UNL A   1      44.718  26.563  26.959  1.00  0.00    -0.354 N 
ATOM     42  C   UNL A   1      40.942  27.709  28.770  1.00  0.00     0.074 A 
ATOM     43  C   UNL A   1      40.004  26.610  28.753  1.00  0.00     0.031 C 
ATOM     44  C   UNL A   1      46.106  25.207  25.845  1.00  0.00     0.029 A 
ATOM     45  C   UNL A   1      45.947  26.568  26.346  1.00  0.00     0.049 A 
ATOM     46  H   UNL A   1      44.337  27.349  27.413  1.00  0.00     0.167 HD
ATOM     47  C   UNL A   1      40.661  28.939  29.259  1.00  0.00     0.034 A 
ATOM     48  C   UNL A   1      46.843  27.563  26.202  1.00  0.00     0.034 A 
ATOM     49  C   UNL A   1      41.621  30.007  29.314  1.00  0.00     0.049 A 
ATOM     50  C   UNL A   1      46.534  28.902  26.812  1.00  0.00     0.074 A 
ATOM     51  C   UNL A   1      41.484  31.260  29.883  1.00  0.00     0.029 A 
ATOM     52  N   UNL A   1      42.897  29.948  28.773  1.00  0.00    -0.354 N 
ATOM     53  N   UNL A   1      45.461  29.284  27.464  1.00  0.00    -0.248 NA
ATOM     54  C   UNL A   1      47.572  29.936  26.705  1.00  0.00     0.031 C 
ATOM     55  C   UNL A   1      42.668  31.969  29.659  1.00  0.00     0.029 A 
ATOM     56  C   UNL A   1      43.555  31.146  28.982  1.00  0.00     0.049 A 
ATOM     57  H   UNL A   1      43.277  29.168  28.309  1.00  0.00     0.167 HD
ATOM     58  C   UNL A   1      45.707  30.588  27.872  1.00  0.00     0.074 A 
ATOM     59  C   UNL A   1      47.040  30.923  27.413  1.00  0.00     0.031 C 
ATOM     60  C   UNL A   1      44.900  31.439  28.555  1.00  0.00     0.034 A 
BRANCH  47  61
ATOM     61  C   UNL A   1      39.280  29.176  29.813  1.00  0.00     0.023 A 
ATOM     62  C   UNL A   1      38.971  28.759  31.125  1.00  0.00     0.012 A 
ATOM     63  C   UNL A   1      38.299  29.841  29.054  1.00  0.00     0.148 A 
ATOM     64  C   UNL A   1      37.698  28.961  31.656  1.00  0.00     0.002 A 
ATOM     65  C   UNL A   1      37.047  30.084  29.609  1.00  0.00     0.091 A 
ATOM     66  F   UNL A   1      38.600  30.210  27.800  1.00  0.00    -0.205 F 
ATOM     67  C   UNL A   1      36.740  29.632  30.902  1.00  0.00     0.022 A 
BRANCH  65  68
ATOM     68  S   UNL A   1      35.771  31.013  28.750  1.00  0.00     0.127 S 
ATOM     69  O   UNL A   1      35.139  29.969  27.945  1.00  0.00    -0.237 OA
ATOM     70  O   UNL A   1      34.954  31.506  29.859  1.00  0.00    -0.237 OA
ATOM     71  O   UNL A   1      36.464  32.049  27.999  1.00  0.00    -0.744 OA
ENDBRANCH  65  68
ENDBRANCH  47  61
BRANCH  48  72
ATOM     72  C   UNL A   1      48.139  27.300  25.517  1.00  0.00     0.023 A 
ATOM     73  C   UNL A   1      49.235  26.826  26.266  1.00  0.00     0.012 A 
ATOM     74  C   UNL A   1      48.278  27.467  24.126  1.00  0.00     0.148 A 
ATOM     75  C   UNL A   1      50.454  26.553  25.646  1.00  0.00     0.002 A 
ATOM     76  C   UNL A   1      49.480  27.139  23.506  1.00  0.00     0.091 A 
ATOM     77  F   UNL A   1      47.226  27.923  23.434  1.00  0.00    -0.205 F 
ATOM     78  C   UNL A   1      50.574  26.700  24.267  1.00  0.00     0.022 A 
BRANCH  76  79
ATOM     79  S   UNL A   1      49.683  27.167  21.722  1.00  0.00     0.127 S 
ATOM     80  O   UNL A   1      48.652  26.228  21.290  1.00  0.00    -0.237 OA
ATOM     81  O   UNL A   1      49.407  28.571  21.411  1.00  0.00    -0.237 OA
ATOM     82  O   UNL A   1      51.057  26.756  21.475  1.00  0.00    -0.744 OA
ENDBRANCH  76  79
ENDBRANCH  48  72
BRANCH  60  83
ATOM     83  C   UNL A   1      45.444  32.804  28.879  1.00  0.00     0.023 A 
ATOM     84  C   UNL A   1      46.192  33.000  30.057  1.00  0.00     0.012 A 
ATOM     85  C   UNL A   1      45.281  33.871  27.973  1.00  0.00     0.148 A 
ATOM     86  C   UNL A   1      46.740  34.250  30.344  1.00  0.00     0.002 A 
ATOM     87  C   UNL A   1      45.874  35.097  28.242  1.00  0.00     0.091 A 
ATOM     88  F   UNL A   1      44.551  33.665  26.867  1.00  0.00    -0.205 F 
ATOM     89  C   UNL A   1      46.593  35.292  29.433  1.00  0.00     0.022 A 
BRANCH  87  90
ATOM     90  S   UNL A   1      45.825  36.464  27.078  1.00  0.00     0.127 S 
ATOM     91  O   UNL A   1      46.598  37.484  27.785  1.00  0.00    -0.237 OA
ATOM     92  O   UNL A   1      46.491  35.897  25.906  1.00  0.00    -0.237 OA
ATOM     93  O   UNL A   1      44.415  36.774  26.881  1.00  0.00    -0.744 OA
ENDBRANCH  87  90
ENDBRANCH  60  83
ENDBRANCH  34  35
ENDBRANCH  26  29
ENDBRANCH  24  25
ENDBRANCH   1  24
TORSDOF 19
ENDMDL
MODEL 2
REMARK VINA RESULT:     -11.3      3.723      9.219
REMARK SMILES CC[NH+](CC)[C@@H](C(=O)NCCCCNC(=O)c1ccc(-c2c3nc(c(-c4cccc(S(=O)(=O)[O-])c4F)c4ccc([nH]4)c(-c4cccc(S(=O)(=O)[O-])c4F)c4nc(c(-c5cccc(S(=O)(=O)[O-])c5F)c5ccc2[nH]5)C=C4)C=C3)cc1)c1ccc(C2CC2)cc1
REMARK SMILES IDX 12 1 11 2 10 3 9 4 7 5 8 6 6 8 3 9 2 11 1 12 4 13 5 14 80 15
REMARK SMILES IDX 81 16 88 17 82 18 87 19 83 20 84 21 85 22 86 23 13 24 14 25
REMARK SMILES IDX 15 26 16 28 17 29 18 30 79 31 19 32 78 33 20 34 21 35 22 36
REMARK SMILES IDX 72 37 23 38 77 39 71 40 73 41 24 42 76 43 70 44 69 45 25 47
REMARK SMILES IDX 57 48 37 49 56 50 38 51 41 52 55 53 74 54 39 55 40 56 54 58
REMARK SMILES IDX 75 59 42 60 26 61 27 62 35 63 28 64 30 65 36 66 29 67 31 68
REMARK SMILES IDX 32 69 33 70 34 71 58 72 59 73 67 74 60 75 62 76 68 77 61 78
REMARK SMILES IDX 63 79 64 80 65 81 66 82 43 83 44 84 52 85 45 86 47 87 53 88
REMARK SMILES IDX 46 89 48 90 49 91 50 92 51 93
REMARK H PARENT 9 7 3 10 14 27 73 46 41 57
REMARK Flexibility Score: inf
ROOT
ATOM      1  C   UNL A   1      36.269  23.652  24.352  1.00  0.00     0.023 C 
ENDROOT
BRANCH   1   2
ATOM      2  C   UNL A   1      34.825  23.225  24.089  1.00  0.00     0.023 C 
BRANCH   2   3
ATOM      3  C   UNL A   1      33.926  24.265  23.403  1.00  0.00     0.116 C 
BRANCH   3   4
ATOM      4  N   UNL A   1      32.563  23.818  23.161  1.00  0.00    -0.351 N 
ATOM      5  C   UNL A   1      31.328  24.358  23.423  1.00  0.00     0.283 C 
ATOM      6  O   UNL A   1      30.373  23.641  23.105  1.00  0.00    -0.268 OA
ATOM      7  H   UNL A   1      32.517  22.942  22.716  1.00  0.00     0.163 HD
BRANCH   5   8
ATOM      8  C   UNL A   1      31.159  25.749  24.111  1.00  0.00     0.305 C 
BRANCH   8   9
ATOM      9  N   UNL A   1      30.932  25.657  25.601  1.00  0.00    -0.321 N 
ATOM     10  H   UNL A   1      29.999  26.064  25.660  1.00  0.00     0.349 HD
BRANCH   9  11
ATOM     11  C   UNL A   1      30.773  24.319  26.185  1.00  0.00     0.259 C 
ATOM     12  C   UNL A   1      32.030  23.784  26.863  1.00  0.00     0.071 C 
ENDBRANCH   9  11
BRANCH   9  13
ATOM     13  C   UNL A   1      31.845  26.476  26.400  1.00  0.00     0.259 C 
ATOM     14  C   UNL A   1      33.100  27.000  25.689  1.00  0.00     0.071 C 
ENDBRANCH   9  13
ENDBRANCH   8   9
BRANCH   8  15
ATOM     15  C   UNL A   1      30.124  26.693  23.463  1.00  0.00     0.019 A 
ATOM     16  C   UNL A   1      28.758  26.662  23.765  1.00  0.00     0.011 A 
ATOM     17  C   UNL A   1      30.593  27.787  22.714  1.00  0.00     0.011 A 
ATOM     18  C   UNL A   1      27.935  27.760  23.479  1.00  0.00     0.004 A 
ATOM     19  C   UNL A   1      29.762  28.884  22.437  1.00  0.00     0.004 A 
ATOM     20  C   UNL A   1      28.435  28.933  22.890  1.00  0.00    -0.045 A 
BRANCH  20  21
ATOM     21  C   UNL A   1      27.577  30.183  22.897  1.00  0.00     0.019 C 
ATOM     22  C   UNL A   1      27.900  31.394  23.741  1.00  0.00     0.009 C 
ATOM     23  C   UNL A   1      28.047  31.456  22.248  1.00  0.00     0.009 C 
ENDBRANCH  20  21
ENDBRANCH   8  15
ENDBRANCH   5   8
ENDBRANCH   3   4
ENDBRANCH   2   3
ENDBRANCH   1   2
BRANCH   1  24
ATOM     24  C   UNL A   1      36.641  23.631  25.821  1.00  0.00     0.116 C 
BRANCH  24  25
ATOM     25  N   UNL A   1      37.638  22.601  26.098  1.00  0.00    -0.352 N 
ATOM     26  C   UNL A   1      38.956  22.747  26.438  1.00  0.00     0.251 C 
ATOM     27  H   UNL A   1      37.319  21.672  26.031  1.00  0.00     0.163 HD
ATOM     28  O   UNL A   1      39.718  21.779  26.376  1.00  0.00    -0.269 OA
BRANCH  26  29
ATOM     29  C   UNL A   1      39.448  24.062  26.881  1.00  0.00     0.039 A 
ATOM     30  C   UNL A   1      40.025  24.930  25.953  1.00  0.00     0.014 A 
ATOM     31  C   UNL A   1      39.334  24.429  28.224  1.00  0.00     0.014 A 
ATOM     32  C   UNL A   1      40.456  26.187  26.371  1.00  0.00     0.010 A 
ATOM     33  C   UNL A   1      39.667  25.715  28.616  1.00  0.00     0.010 A 
ATOM     34  C   UNL A   1      40.260  26.595  27.702  1.00  0.00    -0.014 A 
BRANCH  34  35
ATOM     35  C   UNL A   1      40.693  27.928  28.175  1.00  0.00     0.031 A 
ATOM     36  C   UNL A   1      42.159  28.259  28.226  1.00  0.00     0.074 A 
ATOM     37  C   UNL A   1      39.773  28.792  28.644  1.00  0.00     0.049 A 
ATOM     38  N   UNL A   1      42.744  29.341  28.664  1.00  0.00    -0.248 NA
ATOM     39  C   UNL A   1      43.098  27.219  27.764  1.00  0.00     0.031 C 
ATOM     40  C   UNL A   1      38.335  28.533  28.730  1.00  0.00     0.029 A 
ATOM     41  N   UNL A   1      39.916  30.054  29.161  1.00  0.00    -0.354 N 
ATOM     42  C   UNL A   1      44.109  29.097  28.571  1.00  0.00     0.074 A 
ATOM     43  C   UNL A   1      44.269  27.748  28.080  1.00  0.00     0.031 C 
ATOM     44  C   UNL A   1      37.726  29.606  29.258  1.00  0.00     0.029 A 
ATOM     45  C   UNL A   1      38.731  30.615  29.574  1.00  0.00     0.049 A 
ATOM     46  H   UNL A   1      40.784  30.513  29.231  1.00  0.00     0.167 HD
ATOM     47  C   UNL A   1      45.138  29.935  28.838  1.00  0.00     0.034 A 
ATOM     48  C   UNL A   1      38.488  31.808  30.149  1.00  0.00     0.034 A 
ATOM     49  C   UNL A   1      44.961  31.291  29.278  1.00  0.00     0.049 A 
ATOM     50  C   UNL A   1      39.641  32.746  30.375  1.00  0.00     0.074 A 
ATOM     51  C   UNL A   1      45.922  32.264  29.478  1.00  0.00     0.029 A 
ATOM     52  N   UNL A   1      43.737  31.864  29.593  1.00  0.00    -0.354 N 
ATOM     53  N   UNL A   1      40.915  32.562  30.122  1.00  0.00    -0.248 NA
ATOM     54  C   UNL A   1      39.322  34.069  30.926  1.00  0.00     0.031 C 
ATOM     55  C   UNL A   1      45.281  33.417  29.943  1.00  0.00     0.029 A 
ATOM     56  C   UNL A   1      43.918  33.173  29.998  1.00  0.00     0.049 A 
ATOM     57  H   UNL A   1      42.869  31.405  29.535  1.00  0.00     0.167 HD
ATOM     58  C   UNL A   1      41.545  33.755  30.451  1.00  0.00     0.074 A 
ATOM     59  C   UNL A   1      40.509  34.662  30.902  1.00  0.00     0.031 C 
ATOM     60  C   UNL A   1      42.864  34.070  30.399  1.00  0.00     0.034 A 
BRANCH  47  61
ATOM     61  C   UNL A   1      46.537  29.421  28.616  1.00  0.00     0.023 A 
ATOM     62  C   UNL A   1      47.167  29.622  27.369  1.00  0.00     0.012 A 
ATOM     63  C   UNL A   1      47.244  28.773  29.647  1.00  0.00     0.148 A 
ATOM     64  C   UNL A   1      48.458  29.149  27.139  1.00  0.00     0.002 A 
ATOM     65  C   UNL A   1      48.549  28.349  29.426  1.00  0.00     0.091 A 
ATOM     66  F   UNL A   1      46.623  28.568  30.818  1.00  0.00    -0.205 F 
ATOM     67  C   UNL A   1      49.152  28.522  28.169  1.00  0.00     0.022 A 
BRANCH  65  68
ATOM     68  S   UNL A   1      49.557  27.606  30.713  1.00  0.00     0.127 S 
ATOM     69  O   UNL A   1      48.827  26.367  30.981  1.00  0.00    -0.237 OA
ATOM     70  O   UNL A   1      50.838  27.422  30.031  1.00  0.00    -0.237 OA
ATOM     71  O   UNL A   1      49.584  28.565  31.808  1.00  0.00    -0.744 OA
ENDBRANCH  65  68
ENDBRANCH  47  61
BRANCH  48  72
ATOM     72  C   UNL A   1      37.089  32.202  30.475  1.00  0.00     0.023 A 
ATOM     73  C   UNL A   1      36.595  31.989  31.777  1.00  0.00     0.012 A 
ATOM     74  C   UNL A   1      36.265  32.829  29.522  1.00  0.00     0.148 A 
ATOM     75  C   UNL A   1      35.295  32.366  32.116  1.00  0.00     0.002 A 
ATOM     76  C   UNL A   1      34.990  33.253  29.881  1.00  0.00     0.091 A 
ATOM     77  F   UNL A   1      36.752  33.018  28.288  1.00  0.00    -0.205 F 
ATOM     78  C   UNL A   1      34.497  33.007  31.172  1.00  0.00     0.022 A 
BRANCH  76  79
ATOM     79  S   UNL A   1      33.943  34.206  28.774  1.00  0.00     0.127 S 
ATOM     80  O   UNL A   1      33.554  33.198  27.792  1.00  0.00    -0.237 OA
ATOM     81  O   UNL A   1      32.871  34.637  29.673  1.00  0.00    -0.237 OA
ATOM     82  O   UNL A   1      34.780  35.287  28.274  1.00  0.00    -0.744 OA
ENDBRANCH  76  79
ENDBRANCH  48  72
BRANCH  60  83
ATOM     83  C   UNL A   1      43.262  35.463  30.806  1.00  0.00     0.023 A 
ATOM     84  C   UNL A   1      43.644  35.724  32.137  1.00  0.00     0.012 A 
ATOM     85  C   UNL A   1      43.331  36.494  29.848  1.00  0.00     0.148 A 
ATOM     86  C   UNL A   1      44.058  37.001  32.515  1.00  0.00     0.002 A 
ATOM     87  C   UNL A   1      43.794  37.749  30.221  1.00  0.00     0.091 A 
ATOM     88  F   UNL A   1      42.945  36.227  28.592  1.00  0.00    -0.205 F 
ATOM     89  C   UNL A   1      44.145  38.007  31.556  1.00  0.00     0.022 A 
BRANCH  87  90
ATOM     90  S   UNL A   1      44.038  39.075  29.036  1.00  0.00     0.127 S 
ATOM     91  O   UNL A   1      44.975  38.465  28.095  1.00  0.00    -0.237 OA
ATOM     92  O   UNL A   1      42.688  39.274  28.510  1.00  0.00    -0.237 OA
ATOM     93  O   UNL A   1      44.563  40.203  29.797  1.00  0.00    -0.744 OA
ENDBRANCH  87  90
ENDBRANCH  60  83
ENDBRANCH  34  35
ENDBRANCH  26  29
ENDBRANCH  24  25
ENDBRANCH   1  24
TORSDOF 19
ENDMDL
MODEL 3
REMARK VINA RESULT:     -11.1      6.575     11.734
REMARK SMILES CC[NH+](CC)[C@@H](C(=O)NCCCCNC(=O)c1ccc(-c2c3nc(c(-c4cccc(S(=O)(=O)[O-])c4F)c4ccc([nH]4)c(-c4cccc(S(=O)(=O)[O-])c4F)c4nc(c(-c5cccc(S(=O)(=O)[O-])c5F)c5ccc2[nH]5)C=C4)C=C3)cc1)c1ccc(C2CC2)cc1
REMARK SMILES IDX 12 1 11 2 10 3 9 4 7 5 8 6 6 8 3 9 2 11 1 12 4 13 5 14 80 15
REMARK SMILES IDX 81 16 88 17 82 18 87 19 83 20 84 21 85 22 86 23 13 24 14 25
REMARK SMILES IDX 15 26 16 28 17 29 18 30 79 31 19 32 78 33 20 34 21 35 22 36
REMARK SMILES IDX 72 37 23 38 77 39 71 40 73 41 24 42 76 43 70 44 69 45 25 47
REMARK SMILES IDX 57 48 37 49 56 50 38 51 41 52 55 53 74 54 39 55 40 56 54 58
REMARK SMILES IDX 75 59 42 60 26 61 27 62 35 63 28 64 30 65 36 66 29 67 31 68
REMARK SMILES IDX 32 69 33 70 34 71 58 72 59 73 67 74 60 75 62 76 68 77 61 78
REMARK SMILES IDX 63 79 64 80 65 81 66 82 43 83 44 84 52 85 45 86 47 87 53 88
REMARK SMILES IDX 46 89 48 90 49 91 50 92 51 93
REMARK H PARENT 9 7 3 10 14 27 73 46 41 57
REMARK Flexibility Score: inf
ROOT
ATOM      1  C   UNL A   1      31.418  32.353  26.857  1.00  0.00     0.023 C 
ENDROOT
BRANCH   1   2
ATOM      2  C   UNL A   1      31.567  31.009  26.144  1.00  0.00     0.023 C 
BRANCH   2   3
ATOM      3  C   UNL A   1      32.409  29.948  26.870  1.00  0.00     0.116 C 
BRANCH   3   4
ATOM      4  N   UNL A   1      31.722  28.685  27.097  1.00  0.00    -0.351 N 
ATOM      5  C   UNL A   1      31.694  27.489  26.424  1.00  0.00     0.283 C 
ATOM      6  O   UNL A   1      30.935  26.642  26.909  1.00  0.00    -0.268 OA
ATOM      7  H   UNL A   1      31.160  28.690  27.903  1.00  0.00     0.163 HD
BRANCH   5   8
ATOM      8  C   UNL A   1      32.523  27.247  25.124  1.00  0.00     0.305 C 
BRANCH   8   9
ATOM      9  N   UNL A   1      31.858  27.784  23.880  1.00  0.00    -0.321 N 
ATOM     10  H   UNL A   1      31.984  26.987  23.257  1.00  0.00     0.349 HD
BRANCH   9  11
ATOM     11  C   UNL A   1      30.402  27.979  23.915  1.00  0.00     0.259 C 
ATOM     12  C   UNL A   1      29.601  26.737  23.541  1.00  0.00     0.071 C 
ENDBRANCH   9  11
BRANCH   9  13
ATOM     13  C   UNL A   1      32.530  28.943  23.290  1.00  0.00     0.259 C 
ATOM     14  C   UNL A   1      34.047  28.831  23.092  1.00  0.00     0.071 C 
ENDBRANCH   9  13
ENDBRANCH   8   9
BRANCH   8  15
ATOM     15  C   UNL A   1      33.003  25.798  24.898  1.00  0.00     0.019 A 
ATOM     16  C   UNL A   1      33.212  25.243  23.630  1.00  0.00     0.011 A 
ATOM     17  C   UNL A   1      33.478  25.070  26.004  1.00  0.00     0.011 A 
ATOM     18  C   UNL A   1      34.010  24.102  23.468  1.00  0.00     0.004 A 
ATOM     19  C   UNL A   1      34.280  23.931  25.832  1.00  0.00     0.004 A 
ATOM     20  C   UNL A   1      34.636  23.471  24.555  1.00  0.00    -0.045 A 
BRANCH  20  21
ATOM     21  C   UNL A   1      35.724  22.449  24.285  1.00  0.00     0.019 C 
ATOM     22  C   UNL A   1      36.729  22.598  23.167  1.00  0.00     0.009 C 
ATOM     23  C   UNL A   1      37.166  22.743  24.596  1.00  0.00     0.009 C 
ENDBRANCH  20  21
ENDBRANCH   8  15
ENDBRANCH   5   8
ENDBRANCH   3   4
ENDBRANCH   2   3
ENDBRANCH   1   2
BRANCH   1  24
ATOM     24  C   UNL A   1      32.745  32.971  27.251  1.00  0.00     0.116 C 
BRANCH  24  25
ATOM     25  N   UNL A   1      32.562  34.321  27.778  1.00  0.00    -0.352 N 
ATOM     26  C   UNL A   1      33.126  34.898  28.883  1.00  0.00     0.251 C 
ATOM     27  H   UNL A   1      31.948  34.896  27.267  1.00  0.00     0.163 HD
ATOM     28  O   UNL A   1      32.663  35.948  29.333  1.00  0.00    -0.269 OA
BRANCH  26  29
ATOM     29  C   UNL A   1      34.288  34.257  29.521  1.00  0.00     0.039 A 
ATOM     30  C   UNL A   1      35.575  34.565  29.077  1.00  0.00     0.014 A 
ATOM     31  C   UNL A   1      34.093  33.347  30.563  1.00  0.00     0.014 A 
ATOM     32  C   UNL A   1      36.672  33.982  29.709  1.00  0.00     0.010 A 
ATOM     33  C   UNL A   1      35.185  32.851  31.255  1.00  0.00     0.010 A 
ATOM     34  C   UNL A   1      36.483  33.138  30.816  1.00  0.00    -0.014 A 
BRANCH  34  35
ATOM     35  C   UNL A   1      37.627  32.514  31.518  1.00  0.00     0.031 A 
ATOM     36  C   UNL A   1      38.373  31.383  30.865  1.00  0.00     0.074 A 
ATOM     37  C   UNL A   1      37.923  32.904  32.772  1.00  0.00     0.049 A 
ATOM     38  N   UNL A   1      39.358  30.667  31.336  1.00  0.00    -0.248 NA
ATOM     39  C   UNL A   1      37.926  30.973  29.520  1.00  0.00     0.031 C 
ATOM     40  C   UNL A   1      37.200  33.925  33.534  1.00  0.00     0.029 A 
ATOM     41  N   UNL A   1      38.894  32.469  33.636  1.00  0.00    -0.354 N 
ATOM     42  C   UNL A   1      39.617  29.701  30.371  1.00  0.00     0.074 A 
ATOM     43  C   UNL A   1      38.657  29.891  29.308  1.00  0.00     0.031 C 
ATOM     44  C   UNL A   1      37.759  34.044  34.748  1.00  0.00     0.029 A 
ATOM     45  C   UNL A   1      38.858  33.091  34.861  1.00  0.00     0.049 A 
ATOM     46  H   UNL A   1      39.553  31.777  33.402  1.00  0.00     0.167 HD
ATOM     47  C   UNL A   1      40.591  28.761  30.356  1.00  0.00     0.034 A 
ATOM     48  C   UNL A   1      39.624  32.907  35.952  1.00  0.00     0.034 A 
ATOM     49  C   UNL A   1      41.570  28.618  31.398  1.00  0.00     0.049 A 
ATOM     50  C   UNL A   1      40.741  31.903  35.887  1.00  0.00     0.074 A 
ATOM     51  C   UNL A   1      42.664  27.775  31.442  1.00  0.00     0.029 A 
ATOM     52  N   UNL A   1      41.566  29.335  32.586  1.00  0.00    -0.354 N 
ATOM     53  N   UNL A   1      41.080  31.111  34.896  1.00  0.00    -0.248 NA
ATOM     54  C   UNL A   1      41.605  31.792  37.069  1.00  0.00     0.031 C 
ATOM     55  C   UNL A   1      43.305  27.961  32.671  1.00  0.00     0.029 A 
ATOM     56  C   UNL A   1      42.631  28.945  33.376  1.00  0.00     0.049 A 
ATOM     57  H   UNL A   1      40.902  30.020  32.829  1.00  0.00     0.167 HD
ATOM     58  C   UNL A   1      42.215  30.433  35.323  1.00  0.00     0.074 A 
ATOM     59  C   UNL A   1      42.517  30.923  36.652  1.00  0.00     0.031 C 
ATOM     60  C   UNL A   1      42.937  29.481  34.679  1.00  0.00     0.034 A 
BRANCH  47  61
ATOM     61  C   UNL A   1      40.670  27.852  29.156  1.00  0.00     0.023 A 
ATOM     62  C   UNL A   1      39.855  26.702  29.094  1.00  0.00     0.012 A 
ATOM     63  C   UNL A   1      41.521  28.151  28.076  1.00  0.00     0.148 A 
ATOM     64  C   UNL A   1      39.917  25.844  27.998  1.00  0.00     0.002 A 
ATOM     65  C   UNL A   1      41.541  27.317  26.963  1.00  0.00     0.091 A 
ATOM     66  F   UNL A   1      42.308  29.234  28.161  1.00  0.00    -0.205 F 
ATOM     67  C   UNL A   1      40.752  26.156  26.929  1.00  0.00     0.022 A 
BRANCH  65  68
ATOM     68  S   UNL A   1      42.519  27.677  25.500  1.00  0.00     0.127 S 
ATOM     69  O   UNL A   1      42.260  26.497  24.676  1.00  0.00    -0.237 OA
ATOM     70  O   UNL A   1      41.899  28.909  25.013  1.00  0.00    -0.237 OA
ATOM     71  O   UNL A   1      43.891  27.829  25.961  1.00  0.00    -0.744 OA
ENDBRANCH  65  68
ENDBRANCH  47  61
BRANCH  48  72
ATOM     72  C   UNL A   1      39.403  33.746  37.163  1.00  0.00     0.023 A 
ATOM     73  C   UNL A   1      39.836  35.087  37.165  1.00  0.00     0.012 A 
ATOM     74  C   UNL A   1      38.724  33.243  38.288  1.00  0.00     0.148 A 
ATOM     75  C   UNL A   1      39.624  35.902  38.277  1.00  0.00     0.002 A 
ATOM     76  C   UNL A   1      38.466  34.075  39.372  1.00  0.00     0.091 A 
ATOM     77  F   UNL A   1      38.324  31.964  38.268  1.00  0.00    -0.205 F 
ATOM     78  C   UNL A   1      38.931  35.400  39.376  1.00  0.00     0.022 A 
BRANCH  76  79
ATOM     79  S   UNL A   1      37.465  33.557  40.770  1.00  0.00     0.127 S 
ATOM     80  O   UNL A   1      36.414  32.784  40.114  1.00  0.00    -0.237 OA
ATOM     81  O   UNL A   1      38.421  32.764  41.545  1.00  0.00    -0.237 OA
ATOM     82  O   UNL A   1      37.033  34.784  41.423  1.00  0.00    -0.744 OA
ENDBRANCH  76  79
ENDBRANCH  48  72
BRANCH  60  83
ATOM     83  C   UNL A   1      44.144  28.929  35.386  1.00  0.00     0.023 A 
ATOM     84  C   UNL A   1      45.412  29.504  35.166  1.00  0.00     0.012 A 
ATOM     85  C   UNL A   1      44.007  27.890  36.328  1.00  0.00     0.148 A 
ATOM     86  C   UNL A   1      46.530  29.030  35.851  1.00  0.00     0.002 A 
ATOM     87  C   UNL A   1      45.116  27.460  37.043  1.00  0.00     0.091 A 
ATOM     88  F   UNL A   1      42.794  27.346  36.507  1.00  0.00    -0.205 F 
ATOM     89  C   UNL A   1      46.381  28.019  36.796  1.00  0.00     0.022 A 
BRANCH  87  90
ATOM     90  S   UNL A   1      45.000  26.237  38.353  1.00  0.00     0.127 S 
ATOM     91  O   UNL A   1      44.393  25.107  37.652  1.00  0.00    -0.237 OA
ATOM     92  O   UNL A   1      46.402  26.044  38.722  1.00  0.00    -0.237 OA
ATOM     93  O   UNL A   1      44.179  26.840  39.395  1.00  0.00    -0.744 OA
ENDBRANCH  87  90
ENDBRANCH  60  83
ENDBRANCH  34  35
ENDBRANCH  26  29
ENDBRANCH  24  25
ENDBRANCH   1  24
TORSDOF 19
ENDMDL
