MODEL 1
REMARK VINA RESULT:     -13.4      0.000      0.000
REMARK SMILES O=C(NCCCCNC(=O)[C@H]1[C@H]2CC[C@H](C2)[C@@H]1C(=O)Nc1sc2c(c1C(=O)NC1CCCCC1)CCCC2)c1ccc(-c2c3nc(c(-c4cccc(S(=O)(=O)[O-])c4F)c4ccc([nH]4)c(-c4cccc(S(=O)(=O)[O-])c4F)c4nc(c(-c5cccc(S(=O)(=O)[O-])c5F)c5ccc2[nH]5)C=C4)C=C3)cc1
REMARK SMILES IDX 6 1 5 2 4 3 3 4 1 5 2 6 39 8 40 9 101 10 41 11 100 12 42 13
REMARK SMILES IDX 43 14 44 15 94 16 45 17 99 18 93 19 95 20 46 21 98 22 92 23
REMARK SMILES IDX 91 24 47 26 79 27 59 28 78 29 60 30 63 31 77 32 96 33 61 34
REMARK SMILES IDX 62 35 76 37 97 38 64 39 48 40 49 41 57 42 50 43 52 44 58 45
REMARK SMILES IDX 51 46 53 47 54 48 55 49 56 50 80 51 81 52 89 53 82 54 84 55
REMARK SMILES IDX 90 56 83 57 85 58 86 59 87 60 88 61 65 62 66 63 74 64 67 65
REMARK SMILES IDX 69 66 75 67 68 68 70 69 71 70 72 71 73 72 7 73 8 74 9 75
REMARK SMILES IDX 10 77 11 78 12 79 17 80 13 81 16 82 15 83 14 84 18 85 19 86
REMARK SMILES IDX 20 87 21 89 22 90 25 91 23 92 24 93 38 94 35 95 37 96 36 97
REMARK SMILES IDX 26 98 27 99 28 100 29 102 30 103 34 104 31 105 33 106 32 107
REMARK H PARENT 3 7 95 25 63 36 8 76 20 88 28 101
REMARK Flexibility Score: inf
ROOT
ATOM      1  C   UNL A   1      31.583  30.805  25.991  1.00  0.00     0.023 C 
ENDROOT
BRANCH   1   2
ATOM      2  C   UNL A   1      31.433  32.211  26.586  1.00  0.00     0.023 C 
BRANCH   2   3
ATOM      3  C   UNL A   1      32.673  32.782  27.269  1.00  0.00     0.116 C 
BRANCH   3   4
ATOM      4  N   UNL A   1      32.483  34.147  27.721  1.00  0.00    -0.352 N 
ATOM      5  O   UNL A   1      32.748  35.945  29.048  1.00  0.00    -0.269 OA
ATOM      6  C   UNL A   1      33.141  34.830  28.717  1.00  0.00     0.251 C 
ATOM      7  H   UNL A   1      31.786  34.657  27.248  1.00  0.00     0.163 HD
BRANCH   6   8
ATOM      8  C   UNL A   1      34.296  34.211  29.407  1.00  0.00     0.039 A 
ATOM      9  C   UNL A   1      35.609  34.478  29.007  1.00  0.00     0.014 A 
ATOM     10  C   UNL A   1      34.054  33.369  30.496  1.00  0.00     0.014 A 
ATOM     11  C   UNL A   1      36.672  33.825  29.634  1.00  0.00     0.010 A 
ATOM     12  C   UNL A   1      35.122  32.751  31.152  1.00  0.00     0.010 A 
ATOM     13  C   UNL A   1      36.438  32.954  30.709  1.00  0.00    -0.014 A 
BRANCH  13  14
ATOM     14  C   UNL A   1      37.577  32.296  31.399  1.00  0.00     0.031 A 
ATOM     15  C   UNL A   1      38.301  31.142  30.764  1.00  0.00     0.074 A 
ATOM     16  C   UNL A   1      37.941  32.728  32.621  1.00  0.00     0.049 A 
ATOM     17  N   UNL A   1      39.319  30.460  31.223  1.00  0.00    -0.248 NA
ATOM     18  C   UNL A   1      37.821  30.691  29.449  1.00  0.00     0.031 C 
ATOM     19  C   UNL A   1      37.282  33.805  33.361  1.00  0.00     0.029 A 
ATOM     20  N   UNL A   1      38.943  32.309  33.460  1.00  0.00    -0.354 N 
ATOM     21  C   UNL A   1      39.583  29.481  30.273  1.00  0.00     0.074 A 
ATOM     22  C   UNL A   1      38.612  29.652  29.212  1.00  0.00     0.031 C 
ATOM     23  C   UNL A   1      37.900  33.967  34.540  1.00  0.00     0.029 A 
ATOM     24  C   UNL A   1      38.981  32.992  34.652  1.00  0.00     0.049 A 
ATOM     25  H   UNL A   1      39.573  31.589  33.230  1.00  0.00     0.167 HD
ATOM     26  C   UNL A   1      40.557  28.541  30.271  1.00  0.00     0.034 A 
ATOM     27  C   UNL A   1      39.793  32.850  35.719  1.00  0.00     0.034 A 
ATOM     28  C   UNL A   1      41.552  28.401  31.302  1.00  0.00     0.049 A 
ATOM     29  C   UNL A   1      40.890  31.824  35.673  1.00  0.00     0.074 A 
ATOM     30  C   UNL A   1      42.621  27.523  31.351  1.00  0.00     0.029 A 
ATOM     31  N   UNL A   1      41.599  29.154  32.463  1.00  0.00    -0.354 N 
ATOM     32  N   UNL A   1      41.211  31.006  34.702  1.00  0.00    -0.248 NA
ATOM     33  C   UNL A   1      41.755  31.722  36.858  1.00  0.00     0.031 C 
ATOM     34  C   UNL A   1      43.317  27.748  32.545  1.00  0.00     0.029 A 
ATOM     35  C   UNL A   1      42.677  28.762  33.239  1.00  0.00     0.049 A 
ATOM     36  H   UNL A   1      40.961  29.864  32.702  1.00  0.00     0.167 HD
ATOM     37  C   UNL A   1      42.325  30.304  35.147  1.00  0.00     0.074 A 
ATOM     38  C   UNL A   1      42.639  30.813  36.468  1.00  0.00     0.031 C 
ATOM     39  C   UNL A   1      43.012  29.314  34.526  1.00  0.00     0.034 A 
BRANCH  26  40
ATOM     40  C   UNL A   1      40.643  27.627  29.080  1.00  0.00     0.023 A 
ATOM     41  C   UNL A   1      39.766  26.528  28.996  1.00  0.00     0.012 A 
ATOM     42  C   UNL A   1      41.536  27.881  28.021  1.00  0.00     0.148 A 
ATOM     43  C   UNL A   1      39.787  25.685  27.885  1.00  0.00     0.002 A 
ATOM     44  C   UNL A   1      41.533  27.053  26.904  1.00  0.00     0.091 A 
ATOM     45  F   UNL A   1      42.387  28.912  28.130  1.00  0.00    -0.205 F 
ATOM     46  C   UNL A   1      40.662  25.953  26.835  1.00  0.00     0.022 A 
BRANCH  44  47
ATOM     47  S   UNL A   1      42.592  27.374  25.488  1.00  0.00     0.127 S 
ATOM     48  O   UNL A   1      43.919  27.365  26.102  1.00  0.00    -0.237 OA
ATOM     49  O   UNL A   1      42.318  26.231  24.616  1.00  0.00    -0.237 OA
ATOM     50  O   UNL A   1      42.142  28.653  24.956  1.00  0.00    -0.744 OA
ENDBRANCH  44  47
ENDBRANCH  26  40
BRANCH  27  51
ATOM     51  C   UNL A   1      39.636  33.768  36.880  1.00  0.00     0.023 A 
ATOM     52  C   UNL A   1      39.995  35.120  36.738  1.00  0.00     0.012 A 
ATOM     53  C   UNL A   1      39.059  33.331  38.089  1.00  0.00     0.148 A 
ATOM     54  C   UNL A   1      39.791  36.022  37.783  1.00  0.00     0.002 A 
ATOM     55  C   UNL A   1      38.811  34.245  39.106  1.00  0.00     0.091 A 
ATOM     56  F   UNL A   1      38.745  32.033  38.214  1.00  0.00    -0.205 F 
ATOM     57  C   UNL A   1      39.185  35.588  38.960  1.00  0.00     0.022 A 
BRANCH  55  58
ATOM     58  S   UNL A   1      37.903  33.786  40.588  1.00  0.00     0.127 S 
ATOM     59  O   UNL A   1      38.843  32.886  41.249  1.00  0.00    -0.237 OA
ATOM     60  O   UNL A   1      37.715  35.077  41.251  1.00  0.00    -0.237 OA
ATOM     61  O   UNL A   1      36.667  33.183  40.104  1.00  0.00    -0.744 OA
ENDBRANCH  55  58
ENDBRANCH  27  51
BRANCH  39  62
ATOM     62  C   UNL A   1      44.175  28.708  35.262  1.00  0.00     0.023 A 
ATOM     63  C   UNL A   1      45.469  29.215  35.033  1.00  0.00     0.012 A 
ATOM     64  C   UNL A   1      43.984  27.704  36.229  1.00  0.00     0.148 A 
ATOM     65  C   UNL A   1      46.560  28.717  35.744  1.00  0.00     0.002 A 
ATOM     66  C   UNL A   1      45.073  27.234  36.957  1.00  0.00     0.091 A 
ATOM     67  F   UNL A   1      42.750  27.215  36.414  1.00  0.00    -0.205 F 
ATOM     68  C   UNL A   1      46.362  27.736  36.713  1.00  0.00     0.022 A 
BRANCH  66  69
ATOM     69  S   UNL A   1      44.876  26.027  38.273  1.00  0.00     0.127 S 
ATOM     70  O   UNL A   1      43.989  26.731  39.196  1.00  0.00    -0.237 OA
ATOM     71  O   UNL A   1      44.259  24.894  37.581  1.00  0.00    -0.237 OA
ATOM     72  O   UNL A   1      46.223  25.763  38.762  1.00  0.00    -0.744 OA
ENDBRANCH  66  69
ENDBRANCH  39  62
ENDBRANCH  13  14
ENDBRANCH   6   8
ENDBRANCH   3   4
ENDBRANCH   2   3
ENDBRANCH   1   2
BRANCH   1  73
ATOM     73  C   UNL A   1      31.769  29.680  27.007  1.00  0.00     0.116 C 
BRANCH  73  74
ATOM     74  N   UNL A   1      32.740  28.707  26.557  1.00  0.00    -0.356 N 
ATOM     75  C   UNL A   1      32.607  27.545  25.880  1.00  0.00     0.224 C 
ATOM     76  H   UNL A   1      33.670  28.934  26.787  1.00  0.00     0.163 HD
ATOM     77  O   UNL A   1      33.655  27.043  25.468  1.00  0.00    -0.275 OA
BRANCH  75  78
ATOM     78  C   UNL A   1      31.238  26.951  25.562  1.00  0.00     0.094 C 
ATOM     79  C   UNL A   1      30.591  27.741  24.375  1.00  0.00     0.002 C 
ATOM     80  C   UNL A   1      31.189  25.497  25.028  1.00  0.00     0.094 C 
ATOM     81  C   UNL A   1      31.360  27.596  23.038  1.00  0.00     0.005 C 
ATOM     82  C   UNL A   1      29.395  26.855  24.086  1.00  0.00     0.009 C 
ATOM     83  C   UNL A   1      30.258  25.615  23.797  1.00  0.00     0.002 C 
ATOM     84  C   UNL A   1      31.097  26.144  22.622  1.00  0.00     0.005 C 
BRANCH  80  85
ATOM     85  C   UNL A   1      30.903  24.366  26.039  1.00  0.00     0.229 C 
ATOM     86  O   UNL A   1      29.867  24.456  26.717  1.00  0.00    -0.274 OA
ATOM     87  N   UNL A   1      31.572  23.187  26.151  1.00  0.00    -0.317 N 
ATOM     88  H   UNL A   1      31.011  22.439  26.457  1.00  0.00     0.170 HD
BRANCH  87  89
ATOM     89  C   UNL A   1      32.881  22.841  25.916  1.00  0.00     0.108 A 
ATOM     90  S   UNL A   1      33.965  22.859  27.219  1.00  0.00    -0.122 S 
ATOM     91  C   UNL A   1      33.406  22.162  24.812  1.00  0.00     0.078 A 
ATOM     92  C   UNL A   1      35.265  22.618  26.167  1.00  0.00     0.011 A 
ATOM     93  C   UNL A   1      34.857  22.075  24.956  1.00  0.00    -0.019 A 
ATOM     94  C   UNL A   1      36.671  22.891  26.595  1.00  0.00     0.047 C 
ATOM     95  C   UNL A   1      35.897  21.552  24.003  1.00  0.00     0.037 C 
ATOM     96  C   UNL A   1      37.603  22.807  25.383  1.00  0.00     0.006 C 
ATOM     97  C   UNL A   1      37.316  21.522  24.597  1.00  0.00     0.005 C 
BRANCH  91  98
ATOM     98  C   UNL A   1      32.467  21.702  23.778  1.00  0.00     0.254 C 
ATOM     99  O   UNL A   1      31.794  22.521  23.153  1.00  0.00    -0.269 OA
ATOM    100  N   UNL A   1      32.360  20.398  23.366  1.00  0.00    -0.349 N 
ATOM    101  H   UNL A   1      31.761  20.274  22.596  1.00  0.00     0.164 HD
BRANCH 100 102
ATOM    102  C   UNL A   1      32.956  19.168  23.843  1.00  0.00     0.082 C 
ATOM    103  C   UNL A   1      32.333  18.714  25.170  1.00  0.00     0.025 C 
ATOM    104  C   UNL A   1      32.881  18.021  22.830  1.00  0.00     0.025 C 
ATOM    105  C   UNL A   1      33.102  17.515  25.725  1.00  0.00     0.002 C 
ATOM    106  C   UNL A   1      33.633  16.794  23.346  1.00  0.00     0.002 C 
ATOM    107  C   UNL A   1      33.150  16.359  24.727  1.00  0.00     0.000 C 
ENDBRANCH 100 102
ENDBRANCH  91  98
ENDBRANCH  87  89
ENDBRANCH  80  85
ENDBRANCH  75  78
ENDBRANCH  73  74
ENDBRANCH   1  73
TORSDOF 18
ENDMDL
MODEL 2
REMARK VINA RESULT:     -12.7      3.376      8.002
REMARK SMILES O=C(NCCCCNC(=O)[C@H]1[C@H]2CC[C@H](C2)[C@@H]1C(=O)Nc1sc2c(c1C(=O)NC1CCCCC1)CCCC2)c1ccc(-c2c3nc(c(-c4cccc(S(=O)(=O)[O-])c4F)c4ccc([nH]4)c(-c4cccc(S(=O)(=O)[O-])c4F)c4nc(c(-c5cccc(S(=O)(=O)[O-])c5F)c5ccc2[nH]5)C=C4)C=C3)cc1
REMARK SMILES IDX 6 1 5 2 4 3 3 4 1 5 2 6 39 8 40 9 101 10 41 11 100 12 42 13
REMARK SMILES IDX 43 14 44 15 94 16 45 17 99 18 93 19 95 20 46 21 98 22 92 23
REMARK SMILES IDX 91 24 47 26 79 27 59 28 78 29 60 30 63 31 77 32 96 33 61 34
REMARK SMILES IDX 62 35 76 37 97 38 64 39 48 40 49 41 57 42 50 43 52 44 58 45
REMARK SMILES IDX 51 46 53 47 54 48 55 49 56 50 80 51 81 52 89 53 82 54 84 55
REMARK SMILES IDX 90 56 83 57 85 58 86 59 87 60 88 61 65 62 66 63 74 64 67 65
REMARK SMILES IDX 69 66 75 67 68 68 70 69 71 70 72 71 73 72 7 73 8 74 9 75
REMARK SMILES IDX 10 77 11 78 12 79 17 80 13 81 16 82 15 83 14 84 18 85 19 86
REMARK SMILES IDX 20 87 21 89 22 90 25 91 23 92 24 93 38 94 35 95 37 96 36 97
REMARK SMILES IDX 26 98 27 99 28 100 29 102 30 103 34 104 31 105 33 106 32 107
REMARK H PARENT 3 7 95 25 63 36 8 76 20 88 28 101
REMARK Flexibility Score: inf
ROOT
ATOM      1  C   UNL A   1      34.022  26.406  26.146  1.00  0.00     0.023 C 
ENDROOT
BRANCH   1   2
ATOM      2  C   UNL A   1      33.589  27.790  26.649  1.00  0.00     0.023 C 
BRANCH   2   3
ATOM      3  C   UNL A   1      34.259  28.985  25.976  1.00  0.00     0.116 C 
BRANCH   3   4
ATOM      4  N   UNL A   1      33.915  30.246  26.605  1.00  0.00    -0.352 N 
ATOM      5  O   UNL A   1      34.034  31.902  28.122  1.00  0.00    -0.269 OA
ATOM      6  C   UNL A   1      34.551  30.904  27.630  1.00  0.00     0.251 C 
ATOM      7  H   UNL A   1      33.115  30.694  26.246  1.00  0.00     0.163 HD
BRANCH   6   8
ATOM      8  C   UNL A   1      35.838  30.394  28.159  1.00  0.00     0.039 A 
ATOM      9  C   UNL A   1      37.051  30.690  27.529  1.00  0.00     0.014 A 
ATOM     10  C   UNL A   1      35.825  29.628  29.328  1.00  0.00     0.014 A 
ATOM     11  C   UNL A   1      38.237  30.137  28.013  1.00  0.00     0.010 A 
ATOM     12  C   UNL A   1      37.020  29.113  29.838  1.00  0.00     0.010 A 
ATOM     13  C   UNL A   1      38.232  29.341  29.170  1.00  0.00    -0.014 A 
BRANCH  13  14
ATOM     14  C   UNL A   1      39.504  28.791  29.703  1.00  0.00     0.031 A 
ATOM     15  C   UNL A   1      40.137  29.369  30.939  1.00  0.00     0.074 A 
ATOM     16  C   UNL A   1      40.105  27.778  29.051  1.00  0.00     0.049 A 
ATOM     17  N   UNL A   1      41.239  29.004  31.543  1.00  0.00    -0.248 NA
ATOM     18  C   UNL A   1      39.451  30.504  31.575  1.00  0.00     0.031 C 
ATOM     19  C   UNL A   1      39.615  27.169  27.814  1.00  0.00     0.029 A 
ATOM     20  N   UNL A   1      41.262  27.094  29.325  1.00  0.00    -0.354 N 
ATOM     21  C   UNL A   1      41.398  29.880  32.610  1.00  0.00     0.074 A 
ATOM     22  C   UNL A   1      40.281  30.801  32.567  1.00  0.00     0.031 C 
ATOM     23  C   UNL A   1      40.460  26.196  27.440  1.00  0.00     0.029 A 
ATOM     24  C   UNL A   1      41.563  26.129  28.393  1.00  0.00     0.049 A 
ATOM     25  H   UNL A   1      41.822  27.276  30.115  1.00  0.00     0.167 HD
ATOM     26  C   UNL A   1      42.370  29.901  33.552  1.00  0.00     0.034 A 
ATOM     27  C   UNL A   1      42.611  25.285  28.312  1.00  0.00     0.034 A 
ATOM     28  C   UNL A   1      43.452  28.957  33.623  1.00  0.00     0.049 A 
ATOM     29  C   UNL A   1      43.655  25.305  29.393  1.00  0.00     0.074 A 
ATOM     30  C   UNL A   1      44.445  28.857  34.583  1.00  0.00     0.029 A 
ATOM     31  N   UNL A   1      43.688  27.952  32.699  1.00  0.00    -0.354 N 
ATOM     32  N   UNL A   1      43.707  26.047  30.472  1.00  0.00    -0.248 NA
ATOM     33  C   UNL A   1      44.768  24.354  29.261  1.00  0.00     0.031 C 
ATOM     34  C   UNL A   1      45.281  27.788  34.239  1.00  0.00     0.029 A 
ATOM     35  C   UNL A   1      44.811  27.227  33.063  1.00  0.00     0.049 A 
ATOM     36  H   UNL A   1      43.138  27.778  31.901  1.00  0.00     0.167 HD
ATOM     37  C   UNL A   1      44.844  25.641  31.159  1.00  0.00     0.074 A 
ATOM     38  C   UNL A   1      45.440  24.569  30.385  1.00  0.00     0.031 C 
ATOM     39  C   UNL A   1      45.361  26.127  32.314  1.00  0.00     0.034 A 
BRANCH  26  40
ATOM     40  C   UNL A   1      42.270  30.943  34.633  1.00  0.00     0.023 A 
ATOM     41  C   UNL A   1      41.633  30.612  35.845  1.00  0.00     0.012 A 
ATOM     42  C   UNL A   1      42.852  32.216  34.483  1.00  0.00     0.148 A 
ATOM     43  C   UNL A   1      41.562  31.537  36.886  1.00  0.00     0.002 A 
ATOM     44  C   UNL A   1      42.801  33.124  35.535  1.00  0.00     0.091 A 
ATOM     45  F   UNL A   1      43.427  32.527  33.312  1.00  0.00    -0.205 F 
ATOM     46  C   UNL A   1      42.154  32.789  36.735  1.00  0.00     0.022 A 
BRANCH  44  47
ATOM     47  S   UNL A   1      43.595  34.733  35.431  1.00  0.00     0.127 S 
ATOM     48  O   UNL A   1      43.153  35.364  36.674  1.00  0.00    -0.237 OA
ATOM     49  O   UNL A   1      45.017  34.388  35.398  1.00  0.00    -0.237 OA
ATOM     50  O   UNL A   1      43.096  35.328  34.199  1.00  0.00    -0.744 OA
ENDBRANCH  44  47
ENDBRANCH  26  40
BRANCH  27  51
ATOM     51  C   UNL A   1      42.665  24.298  27.199  1.00  0.00     0.023 A 
ATOM     52  C   UNL A   1      43.377  24.621  26.030  1.00  0.00     0.012 A 
ATOM     53  C   UNL A   1      42.090  23.018  27.324  1.00  0.00     0.148 A 
ATOM     54  C   UNL A   1      43.510  23.690  24.999  1.00  0.00     0.002 A 
ATOM     55  C   UNL A   1      42.270  22.079  26.316  1.00  0.00     0.091 A 
ATOM     56  F   UNL A   1      41.394  22.737  28.436  1.00  0.00    -0.205 F 
ATOM     57  C   UNL A   1      42.970  22.415  25.149  1.00  0.00     0.022 A 
BRANCH  55  58
ATOM     58  S   UNL A   1      41.729  20.375  26.506  1.00  0.00     0.127 S 
ATOM     59  O   UNL A   1      42.384  19.724  25.375  1.00  0.00    -0.237 OA
ATOM     60  O   UNL A   1      42.268  20.020  27.819  1.00  0.00    -0.237 OA
ATOM     61  O   UNL A   1      40.273  20.432  26.459  1.00  0.00    -0.744 OA
ENDBRANCH  55  58
ENDBRANCH  27  51
BRANCH  39  62
ATOM     62  C   UNL A   1      46.634  25.508  32.821  1.00  0.00     0.023 A 
ATOM     63  C   UNL A   1      47.869  26.041  32.402  1.00  0.00     0.012 A 
ATOM     64  C   UNL A   1      46.614  24.462  33.763  1.00  0.00     0.148 A 
ATOM     65  C   UNL A   1      49.066  25.529  32.900  1.00  0.00     0.002 A 
ATOM     66  C   UNL A   1      47.811  23.979  34.280  1.00  0.00     0.091 A 
ATOM     67  F   UNL A   1      45.430  23.950  34.129  1.00  0.00    -0.205 F 
ATOM     68  C   UNL A   1      49.038  24.508  33.847  1.00  0.00     0.022 A 
BRANCH  66  69
ATOM     69  S   UNL A   1      47.844  22.718  35.559  1.00  0.00     0.127 S 
ATOM     70  O   UNL A   1      47.007  23.318  36.595  1.00  0.00    -0.237 OA
ATOM     71  O   UNL A   1      47.245  21.562  34.886  1.00  0.00    -0.237 OA
ATOM     72  O   UNL A   1      49.250  22.545  35.897  1.00  0.00    -0.744 OA
ENDBRANCH  66  69
ENDBRANCH  39  62
ENDBRANCH  13  14
ENDBRANCH   6   8
ENDBRANCH   3   4
ENDBRANCH   2   3
ENDBRANCH   1   2
BRANCH   1  73
ATOM     73  C   UNL A   1      32.883  25.451  25.795  1.00  0.00     0.116 C 
BRANCH  73  74
ATOM     74  N   UNL A   1      31.675  25.769  26.524  1.00  0.00    -0.356 N 
ATOM     75  C   UNL A   1      30.402  25.973  26.116  1.00  0.00     0.224 C 
ATOM     76  H   UNL A   1      31.803  25.853  27.497  1.00  0.00     0.163 HD
ATOM     77  O   UNL A   1      29.556  26.026  27.011  1.00  0.00    -0.275 OA
BRANCH  75  78
ATOM     78  C   UNL A   1      30.030  26.029  24.637  1.00  0.00     0.094 C 
ATOM     79  C   UNL A   1      29.951  27.524  24.176  1.00  0.00     0.002 C 
ATOM     80  C   UNL A   1      31.039  25.444  23.617  1.00  0.00     0.094 C 
ATOM     81  C   UNL A   1      31.312  28.263  24.229  1.00  0.00     0.005 C 
ATOM     82  C   UNL A   1      29.814  27.334  22.679  1.00  0.00     0.009 C 
ATOM     83  C   UNL A   1      31.140  26.566  22.554  1.00  0.00     0.002 C 
ATOM     84  C   UNL A   1      32.114  27.630  23.087  1.00  0.00     0.005 C 
BRANCH  80  85
ATOM     85  C   UNL A   1      30.808  24.001  23.119  1.00  0.00     0.229 C 
ATOM     86  O   UNL A   1      29.661  23.703  22.751  1.00  0.00    -0.274 OA
ATOM     87  N   UNL A   1      31.762  23.064  22.872  1.00  0.00    -0.317 N 
ATOM     88  H   UNL A   1      31.528  22.439  22.150  1.00  0.00     0.170 HD
BRANCH  87  89
ATOM     89  C   UNL A   1      32.991  22.824  23.439  1.00  0.00     0.108 A 
ATOM     90  S   UNL A   1      34.273  23.865  23.053  1.00  0.00    -0.122 S 
ATOM     91  C   UNL A   1      33.285  22.027  24.549  1.00  0.00     0.078 A 
ATOM     92  C   UNL A   1      35.365  22.842  23.836  1.00  0.00     0.011 A 
ATOM     93  C   UNL A   1      34.732  22.011  24.750  1.00  0.00    -0.019 A 
ATOM     94  C   UNL A   1      36.837  22.945  23.594  1.00  0.00     0.047 C 
ATOM     95  C   UNL A   1      35.568  21.223  25.722  1.00  0.00     0.037 C 
ATOM     96  C   UNL A   1      37.551  21.761  24.251  1.00  0.00     0.006 C 
ATOM     97  C   UNL A   1      37.060  21.596  25.694  1.00  0.00     0.005 C 
BRANCH  91  98
ATOM     98  C   UNL A   1      32.163  21.389  25.254  1.00  0.00     0.254 C 
ATOM     99  O   UNL A   1      31.274  22.084  25.745  1.00  0.00    -0.269 OA
ATOM    100  N   UNL A   1      31.966  20.033  25.311  1.00  0.00    -0.349 N 
ATOM    101  H   UNL A   1      31.115  19.775  25.731  1.00  0.00     0.164 HD
BRANCH 100 102
ATOM    102  C   UNL A   1      32.765  18.908  24.875  1.00  0.00     0.082 C 
ATOM    103  C   UNL A   1      32.528  17.671  25.754  1.00  0.00     0.025 C 
ATOM    104  C   UNL A   1      32.545  18.535  23.406  1.00  0.00     0.025 C 
ATOM    105  C   UNL A   1      33.510  16.564  25.372  1.00  0.00     0.002 C 
ATOM    106  C   UNL A   1      33.504  17.424  22.980  1.00  0.00     0.002 C 
ATOM    107  C   UNL A   1      33.413  16.203  23.891  1.00  0.00     0.000 C 
ENDBRANCH 100 102
ENDBRANCH  91  98
ENDBRANCH  87  89
ENDBRANCH  80  85
ENDBRANCH  75  78
ENDBRANCH  73  74
ENDBRANCH   1  73
TORSDOF 18
ENDMDL
MODEL 3
REMARK VINA RESULT:     -12.7      0.566      7.291
REMARK SMILES O=C(NCCCCNC(=O)[C@H]1[C@H]2CC[C@H](C2)[C@@H]1C(=O)Nc1sc2c(c1C(=O)NC1CCCCC1)CCCC2)c1ccc(-c2c3nc(c(-c4cccc(S(=O)(=O)[O-])c4F)c4ccc([nH]4)c(-c4cccc(S(=O)(=O)[O-])c4F)c4nc(c(-c5cccc(S(=O)(=O)[O-])c5F)c5ccc2[nH]5)C=C4)C=C3)cc1
REMARK SMILES IDX 6 1 5 2 4 3 3 4 1 5 2 6 39 8 40 9 101 10 41 11 100 12 42 13
REMARK SMILES IDX 43 14 44 15 94 16 45 17 99 18 93 19 95 20 46 21 98 22 92 23
REMARK SMILES IDX 91 24 47 26 79 27 59 28 78 29 60 30 63 31 77 32 96 33 61 34
REMARK SMILES IDX 62 35 76 37 97 38 64 39 48 40 49 41 57 42 50 43 52 44 58 45
REMARK SMILES IDX 51 46 53 47 54 48 55 49 56 50 80 51 81 52 89 53 82 54 84 55
REMARK SMILES IDX 90 56 83 57 85 58 86 59 87 60 88 61 65 62 66 63 74 64 67 65
REMARK SMILES IDX 69 66 75 67 68 68 70 69 71 70 72 71 73 72 7 73 8 74 9 75
REMARK SMILES IDX 10 77 11 78 12 79 17 80 13 81 16 82 15 83 14 84 18 85 19 86
REMARK SMILES IDX 20 87 21 89 22 90 25 91 23 92 24 93 38 94 35 95 37 96 36 97
REMARK SMILES IDX 26 98 27 99 28 100 29 102 30 103 34 104 31 105 33 106 32 107
REMARK H PARENT 3 7 95 25 63 36 8 76 20 88 28 101
REMARK Flexibility Score: inf
ROOT
ATOM      1  C   UNL A   1      32.083  30.647  26.611  1.00  0.00     0.023 C 
ENDROOT
BRANCH   1   2
ATOM      2  C   UNL A   1      32.554  31.731  27.589  1.00  0.00     0.023 C 
BRANCH   2   3
ATOM      3  C   UNL A   1      33.047  33.031  26.959  1.00  0.00     0.116 C 
BRANCH   3   4
ATOM      4  N   UNL A   1      32.636  34.205  27.706  1.00  0.00    -0.352 N 
ATOM      5  O   UNL A   1      32.562  35.631  29.444  1.00  0.00    -0.269 OA
ATOM      6  C   UNL A   1      33.129  34.692  28.893  1.00  0.00     0.251 C 
ATOM      7  H   UNL A   1      31.902  34.726  27.307  1.00  0.00     0.163 HD
BRANCH   6   8
ATOM      8  C   UNL A   1      34.319  34.069  29.518  1.00  0.00     0.039 A 
ATOM      9  C   UNL A   1      35.613  34.398  29.105  1.00  0.00     0.014 A 
ATOM     10  C   UNL A   1      34.127  33.158  30.561  1.00  0.00     0.014 A 
ATOM     11  C   UNL A   1      36.709  33.742  29.667  1.00  0.00     0.010 A 
ATOM     12  C   UNL A   1      35.229  32.535  31.154  1.00  0.00     0.010 A 
ATOM     13  C   UNL A   1      36.527  32.803  30.694  1.00  0.00    -0.014 A 
BRANCH  13  14
ATOM     14  C   UNL A   1      37.701  32.140  31.317  1.00  0.00     0.031 A 
ATOM     15  C   UNL A   1      38.248  32.616  32.634  1.00  0.00     0.074 A 
ATOM     16  C   UNL A   1      38.293  31.116  30.674  1.00  0.00     0.049 A 
ATOM     17  N   UNL A   1      39.258  32.147  33.321  1.00  0.00    -0.248 NA
ATOM     18  C   UNL A   1      37.581  33.768  33.260  1.00  0.00     0.031 C 
ATOM     19  C   UNL A   1      37.886  30.598  29.367  1.00  0.00     0.029 A 
ATOM     20  N   UNL A   1      39.369  30.339  31.021  1.00  0.00    -0.354 N 
ATOM     21  C   UNL A   1      39.371  32.962  34.440  1.00  0.00     0.074 A 
ATOM     22  C   UNL A   1      38.328  33.962  34.339  1.00  0.00     0.031 C 
ATOM     23  C   UNL A   1      38.696  29.585  29.026  1.00  0.00     0.029 A 
ATOM     24  C   UNL A   1      39.694  29.397  30.074  1.00  0.00     0.049 A 
ATOM     25  H   UNL A   1      39.861  30.446  31.868  1.00  0.00     0.167 HD
ATOM     26  C   UNL A   1      40.245  32.872  35.470  1.00  0.00     0.034 A 
ATOM     27  C   UNL A   1      40.686  28.485  30.049  1.00  0.00     0.034 A 
ATOM     28  C   UNL A   1      41.250  31.850  35.595  1.00  0.00     0.049 A 
ATOM     29  C   UNL A   1      41.618  28.382  31.224  1.00  0.00     0.074 A 
ATOM     30  C   UNL A   1      42.135  31.637  36.639  1.00  0.00     0.029 A 
ATOM     31  N   UNL A   1      41.507  30.872  34.648  1.00  0.00    -0.354 N 
ATOM     32  N   UNL A   1      41.615  29.070  32.339  1.00  0.00    -0.248 NA
ATOM     33  C   UNL A   1      42.672  27.360  31.150  1.00  0.00     0.031 C 
ATOM     34  C   UNL A   1      42.927  30.527  36.321  1.00  0.00     0.029 A 
ATOM     35  C   UNL A   1      42.537  30.053  35.079  1.00  0.00     0.049 A 
ATOM     36  H   UNL A   1      41.027  30.773  33.794  1.00  0.00     0.167 HD
ATOM     37  C   UNL A   1      42.649  28.553  33.109  1.00  0.00     0.074 A 
ATOM     38  C   UNL A   1      43.244  27.477  32.341  1.00  0.00     0.031 C 
ATOM     39  C   UNL A   1      43.082  28.950  34.331  1.00  0.00     0.034 A 
BRANCH  26  40
ATOM     40  C   UNL A   1      40.111  33.869  36.588  1.00  0.00     0.023 A 
ATOM     41  C   UNL A   1      40.541  35.194  36.378  1.00  0.00     0.012 A 
ATOM     42  C   UNL A   1      39.511  33.523  37.814  1.00  0.00     0.148 A 
ATOM     43  C   UNL A   1      40.391  36.157  37.376  1.00  0.00     0.002 A 
ATOM     44  C   UNL A   1      39.339  34.494  38.795  1.00  0.00     0.091 A 
ATOM     45  F   UNL A   1      39.136  32.250  38.010  1.00  0.00    -0.205 F 
ATOM     46  C   UNL A   1      39.782  35.809  38.580  1.00  0.00     0.022 A 
BRANCH  44  47
ATOM     47  S   UNL A   1      38.508  34.132  40.346  1.00  0.00     0.127 S 
ATOM     48  O   UNL A   1      37.279  33.490  39.881  1.00  0.00    -0.237 OA
ATOM     49  O   UNL A   1      39.449  33.231  41.013  1.00  0.00    -0.237 OA
ATOM     50  O   UNL A   1      38.346  35.421  41.005  1.00  0.00    -0.744 OA
ENDBRANCH  44  47
ENDBRANCH  26  40
BRANCH  27  51
ATOM     51  C   UNL A   1      40.782  27.546  28.898  1.00  0.00     0.023 A 
ATOM     52  C   UNL A   1      39.824  26.524  28.766  1.00  0.00     0.012 A 
ATOM     53  C   UNL A   1      41.759  27.709  27.897  1.00  0.00     0.148 A 
ATOM     54  C   UNL A   1      39.842  25.674  27.659  1.00  0.00     0.002 A 
ATOM     55  C   UNL A   1      41.739  26.892  26.773  1.00  0.00     0.091 A 
ATOM     56  F   UNL A   1      42.678  28.673  28.053  1.00  0.00    -0.205 F 
ATOM     57  C   UNL A   1      40.788  25.868  26.656  1.00  0.00     0.022 A 
BRANCH  55  58
ATOM     58  S   UNL A   1      42.835  27.179  25.377  1.00  0.00     0.127 S 
ATOM     59  O   UNL A   1      44.120  27.380  26.040  1.00  0.00    -0.237 OA
ATOM     60  O   UNL A   1      42.718  25.928  24.626  1.00  0.00    -0.237 OA
ATOM     61  O   UNL A   1      42.278  28.337  24.689  1.00  0.00    -0.744 OA
ENDBRANCH  55  58
ENDBRANCH  27  51
BRANCH  39  62
ATOM     62  C   UNL A   1      44.256  28.219  34.923  1.00  0.00     0.023 A 
ATOM     63  C   UNL A   1      45.546  28.764  34.778  1.00  0.00     0.012 A 
ATOM     64  C   UNL A   1      44.078  27.049  35.685  1.00  0.00     0.148 A 
ATOM     65  C   UNL A   1      46.646  28.144  35.367  1.00  0.00     0.002 A 
ATOM     66  C   UNL A   1      45.176  26.454  36.297  1.00  0.00     0.091 A 
ATOM     67  F   UNL A   1      42.846  26.531  35.790  1.00  0.00    -0.205 F 
ATOM     68  C   UNL A   1      46.462  26.997  36.136  1.00  0.00     0.022 A 
BRANCH  66  69
ATOM     69  S   UNL A   1      44.998  25.019  37.363  1.00  0.00     0.127 S 
ATOM     70  O   UNL A   1      44.194  25.556  38.458  1.00  0.00    -0.237 OA
ATOM     71  O   UNL A   1      44.294  24.065  36.503  1.00  0.00    -0.237 OA
ATOM     72  O   UNL A   1      46.356  24.620  37.707  1.00  0.00    -0.744 OA
ENDBRANCH  66  69
ENDBRANCH  39  62
ENDBRANCH  13  14
ENDBRANCH   6   8
ENDBRANCH   3   4
ENDBRANCH   2   3
ENDBRANCH   1   2
BRANCH   1  73
ATOM     73  C   UNL A   1      31.832  29.272  27.227  1.00  0.00     0.116 C 
BRANCH  73  74
ATOM     74  N   UNL A   1      32.800  28.298  26.773  1.00  0.00    -0.356 N 
ATOM     75  C   UNL A   1      32.663  27.138  26.093  1.00  0.00     0.224 C 
ATOM     76  H   UNL A   1      33.731  28.521  27.003  1.00  0.00     0.163 HD
ATOM     77  O   UNL A   1      33.708  26.634  25.678  1.00  0.00    -0.275 OA
BRANCH  75  78
ATOM     78  C   UNL A   1      31.291  26.549  25.775  1.00  0.00     0.094 C 
ATOM     79  C   UNL A   1      30.625  27.373  24.621  1.00  0.00     0.002 C 
ATOM     80  C   UNL A   1      31.239  25.112  25.197  1.00  0.00     0.094 C 
ATOM     81  C   UNL A   1      31.377  27.272  23.271  1.00  0.00     0.005 C 
ATOM     82  C   UNL A   1      29.429  26.493  24.321  1.00  0.00     0.009 C 
ATOM     83  C   UNL A   1      30.291  25.265  23.983  1.00  0.00     0.002 C 
ATOM     84  C   UNL A   1      31.113  25.833  22.814  1.00  0.00     0.005 C 
BRANCH  80  85
ATOM     85  C   UNL A   1      30.971  23.950  26.177  1.00  0.00     0.229 C 
ATOM     86  O   UNL A   1      29.938  24.009  26.862  1.00  0.00    -0.274 OA
ATOM     87  N   UNL A   1      31.652  22.775  26.250  1.00  0.00    -0.317 N 
ATOM     88  H   UNL A   1      31.100  22.013  26.538  1.00  0.00     0.170 HD
BRANCH  87  89
ATOM     89  C   UNL A   1      32.963  22.449  25.998  1.00  0.00     0.108 A 
ATOM     90  S   UNL A   1      34.077  22.551  27.272  1.00  0.00    -0.122 S 
ATOM     91  C   UNL A   1      33.478  21.735  24.913  1.00  0.00     0.078 A 
ATOM     92  C   UNL A   1      35.357  22.294  26.200  1.00  0.00     0.011 A 
ATOM     93  C   UNL A   1      34.934  21.688  25.025  1.00  0.00    -0.019 A 
ATOM     94  C   UNL A   1      36.766  22.618  26.581  1.00  0.00     0.047 C 
ATOM     95  C   UNL A   1      35.964  21.148  24.070  1.00  0.00     0.037 C 
ATOM     96  C   UNL A   1      37.671  22.502  25.351  1.00  0.00     0.006 C 
ATOM     97  C   UNL A   1      37.397  21.177  24.629  1.00  0.00     0.005 C 
BRANCH  91  98
ATOM     98  C   UNL A   1      32.527  21.207  23.924  1.00  0.00     0.254 C 
ATOM     99  O   UNL A   1      31.827  21.982  23.273  1.00  0.00    -0.269 OA
ATOM    100  N   UNL A   1      32.435  19.882  23.580  1.00  0.00    -0.349 N 
ATOM    101  H   UNL A   1      31.822  19.710  22.830  1.00  0.00     0.164 HD
BRANCH 100 102
ATOM    102  C   UNL A   1      33.062  18.688  24.105  1.00  0.00     0.082 C 
ATOM    103  C   UNL A   1      32.175  17.994  25.148  1.00  0.00     0.025 C 
ATOM    104  C   UNL A   1      33.455  17.678  23.022  1.00  0.00     0.025 C 
ATOM    105  C   UNL A   1      32.939  16.842  25.800  1.00  0.00     0.002 C 
ATOM    106  C   UNL A   1      34.218  16.502  23.630  1.00  0.00     0.002 C 
ATOM    107  C   UNL A   1      33.446  15.838  24.766  1.00  0.00     0.000 C 
ENDBRANCH 100 102
ENDBRANCH  91  98
ENDBRANCH  87  89
ENDBRANCH  80  85
ENDBRANCH  75  78
ENDBRANCH  73  74
ENDBRANCH   1  73
TORSDOF 18
ENDMDL
