MODEL 1
REMARK VINA RESULT:     -11.8      0.000      0.000
REMARK SMILES Cc1ccc(Cl)c(NC(=O)C[N@@H+]2CCC[C@H]2C(=O)NCCCCNC(=O)c2ccc(-c3c4nc(c(-c5cccc(S(=O)(=O)[O-])c5F)c5ccc([nH]5)c(-c5cccc(S(=O)(=O)[O-])c5F)c5nc(c(-c6cccc(S(=O)(=O)[O-])c6F)c6ccc3[nH]6)C=C5)C=C4)cc2)c1Cl
REMARK SMILES IDX 21 1 20 2 19 3 17 4 18 5 16 7 12 8 13 9 14 11 15 12 11 13
REMARK SMILES IDX 9 14 8 15 10 17 7 18 1 19 2 20 3 21 90 22 4 23 91 24 5 25
REMARK SMILES IDX 6 26 22 27 23 28 24 29 25 30 26 32 27 33 28 34 89 35 29 36
REMARK SMILES IDX 88 37 30 38 31 39 32 40 82 41 33 42 87 43 81 44 83 45 34 46
REMARK SMILES IDX 86 47 80 48 79 49 35 51 67 52 47 53 66 54 48 55 51 56 65 57
REMARK SMILES IDX 84 58 49 59 50 60 64 62 85 63 52 64 36 65 37 66 45 67 38 68
REMARK SMILES IDX 40 69 46 70 39 71 41 72 42 73 43 74 44 75 68 76 69 77 77 78
REMARK SMILES IDX 70 79 72 80 78 81 71 82 73 83 74 84 75 85 76 86 53 87 54 88
REMARK SMILES IDX 62 89 55 90 57 91 63 92 56 93 58 94 59 95 60 96 61 97
REMARK H PARENT 19 6 12 10 8 16 24 31 83 50 51 61
REMARK Flexibility Score: inf
ROOT
ATOM      1  C   UNL A   1      31.332  30.494  25.750  1.00  0.00     0.023 C 
ENDROOT
BRANCH   1   2
ATOM      2  C   UNL A   1      32.595  29.643  25.767  1.00  0.00     0.116 C 
BRANCH   2   3
ATOM      3  N   UNL A   1      33.298  29.660  24.501  1.00  0.00    -0.351 N 
ATOM      4  C   UNL A   1      33.260  28.746  23.484  1.00  0.00     0.278 C 
ATOM      5  O   UNL A   1      33.853  29.033  22.440  1.00  0.00    -0.268 OA
ATOM      6  H   UNL A   1      33.885  30.436  24.353  1.00  0.00     0.163 HD
BRANCH   4   7
ATOM      7  C   UNL A   1      32.589  27.362  23.701  1.00  0.00     0.274 C 
ATOM      8  N   UNL A   1      31.107  27.472  23.790  1.00  0.00    -0.317 N 
ATOM      9  C   UNL A   1      30.690  27.456  22.372  1.00  0.00     0.263 C 
ATOM     10  H   UNL A   1      30.815  28.300  24.308  1.00  0.00     0.349 HD
ATOM     11  C   UNL A   1      31.549  26.390  21.718  1.00  0.00     0.068 C 
ATOM     12  C   UNL A   1      32.848  26.415  22.514  1.00  0.00     0.081 C 
BRANCH   8  13
ATOM     13  C   UNL A   1      30.493  26.321  24.510  1.00  0.00     0.364 C 
BRANCH  13  14
ATOM     14  C   UNL A   1      31.131  26.001  25.866  1.00  0.00     0.279 C 
ATOM     15  N   UNL A   1      31.969  24.962  26.148  1.00  0.00    -0.319 N 
ATOM     16  H   UNL A   1      32.133  24.864  27.114  1.00  0.00     0.170 HD
ATOM     17  O   UNL A   1      30.912  26.764  26.823  1.00  0.00    -0.268 OA
BRANCH  15  18
ATOM     18  C   UNL A   1      32.661  23.992  25.382  1.00  0.00     0.079 A 
ATOM     19  C   UNL A   1      32.137  21.078  22.939  1.00  0.00     0.046 C 
ATOM     20  C   UNL A   1      32.771  22.177  23.750  1.00  0.00    -0.030 A 
ATOM     21  C   UNL A   1      34.029  22.639  23.335  1.00  0.00     0.006 A 
ATOM     22  C   UNL A   1      32.127  22.817  24.832  1.00  0.00     0.069 A 
ATOM     23  C   UNL A   1      34.676  23.644  24.044  1.00  0.00     0.023 A 
ATOM     24  Cl  UNL A   1      30.863  21.969  25.669  1.00  0.00    -0.082 Cl
ATOM     25  C   UNL A   1      34.005  24.295  25.078  1.00  0.00     0.066 A 
ATOM     26  Cl  UNL A   1      34.865  25.535  25.932  1.00  0.00    -0.082 Cl
ENDBRANCH  15  18
ENDBRANCH  13  14
ENDBRANCH   8  13
ENDBRANCH   4   7
ENDBRANCH   2   3
ENDBRANCH   1   2
BRANCH   1  27
ATOM     27  C   UNL A   1      31.421  31.836  26.473  1.00  0.00     0.023 C 
BRANCH  27  28
ATOM     28  C   UNL A   1      32.743  32.112  27.175  1.00  0.00     0.116 C 
BRANCH  28  29
ATOM     29  N   UNL A   1      32.926  33.493  27.599  1.00  0.00    -0.352 N 
ATOM     30  C   UNL A   1      33.982  34.028  28.309  1.00  0.00     0.251 C 
ATOM     31  H   UNL A   1      32.209  34.121  27.349  1.00  0.00     0.163 HD
ATOM     32  O   UNL A   1      33.970  35.197  28.665  1.00  0.00    -0.269 OA
BRANCH  30  33
ATOM     33  C   UNL A   1      35.110  33.142  28.679  1.00  0.00     0.039 A 
ATOM     34  C   UNL A   1      36.411  33.519  28.339  1.00  0.00     0.014 A 
ATOM     35  C   UNL A   1      34.885  31.987  29.432  1.00  0.00     0.014 A 
ATOM     36  C   UNL A   1      37.492  32.786  28.835  1.00  0.00     0.010 A 
ATOM     37  C   UNL A   1      35.961  31.316  29.999  1.00  0.00     0.010 A 
ATOM     38  C   UNL A   1      37.276  31.708  29.709  1.00  0.00    -0.014 A 
BRANCH  38  39
ATOM     39  C   UNL A   1      38.403  30.980  30.349  1.00  0.00     0.031 A 
ATOM     40  C   UNL A   1      38.858  31.364  31.731  1.00  0.00     0.074 A 
ATOM     41  C   UNL A   1      39.088  30.057  29.645  1.00  0.00     0.049 A 
ATOM     42  N   UNL A   1      39.879  30.920  32.416  1.00  0.00    -0.248 NA
ATOM     43  C   UNL A   1      38.088  32.415  32.419  1.00  0.00     0.031 C 
ATOM     44  C   UNL A   1      38.808  29.663  28.261  1.00  0.00     0.029 A 
ATOM     45  N   UNL A   1      40.181  29.300  29.987  1.00  0.00    -0.354 N 
ATOM     46  C   UNL A   1      39.901  31.664  33.589  1.00  0.00     0.074 A 
ATOM     47  C   UNL A   1      38.817  32.617  33.506  1.00  0.00     0.031 C 
ATOM     48  C   UNL A   1      39.697  28.733  27.878  1.00  0.00     0.029 A 
ATOM     49  C   UNL A   1      40.627  28.481  28.975  1.00  0.00     0.049 A 
ATOM     50  H   UNL A   1      40.607  29.339  30.874  1.00  0.00     0.167 HD
ATOM     51  C   UNL A   1      40.724  31.542  34.658  1.00  0.00     0.034 A 
ATOM     52  C   UNL A   1      41.665  27.623  28.935  1.00  0.00     0.034 A 
ATOM     53  C   UNL A   1      41.755  30.547  34.767  1.00  0.00     0.049 A 
ATOM     54  C   UNL A   1      42.514  27.448  30.165  1.00  0.00     0.074 A 
ATOM     55  C   UNL A   1      42.578  30.276  35.846  1.00  0.00     0.029 A 
ATOM     56  N   UNL A   1      42.099  29.654  33.765  1.00  0.00    -0.354 N 
ATOM     57  N   UNL A   1      42.418  28.052  31.326  1.00  0.00    -0.248 NA
ATOM     58  C   UNL A   1      43.590  26.449  30.096  1.00  0.00     0.031 C 
ATOM     59  C   UNL A   1      43.424  29.218  35.494  1.00  0.00     0.029 A 
ATOM     60  C   UNL A   1      43.119  28.825  34.199  1.00  0.00     0.049 A 
ATOM     61  H   UNL A   1      41.679  29.615  32.875  1.00  0.00     0.167 HD
ATOM     62  C   UNL A   1      43.395  27.482  32.134  1.00  0.00     0.074 A 
ATOM     63  C   UNL A   1      44.058  26.471  31.337  1.00  0.00     0.031 C 
ATOM     64  C   UNL A   1      43.725  27.781  33.414  1.00  0.00     0.034 A 
BRANCH  51  65
ATOM     65  C   UNL A   1      40.484  32.460  35.828  1.00  0.00     0.023 A 
ATOM     66  C   UNL A   1      41.283  33.612  35.975  1.00  0.00     0.012 A 
ATOM     67  C   UNL A   1      39.450  32.213  36.753  1.00  0.00     0.148 A 
ATOM     68  C   UNL A   1      41.084  34.485  37.043  1.00  0.00     0.002 A 
ATOM     69  C   UNL A   1      39.230  33.110  37.791  1.00  0.00     0.091 A 
ATOM     70  F   UNL A   1      38.716  31.101  36.612  1.00  0.00    -0.205 F 
ATOM     71  C   UNL A   1      40.053  34.239  37.945  1.00  0.00     0.022 A 
BRANCH  69  72
ATOM     72  S   UNL A   1      37.878  32.925  38.960  1.00  0.00     0.127 S 
ATOM     73  O   UNL A   1      38.251  31.692  39.650  1.00  0.00    -0.237 OA
ATOM     74  O   UNL A   1      38.001  34.138  39.771  1.00  0.00    -0.237 OA
ATOM     75  O   UNL A   1      36.665  32.855  38.158  1.00  0.00    -0.744 OA
ENDBRANCH  69  72
ENDBRANCH  51  65
BRANCH  52  76
ATOM     76  C   UNL A   1      41.898  26.793  27.719  1.00  0.00     0.023 A 
ATOM     77  C   UNL A   1      42.519  27.379  26.598  1.00  0.00     0.012 A 
ATOM     78  C   UNL A   1      41.549  25.429  27.674  1.00  0.00     0.148 A 
ATOM     79  C   UNL A   1      42.761  26.632  25.444  1.00  0.00     0.002 A 
ATOM     80  C   UNL A   1      41.840  24.677  26.541  1.00  0.00     0.091 A 
ATOM     81  F   UNL A   1      40.948  24.891  28.745  1.00  0.00    -0.205 F 
ATOM     82  C   UNL A   1      42.431  25.280  25.420  1.00  0.00     0.022 A 
BRANCH  80  83
ATOM     83  S   UNL A   1      41.569  22.902  26.469  1.00  0.00     0.127 S 
ATOM     84  O   UNL A   1      42.237  22.546  25.220  1.00  0.00    -0.237 OA
ATOM     85  O   UNL A   1      42.247  22.442  27.682  1.00  0.00    -0.237 OA
ATOM     86  O   UNL A   1      40.124  22.726  26.490  1.00  0.00    -0.744 OA
ENDBRANCH  80  83
ENDBRANCH  52  76
BRANCH  64  87
ATOM     87  C   UNL A   1      44.835  26.991  34.054  1.00  0.00     0.023 A 
ATOM     88  C   UNL A   1      46.169  27.415  33.901  1.00  0.00     0.012 A 
ATOM     89  C   UNL A   1      44.550  25.882  34.876  1.00  0.00     0.148 A 
ATOM     90  C   UNL A   1      47.206  26.733  34.536  1.00  0.00     0.002 A 
ATOM     91  C   UNL A   1      45.584  25.235  35.541  1.00  0.00     0.091 A 
ATOM     92  F   UNL A   1      43.275  25.482  34.991  1.00  0.00    -0.205 F 
ATOM     93  C   UNL A   1      46.913  25.653  35.364  1.00  0.00     0.022 A 
BRANCH  91  94
ATOM     94  S   UNL A   1      45.286  23.894  36.699  1.00  0.00     0.127 S 
ATOM     95  O   UNL A   1      44.631  22.903  35.846  1.00  0.00    -0.237 OA
ATOM     96  O   UNL A   1      46.642  23.536  37.118  1.00  0.00    -0.237 OA
ATOM     97  O   UNL A   1      44.459  24.458  37.757  1.00  0.00    -0.744 OA
ENDBRANCH  91  94
ENDBRANCH  64  87
ENDBRANCH  38  39
ENDBRANCH  30  33
ENDBRANCH  28  29
ENDBRANCH  27  28
ENDBRANCH   1  27
TORSDOF 17
ENDMDL
MODEL 2
REMARK VINA RESULT:     -11.7      1.699      2.690
REMARK SMILES Cc1ccc(Cl)c(NC(=O)C[N@@H+]2CCC[C@H]2C(=O)NCCCCNC(=O)c2ccc(-c3c4nc(c(-c5cccc(S(=O)(=O)[O-])c5F)c5ccc([nH]5)c(-c5cccc(S(=O)(=O)[O-])c5F)c5nc(c(-c6cccc(S(=O)(=O)[O-])c6F)c6ccc3[nH]6)C=C5)C=C4)cc2)c1Cl
REMARK SMILES IDX 21 1 20 2 19 3 17 4 18 5 16 7 12 8 13 9 14 11 15 12 11 13
REMARK SMILES IDX 9 14 8 15 10 17 7 18 1 19 2 20 3 21 90 22 4 23 91 24 5 25
REMARK SMILES IDX 6 26 22 27 23 28 24 29 25 30 26 32 27 33 28 34 89 35 29 36
REMARK SMILES IDX 88 37 30 38 31 39 32 40 82 41 33 42 87 43 81 44 83 45 34 46
REMARK SMILES IDX 86 47 80 48 79 49 35 51 67 52 47 53 66 54 48 55 51 56 65 57
REMARK SMILES IDX 84 58 49 59 50 60 64 62 85 63 52 64 36 65 37 66 45 67 38 68
REMARK SMILES IDX 40 69 46 70 39 71 41 72 42 73 43 74 44 75 68 76 69 77 77 78
REMARK SMILES IDX 70 79 72 80 78 81 71 82 73 83 74 84 75 85 76 86 53 87 54 88
REMARK SMILES IDX 62 89 55 90 57 91 63 92 56 93 58 94 59 95 60 96 61 97
REMARK H PARENT 19 6 12 10 8 16 24 31 83 50 51 61
REMARK Flexibility Score: inf
ROOT
ATOM      1  C   UNL A   1      31.055  29.441  24.441  1.00  0.00     0.023 C 
ENDROOT
BRANCH   1   2
ATOM      2  C   UNL A   1      30.782  28.056  23.870  1.00  0.00     0.116 C 
BRANCH   2   3
ATOM      3  N   UNL A   1      30.107  27.185  24.810  1.00  0.00    -0.351 N 
ATOM      4  C   UNL A   1      30.524  25.990  25.328  1.00  0.00     0.278 C 
ATOM      5  O   UNL A   1      29.831  25.482  26.214  1.00  0.00    -0.268 OA
ATOM      6  H   UNL A   1      29.225  27.498  25.118  1.00  0.00     0.163 HD
BRANCH   4   7
ATOM      7  C   UNL A   1      31.760  25.266  24.727  1.00  0.00     0.274 C 
ATOM      8  N   UNL A   1      32.938  26.171  24.627  1.00  0.00    -0.317 N 
ATOM      9  C   UNL A   1      33.537  26.083  25.975  1.00  0.00     0.263 C 
ATOM     10  H   UNL A   1      32.673  27.114  24.343  1.00  0.00     0.349 HD
ATOM     11  C   UNL A   1      33.468  24.612  26.343  1.00  0.00     0.068 C 
ATOM     12  C   UNL A   1      32.225  24.103  25.622  1.00  0.00     0.081 C 
BRANCH   8  13
ATOM     13  C   UNL A   1      33.922  25.714  23.606  1.00  0.00     0.364 C 
BRANCH  13  14
ATOM     14  C   UNL A   1      33.317  24.910  22.450  1.00  0.00     0.279 C 
ATOM     15  N   UNL A   1      33.388  23.559  22.271  1.00  0.00    -0.319 N 
ATOM     16  H   UNL A   1      33.062  23.281  21.385  1.00  0.00     0.170 HD
ATOM     17  O   UNL A   1      32.661  25.513  21.584  1.00  0.00    -0.268 OA
BRANCH  15  18
ATOM     18  C   UNL A   1      33.816  22.462  23.059  1.00  0.00     0.079 A 
ATOM     19  C   UNL A   1      36.280  21.456  25.825  1.00  0.00     0.046 C 
ATOM     20  C   UNL A   1      35.134  21.446  24.847  1.00  0.00    -0.030 A 
ATOM     21  C   UNL A   1      34.094  20.535  25.085  1.00  0.00     0.006 A 
ATOM     22  C   UNL A   1      35.017  22.360  23.776  1.00  0.00     0.069 A 
ATOM     23  C   UNL A   1      33.012  20.466  24.215  1.00  0.00     0.023 A 
ATOM     24  Cl  UNL A   1      36.456  23.112  23.161  1.00  0.00    -0.082 Cl
ATOM     25  C   UNL A   1      32.891  21.406  23.194  1.00  0.00     0.066 A 
ATOM     26  Cl  UNL A   1      31.525  21.264  22.135  1.00  0.00    -0.082 Cl
ENDBRANCH  15  18
ENDBRANCH  13  14
ENDBRANCH   8  13
ENDBRANCH   4   7
ENDBRANCH   2   3
ENDBRANCH   1   2
BRANCH   1  27
ATOM     27  C   UNL A   1      32.414  29.633  25.110  1.00  0.00     0.023 C 
BRANCH  27  28
ATOM     28  C   UNL A   1      32.367  30.025  26.580  1.00  0.00     0.116 C 
BRANCH  28  29
ATOM     29  N   UNL A   1      32.281  31.458  26.821  1.00  0.00    -0.352 N 
ATOM     30  C   UNL A   1      33.217  32.273  27.425  1.00  0.00     0.251 C 
ATOM     31  H   UNL A   1      31.454  31.900  26.516  1.00  0.00     0.163 HD
ATOM     32  O   UNL A   1      32.980  33.454  27.632  1.00  0.00    -0.269 OA
BRANCH  30  33
ATOM     33  C   UNL A   1      34.497  31.675  27.869  1.00  0.00     0.039 A 
ATOM     34  C   UNL A   1      35.628  32.488  27.971  1.00  0.00     0.014 A 
ATOM     35  C   UNL A   1      34.554  30.336  28.263  1.00  0.00     0.014 A 
ATOM     36  C   UNL A   1      36.792  31.979  28.555  1.00  0.00     0.010 A 
ATOM     37  C   UNL A   1      35.678  29.862  28.926  1.00  0.00     0.010 A 
ATOM     38  C   UNL A   1      36.809  30.678  29.082  1.00  0.00    -0.014 A 
BRANCH  38  39
ATOM     39  C   UNL A   1      37.987  30.145  29.815  1.00  0.00     0.031 A 
ATOM     40  C   UNL A   1      38.274  30.609  31.217  1.00  0.00     0.074 A 
ATOM     41  C   UNL A   1      38.860  29.336  29.180  1.00  0.00     0.049 A 
ATOM     42  N   UNL A   1      39.299  30.339  31.981  1.00  0.00    -0.248 NA
ATOM     43  C   UNL A   1      37.299  31.529  31.827  1.00  0.00     0.031 C 
ATOM     44  C   UNL A   1      38.747  28.890  27.788  1.00  0.00     0.029 A 
ATOM     45  N   UNL A   1      40.031  28.766  29.613  1.00  0.00    -0.354 N 
ATOM     46  C   UNL A   1      39.118  31.088  33.138  1.00  0.00     0.074 A 
ATOM     47  C   UNL A   1      37.905  31.855  32.958  1.00  0.00     0.031 C 
ATOM     48  C   UNL A   1      39.798  28.110  27.488  1.00  0.00     0.029 A 
ATOM     49  C   UNL A   1      40.673  28.020  28.652  1.00  0.00     0.049 A 
ATOM     50  H   UNL A   1      40.379  28.881  30.527  1.00  0.00     0.167 HD
ATOM     51  C   UNL A   1      39.870  31.108  34.264  1.00  0.00     0.034 A 
ATOM     52  C   UNL A   1      41.835  27.338  28.703  1.00  0.00     0.034 A 
ATOM     53  C   UNL A   1      41.034  30.291  34.466  1.00  0.00     0.049 A 
ATOM     54  C   UNL A   1      42.609  27.312  29.994  1.00  0.00     0.074 A 
ATOM     55  C   UNL A   1      41.809  30.164  35.605  1.00  0.00     0.029 A 
ATOM     56  N   UNL A   1      41.587  29.456  33.509  1.00  0.00    -0.354 N 
ATOM     57  N   UNL A   1      42.333  27.903  31.132  1.00  0.00    -0.248 NA
ATOM     58  C   UNL A   1      43.831  26.497  30.021  1.00  0.00     0.031 C 
ATOM     59  C   UNL A   1      42.835  29.252  35.335  1.00  0.00     0.029 A 
ATOM     60  C   UNL A   1      42.691  28.804  34.031  1.00  0.00     0.049 A 
ATOM     61  H   UNL A   1      41.245  29.342  32.593  1.00  0.00     0.167 HD
ATOM     62  C   UNL A   1      43.326  27.503  32.019  1.00  0.00     0.074 A 
ATOM     63  C   UNL A   1      44.198  26.604  31.292  1.00  0.00     0.031 C 
ATOM     64  C   UNL A   1      43.511  27.863  33.312  1.00  0.00     0.034 A 
BRANCH  51  65
ATOM     65  C   UNL A   1      39.403  31.986  35.395  1.00  0.00     0.023 A 
ATOM     66  C   UNL A   1      38.509  31.462  36.352  1.00  0.00     0.012 A 
ATOM     67  C   UNL A   1      39.874  33.306  35.541  1.00  0.00     0.148 A 
ATOM     68  C   UNL A   1      38.061  32.246  37.413  1.00  0.00     0.002 A 
ATOM     69  C   UNL A   1      39.457  34.067  36.626  1.00  0.00     0.091 A 
ATOM     70  F   UNL A   1      40.705  33.796  34.611  1.00  0.00    -0.205 F 
ATOM     71  C   UNL A   1      38.542  33.544  37.556  1.00  0.00     0.022 A 
BRANCH  69  72
ATOM     72  S   UNL A   1      40.078  35.723  36.942  1.00  0.00     0.127 S 
ATOM     73  O   UNL A   1      39.447  36.036  38.223  1.00  0.00    -0.237 OA
ATOM     74  O   UNL A   1      41.524  35.504  37.012  1.00  0.00    -0.237 OA
ATOM     75  O   UNL A   1      39.644  36.534  35.813  1.00  0.00    -0.744 OA
ENDBRANCH  69  72
ENDBRANCH  51  65
BRANCH  52  76
ATOM     76  C   UNL A   1      42.284  26.545  27.524  1.00  0.00     0.023 A 
ATOM     77  C   UNL A   1      43.043  27.180  26.521  1.00  0.00     0.012 A 
ATOM     78  C   UNL A   1      42.003  25.170  27.404  1.00  0.00     0.148 A 
ATOM     79  C   UNL A   1      43.489  26.468  25.406  1.00  0.00     0.002 A 
ATOM     80  C   UNL A   1      42.494  24.455  26.317  1.00  0.00     0.091 A 
ATOM     81  F   UNL A   1      41.269  24.586  28.362  1.00  0.00    -0.205 F 
ATOM     82  C   UNL A   1      43.223  25.105  25.309  1.00  0.00     0.022 A 
BRANCH  80  83
ATOM     83  S   UNL A   1      42.312  22.673  26.176  1.00  0.00     0.127 S 
ATOM     84  O   UNL A   1      40.860  22.517  26.202  1.00  0.00    -0.237 OA
ATOM     85  O   UNL A   1      42.938  22.404  24.881  1.00  0.00    -0.237 OA
ATOM     86  O   UNL A   1      43.032  22.116  27.314  1.00  0.00    -0.744 OA
ENDBRANCH  80  83
ENDBRANCH  52  76
BRANCH  64  87
ATOM     87  C   UNL A   1      44.683  27.266  34.045  1.00  0.00     0.023 A 
ATOM     88  C   UNL A   1      45.931  27.916  34.009  1.00  0.00     0.012 A 
ATOM     89  C   UNL A   1      44.525  26.111  34.837  1.00  0.00     0.148 A 
ATOM     90  C   UNL A   1      47.013  27.413  34.730  1.00  0.00     0.002 A 
ATOM     91  C   UNL A   1      45.595  25.641  35.588  1.00  0.00     0.091 A 
ATOM     92  F   UNL A   1      43.333  25.495  34.841  1.00  0.00    -0.205 F 
ATOM     93  C   UNL A   1      46.842  26.285  35.529  1.00  0.00     0.022 A 
BRANCH  91  94
ATOM     94  S   UNL A   1      45.437  24.250  36.715  1.00  0.00     0.127 S 
ATOM     95  O   UNL A   1      44.369  24.706  37.603  1.00  0.00    -0.237 OA
ATOM     96  O   UNL A   1      45.058  23.160  35.814  1.00  0.00    -0.237 OA
ATOM     97  O   UNL A   1      46.745  24.089  37.335  1.00  0.00    -0.744 OA
ENDBRANCH  91  94
ENDBRANCH  64  87
ENDBRANCH  38  39
ENDBRANCH  30  33
ENDBRANCH  28  29
ENDBRANCH  27  28
ENDBRANCH   1  27
TORSDOF 17
ENDMDL
MODEL 3
REMARK VINA RESULT:     -11.7      1.503      2.045
REMARK SMILES Cc1ccc(Cl)c(NC(=O)C[N@@H+]2CCC[C@H]2C(=O)NCCCCNC(=O)c2ccc(-c3c4nc(c(-c5cccc(S(=O)(=O)[O-])c5F)c5ccc([nH]5)c(-c5cccc(S(=O)(=O)[O-])c5F)c5nc(c(-c6cccc(S(=O)(=O)[O-])c6F)c6ccc3[nH]6)C=C5)C=C4)cc2)c1Cl
REMARK SMILES IDX 21 1 20 2 19 3 17 4 18 5 16 7 12 8 13 9 14 11 15 12 11 13
REMARK SMILES IDX 9 14 8 15 10 17 7 18 1 19 2 20 3 21 90 22 4 23 91 24 5 25
REMARK SMILES IDX 6 26 22 27 23 28 24 29 25 30 26 32 27 33 28 34 89 35 29 36
REMARK SMILES IDX 88 37 30 38 31 39 32 40 82 41 33 42 87 43 81 44 83 45 34 46
REMARK SMILES IDX 86 47 80 48 79 49 35 51 67 52 47 53 66 54 48 55 51 56 65 57
REMARK SMILES IDX 84 58 49 59 50 60 64 62 85 63 52 64 36 65 37 66 45 67 38 68
REMARK SMILES IDX 40 69 46 70 39 71 41 72 42 73 43 74 44 75 68 76 69 77 77 78
REMARK SMILES IDX 70 79 72 80 78 81 71 82 73 83 74 84 75 85 76 86 53 87 54 88
REMARK SMILES IDX 62 89 55 90 57 91 63 92 56 93 58 94 59 95 60 96 61 97
REMARK H PARENT 19 6 12 10 8 16 24 31 83 50 51 61
REMARK Flexibility Score: inf
ROOT
ATOM      1  C   UNL A   1      31.441  29.651  24.341  1.00  0.00     0.023 C 
ENDROOT
BRANCH   1   2
ATOM      2  C   UNL A   1      31.257  28.606  23.249  1.00  0.00     0.116 C 
BRANCH   2   3
ATOM      3  N   UNL A   1      30.007  27.883  23.371  1.00  0.00    -0.351 N 
ATOM      4  C   UNL A   1      29.804  26.550  23.600  1.00  0.00     0.278 C 
ATOM      5  O   UNL A   1      28.643  26.177  23.790  1.00  0.00    -0.268 OA
ATOM      6  H   UNL A   1      29.192  28.427  23.276  1.00  0.00     0.163 HD
BRANCH   4   7
ATOM      7  C   UNL A   1      30.989  25.551  23.503  1.00  0.00     0.274 C 
ATOM      8  N   UNL A   1      31.840  25.580  24.725  1.00  0.00    -0.317 N 
ATOM      9  C   UNL A   1      31.133  24.660  25.641  1.00  0.00     0.263 C 
ATOM     10  H   UNL A   1      31.960  26.526  25.085  1.00  0.00     0.349 HD
ATOM     11  C   UNL A   1      30.713  23.486  24.776  1.00  0.00     0.068 C 
ATOM     12  C   UNL A   1      30.496  24.096  23.396  1.00  0.00     0.081 C 
BRANCH   8  13
ATOM     13  C   UNL A   1      33.220  25.079  24.471  1.00  0.00     0.364 C 
BRANCH  13  14
ATOM     14  C   UNL A   1      34.226  25.384  25.586  1.00  0.00     0.279 C 
ATOM     15  N   UNL A   1      35.072  24.497  26.186  1.00  0.00    -0.319 N 
ATOM     16  H   UNL A   1      35.516  24.880  26.977  1.00  0.00     0.170 HD
ATOM     17  O   UNL A   1      34.334  26.555  25.987  1.00  0.00    -0.268 OA
BRANCH  15  18
ATOM     18  C   UNL A   1      35.464  23.158  25.941  1.00  0.00     0.079 A 
ATOM     19  C   UNL A   1      34.143  19.744  24.787  1.00  0.00     0.046 C 
ATOM     20  C   UNL A   1      35.060  20.875  25.170  1.00  0.00    -0.030 A 
ATOM     21  C   UNL A   1      36.396  20.790  24.750  1.00  0.00     0.006 A 
ATOM     22  C   UNL A   1      34.622  22.041  25.837  1.00  0.00     0.069 A 
ATOM     23  C   UNL A   1      37.299  21.795  25.079  1.00  0.00     0.023 A 
ATOM     24  Cl  UNL A   1      33.173  21.960  26.791  1.00  0.00    -0.082 Cl
ATOM     25  C   UNL A   1      36.838  22.956  25.695  1.00  0.00     0.066 A 
ATOM     26  Cl  UNL A   1      38.012  24.171  26.089  1.00  0.00    -0.082 Cl
ENDBRANCH  15  18
ENDBRANCH  13  14
ENDBRANCH   8  13
ENDBRANCH   4   7
ENDBRANCH   2   3
ENDBRANCH   1   2
BRANCH   1  27
ATOM     27  C   UNL A   1      32.759  29.591  25.109  1.00  0.00     0.023 C 
BRANCH  27  28
ATOM     28  C   UNL A   1      32.663  29.915  26.593  1.00  0.00     0.116 C 
BRANCH  28  29
ATOM     29  N   UNL A   1      32.573  31.336  26.897  1.00  0.00    -0.352 N 
ATOM     30  C   UNL A   1      33.510  32.127  27.532  1.00  0.00     0.251 C 
ATOM     31  H   UNL A   1      31.744  31.788  26.616  1.00  0.00     0.163 HD
ATOM     32  O   UNL A   1      33.270  33.297  27.792  1.00  0.00    -0.269 OA
BRANCH  30  33
ATOM     33  C   UNL A   1      34.794  31.514  27.944  1.00  0.00     0.039 A 
ATOM     34  C   UNL A   1      35.936  32.315  28.020  1.00  0.00     0.014 A 
ATOM     35  C   UNL A   1      34.846  30.174  28.333  1.00  0.00     0.014 A 
ATOM     36  C   UNL A   1      37.108  31.793  28.574  1.00  0.00     0.010 A 
ATOM     37  C   UNL A   1      35.981  29.686  28.967  1.00  0.00     0.010 A 
ATOM     38  C   UNL A   1      37.124  30.490  29.097  1.00  0.00    -0.014 A 
BRANCH  38  39
ATOM     39  C   UNL A   1      38.314  29.943  29.800  1.00  0.00     0.031 A 
ATOM     40  C   UNL A   1      38.662  30.429  31.181  1.00  0.00     0.074 A 
ATOM     41  C   UNL A   1      39.143  29.099  29.153  1.00  0.00     0.049 A 
ATOM     42  N   UNL A   1      39.707  30.149  31.915  1.00  0.00    -0.248 NA
ATOM     43  C   UNL A   1      37.732  31.386  31.804  1.00  0.00     0.031 C 
ATOM     44  C   UNL A   1      38.971  28.627  27.776  1.00  0.00     0.029 A 
ATOM     45  N   UNL A   1      40.315  28.509  29.558  1.00  0.00    -0.354 N 
ATOM     46  C   UNL A   1      39.585  30.927  33.060  1.00  0.00     0.074 A 
ATOM     47  C   UNL A   1      38.386  31.720  32.907  1.00  0.00     0.031 C 
ATOM     48  C   UNL A   1      39.991  27.815  27.457  1.00  0.00     0.029 A 
ATOM     49  C   UNL A   1      40.905  27.727  28.591  1.00  0.00     0.049 A 
ATOM     50  H   UNL A   1      40.698  28.634  30.456  1.00  0.00     0.167 HD
ATOM     51  C   UNL A   1      40.376  30.951  34.159  1.00  0.00     0.034 A 
ATOM     52  C   UNL A   1      42.050  27.017  28.617  1.00  0.00     0.034 A 
ATOM     53  C   UNL A   1      41.527  30.110  34.338  1.00  0.00     0.049 A 
ATOM     54  C   UNL A   1      42.868  26.999  29.880  1.00  0.00     0.074 A 
ATOM     55  C   UNL A   1      42.338  29.988  35.452  1.00  0.00     0.029 A 
ATOM     56  N   UNL A   1      42.025  29.241  33.381  1.00  0.00    -0.354 N 
ATOM     57  N   UNL A   1      42.648  27.620  31.014  1.00  0.00    -0.248 NA
ATOM     58  C   UNL A   1      44.071  26.154  29.882  1.00  0.00     0.031 C 
ATOM     59  C   UNL A   1      43.331  29.044  35.167  1.00  0.00     0.029 A 
ATOM     60  C   UNL A   1      43.131  28.573  33.878  1.00  0.00     0.049 A 
ATOM     61  H   UNL A   1      41.648  29.116  32.480  1.00  0.00     0.167 HD
ATOM     62  C   UNL A   1      43.662  27.215  31.874  1.00  0.00     0.074 A 
ATOM     63  C   UNL A   1      44.485  26.278  31.136  1.00  0.00     0.031 C 
ATOM     64  C   UNL A   1      43.901  27.597  33.152  1.00  0.00     0.034 A 
BRANCH  51  65
ATOM     65  C   UNL A   1      39.971  31.865  35.286  1.00  0.00     0.023 A 
ATOM     66  C   UNL A   1      40.505  33.168  35.343  1.00  0.00     0.012 A 
ATOM     67  C   UNL A   1      39.037  31.458  36.259  1.00  0.00     0.148 A 
ATOM     68  C   UNL A   1      40.148  34.040  36.370  1.00  0.00     0.002 A 
ATOM     69  C   UNL A   1      38.653  32.348  37.255  1.00  0.00     0.091 A 
ATOM     70  F   UNL A   1      38.557  30.208  36.204  1.00  0.00    -0.205 F 
ATOM     71  C   UNL A   1      39.215  33.634  37.319  1.00  0.00     0.022 A 
BRANCH  69  72
ATOM     72  S   UNL A   1      37.400  31.948  38.480  1.00  0.00     0.127 S 
ATOM     73  O   UNL A   1      37.112  30.551  38.162  1.00  0.00    -0.237 OA
ATOM     74  O   UNL A   1      38.121  32.150  39.738  1.00  0.00    -0.237 OA
ATOM     75  O   UNL A   1      36.308  32.883  38.253  1.00  0.00    -0.744 OA
ENDBRANCH  69  72
ENDBRANCH  51  65
BRANCH  52  76
ATOM     76  C   UNL A   1      42.438  26.188  27.440  1.00  0.00     0.023 A 
ATOM     77  C   UNL A   1      43.228  26.766  26.426  1.00  0.00     0.012 A 
ATOM     78  C   UNL A   1      42.068  24.834  27.333  1.00  0.00     0.148 A 
ATOM     79  C   UNL A   1      43.618  26.019  25.313  1.00  0.00     0.002 A 
ATOM     80  C   UNL A   1      42.503  24.081  26.247  1.00  0.00     0.091 A 
ATOM     81  F   UNL A   1      41.305  24.305  28.301  1.00  0.00    -0.205 F 
ATOM     82  C   UNL A   1      43.264  24.676  25.230  1.00  0.00     0.022 A 
BRANCH  80  83
ATOM     83  S   UNL A   1      42.205  22.313  26.122  1.00  0.00     0.127 S 
ATOM     84  O   UNL A   1      42.958  21.966  24.919  1.00  0.00    -0.237 OA
ATOM     85  O   UNL A   1      42.781  21.818  27.373  1.00  0.00    -0.237 OA
ATOM     86  O   UNL A   1      40.759  22.166  26.032  1.00  0.00    -0.744 OA
ENDBRANCH  80  83
ENDBRANCH  52  76
BRANCH  64  87
ATOM     87  C   UNL A   1      45.083  26.985  33.856  1.00  0.00     0.023 A 
ATOM     88  C   UNL A   1      46.349  27.591  33.745  1.00  0.00     0.012 A 
ATOM     89  C   UNL A   1      44.922  25.865  34.695  1.00  0.00     0.148 A 
ATOM     90  C   UNL A   1      47.444  27.077  34.438  1.00  0.00     0.002 A 
ATOM     91  C   UNL A   1      46.007  25.385  35.418  1.00  0.00     0.091 A 
ATOM     92  F   UNL A   1      43.712  25.291  34.772  1.00  0.00    -0.205 F 
ATOM     93  C   UNL A   1      47.271  25.983  35.283  1.00  0.00     0.022 A 
BRANCH  91  94
ATOM     94  S   UNL A   1      45.852  24.040  36.599  1.00  0.00     0.127 S 
ATOM     95  O   UNL A   1      47.206  23.966  37.146  1.00  0.00    -0.237 OA
ATOM     96  O   UNL A   1      44.847  24.555  37.530  1.00  0.00    -0.237 OA
ATOM     97  O   UNL A   1      45.421  22.882  35.829  1.00  0.00    -0.744 OA
ENDBRANCH  91  94
ENDBRANCH  64  87
ENDBRANCH  38  39
ENDBRANCH  30  33
ENDBRANCH  28  29
ENDBRANCH  27  28
ENDBRANCH   1  27
TORSDOF 17
ENDMDL
