MODEL 1
REMARK VINA RESULT:     -12.0      0.000      0.000
REMARK SMILES COc1cc(/C=C2/CCc3cc(OC(C)(C)C(=O)NCCCCNC(=O)c4ccc(-c5c6nc(c(-c7cccc(S(=O)(=O)[O-])c7F)c7ccc([nH]7)c(-c7cccc(S(=O)(=O)[O-])c7F)c7nc(c(-c8cccc(S(=O)(=O)[O-])c8F)c8ccc5[nH]8)C=C7)C=C6)cc4)ccc3C2=O)cc(OC)c1O
REMARK SMILES IDX 21 1 20 2 19 3 17 4 18 5 14 7 15 8 16 9 13 10 12 11 6 12
REMARK SMILES IDX 7 13 8 14 93 15 9 16 92 17 94 18 10 19 91 20 11 21 90 22
REMARK SMILES IDX 5 23 3 24 4 25 99 26 96 27 95 28 2 29 1 30 100 31 97 33
REMARK SMILES IDX 98 34 22 35 23 36 24 37 25 38 26 40 27 41 28 42 89 43 29 44
REMARK SMILES IDX 88 45 30 46 31 47 32 48 82 49 33 50 87 51 81 52 83 53 34 54
REMARK SMILES IDX 86 55 80 56 79 57 35 59 67 60 47 61 66 62 48 63 51 64 65 65
REMARK SMILES IDX 84 66 49 67 50 68 64 70 85 71 52 72 36 73 37 74 45 75 38 76
REMARK SMILES IDX 40 77 46 78 39 79 41 80 42 81 43 82 44 83 68 84 69 85 77 86
REMARK SMILES IDX 70 87 72 88 78 89 71 90 73 91 74 92 75 93 76 94 53 95 54 96
REMARK SMILES IDX 62 97 55 98 57 99 63 100 56 101 58 102 59 103 60 104 61 105
REMARK H PARENT 19 6 100 32 24 39 83 58 51 69
REMARK Flexibility Score: inf
ROOT
ATOM      1  C   UNL A   1      37.691  19.304  24.840  1.00  0.00     0.023 C 
ENDROOT
BRANCH   1   2
ATOM      2  C   UNL A   1      36.197  19.018  24.989  1.00  0.00     0.116 C 
BRANCH   2   3
ATOM      3  N   UNL A   1      35.891  17.596  24.999  1.00  0.00    -0.353 N 
ATOM      4  C   UNL A   1      34.734  16.920  24.680  1.00  0.00     0.263 C 
ATOM      5  O   UNL A   1      34.776  15.689  24.730  1.00  0.00    -0.270 OA
ATOM      6  H   UNL A   1      36.637  17.019  25.279  1.00  0.00     0.163 HD
BRANCH   4   7
ATOM      7  C   UNL A   1      33.449  17.695  24.240  1.00  0.00     0.181 C 
ATOM      8  C   UNL A   1      32.525  17.706  25.484  1.00  0.00     0.067 C 
ATOM      9  C   UNL A   1      32.907  17.028  22.964  1.00  0.00     0.067 C 
BRANCH   7  10
ATOM     10  O   UNL A   1      33.849  19.046  23.879  1.00  0.00    -0.478 OA
BRANCH  10  11
ATOM     11  C   UNL A   1      33.167  20.118  24.396  1.00  0.00     0.121 A 
ATOM     12  C   UNL A   1      33.351  25.722  26.115  1.00  0.00     0.016 C 
ATOM     13  C   UNL A   1      32.816  24.522  26.403  1.00  0.00     0.001 C 
ATOM     14  C   UNL A   1      33.394  23.640  27.488  1.00  0.00     0.044 C 
ATOM     15  C   UNL A   1      31.737  23.924  25.551  1.00  0.00     0.189 C 
ATOM     16  C   UNL A   1      32.772  22.242  27.530  1.00  0.00     0.041 C 
ATOM     17  C   UNL A   1      32.033  22.532  25.162  1.00  0.00     0.026 A 
ATOM     18  O   UNL A   1      30.731  24.513  25.186  1.00  0.00    -0.289 OA
ATOM     19  C   UNL A   1      32.635  21.720  26.127  1.00  0.00    -0.033 A 
ATOM     20  C   UNL A   1      31.900  22.113  23.841  1.00  0.00     0.016 A 
ATOM     21  C   UNL A   1      33.161  20.493  25.743  1.00  0.00     0.051 A 
ATOM     22  C   UNL A   1      32.482  20.901  23.460  1.00  0.00     0.047 A 
BRANCH  12  23
ATOM     23  C   UNL A   1      32.969  26.610  25.012  1.00  0.00    -0.018 A 
ATOM     24  C   UNL A   1      31.896  28.637  24.288  1.00  0.00     0.165 A 
ATOM     25  C   UNL A   1      32.255  27.769  25.312  1.00  0.00     0.058 A 
ATOM     26  C   UNL A   1      32.281  28.391  22.962  1.00  0.00     0.200 A 
ATOM     27  C   UNL A   1      32.975  27.223  22.642  1.00  0.00     0.165 A 
ATOM     28  C   UNL A   1      33.335  26.352  23.681  1.00  0.00     0.058 A 
BRANCH  24  29
ATOM     29  O   UNL A   1      31.214  29.780  24.622  1.00  0.00    -0.493 OA
ATOM     30  C   UNL A   1      31.800  30.413  25.765  1.00  0.00     0.278 C 
ENDBRANCH  24  29
BRANCH  26  31
ATOM     31  O   UNL A   1      32.006  29.350  22.024  1.00  0.00    -0.502 OA
ATOM     32  H   UNL A   1      32.655  29.582  21.388  1.00  0.00     0.293 HD
ENDBRANCH  26  31
BRANCH  27  33
ATOM     33  O   UNL A   1      33.408  26.817  21.408  1.00  0.00    -0.493 OA
ATOM     34  C   UNL A   1      32.780  25.674  20.842  1.00  0.00     0.278 C 
ENDBRANCH  27  33
ENDBRANCH  12  23
ENDBRANCH  10  11
ENDBRANCH   7  10
ENDBRANCH   4   7
ENDBRANCH   2   3
ENDBRANCH   1   2
BRANCH   1  35
ATOM     35  C   UNL A   1      38.091  20.763  25.040  1.00  0.00     0.023 C 
BRANCH  35  36
ATOM     36  C   UNL A   1      39.162  21.006  26.097  1.00  0.00     0.116 C 
BRANCH  36  37
ATOM     37  N   UNL A   1      40.140  19.930  26.203  1.00  0.00    -0.352 N 
ATOM     38  C   UNL A   1      41.486  20.035  26.471  1.00  0.00     0.251 C 
ATOM     39  H   UNL A   1      39.796  19.019  26.065  1.00  0.00     0.163 HD
ATOM     40  O   UNL A   1      42.203  19.040  26.455  1.00  0.00    -0.269 OA
BRANCH  38  41
ATOM     41  C   UNL A   1      42.056  21.371  26.730  1.00  0.00     0.039 A 
ATOM     42  C   UNL A   1      42.339  22.204  25.644  1.00  0.00     0.014 A 
ATOM     43  C   UNL A   1      42.227  21.823  28.040  1.00  0.00     0.014 A 
ATOM     44  C   UNL A   1      42.708  23.531  25.877  1.00  0.00     0.010 A 
ATOM     45  C   UNL A   1      42.539  23.158  28.268  1.00  0.00     0.010 A 
ATOM     46  C   UNL A   1      42.766  24.025  27.189  1.00  0.00    -0.014 A 
BRANCH  46  47
ATOM     47  C   UNL A   1      43.018  25.458  27.468  1.00  0.00     0.031 A 
ATOM     48  C   UNL A   1      44.408  26.013  27.347  1.00  0.00     0.074 A 
ATOM     49  C   UNL A   1      42.021  26.223  27.954  1.00  0.00     0.049 A 
ATOM     50  N   UNL A   1      44.850  27.199  27.668  1.00  0.00    -0.248 NA
ATOM     51  C   UNL A   1      45.442  25.104  26.823  1.00  0.00     0.031 C 
ATOM     52  C   UNL A   1      40.648  25.770  28.195  1.00  0.00     0.029 A 
ATOM     53  N   UNL A   1      42.016  27.531  28.367  1.00  0.00    -0.354 N 
ATOM     54  C   UNL A   1      46.218  27.167  27.433  1.00  0.00     0.074 A 
ATOM     55  C   UNL A   1      46.537  25.841  26.951  1.00  0.00     0.031 C 
ATOM     56  C   UNL A   1      39.935  26.785  28.713  1.00  0.00     0.029 A 
ATOM     57  C   UNL A   1      40.802  27.949  28.861  1.00  0.00     0.049 A 
ATOM     58  H   UNL A   1      42.806  28.116  28.314  1.00  0.00     0.167 HD
ATOM     59  C   UNL A   1      47.124  28.162  27.581  1.00  0.00     0.034 A 
ATOM     60  C   UNL A   1      40.431  29.137  29.377  1.00  0.00     0.034 A 
ATOM     61  C   UNL A   1      46.793  29.499  27.986  1.00  0.00     0.049 A 
ATOM     62  C   UNL A   1      41.438  30.252  29.443  1.00  0.00     0.074 A 
ATOM     63  C   UNL A   1      47.625  30.602  28.077  1.00  0.00     0.029 A 
ATOM     64  N   UNL A   1      45.526  29.921  28.354  1.00  0.00    -0.354 N 
ATOM     65  N   UNL A   1      42.697  30.245  29.076  1.00  0.00    -0.248 NA
ATOM     66  C   UNL A   1      40.969  31.545  29.961  1.00  0.00     0.031 C 
ATOM     67  C   UNL A   1      46.854  31.696  28.486  1.00  0.00     0.029 A 
ATOM     68  C   UNL A   1      45.547  31.269  28.663  1.00  0.00     0.049 A 
ATOM     69  H   UNL A   1      44.727  29.346  28.392  1.00  0.00     0.167 HD
ATOM     70  C   UNL A   1      43.163  31.535  29.292  1.00  0.00     0.074 A 
ATOM     71  C   UNL A   1      42.047  32.304  29.806  1.00  0.00     0.031 C 
ATOM     72  C   UNL A   1      44.408  32.034  29.102  1.00  0.00     0.034 A 
BRANCH  59  73
ATOM     73  C   UNL A   1      48.548  27.857  27.216  1.00  0.00     0.023 A 
ATOM     74  C   UNL A   1      49.454  27.512  28.237  1.00  0.00     0.012 A 
ATOM     75  C   UNL A   1      48.981  27.870  25.878  1.00  0.00     0.148 A 
ATOM     76  C   UNL A   1      50.779  27.203  27.934  1.00  0.00     0.002 A 
ATOM     77  C   UNL A   1      50.299  27.534  25.581  1.00  0.00     0.091 A 
ATOM     78  F   UNL A   1      48.115  28.236  24.922  1.00  0.00    -0.205 F 
ATOM     79  C   UNL A   1      51.199  27.205  26.607  1.00  0.00     0.022 A 
BRANCH  77  80
ATOM     80  S   UNL A   1      50.889  27.469  23.885  1.00  0.00     0.127 S 
ATOM     81  O   UNL A   1      52.159  26.763  24.038  1.00  0.00    -0.237 OA
ATOM     82  O   UNL A   1      49.843  26.697  23.210  1.00  0.00    -0.237 OA
ATOM     83  O   UNL A   1      50.973  28.859  23.458  1.00  0.00    -0.744 OA
ENDBRANCH  77  80
ENDBRANCH  59  73
BRANCH  60  84
ATOM     84  C   UNL A   1      39.013  29.356  29.774  1.00  0.00     0.023 A 
ATOM     85  C   UNL A   1      38.626  29.067  31.097  1.00  0.00     0.012 A 
ATOM     86  C   UNL A   1      38.068  29.898  28.885  1.00  0.00     0.148 A 
ATOM     87  C   UNL A   1      37.318  29.300  31.522  1.00  0.00     0.002 A 
ATOM     88  C   UNL A   1      36.777  30.170  29.329  1.00  0.00     0.091 A 
ATOM     89  F   UNL A   1      38.444  30.150  27.623  1.00  0.00    -0.205 F 
ATOM     90  C   UNL A   1      36.396  29.863  30.643  1.00  0.00     0.022 A 
BRANCH  88  91
ATOM     91  S   UNL A   1      35.595  31.017  28.273  1.00  0.00     0.127 S 
ATOM     92  O   UNL A   1      36.336  32.212  27.883  1.00  0.00    -0.237 OA
ATOM     93  O   UNL A   1      35.377  30.049  27.195  1.00  0.00    -0.237 OA
ATOM     94  O   UNL A   1      34.429  31.223  29.123  1.00  0.00    -0.744 OA
ENDBRANCH  88  91
ENDBRANCH  60  84
BRANCH  72  95
ATOM     95  C   UNL A   1      44.637  33.481  29.429  1.00  0.00     0.023 A 
ATOM     96  C   UNL A   1      45.103  33.828  30.711  1.00  0.00     0.012 A 
ATOM     97  C   UNL A   1      44.486  34.479  28.449  1.00  0.00     0.148 A 
ATOM     98  C   UNL A   1      45.407  35.154  31.017  1.00  0.00     0.002 A 
ATOM     99  C   UNL A   1      44.819  35.795  28.752  1.00  0.00     0.091 A 
ATOM    100  F   UNL A   1      44.014  34.131  27.242  1.00  0.00    -0.205 F 
ATOM    101  C   UNL A   1      45.277  36.135  30.035  1.00  0.00     0.022 A 
BRANCH  99 102
ATOM    102  S   UNL A   1      44.745  37.088  27.507  1.00  0.00     0.127 S 
ATOM    103  O   UNL A   1      45.185  38.260  28.262  1.00  0.00    -0.237 OA
ATOM    104  O   UNL A   1      45.698  36.620  26.499  1.00  0.00    -0.237 OA
ATOM    105  O   UNL A   1      43.360  37.105  27.054  1.00  0.00    -0.744 OA
ENDBRANCH  99 102
ENDBRANCH  72  95
ENDBRANCH  46  47
ENDBRANCH  38  41
ENDBRANCH  36  37
ENDBRANCH  35  36
ENDBRANCH   1  35
TORSDOF 20
ENDMDL
MODEL 2
REMARK VINA RESULT:     -11.6      1.895      2.242
REMARK SMILES COc1cc(/C=C2/CCc3cc(OC(C)(C)C(=O)NCCCCNC(=O)c4ccc(-c5c6nc(c(-c7cccc(S(=O)(=O)[O-])c7F)c7ccc([nH]7)c(-c7cccc(S(=O)(=O)[O-])c7F)c7nc(c(-c8cccc(S(=O)(=O)[O-])c8F)c8ccc5[nH]8)C=C7)C=C6)cc4)ccc3C2=O)cc(OC)c1O
REMARK SMILES IDX 21 1 20 2 19 3 17 4 18 5 14 7 15 8 16 9 13 10 12 11 6 12
REMARK SMILES IDX 7 13 8 14 93 15 9 16 92 17 94 18 10 19 91 20 11 21 90 22
REMARK SMILES IDX 5 23 3 24 4 25 99 26 96 27 95 28 2 29 1 30 100 31 97 33
REMARK SMILES IDX 98 34 22 35 23 36 24 37 25 38 26 40 27 41 28 42 89 43 29 44
REMARK SMILES IDX 88 45 30 46 31 47 32 48 82 49 33 50 87 51 81 52 83 53 34 54
REMARK SMILES IDX 86 55 80 56 79 57 35 59 67 60 47 61 66 62 48 63 51 64 65 65
REMARK SMILES IDX 84 66 49 67 50 68 64 70 85 71 52 72 36 73 37 74 45 75 38 76
REMARK SMILES IDX 40 77 46 78 39 79 41 80 42 81 43 82 44 83 68 84 69 85 77 86
REMARK SMILES IDX 70 87 72 88 78 89 71 90 73 91 74 92 75 93 76 94 53 95 54 96
REMARK SMILES IDX 62 97 55 98 57 99 63 100 56 101 58 102 59 103 60 104 61 105
REMARK H PARENT 19 6 100 32 24 39 83 58 51 69
REMARK Flexibility Score: inf
ROOT
ATOM      1  C   UNL A   1      37.882  19.143  24.986  1.00  0.00     0.023 C 
ENDROOT
BRANCH   1   2
ATOM      2  C   UNL A   1      36.418  18.866  24.650  1.00  0.00     0.116 C 
BRANCH   2   3
ATOM      3  N   UNL A   1      36.011  17.506  24.971  1.00  0.00    -0.353 N 
ATOM      4  C   UNL A   1      34.776  16.900  24.925  1.00  0.00     0.263 C 
ATOM      5  O   UNL A   1      34.732  15.700  25.208  1.00  0.00    -0.270 OA
ATOM      6  H   UNL A   1      36.742  16.920  25.272  1.00  0.00     0.163 HD
BRANCH   4   7
ATOM      7  C   UNL A   1      33.505  17.702  24.494  1.00  0.00     0.181 C 
ATOM      8  C   UNL A   1      32.656  17.858  25.780  1.00  0.00     0.067 C 
ATOM      9  C   UNL A   1      32.860  16.965  23.307  1.00  0.00     0.067 C 
BRANCH   7  10
ATOM     10  O   UNL A   1      33.945  18.998  24.003  1.00  0.00    -0.478 OA
BRANCH  10  11
ATOM     11  C   UNL A   1      33.504  20.143  24.615  1.00  0.00     0.121 A 
ATOM     12  C   UNL A   1      33.905  25.978  25.051  1.00  0.00     0.016 C 
ATOM     13  C   UNL A   1      33.727  24.852  25.765  1.00  0.00     0.001 C 
ATOM     14  C   UNL A   1      34.870  24.209  26.519  1.00  0.00     0.044 C 
ATOM     15  C   UNL A   1      32.440  24.086  25.706  1.00  0.00     0.189 C 
ATOM     16  C   UNL A   1      34.515  22.839  27.106  1.00  0.00     0.041 C 
ATOM     17  C   UNL A   1      32.652  22.648  25.453  1.00  0.00     0.026 A 
ATOM     18  O   UNL A   1      31.329  24.580  25.825  1.00  0.00    -0.289 OA
ATOM     19  C   UNL A   1      33.746  22.049  26.083  1.00  0.00    -0.033 A 
ATOM     20  C   UNL A   1      31.916  21.975  24.481  1.00  0.00     0.016 A 
ATOM     21  C   UNL A   1      34.139  20.777  25.688  1.00  0.00     0.051 A 
ATOM     22  C   UNL A   1      32.357  20.718  24.057  1.00  0.00     0.047 A 
BRANCH  12  23
ATOM     23  C   UNL A   1      32.921  26.627  24.177  1.00  0.00    -0.018 A 
ATOM     24  C   UNL A   1      31.443  28.481  23.775  1.00  0.00     0.165 A 
ATOM     25  C   UNL A   1      32.365  27.837  24.591  1.00  0.00     0.058 A 
ATOM     26  C   UNL A   1      31.098  27.960  22.519  1.00  0.00     0.200 A 
ATOM     27  C   UNL A   1      31.627  26.737  22.102  1.00  0.00     0.165 A 
ATOM     28  C   UNL A   1      32.558  26.092  22.930  1.00  0.00     0.058 A 
BRANCH  24  29
ATOM     29  O   UNL A   1      30.933  29.681  24.202  1.00  0.00    -0.493 OA
ATOM     30  C   UNL A   1      31.448  30.028  25.493  1.00  0.00     0.278 C 
ENDBRANCH  24  29
BRANCH  26  31
ATOM     31  O   UNL A   1      30.284  28.709  21.713  1.00  0.00    -0.502 OA
ATOM     32  H   UNL A   1      30.490  29.608  21.545  1.00  0.00     0.293 HD
ENDBRANCH  26  31
BRANCH  27  33
ATOM     33  O   UNL A   1      31.386  26.077  20.926  1.00  0.00    -0.493 OA
ATOM     34  C   UNL A   1      32.512  25.574  20.220  1.00  0.00     0.278 C 
ENDBRANCH  27  33
ENDBRANCH  12  23
ENDBRANCH  10  11
ENDBRANCH   7  10
ENDBRANCH   4   7
ENDBRANCH   2   3
ENDBRANCH   1   2
BRANCH   1  35
ATOM     35  C   UNL A   1      38.199  20.594  25.337  1.00  0.00     0.023 C 
BRANCH  35  36
ATOM     36  C   UNL A   1      39.491  20.809  26.117  1.00  0.00     0.116 C 
BRANCH  36  37
ATOM     37  N   UNL A   1      40.419  19.686  26.042  1.00  0.00    -0.352 N 
ATOM     38  C   UNL A   1      41.791  19.715  26.137  1.00  0.00     0.251 C 
ATOM     39  H   UNL A   1      40.013  18.801  25.905  1.00  0.00     0.163 HD
ATOM     40  O   UNL A   1      42.448  18.692  25.979  1.00  0.00    -0.269 OA
BRANCH  38  41
ATOM     41  C   UNL A   1      42.458  21.009  26.385  1.00  0.00     0.039 A 
ATOM     42  C   UNL A   1      42.812  21.804  25.292  1.00  0.00     0.014 A 
ATOM     43  C   UNL A   1      42.649  21.464  27.691  1.00  0.00     0.014 A 
ATOM     44  C   UNL A   1      43.278  23.102  25.512  1.00  0.00     0.010 A 
ATOM     45  C   UNL A   1      43.059  22.774  27.905  1.00  0.00     0.010 A 
ATOM     46  C   UNL A   1      43.360  23.608  26.818  1.00  0.00    -0.014 A 
BRANCH  46  47
ATOM     47  C   UNL A   1      43.717  25.022  27.082  1.00  0.00     0.031 A 
ATOM     48  C   UNL A   1      45.146  25.467  26.977  1.00  0.00     0.074 A 
ATOM     49  C   UNL A   1      42.773  25.867  27.540  1.00  0.00     0.049 A 
ATOM     50  N   UNL A   1      45.673  26.621  27.289  1.00  0.00    -0.248 NA
ATOM     51  C   UNL A   1      46.116  24.474  26.484  1.00  0.00     0.031 C 
ATOM     52  C   UNL A   1      41.366  25.525  27.763  1.00  0.00     0.029 A 
ATOM     53  N   UNL A   1      42.861  27.178  27.935  1.00  0.00    -0.354 N 
ATOM     54  C   UNL A   1      47.038  26.481  27.079  1.00  0.00     0.074 A 
ATOM     55  C   UNL A   1      47.262  25.127  26.620  1.00  0.00     0.031 C 
ATOM     56  C   UNL A   1      40.724  26.598  28.254  1.00  0.00     0.029 A 
ATOM     57  C   UNL A   1      41.675  27.695  28.401  1.00  0.00     0.049 A 
ATOM     58  H   UNL A   1      43.695  27.700  27.886  1.00  0.00     0.167 HD
ATOM     59  C   UNL A   1      48.014  27.406  27.228  1.00  0.00     0.034 A 
ATOM     60  C   UNL A   1      41.388  28.915  28.893  1.00  0.00     0.034 A 
ATOM     61  C   UNL A   1      47.780  28.771  27.609  1.00  0.00     0.049 A 
ATOM     62  C   UNL A   1      42.476  29.951  28.961  1.00  0.00     0.074 A 
ATOM     63  C   UNL A   1      48.693  29.808  27.699  1.00  0.00     0.029 A 
ATOM     64  N   UNL A   1      46.543  29.293  27.949  1.00  0.00    -0.354 N 
ATOM     65  N   UNL A   1      43.736  29.843  28.617  1.00  0.00    -0.248 NA
ATOM     66  C   UNL A   1      42.099  31.284  29.454  1.00  0.00     0.031 C 
ATOM     67  C   UNL A   1      48.001  30.963  28.080  1.00  0.00     0.029 A 
ATOM     68  C   UNL A   1      46.663  30.640  28.239  1.00  0.00     0.049 A 
ATOM     69  H   UNL A   1      45.703  28.781  27.981  1.00  0.00     0.167 HD
ATOM     70  C   UNL A   1      44.296  31.097  28.823  1.00  0.00     0.074 A 
ATOM     71  C   UNL A   1      43.234  31.956  29.307  1.00  0.00     0.031 C 
ATOM     72  C   UNL A   1      45.579  31.496  28.648  1.00  0.00     0.034 A 
BRANCH  59  73
ATOM     73  C   UNL A   1      49.417  26.987  26.892  1.00  0.00     0.023 A 
ATOM     74  C   UNL A   1      49.729  26.659  25.558  1.00  0.00     0.012 A 
ATOM     75  C   UNL A   1      50.427  26.955  27.870  1.00  0.00     0.148 A 
ATOM     76  C   UNL A   1      51.024  26.286  25.205  1.00  0.00     0.002 A 
ATOM     77  C   UNL A   1      51.724  26.606  27.504  1.00  0.00     0.091 A 
ATOM     78  F   UNL A   1      50.104  27.234  29.141  1.00  0.00    -0.205 F 
ATOM     79  C   UNL A   1      52.023  26.268  26.175  1.00  0.00     0.022 A 
BRANCH  77  80
ATOM     80  S   UNL A   1      53.066  26.614  28.698  1.00  0.00     0.127 S 
ATOM     81  O   UNL A   1      54.122  25.918  27.966  1.00  0.00    -0.237 OA
ATOM     82  O   UNL A   1      53.310  28.044  28.900  1.00  0.00    -0.237 OA
ATOM     83  O   UNL A   1      52.538  25.928  29.869  1.00  0.00    -0.744 OA
ENDBRANCH  77  80
ENDBRANCH  59  73
BRANCH  60  84
ATOM     84  C   UNL A   1      39.984  29.248  29.263  1.00  0.00     0.023 A 
ATOM     85  C   UNL A   1      39.039  29.440  28.236  1.00  0.00     0.012 A 
ATOM     86  C   UNL A   1      39.565  29.315  30.603  1.00  0.00     0.148 A 
ATOM     87  C   UNL A   1      37.705  29.709  28.540  1.00  0.00     0.002 A 
ATOM     88  C   UNL A   1      38.223  29.539  30.898  1.00  0.00     0.091 A 
ATOM     89  F   UNL A   1      40.478  29.149  31.571  1.00  0.00    -0.205 F 
ATOM     90  C   UNL A   1      37.293  29.747  29.870  1.00  0.00     0.022 A 
BRANCH  88  91
ATOM     91  S   UNL A   1      37.623  29.463  32.591  1.00  0.00     0.127 S 
ATOM     92  O   UNL A   1      37.687  28.033  32.872  1.00  0.00    -0.237 OA
ATOM     93  O   UNL A   1      38.602  30.277  33.315  1.00  0.00    -0.237 OA
ATOM     94  O   UNL A   1      36.293  30.056  32.532  1.00  0.00    -0.744 OA
ENDBRANCH  88  91
ENDBRANCH  60  84
BRANCH  72  95
ATOM     95  C   UNL A   1      45.912  32.926  28.959  1.00  0.00     0.023 A 
ATOM     96  C   UNL A   1      46.492  33.240  30.203  1.00  0.00     0.012 A 
ATOM     97  C   UNL A   1      45.744  33.937  27.994  1.00  0.00     0.148 A 
ATOM     98  C   UNL A   1      46.891  34.545  30.486  1.00  0.00     0.002 A 
ATOM     99  C   UNL A   1      46.172  35.231  28.273  1.00  0.00     0.091 A 
ATOM    100  F   UNL A   1      45.165  33.623  26.826  1.00  0.00    -0.205 F 
ATOM    101  C   UNL A   1      46.743  35.537  29.518  1.00  0.00     0.022 A 
BRANCH  99 102
ATOM    102  S   UNL A   1      46.077  36.532  27.039  1.00  0.00     0.127 S 
ATOM    103  O   UNL A   1      46.821  35.947  25.925  1.00  0.00    -0.237 OA
ATOM    104  O   UNL A   1      44.636  36.656  26.810  1.00  0.00    -0.237 OA
ATOM    105  O   UNL A   1      46.682  37.700  27.667  1.00  0.00    -0.744 OA
ENDBRANCH  99 102
ENDBRANCH  72  95
ENDBRANCH  46  47
ENDBRANCH  38  41
ENDBRANCH  36  37
ENDBRANCH  35  36
ENDBRANCH   1  35
TORSDOF 20
ENDMDL
MODEL 3
REMARK VINA RESULT:     -11.5      2.366      3.158
REMARK SMILES COc1cc(/C=C2/CCc3cc(OC(C)(C)C(=O)NCCCCNC(=O)c4ccc(-c5c6nc(c(-c7cccc(S(=O)(=O)[O-])c7F)c7ccc([nH]7)c(-c7cccc(S(=O)(=O)[O-])c7F)c7nc(c(-c8cccc(S(=O)(=O)[O-])c8F)c8ccc5[nH]8)C=C7)C=C6)cc4)ccc3C2=O)cc(OC)c1O
REMARK SMILES IDX 21 1 20 2 19 3 17 4 18 5 14 7 15 8 16 9 13 10 12 11 6 12
REMARK SMILES IDX 7 13 8 14 93 15 9 16 92 17 94 18 10 19 91 20 11 21 90 22
REMARK SMILES IDX 5 23 3 24 4 25 99 26 96 27 95 28 2 29 1 30 100 31 97 33
REMARK SMILES IDX 98 34 22 35 23 36 24 37 25 38 26 40 27 41 28 42 89 43 29 44
REMARK SMILES IDX 88 45 30 46 31 47 32 48 82 49 33 50 87 51 81 52 83 53 34 54
REMARK SMILES IDX 86 55 80 56 79 57 35 59 67 60 47 61 66 62 48 63 51 64 65 65
REMARK SMILES IDX 84 66 49 67 50 68 64 70 85 71 52 72 36 73 37 74 45 75 38 76
REMARK SMILES IDX 40 77 46 78 39 79 41 80 42 81 43 82 44 83 68 84 69 85 77 86
REMARK SMILES IDX 70 87 72 88 78 89 71 90 73 91 74 92 75 93 76 94 53 95 54 96
REMARK SMILES IDX 62 97 55 98 57 99 63 100 56 101 58 102 59 103 60 104 61 105
REMARK H PARENT 19 6 100 32 24 39 83 58 51 69
REMARK Flexibility Score: inf
ROOT
ATOM      1  C   UNL A   1      37.773  20.410  25.088  1.00  0.00     0.023 C 
ENDROOT
BRANCH   1   2
ATOM      2  C   UNL A   1      36.282  20.081  25.026  1.00  0.00     0.116 C 
BRANCH   2   3
ATOM      3  N   UNL A   1      36.022  18.674  24.757  1.00  0.00    -0.353 N 
ATOM      4  C   UNL A   1      34.847  18.009  24.492  1.00  0.00     0.263 C 
ATOM      5  O   UNL A   1      34.931  16.803  24.247  1.00  0.00    -0.270 OA
ATOM      6  H   UNL A   1      36.822  18.102  24.767  1.00  0.00     0.163 HD
BRANCH   4   7
ATOM      7  C   UNL A   1      33.482  18.772  24.466  1.00  0.00     0.181 C 
ATOM      8  C   UNL A   1      32.865  18.566  25.872  1.00  0.00     0.067 C 
ATOM      9  C   UNL A   1      32.675  18.262  23.260  1.00  0.00     0.067 C 
BRANCH   7  10
ATOM     10  O   UNL A   1      33.766  20.178  24.226  1.00  0.00    -0.478 OA
BRANCH  10  11
ATOM     11  C   UNL A   1      32.747  21.095  24.268  1.00  0.00     0.121 A 
ATOM     12  C   UNL A   1      30.964  26.424  25.946  1.00  0.00     0.016 C 
ATOM     13  C   UNL A   1      30.568  25.146  25.814  1.00  0.00     0.001 C 
ATOM     14  C   UNL A   1      30.534  24.204  26.998  1.00  0.00     0.044 C 
ATOM     15  C   UNL A   1      30.310  24.543  24.465  1.00  0.00     0.189 C 
ATOM     16  C   UNL A   1      30.245  22.752  26.611  1.00  0.00     0.041 C 
ATOM     17  C   UNL A   1      31.002  23.253  24.284  1.00  0.00     0.026 A 
ATOM     18  O   UNL A   1      29.631  25.058  23.591  1.00  0.00    -0.289 OA
ATOM     19  C   UNL A   1      31.046  22.397  25.389  1.00  0.00    -0.033 A 
ATOM     20  C   UNL A   1      31.741  22.991  23.133  1.00  0.00     0.016 A 
ATOM     21  C   UNL A   1      31.890  21.295  25.354  1.00  0.00     0.051 A 
ATOM     22  C   UNL A   1      32.624  21.908  23.136  1.00  0.00     0.047 A 
BRANCH  12  23
ATOM     23  C   UNL A   1      31.164  27.396  24.866  1.00  0.00    -0.018 A 
ATOM     24  C   UNL A   1      32.632  28.373  23.231  1.00  0.00     0.165 A 
ATOM     25  C   UNL A   1      32.421  27.472  24.268  1.00  0.00     0.058 A 
ATOM     26  C   UNL A   1      31.589  29.173  22.743  1.00  0.00     0.200 A 
ATOM     27  C   UNL A   1      30.332  29.127  23.347  1.00  0.00     0.165 A 
ATOM     28  C   UNL A   1      30.125  28.215  24.393  1.00  0.00     0.058 A 
BRANCH  24  29
ATOM     29  O   UNL A   1      33.875  28.404  22.649  1.00  0.00    -0.493 OA
ATOM     30  C   UNL A   1      34.047  27.306  21.747  1.00  0.00     0.278 C 
ENDBRANCH  24  29
BRANCH  26  31
ATOM     31  O   UNL A   1      31.832  29.943  21.637  1.00  0.00    -0.502 OA
ATOM     32  H   UNL A   1      32.183  29.551  20.861  1.00  0.00     0.293 HD
ENDBRANCH  26  31
BRANCH  27  33
ATOM     33  O   UNL A   1      29.216  29.848  23.016  1.00  0.00    -0.493 OA
ATOM     34  C   UNL A   1      28.029  29.117  22.739  1.00  0.00     0.278 C 
ENDBRANCH  27  33
ENDBRANCH  12  23
ENDBRANCH  10  11
ENDBRANCH   7  10
ENDBRANCH   4   7
ENDBRANCH   2   3
ENDBRANCH   1   2
BRANCH   1  35
ATOM     35  C   UNL A   1      38.099  21.880  25.330  1.00  0.00     0.023 C 
BRANCH  35  36
ATOM     36  C   UNL A   1      39.141  22.147  26.410  1.00  0.00     0.116 C 
BRANCH  36  37
ATOM     37  N   UNL A   1      40.494  21.759  26.031  1.00  0.00    -0.352 N 
ATOM     38  C   UNL A   1      41.640  22.519  26.092  1.00  0.00     0.251 C 
ATOM     39  H   UNL A   1      40.601  20.842  25.691  1.00  0.00     0.163 HD
ATOM     40  O   UNL A   1      42.702  22.078  25.666  1.00  0.00    -0.269 OA
BRANCH  38  41
ATOM     41  C   UNL A   1      41.556  23.888  26.634  1.00  0.00     0.039 A 
ATOM     42  C   UNL A   1      41.792  24.089  27.996  1.00  0.00     0.014 A 
ATOM     43  C   UNL A   1      41.329  24.971  25.781  1.00  0.00     0.014 A 
ATOM     44  C   UNL A   1      41.892  25.392  28.490  1.00  0.00     0.010 A 
ATOM     45  C   UNL A   1      41.486  26.265  26.263  1.00  0.00     0.010 A 
ATOM     46  C   UNL A   1      41.784  26.485  27.616  1.00  0.00    -0.014 A 
BRANCH  46  47
ATOM     47  C   UNL A   1      42.022  27.873  28.077  1.00  0.00     0.031 A 
ATOM     48  C   UNL A   1      43.421  28.411  28.146  1.00  0.00     0.074 A 
ATOM     49  C   UNL A   1      40.991  28.597  28.554  1.00  0.00     0.049 A 
ATOM     50  N   UNL A   1      43.842  29.546  28.637  1.00  0.00    -0.248 NA
ATOM     51  C   UNL A   1      44.491  27.548  27.619  1.00  0.00     0.031 C 
ATOM     52  C   UNL A   1      39.598  28.147  28.616  1.00  0.00     0.029 A 
ATOM     53  N   UNL A   1      40.958  29.851  29.110  1.00  0.00    -0.354 N 
ATOM     54  C   UNL A   1      45.226  29.514  28.526  1.00  0.00     0.074 A 
ATOM     55  C   UNL A   1      45.576  28.244  27.927  1.00  0.00     0.031 C 
ATOM     56  C   UNL A   1      38.849  29.110  29.179  1.00  0.00     0.029 A 
ATOM     57  C   UNL A   1      39.708  30.234  29.535  1.00  0.00     0.049 A 
ATOM     58  H   UNL A   1      41.755  30.423  29.195  1.00  0.00     0.167 HD
ATOM     59  C   UNL A   1      46.122  30.469  28.866  1.00  0.00     0.034 A 
ATOM     60  C   UNL A   1      39.301  31.363  30.146  1.00  0.00     0.034 A 
ATOM     61  C   UNL A   1      45.767  31.759  29.388  1.00  0.00     0.049 A 
ATOM     62  C   UNL A   1      40.307  32.445  30.429  1.00  0.00     0.074 A 
ATOM     63  C   UNL A   1      46.597  32.828  29.679  1.00  0.00     0.029 A 
ATOM     64  N   UNL A   1      44.475  32.161  29.686  1.00  0.00    -0.354 N 
ATOM     65  N   UNL A   1      41.594  32.455  30.179  1.00  0.00    -0.248 NA
ATOM     66  C   UNL A   1      39.804  33.681  31.045  1.00  0.00     0.031 C 
ATOM     67  C   UNL A   1      45.800  33.884  30.137  1.00  0.00     0.029 A 
ATOM     68  C   UNL A   1      44.479  33.465  30.145  1.00  0.00     0.049 A 
ATOM     69  H   UNL A   1      43.672  31.600  29.585  1.00  0.00     0.167 HD
ATOM     70  C   UNL A   1      42.049  33.704  30.581  1.00  0.00     0.074 A 
ATOM     71  C   UNL A   1      40.897  34.431  31.076  1.00  0.00     0.031 C 
ATOM     72  C   UNL A   1      43.311  34.197  30.562  1.00  0.00     0.034 A 
BRANCH  59  73
ATOM     73  C   UNL A   1      47.571  30.180  28.600  1.00  0.00     0.023 A 
ATOM     74  C   UNL A   1      48.133  30.587  27.373  1.00  0.00     0.012 A 
ATOM     75  C   UNL A   1      48.383  29.550  29.560  1.00  0.00     0.148 A 
ATOM     76  C   UNL A   1      49.479  30.352  27.100  1.00  0.00     0.002 A 
ATOM     77  C   UNL A   1      49.732  29.344  29.289  1.00  0.00     0.091 A 
ATOM     78  F   UNL A   1      47.823  29.136  30.707  1.00  0.00    -0.205 F 
ATOM     79  C   UNL A   1      50.280  29.740  28.060  1.00  0.00     0.022 A 
BRANCH  77  80
ATOM     80  S   UNL A   1      50.828  28.606  30.506  1.00  0.00     0.127 S 
ATOM     81  O   UNL A   1      52.135  28.781  29.876  1.00  0.00    -0.237 OA
ATOM     82  O   UNL A   1      50.608  29.442  31.688  1.00  0.00    -0.237 OA
ATOM     83  O   UNL A   1      50.365  27.233  30.653  1.00  0.00    -0.744 OA
ENDBRANCH  77  80
ENDBRANCH  59  73
BRANCH  60  84
ATOM     84  C   UNL A   1      37.854  31.564  30.435  1.00  0.00     0.023 A 
ATOM     85  C   UNL A   1      37.402  31.430  31.762  1.00  0.00     0.012 A 
ATOM     86  C   UNL A   1      36.942  31.940  29.434  1.00  0.00     0.148 A 
ATOM     87  C   UNL A   1      36.063  31.652  32.083  1.00  0.00     0.002 A 
ATOM     88  C   UNL A   1      35.617  32.205  29.769  1.00  0.00     0.091 A 
ATOM     89  F   UNL A   1      37.381  32.046  28.172  1.00  0.00    -0.205 F 
ATOM     90  C   UNL A   1      35.173  32.052  31.090  1.00  0.00     0.022 A 
BRANCH  88  91
ATOM     91  S   UNL A   1      34.466  32.851  28.549  1.00  0.00     0.127 S 
ATOM     92  O   UNL A   1      33.847  31.632  28.039  1.00  0.00    -0.237 OA
ATOM     93  O   UNL A   1      33.585  33.698  29.356  1.00  0.00    -0.237 OA
ATOM     94  O   UNL A   1      35.305  33.594  27.616  1.00  0.00    -0.744 OA
ENDBRANCH  88  91
ENDBRANCH  60  84
BRANCH  72  95
ATOM     95  C   UNL A   1      43.521  35.594  31.071  1.00  0.00     0.023 A 
ATOM     96  C   UNL A   1      43.763  35.795  32.442  1.00  0.00     0.012 A 
ATOM     97  C   UNL A   1      43.575  36.688  30.186  1.00  0.00     0.148 A 
ATOM     98  C   UNL A   1      44.047  37.070  32.930  1.00  0.00     0.002 A 
ATOM     99  C   UNL A   1      43.889  37.952  30.675  1.00  0.00     0.091 A 
ATOM    100  F   UNL A   1      43.315  36.479  28.887  1.00  0.00    -0.205 F 
ATOM    101  C   UNL A   1      44.122  38.146  32.046  1.00  0.00     0.022 A 
BRANCH  99 102
ATOM    102  S   UNL A   1      44.074  39.359  29.575  1.00  0.00     0.127 S 
ATOM    103  O   UNL A   1      42.957  40.209  29.982  1.00  0.00    -0.237 OA
ATOM    104  O   UNL A   1      45.395  39.878  29.935  1.00  0.00    -0.237 OA
ATOM    105  O   UNL A   1      43.998  38.806  28.229  1.00  0.00    -0.744 OA
ENDBRANCH  99 102
ENDBRANCH  72  95
ENDBRANCH  46  47
ENDBRANCH  38  41
ENDBRANCH  36  37
ENDBRANCH  35  36
ENDBRANCH   1  35
TORSDOF 20
ENDMDL
