MODEL 1
REMARK VINA RESULT:     -10.7      0.000      0.000
REMARK SMILES O=C(NCCCCNC(=O)[C@H]1Sc2[nH]c(=O)sc2[C@H]2c3cc(Br)cc(Br)c3OC(=O)[C@H]21)c1ccc(-c2c3nc(c(-c4cccc(S(=O)(=O)[O-])c4F)c4ccc([nH]4)c(-c4cccc(S(=O)(=O)[O-])c4F)c4nc(c(-c5cccc(S(=O)(=O)[O-])c5F)c5ccc2[nH]5)C=C4)C=C3)cc1
REMARK SMILES IDX 4 1 3 2 1 3 2 4 32 6 33 7 94 8 34 9 93 10 35 11 36 12 37 13
REMARK SMILES IDX 87 14 38 15 92 16 86 17 88 18 39 19 91 20 85 21 84 22 40 24
REMARK SMILES IDX 72 25 52 26 71 27 53 28 56 29 70 30 89 31 54 32 55 33 69 35
REMARK SMILES IDX 90 36 57 37 41 38 42 39 50 40 43 41 45 42 51 43 44 44 46 45
REMARK SMILES IDX 47 46 48 47 49 48 73 49 74 50 82 51 75 52 77 53 83 54 76 55
REMARK SMILES IDX 78 56 79 57 80 58 81 59 58 60 59 61 67 62 60 63 62 64 68 65
REMARK SMILES IDX 61 66 63 67 64 68 65 69 66 70 5 71 6 72 7 73 8 74 9 75 10 77
REMARK SMILES IDX 11 78 12 79 31 80 13 81 19 82 29 83 14 84 18 85 20 86 28 87
REMARK SMILES IDX 30 88 15 89 17 91 21 92 27 93 16 94 22 95 25 96 23 97 24 98
REMARK SMILES IDX 26 99
REMARK H PARENT 3 5 88 23 56 34 8 76 14 90
REMARK Flexibility Score: inf
ROOT
ATOM      1  C   UNL A   1      34.798  32.426  31.181  1.00  0.00     0.116 C 
ENDROOT
BRANCH   1   2
ATOM      2  N   UNL A   1      34.659  32.281  29.747  1.00  0.00    -0.352 N 
ATOM      3  O   UNL A   1      34.823  31.629  27.652  1.00  0.00    -0.269 OA
ATOM      4  C   UNL A   1      35.304  31.551  28.786  1.00  0.00     0.251 C 
ATOM      5  H   UNL A   1      33.933  32.836  29.379  1.00  0.00     0.163 HD
BRANCH   4   6
ATOM      6  C   UNL A   1      36.531  30.733  28.999  1.00  0.00     0.039 A 
ATOM      7  C   UNL A   1      36.554  29.374  29.305  1.00  0.00     0.014 A 
ATOM      8  C   UNL A   1      37.760  31.420  28.914  1.00  0.00     0.014 A 
ATOM      9  C   UNL A   1      37.757  28.730  29.570  1.00  0.00     0.010 A 
ATOM     10  C   UNL A   1      38.970  30.781  29.175  1.00  0.00     0.010 A 
ATOM     11  C   UNL A   1      38.961  29.437  29.527  1.00  0.00    -0.014 A 
BRANCH  11  12
ATOM     12  C   UNL A   1      40.181  28.669  29.737  1.00  0.00     0.031 A 
ATOM     13  C   UNL A   1      40.688  28.682  31.138  1.00  0.00     0.074 A 
ATOM     14  C   UNL A   1      40.808  27.951  28.786  1.00  0.00     0.049 A 
ATOM     15  N   UNL A   1      41.759  29.250  31.588  1.00  0.00    -0.248 NA
ATOM     16  C   UNL A   1      39.831  28.101  32.178  1.00  0.00     0.031 C 
ATOM     17  C   UNL A   1      40.318  27.585  27.457  1.00  0.00     0.029 A 
ATOM     18  N   UNL A   1      42.001  27.297  28.872  1.00  0.00    -0.354 N 
ATOM     19  C   UNL A   1      41.823  28.918  32.942  1.00  0.00     0.074 A 
ATOM     20  C   UNL A   1      40.541  28.358  33.277  1.00  0.00     0.031 C 
ATOM     21  C   UNL A   1      41.090  26.590  26.963  1.00  0.00     0.029 A 
ATOM     22  C   UNL A   1      42.203  26.361  27.867  1.00  0.00     0.049 A 
ATOM     23  H   UNL A   1      42.660  27.473  29.582  1.00  0.00     0.167 HD
ATOM     24  C   UNL A   1      43.001  28.937  33.626  1.00  0.00     0.034 A 
ATOM     25  C   UNL A   1      43.180  25.423  27.832  1.00  0.00     0.034 A 
ATOM     26  C   UNL A   1      44.005  29.700  32.928  1.00  0.00     0.049 A 
ATOM     27  C   UNL A   1      44.273  25.886  28.715  1.00  0.00     0.074 A 
ATOM     28  C   UNL A   1      44.135  31.005  32.501  1.00  0.00     0.029 A 
ATOM     29  N   UNL A   1      44.982  28.992  32.271  1.00  0.00    -0.354 N 
ATOM     30  N   UNL A   1      45.024  26.920  28.461  1.00  0.00    -0.248 NA
ATOM     31  C   UNL A   1      44.306  25.407  30.086  1.00  0.00     0.031 C 
ATOM     32  C   UNL A   1      44.857  30.922  31.274  1.00  0.00     0.029 A 
ATOM     33  C   UNL A   1      45.157  29.576  31.049  1.00  0.00     0.049 A 
ATOM     34  H   UNL A   1      45.467  28.209  32.618  1.00  0.00     0.167 HD
ATOM     35  C   UNL A   1      45.262  27.488  29.705  1.00  0.00     0.074 A 
ATOM     36  C   UNL A   1      44.909  26.448  30.667  1.00  0.00     0.031 C 
ATOM     37  C   UNL A   1      45.448  28.833  29.841  1.00  0.00     0.034 A 
BRANCH  24  38
ATOM     38  C   UNL A   1      43.385  27.980  34.740  1.00  0.00     0.023 A 
ATOM     39  C   UNL A   1      43.938  28.548  35.914  1.00  0.00     0.012 A 
ATOM     40  C   UNL A   1      43.508  26.579  34.599  1.00  0.00     0.148 A 
ATOM     41  C   UNL A   1      44.654  27.785  36.842  1.00  0.00     0.002 A 
ATOM     42  C   UNL A   1      44.155  25.812  35.564  1.00  0.00     0.091 A 
ATOM     43  F   UNL A   1      43.118  25.978  33.474  1.00  0.00    -0.205 F 
ATOM     44  C   UNL A   1      44.763  26.414  36.666  1.00  0.00     0.022 A 
BRANCH  42  45
ATOM     45  S   UNL A   1      44.271  24.024  35.418  1.00  0.00     0.127 S 
ATOM     46  O   UNL A   1      44.900  23.669  36.687  1.00  0.00    -0.237 OA
ATOM     47  O   UNL A   1      42.864  23.641  35.297  1.00  0.00    -0.237 OA
ATOM     48  O   UNL A   1      45.059  23.781  34.217  1.00  0.00    -0.744 OA
ENDBRANCH  42  45
ENDBRANCH  24  38
BRANCH  25  49
ATOM     49  C   UNL A   1      43.140  24.035  27.319  1.00  0.00     0.023 A 
ATOM     50  C   UNL A   1      41.962  23.275  27.471  1.00  0.00     0.012 A 
ATOM     51  C   UNL A   1      44.124  23.570  26.419  1.00  0.00     0.148 A 
ATOM     52  C   UNL A   1      41.749  22.116  26.716  1.00  0.00     0.002 A 
ATOM     53  C   UNL A   1      43.907  22.416  25.671  1.00  0.00     0.091 A 
ATOM     54  F   UNL A   1      45.223  24.309  26.227  1.00  0.00    -0.205 F 
ATOM     55  C   UNL A   1      42.715  21.695  25.807  1.00  0.00     0.022 A 
BRANCH  53  56
ATOM     56  S   UNL A   1      45.087  21.832  24.447  1.00  0.00     0.127 S 
ATOM     57  O   UNL A   1      44.434  20.618  23.955  1.00  0.00    -0.237 OA
ATOM     58  O   UNL A   1      45.112  22.941  23.499  1.00  0.00    -0.237 OA
ATOM     59  O   UNL A   1      46.329  21.593  25.172  1.00  0.00    -0.744 OA
ENDBRANCH  53  56
ENDBRANCH  25  49
BRANCH  37  60
ATOM     60  C   UNL A   1      45.674  29.658  28.598  1.00  0.00     0.023 A 
ATOM     61  C   UNL A   1      44.604  30.141  27.815  1.00  0.00     0.012 A 
ATOM     62  C   UNL A   1      46.974  30.122  28.329  1.00  0.00     0.148 A 
ATOM     63  C   UNL A   1      44.828  31.050  26.778  1.00  0.00     0.002 A 
ATOM     64  C   UNL A   1      47.185  31.068  27.334  1.00  0.00     0.091 A 
ATOM     65  F   UNL A   1      47.981  29.656  29.084  1.00  0.00    -0.205 F 
ATOM     66  C   UNL A   1      46.116  31.527  26.548  1.00  0.00     0.022 A 
BRANCH  64  67
ATOM     67  S   UNL A   1      48.790  31.834  27.088  1.00  0.00     0.127 S 
ATOM     68  O   UNL A   1      48.488  32.870  26.104  1.00  0.00    -0.237 OA
ATOM     69  O   UNL A   1      49.106  32.336  28.427  1.00  0.00    -0.237 OA
ATOM     70  O   UNL A   1      49.675  30.770  26.630  1.00  0.00    -0.744 OA
ENDBRANCH  64  67
ENDBRANCH  37  60
ENDBRANCH  11  12
ENDBRANCH   4   6
ENDBRANCH   1   2
BRANCH   1  71
ATOM     71  C   UNL A   1      34.374  33.806  31.688  1.00  0.00     0.023 C 
BRANCH  71  72
ATOM     72  C   UNL A   1      34.041  33.850  33.188  1.00  0.00     0.023 C 
BRANCH  72  73
ATOM     73  C   UNL A   1      35.226  33.528  34.109  1.00  0.00     0.116 C 
BRANCH  73  74
ATOM     74  N   UNL A   1      36.258  34.540  34.003  1.00  0.00    -0.355 N 
ATOM     75  C   UNL A   1      37.558  34.449  33.628  1.00  0.00     0.234 C 
ATOM     76  H   UNL A   1      35.965  35.448  34.245  1.00  0.00     0.163 HD
ATOM     77  O   UNL A   1      38.327  35.270  34.144  1.00  0.00    -0.274 OA
BRANCH  75  78
ATOM     78  C   UNL A   1      38.099  33.457  32.590  1.00  0.00     0.157 C 
ATOM     79  S   UNL A   1      38.061  34.133  30.896  1.00  0.00    -0.093 SA
ATOM     80  C   UNL A   1      39.281  32.534  32.964  1.00  0.00     0.135 C 
ATOM     81  C   UNL A   1      39.709  34.242  30.504  1.00  0.00     0.091 A 
ATOM     82  C   UNL A   1      40.692  32.849  32.397  1.00  0.00     0.082 C 
ATOM     83  C   UNL A   1      39.381  32.218  34.458  1.00  0.00     0.317 C 
ATOM     84  N   UNL A   1      40.073  34.994  29.427  1.00  0.00    -0.307 N 
ATOM     85  C   UNL A   1      40.732  33.670  31.144  1.00  0.00     0.049 A 
ATOM     86  C   UNL A   1      41.624  33.253  33.536  1.00  0.00     0.007 A 
ATOM     87  O   UNL A   1      40.529  31.508  34.754  1.00  0.00    -0.425 OA
ATOM     88  O   UNL A   1      38.527  32.424  35.304  1.00  0.00    -0.251 OA
ATOM     89  C   UNL A   1      41.408  35.018  29.117  1.00  0.00     0.305 A 
ATOM     90  H   UNL A   1      39.411  35.495  28.899  1.00  0.00     0.171 HD
ATOM     91  S   UNL A   1      42.218  33.908  30.222  1.00  0.00    -0.078 S 
ATOM     92  C   UNL A   1      42.566  34.284  33.536  1.00  0.00     0.024 A 
ATOM     93  C   UNL A   1      41.552  32.443  34.681  1.00  0.00     0.148 A 
ATOM     94  O   UNL A   1      41.963  35.670  28.256  1.00  0.00    -0.257 OA
ATOM     95  C   UNL A   1      43.450  34.434  34.611  1.00  0.00     0.019 A 
ATOM     96  C   UNL A   1      42.452  32.569  35.743  1.00  0.00     0.062 A 
ATOM     97  Br  UNL A   1      44.725  35.831  34.574  1.00  0.00    -0.051 Br
ATOM     98  C   UNL A   1      43.414  33.570  35.704  1.00  0.00     0.035 A 
ATOM     99  Br  UNL A   1      42.384  31.417  37.243  1.00  0.00    -0.047 Br
ENDBRANCH  75  78
ENDBRANCH  73  74
ENDBRANCH  72  73
ENDBRANCH  71  72
ENDBRANCH   1  71
TORSDOF 14
ENDMDL
MODEL 2
REMARK VINA RESULT:     -10.7      5.198      7.977
REMARK SMILES O=C(NCCCCNC(=O)[C@H]1Sc2[nH]c(=O)sc2[C@H]2c3cc(Br)cc(Br)c3OC(=O)[C@H]21)c1ccc(-c2c3nc(c(-c4cccc(S(=O)(=O)[O-])c4F)c4ccc([nH]4)c(-c4cccc(S(=O)(=O)[O-])c4F)c4nc(c(-c5cccc(S(=O)(=O)[O-])c5F)c5ccc2[nH]5)C=C4)C=C3)cc1
REMARK SMILES IDX 4 1 3 2 1 3 2 4 32 6 33 7 94 8 34 9 93 10 35 11 36 12 37 13
REMARK SMILES IDX 87 14 38 15 92 16 86 17 88 18 39 19 91 20 85 21 84 22 40 24
REMARK SMILES IDX 72 25 52 26 71 27 53 28 56 29 70 30 89 31 54 32 55 33 69 35
REMARK SMILES IDX 90 36 57 37 41 38 42 39 50 40 43 41 45 42 51 43 44 44 46 45
REMARK SMILES IDX 47 46 48 47 49 48 73 49 74 50 82 51 75 52 77 53 83 54 76 55
REMARK SMILES IDX 78 56 79 57 80 58 81 59 58 60 59 61 67 62 60 63 62 64 68 65
REMARK SMILES IDX 61 66 63 67 64 68 65 69 66 70 5 71 6 72 7 73 8 74 9 75 10 77
REMARK SMILES IDX 11 78 12 79 31 80 13 81 19 82 29 83 14 84 18 85 20 86 28 87
REMARK SMILES IDX 30 88 15 89 17 91 21 92 27 93 16 94 22 95 25 96 23 97 24 98
REMARK SMILES IDX 26 99
REMARK H PARENT 3 5 88 23 56 34 8 76 14 90
REMARK Flexibility Score: inf
ROOT
ATOM      1  C   UNL A   1      33.256  29.910  26.135  1.00  0.00     0.116 C 
ENDROOT
BRANCH   1   2
ATOM      2  N   UNL A   1      33.384  31.084  26.972  1.00  0.00    -0.352 N 
ATOM      3  O   UNL A   1      34.129  32.693  28.275  1.00  0.00    -0.269 OA
ATOM      4  C   UNL A   1      34.366  31.586  27.783  1.00  0.00     0.251 C 
ATOM      5  H   UNL A   1      32.579  31.652  26.953  1.00  0.00     0.163 HD
BRANCH   4   6
ATOM      6  C   UNL A   1      35.636  30.892  28.135  1.00  0.00     0.039 A 
ATOM      7  C   UNL A   1      35.807  29.511  28.218  1.00  0.00     0.014 A 
ATOM      8  C   UNL A   1      36.735  31.721  28.439  1.00  0.00     0.014 A 
ATOM      9  C   UNL A   1      37.016  28.974  28.642  1.00  0.00     0.010 A 
ATOM     10  C   UNL A   1      37.952  31.190  28.861  1.00  0.00     0.010 A 
ATOM     11  C   UNL A   1      38.080  29.812  28.984  1.00  0.00    -0.014 A 
BRANCH  11  12
ATOM     12  C   UNL A   1      39.337  29.166  29.339  1.00  0.00     0.031 A 
ATOM     13  C   UNL A   1      39.736  29.328  30.765  1.00  0.00     0.074 A 
ATOM     14  C   UNL A   1      40.086  28.431  28.496  1.00  0.00     0.049 A 
ATOM     15  N   UNL A   1      40.724  30.015  31.238  1.00  0.00    -0.248 NA
ATOM     16  C   UNL A   1      38.852  28.760  31.789  1.00  0.00     0.031 C 
ATOM     17  C   UNL A   1      39.725  27.925  27.171  1.00  0.00     0.029 A 
ATOM     18  N   UNL A   1      41.317  27.887  28.715  1.00  0.00    -0.354 N 
ATOM     19  C   UNL A   1      40.713  29.795  32.616  1.00  0.00     0.074 A 
ATOM     20  C   UNL A   1      39.456  29.159  32.909  1.00  0.00     0.031 C 
ATOM     21  C   UNL A   1      40.607  26.962  26.814  1.00  0.00     0.029 A 
ATOM     22  C   UNL A   1      41.664  26.896  27.807  1.00  0.00     0.049 A 
ATOM     23  H   UNL A   1      41.905  28.170  29.452  1.00  0.00     0.167 HD
ATOM     24  C   UNL A   1      41.831  29.964  33.375  1.00  0.00     0.034 A 
ATOM     25  C   UNL A   1      42.710  26.042  27.916  1.00  0.00     0.034 A 
ATOM     26  C   UNL A   1      42.823  30.751  32.687  1.00  0.00     0.049 A 
ATOM     27  C   UNL A   1      43.696  26.660  28.830  1.00  0.00     0.074 A 
ATOM     28  C   UNL A   1      42.883  32.026  32.162  1.00  0.00     0.029 A 
ATOM     29  N   UNL A   1      43.897  30.078  32.157  1.00  0.00    -0.354 N 
ATOM     30  N   UNL A   1      44.382  27.730  28.543  1.00  0.00    -0.248 NA
ATOM     31  C   UNL A   1      43.663  26.293  30.235  1.00  0.00     0.031 C 
ATOM     32  C   UNL A   1      43.699  31.909  30.999  1.00  0.00     0.029 A 
ATOM     33  C   UNL A   1      44.117  30.579  30.906  1.00  0.00     0.049 A 
ATOM     34  H   UNL A   1      44.415  29.367  32.600  1.00  0.00     0.167 HD
ATOM     35  C   UNL A   1      44.482  28.409  29.749  1.00  0.00     0.074 A 
ATOM     36  C   UNL A   1      44.139  27.421  30.768  1.00  0.00     0.031 C 
ATOM     37  C   UNL A   1      44.553  29.773  29.786  1.00  0.00     0.034 A 
BRANCH  24  38
ATOM     38  C   UNL A   1      42.204  29.130  34.588  1.00  0.00     0.023 A 
ATOM     39  C   UNL A   1      42.764  29.817  35.693  1.00  0.00     0.012 A 
ATOM     40  C   UNL A   1      42.310  27.721  34.601  1.00  0.00     0.148 A 
ATOM     41  C   UNL A   1      43.472  29.152  36.699  1.00  0.00     0.002 A 
ATOM     42  C   UNL A   1      42.948  27.057  35.645  1.00  0.00     0.091 A 
ATOM     43  F   UNL A   1      41.913  27.005  33.548  1.00  0.00    -0.205 F 
ATOM     44  C   UNL A   1      43.564  27.768  36.675  1.00  0.00     0.022 A 
BRANCH  42  45
ATOM     45  S   UNL A   1      43.043  25.262  35.696  1.00  0.00     0.127 S 
ATOM     46  O   UNL A   1      43.879  24.982  34.533  1.00  0.00    -0.237 OA
ATOM     47  O   UNL A   1      43.688  25.034  36.991  1.00  0.00    -0.237 OA
ATOM     48  O   UNL A   1      41.664  24.795  35.628  1.00  0.00    -0.744 OA
ENDBRANCH  42  45
ENDBRANCH  24  38
BRANCH  25  49
ATOM     49  C   UNL A   1      42.815  24.620  27.518  1.00  0.00     0.023 A 
ATOM     50  C   UNL A   1      41.708  23.767  27.702  1.00  0.00     0.012 A 
ATOM     51  C   UNL A   1      43.866  24.180  26.683  1.00  0.00     0.148 A 
ATOM     52  C   UNL A   1      41.628  22.537  27.040  1.00  0.00     0.002 A 
ATOM     53  C   UNL A   1      43.782  22.956  26.028  1.00  0.00     0.091 A 
ATOM     54  F   UNL A   1      44.898  25.003  26.459  1.00  0.00    -0.205 F 
ATOM     55  C   UNL A   1      42.657  22.138  26.192  1.00  0.00     0.022 A 
BRANCH  53  56
ATOM     56  S   UNL A   1      45.050  22.391  24.885  1.00  0.00     0.127 S 
ATOM     57  O   UNL A   1      45.136  23.516  23.953  1.00  0.00    -0.237 OA
ATOM     58  O   UNL A   1      46.203  22.237  25.767  1.00  0.00    -0.237 OA
ATOM     59  O   UNL A   1      44.536  21.162  24.295  1.00  0.00    -0.744 OA
ENDBRANCH  53  56
ENDBRANCH  25  49
BRANCH  37  60
ATOM     60  C   UNL A   1      44.807  30.515  28.497  1.00  0.00     0.023 A 
ATOM     61  C   UNL A   1      43.756  30.915  27.644  1.00  0.00     0.012 A 
ATOM     62  C   UNL A   1      46.105  30.994  28.245  1.00  0.00     0.148 A 
ATOM     63  C   UNL A   1      43.997  31.755  26.555  1.00  0.00     0.002 A 
ATOM     64  C   UNL A   1      46.331  31.874  27.194  1.00  0.00     0.091 A 
ATOM     65  F   UNL A   1      47.093  30.607  29.066  1.00  0.00    -0.205 F 
ATOM     66  C   UNL A   1      45.282  32.249  26.340  1.00  0.00     0.022 A 
BRANCH  64  67
ATOM     67  S   UNL A   1      47.925  32.664  26.954  1.00  0.00     0.127 S 
ATOM     68  O   UNL A   1      47.636  33.621  25.889  1.00  0.00    -0.237 OA
ATOM     69  O   UNL A   1      48.178  33.264  28.265  1.00  0.00    -0.237 OA
ATOM     70  O   UNL A   1      48.852  31.595  26.603  1.00  0.00    -0.744 OA
ENDBRANCH  64  67
ENDBRANCH  37  60
ENDBRANCH  11  12
ENDBRANCH   4   6
ENDBRANCH   1   2
BRANCH   1  71
ATOM     71  C   UNL A   1      31.984  29.107  26.419  1.00  0.00     0.023 C 
BRANCH  71  72
ATOM     72  C   UNL A   1      32.183  27.941  27.402  1.00  0.00     0.023 C 
BRANCH  72  73
ATOM     73  C   UNL A   1      32.308  26.565  26.735  1.00  0.00     0.116 C 
BRANCH  73  74
ATOM     74  N   UNL A   1      31.157  25.736  27.029  1.00  0.00    -0.355 N 
ATOM     75  C   UNL A   1      30.073  25.418  26.277  1.00  0.00     0.234 C 
ATOM     76  H   UNL A   1      31.162  25.335  27.929  1.00  0.00     0.163 HD
ATOM     77  O   UNL A   1      29.029  25.198  26.903  1.00  0.00    -0.274 OA
BRANCH  75  78
ATOM     78  C   UNL A   1      30.088  25.262  24.751  1.00  0.00     0.157 C 
ATOM     79  S   UNL A   1      30.248  26.863  23.891  1.00  0.00    -0.093 SA
ATOM     80  C   UNL A   1      30.788  24.038  24.118  1.00  0.00     0.135 C 
ATOM     81  C   UNL A   1      31.764  26.729  23.140  1.00  0.00     0.091 A 
ATOM     82  C   UNL A   1      32.168  24.232  23.431  1.00  0.00     0.082 C 
ATOM     83  C   UNL A   1      30.826  22.802  25.019  1.00  0.00     0.317 C 
ATOM     84  N   UNL A   1      32.353  27.860  22.658  1.00  0.00    -0.307 N 
ATOM     85  C   UNL A   1      32.483  25.618  22.960  1.00  0.00     0.049 A 
ATOM     86  C   UNL A   1      33.243  23.493  24.224  1.00  0.00     0.007 A 
ATOM     87  O   UNL A   1      31.581  21.788  24.463  1.00  0.00    -0.425 OA
ATOM     88  O   UNL A   1      30.186  22.628  26.043  1.00  0.00    -0.251 OA
ATOM     89  C   UNL A   1      33.554  27.703  22.017  1.00  0.00     0.305 A 
ATOM     90  H   UNL A   1      31.936  28.746  22.765  1.00  0.00     0.171 HD
ATOM     91  S   UNL A   1      33.879  25.972  21.939  1.00  0.00    -0.078 S 
ATOM     92  C   UNL A   1      34.530  23.941  24.527  1.00  0.00     0.024 A 
ATOM     93  C   UNL A   1      32.897  22.194  24.630  1.00  0.00     0.148 A 
ATOM     94  O   UNL A   1      34.285  28.567  21.578  1.00  0.00    -0.257 OA
ATOM     95  C   UNL A   1      35.452  23.083  25.140  1.00  0.00     0.019 A 
ATOM     96  C   UNL A   1      33.822  21.323  25.213  1.00  0.00     0.062 A 
ATOM     97  Br  UNL A   1      37.193  23.714  25.523  1.00  0.00    -0.051 Br
ATOM     98  C   UNL A   1      35.114  21.770  25.465  1.00  0.00     0.035 A 
ATOM     99  Br  UNL A   1      33.355  19.550  25.685  1.00  0.00    -0.047 Br
ENDBRANCH  75  78
ENDBRANCH  73  74
ENDBRANCH  72  73
ENDBRANCH  71  72
ENDBRANCH   1  71
TORSDOF 14
ENDMDL
MODEL 3
REMARK VINA RESULT:     -10.6      5.657     10.393
REMARK SMILES O=C(NCCCCNC(=O)[C@H]1Sc2[nH]c(=O)sc2[C@H]2c3cc(Br)cc(Br)c3OC(=O)[C@H]21)c1ccc(-c2c3nc(c(-c4cccc(S(=O)(=O)[O-])c4F)c4ccc([nH]4)c(-c4cccc(S(=O)(=O)[O-])c4F)c4nc(c(-c5cccc(S(=O)(=O)[O-])c5F)c5ccc2[nH]5)C=C4)C=C3)cc1
REMARK SMILES IDX 4 1 3 2 1 3 2 4 32 6 33 7 94 8 34 9 93 10 35 11 36 12 37 13
REMARK SMILES IDX 87 14 38 15 92 16 86 17 88 18 39 19 91 20 85 21 84 22 40 24
REMARK SMILES IDX 72 25 52 26 71 27 53 28 56 29 70 30 89 31 54 32 55 33 69 35
REMARK SMILES IDX 90 36 57 37 41 38 42 39 50 40 43 41 45 42 51 43 44 44 46 45
REMARK SMILES IDX 47 46 48 47 49 48 73 49 74 50 82 51 75 52 77 53 83 54 76 55
REMARK SMILES IDX 78 56 79 57 80 58 81 59 58 60 59 61 67 62 60 63 62 64 68 65
REMARK SMILES IDX 61 66 63 67 64 68 65 69 66 70 5 71 6 72 7 73 8 74 9 75 10 77
REMARK SMILES IDX 11 78 12 79 31 80 13 81 19 82 29 83 14 84 18 85 20 86 28 87
REMARK SMILES IDX 30 88 15 89 17 91 21 92 27 93 16 94 22 95 25 96 23 97 24 98
REMARK SMILES IDX 26 99
REMARK H PARENT 3 5 88 23 56 34 8 76 14 90
REMARK Flexibility Score: inf
ROOT
ATOM      1  C   UNL A   1      35.768  21.382  25.016  1.00  0.00     0.116 C 
ENDROOT
BRANCH   1   2
ATOM      2  N   UNL A   1      36.837  20.419  24.858  1.00  0.00    -0.352 N 
ATOM      3  O   UNL A   1      38.718  19.287  25.018  1.00  0.00    -0.269 OA
ATOM      4  C   UNL A   1      38.133  20.339  25.291  1.00  0.00     0.251 C 
ATOM      5  H   UNL A   1      36.571  19.643  24.314  1.00  0.00     0.163 HD
BRANCH   4   6
ATOM      6  C   UNL A   1      38.873  21.416  26.007  1.00  0.00     0.039 A 
ATOM      7  C   UNL A   1      38.554  22.772  25.981  1.00  0.00     0.014 A 
ATOM      8  C   UNL A   1      40.010  21.011  26.737  1.00  0.00     0.014 A 
ATOM      9  C   UNL A   1      39.368  23.702  26.616  1.00  0.00     0.010 A 
ATOM     10  C   UNL A   1      40.829  21.937  27.380  1.00  0.00     0.010 A 
ATOM     11  C   UNL A   1      40.516  23.287  27.296  1.00  0.00    -0.014 A 
BRANCH  11  12
ATOM     12  C   UNL A   1      41.268  24.316  28.003  1.00  0.00     0.031 A 
ATOM     13  C   UNL A   1      40.553  25.613  28.153  1.00  0.00     0.074 A 
ATOM     14  C   UNL A   1      42.492  24.140  28.536  1.00  0.00     0.049 A 
ATOM     15  N   UNL A   1      40.829  26.742  27.584  1.00  0.00    -0.248 NA
ATOM     16  C   UNL A   1      39.308  25.620  28.931  1.00  0.00     0.031 C 
ATOM     17  C   UNL A   1      43.218  22.887  28.743  1.00  0.00     0.029 A 
ATOM     18  N   UNL A   1      43.303  25.072  29.114  1.00  0.00    -0.354 N 
ATOM     19  C   UNL A   1      39.912  27.660  28.098  1.00  0.00     0.074 A 
ATOM     20  C   UNL A   1      38.912  26.884  28.784  1.00  0.00     0.031 C 
ATOM     21  C   UNL A   1      44.238  23.107  29.605  1.00  0.00     0.029 A 
ATOM     22  C   UNL A   1      44.322  24.530  29.884  1.00  0.00     0.049 A 
ATOM     23  H   UNL A   1      43.175  26.041  28.997  1.00  0.00     0.167 HD
ATOM     24  C   UNL A   1      40.166  28.998  28.097  1.00  0.00     0.034 A 
ATOM     25  C   UNL A   1      45.125  25.207  30.740  1.00  0.00     0.034 A 
ATOM     26  C   UNL A   1      41.224  29.335  27.178  1.00  0.00     0.049 A 
ATOM     27  C   UNL A   1      45.109  26.630  30.335  1.00  0.00     0.074 A 
ATOM     28  C   UNL A   1      41.430  29.208  25.820  1.00  0.00     0.029 A 
ATOM     29  N   UNL A   1      42.454  29.615  27.719  1.00  0.00    -0.354 N 
ATOM     30  N   UNL A   1      45.631  27.075  29.227  1.00  0.00    -0.248 NA
ATOM     31  C   UNL A   1      44.180  27.529  30.998  1.00  0.00     0.031 C 
ATOM     32  C   UNL A   1      42.826  28.951  25.681  1.00  0.00     0.029 A 
ATOM     33  C   UNL A   1      43.391  28.975  26.959  1.00  0.00     0.049 A 
ATOM     34  H   UNL A   1      42.629  30.177  28.509  1.00  0.00     0.167 HD
ATOM     35  C   UNL A   1      44.774  28.091  28.825  1.00  0.00     0.074 A 
ATOM     36  C   UNL A   1      43.983  28.408  30.012  1.00  0.00     0.031 C 
ATOM     37  C   UNL A   1      44.591  28.376  27.503  1.00  0.00     0.034 A 
BRANCH  24  38
ATOM     38  C   UNL A   1      39.729  29.976  29.174  1.00  0.00     0.023 A 
ATOM     39  C   UNL A   1      40.377  29.879  30.430  1.00  0.00     0.012 A 
ATOM     40  C   UNL A   1      38.556  30.762  29.126  1.00  0.00     0.148 A 
ATOM     41  C   UNL A   1      39.838  30.450  31.588  1.00  0.00     0.002 A 
ATOM     42  C   UNL A   1      38.066  31.393  30.266  1.00  0.00     0.091 A 
ATOM     43  F   UNL A   1      37.822  30.813  28.013  1.00  0.00    -0.205 F 
ATOM     44  C   UNL A   1      38.679  31.208  31.505  1.00  0.00     0.022 A 
BRANCH  42  45
ATOM     45  S   UNL A   1      36.603  32.437  30.206  1.00  0.00     0.127 S 
ATOM     46  O   UNL A   1      36.957  33.371  29.141  1.00  0.00    -0.237 OA
ATOM     47  O   UNL A   1      35.560  31.471  29.860  1.00  0.00    -0.237 OA
ATOM     48  O   UNL A   1      36.472  33.002  31.542  1.00  0.00    -0.744 OA
ENDBRANCH  42  45
ENDBRANCH  24  38
BRANCH  25  49
ATOM     49  C   UNL A   1      45.688  24.785  32.042  1.00  0.00     0.023 A 
ATOM     50  C   UNL A   1      46.864  25.399  32.520  1.00  0.00     0.012 A 
ATOM     51  C   UNL A   1      44.918  24.021  32.947  1.00  0.00     0.148 A 
ATOM     52  C   UNL A   1      47.236  25.296  33.865  1.00  0.00     0.002 A 
ATOM     53  C   UNL A   1      45.293  23.921  34.283  1.00  0.00     0.091 A 
ATOM     54  F   UNL A   1      43.773  23.477  32.519  1.00  0.00    -0.205 F 
ATOM     55  C   UNL A   1      46.443  24.570  34.749  1.00  0.00     0.022 A 
BRANCH  53  56
ATOM     56  S   UNL A   1      44.300  23.038  35.494  1.00  0.00     0.127 S 
ATOM     57  O   UNL A   1      44.399  21.658  35.015  1.00  0.00    -0.237 OA
ATOM     58  O   UNL A   1      45.022  23.310  36.733  1.00  0.00    -0.237 OA
ATOM     59  O   UNL A   1      42.962  23.608  35.405  1.00  0.00    -0.744 OA
ENDBRANCH  53  56
ENDBRANCH  25  49
BRANCH  37  60
ATOM     60  C   UNL A   1      45.540  27.771  26.498  1.00  0.00     0.023 A 
ATOM     61  C   UNL A   1      46.765  28.385  26.160  1.00  0.00     0.012 A 
ATOM     62  C   UNL A   1      45.287  26.465  26.040  1.00  0.00     0.148 A 
ATOM     63  C   UNL A   1      47.706  27.722  25.370  1.00  0.00     0.002 A 
ATOM     64  C   UNL A   1      46.248  25.788  25.301  1.00  0.00     0.091 A 
ATOM     65  F   UNL A   1      44.119  25.893  26.371  1.00  0.00    -0.205 F 
ATOM     66  C   UNL A   1      47.455  26.416  24.954  1.00  0.00     0.022 A 
BRANCH  64  67
ATOM     67  S   UNL A   1      46.054  24.057  24.865  1.00  0.00     0.127 S 
ATOM     68  O   UNL A   1      47.063  23.888  23.823  1.00  0.00    -0.237 OA
ATOM     69  O   UNL A   1      46.357  23.380  26.127  1.00  0.00    -0.237 OA
ATOM     70  O   UNL A   1      44.671  23.907  24.430  1.00  0.00    -0.744 OA
ENDBRANCH  64  67
ENDBRANCH  37  60
ENDBRANCH  11  12
ENDBRANCH   4   6
ENDBRANCH   1   2
BRANCH   1  71
ATOM     71  C   UNL A   1      35.253  21.474  26.455  1.00  0.00     0.023 C 
BRANCH  71  72
ATOM     72  C   UNL A   1      33.766  21.118  26.615  1.00  0.00     0.023 C 
BRANCH  72  73
ATOM     73  C   UNL A   1      32.911  22.234  27.231  1.00  0.00     0.116 C 
BRANCH  73  74
ATOM     74  N   UNL A   1      31.879  22.668  26.312  1.00  0.00    -0.355 N 
ATOM     75  C   UNL A   1      31.887  23.625  25.351  1.00  0.00     0.234 C 
ATOM     76  H   UNL A   1      31.025  22.184  26.399  1.00  0.00     0.163 HD
ATOM     77  O   UNL A   1      30.799  24.169  25.122  1.00  0.00    -0.274 OA
BRANCH  75  78
ATOM     78  C   UNL A   1      33.117  24.015  24.520  1.00  0.00     0.157 C 
ATOM     79  S   UNL A   1      33.132  23.212  22.882  1.00  0.00    -0.093 SA
ATOM     80  C   UNL A   1      33.673  25.454  24.615  1.00  0.00     0.135 C 
ATOM     81  C   UNL A   1      32.966  24.528  21.823  1.00  0.00     0.091 A 
ATOM     82  C   UNL A   1      33.413  26.441  23.444  1.00  0.00     0.082 C 
ATOM     83  C   UNL A   1      33.393  26.148  25.950  1.00  0.00     0.317 C 
ATOM     84  N   UNL A   1      32.630  24.280  20.526  1.00  0.00    -0.307 N 
ATOM     85  C   UNL A   1      33.122  25.823  22.111  1.00  0.00     0.049 A 
ATOM     86  C   UNL A   1      32.497  27.567  23.917  1.00  0.00     0.007 A 
ATOM     87  O   UNL A   1      33.787  27.472  25.930  1.00  0.00    -0.425 OA
ATOM     88  O   UNL A   1      32.998  25.619  26.975  1.00  0.00    -0.251 OA
ATOM     89  C   UNL A   1      32.552  25.366  19.692  1.00  0.00     0.305 A 
ATOM     90  H   UNL A   1      32.452  23.368  20.203  1.00  0.00     0.171 HD
ATOM     91  S   UNL A   1      33.055  26.774  20.626  1.00  0.00    -0.078 S 
ATOM     92  C   UNL A   1      31.429  28.138  23.222  1.00  0.00     0.024 A 
ATOM     93  C   UNL A   1      32.823  28.116  25.167  1.00  0.00     0.148 A 
ATOM     94  O   UNL A   1      32.204  25.391  18.530  1.00  0.00    -0.257 OA
ATOM     95  C   UNL A   1      30.775  29.267  23.733  1.00  0.00     0.019 A 
ATOM     96  C   UNL A   1      32.196  29.261  25.666  1.00  0.00     0.062 A 
ATOM     97  Br  UNL A   1      29.342  30.027  22.760  1.00  0.00    -0.051 Br
ATOM     98  C   UNL A   1      31.166  29.845  24.939  1.00  0.00     0.035 A 
ATOM     99  Br  UNL A   1      32.703  30.029  27.321  1.00  0.00    -0.047 Br
ENDBRANCH  75  78
ENDBRANCH  73  74
ENDBRANCH  72  73
ENDBRANCH  71  72
ENDBRANCH   1  71
TORSDOF 14
ENDMDL
