MODEL 1
REMARK VINA RESULT:     -12.2      0.000      0.000
REMARK SMILES CCCOC(=O)c1c(NC(=O)[C@@H]2CC=CC[C@H]2C(=O)NCCCCNC(=O)c2ccc(-c3c4nc(c(-c5cccc(S(=O)(=O)[O-])c5F)c5ccc([nH]5)c(-c5cccc(S(=O)(=O)[O-])c5F)c5nc(c(-c6cccc(S(=O)(=O)[O-])c6F)c6ccc3[nH]6)C=C5)C=C4)cc2)sc2c1CCCC2
REMARK SMILES IDX 21 1 20 2 18 3 19 4 17 6 12 7 13 8 14 9 16 10 15 11 10 12
REMARK SMILES IDX 9 13 11 15 8 16 7 17 93 18 91 19 92 20 94 21 97 22 95 23
REMARK SMILES IDX 96 24 5 25 6 26 4 27 3 28 2 29 1 30 22 31 23 32 24 33 25 34
REMARK SMILES IDX 26 35 27 37 28 38 29 39 90 40 30 41 89 42 31 43 32 44 33 45
REMARK SMILES IDX 83 46 34 47 88 48 82 49 84 50 35 51 87 52 81 53 80 54 36 56
REMARK SMILES IDX 68 57 48 58 67 59 49 60 52 61 66 62 85 63 50 64 51 65 65 67
REMARK SMILES IDX 86 68 53 69 37 70 38 71 46 72 39 73 41 74 47 75 40 76 42 77
REMARK SMILES IDX 43 78 44 79 45 80 69 81 70 82 78 83 71 84 73 85 79 86 72 87
REMARK SMILES IDX 74 88 75 89 76 90 77 91 54 92 55 93 63 94 56 95 58 96 64 97
REMARK SMILES IDX 57 98 59 99 60 100 61 101 62 102
REMARK H PARENT 20 5 9 14 25 36 84 55 52 66
REMARK Flexibility Score: inf
ROOT
ATOM      1  C   UNL A   1      33.616  28.573  23.184  1.00  0.00     0.116 C 
ENDROOT
BRANCH   1   2
ATOM      2  N   UNL A   1      32.391  28.336  22.400  1.00  0.00    -0.356 N 
ATOM      3  C   UNL A   1      31.138  27.816  22.583  1.00  0.00     0.224 C 
ATOM      4  O   UNL A   1      30.285  28.463  21.942  1.00  0.00    -0.275 OA
ATOM      5  H   UNL A   1      32.508  28.644  21.472  1.00  0.00     0.163 HD
BRANCH   3   6
ATOM      6  C   UNL A   1      30.581  26.493  23.296  1.00  0.00     0.095 C 
ATOM      7  C   UNL A   1      31.517  25.254  23.383  1.00  0.00     0.095 C 
ATOM      8  C   UNL A   1      30.892  23.980  23.946  1.00  0.00     0.041 C 
ATOM      9  C   UNL A   1      30.550  24.291  25.348  1.00  0.00    -0.030 C 
ATOM     10  C   UNL A   1      29.787  26.595  24.582  1.00  0.00     0.041 C 
ATOM     11  C   UNL A   1      30.071  25.505  25.622  1.00  0.00    -0.030 C 
BRANCH   7  12
ATOM     12  C   UNL A   1      32.051  24.944  22.051  1.00  0.00     0.229 C 
ATOM     13  N   UNL A   1      33.109  24.118  22.067  1.00  0.00    -0.317 N 
ATOM     14  H   UNL A   1      33.560  24.042  21.195  1.00  0.00     0.170 HD
ATOM     15  O   UNL A   1      31.633  25.439  21.019  1.00  0.00    -0.274 OA
BRANCH  13  16
ATOM     16  C   UNL A   1      33.688  23.357  23.050  1.00  0.00     0.110 A 
ATOM     17  C   UNL A   1      33.756  22.088  23.679  1.00  0.00     0.098 A 
ATOM     18  C   UNL A   1      35.113  22.123  24.351  1.00  0.00    -0.017 A 
ATOM     19  S   UNL A   1      34.689  24.553  23.754  1.00  0.00    -0.122 S 
ATOM     20  C   UNL A   1      35.662  23.397  24.434  1.00  0.00     0.011 A 
ATOM     21  C   UNL A   1      35.923  20.992  24.922  1.00  0.00     0.038 C 
ATOM     22  C   UNL A   1      36.933  23.854  25.073  1.00  0.00     0.047 C 
ATOM     23  C   UNL A   1      36.966  21.504  25.946  1.00  0.00     0.005 C 
ATOM     24  C   UNL A   1      37.812  22.675  25.448  1.00  0.00     0.006 C 
BRANCH  17  25
ATOM     25  C   UNL A   1      32.887  20.764  23.602  1.00  0.00     0.341 C 
ATOM     26  O   UNL A   1      31.835  20.754  22.966  1.00  0.00    -0.246 OA
BRANCH  25  27
ATOM     27  O   UNL A   1      33.395  19.524  24.120  1.00  0.00    -0.462 OA
BRANCH  27  28
ATOM     28  C   UNL A   1      32.533  18.261  24.208  1.00  0.00     0.233 C 
BRANCH  28  29
ATOM     29  C   UNL A   1      32.561  17.228  25.497  1.00  0.00     0.038 C 
ATOM     30  C   UNL A   1      32.397  15.676  25.480  1.00  0.00     0.007 C 
ENDBRANCH  28  29
ENDBRANCH  27  28
ENDBRANCH  25  27
ENDBRANCH  17  25
ENDBRANCH  13  16
ENDBRANCH   7  12
ENDBRANCH   3   6
ENDBRANCH   1   2
BRANCH   1  31
ATOM     31  C   UNL A   1      33.495  28.854  24.717  1.00  0.00     0.023 C 
BRANCH  31  32
ATOM     32  C   UNL A   1      32.284  29.679  25.128  1.00  0.00     0.023 C 
BRANCH  32  33
ATOM     33  C   UNL A   1      32.284  30.176  26.580  1.00  0.00     0.116 C 
BRANCH  33  34
ATOM     34  N   UNL A   1      32.217  31.614  26.851  1.00  0.00    -0.352 N 
ATOM     35  C   UNL A   1      33.195  32.454  27.386  1.00  0.00     0.251 C 
ATOM     36  H   UNL A   1      31.363  32.048  26.625  1.00  0.00     0.163 HD
ATOM     37  O   UNL A   1      32.962  33.650  27.536  1.00  0.00    -0.269 OA
BRANCH  35  38
ATOM     38  C   UNL A   1      34.485  31.887  27.867  1.00  0.00     0.039 A 
ATOM     39  C   UNL A   1      35.611  32.704  28.044  1.00  0.00     0.014 A 
ATOM     40  C   UNL A   1      34.547  30.553  28.249  1.00  0.00     0.014 A 
ATOM     41  C   UNL A   1      36.746  32.201  28.702  1.00  0.00     0.010 A 
ATOM     42  C   UNL A   1      35.585  30.117  29.054  1.00  0.00     0.010 A 
ATOM     43  C   UNL A   1      36.725  30.910  29.250  1.00  0.00    -0.014 A 
BRANCH  43  44
ATOM     44  C   UNL A   1      37.888  30.283  29.932  1.00  0.00     0.031 A 
ATOM     45  C   UNL A   1      38.174  30.672  31.367  1.00  0.00     0.074 A 
ATOM     46  C   UNL A   1      38.750  29.488  29.267  1.00  0.00     0.049 A 
ATOM     47  N   UNL A   1      39.223  30.421  32.103  1.00  0.00    -0.248 NA
ATOM     48  C   UNL A   1      37.170  31.521  32.039  1.00  0.00     0.031 C 
ATOM     49  C   UNL A   1      38.643  29.097  27.860  1.00  0.00     0.029 A 
ATOM     50  N   UNL A   1      39.913  28.889  29.687  1.00  0.00    -0.354 N 
ATOM     51  C   UNL A   1      39.035  31.138  33.280  1.00  0.00     0.074 A 
ATOM     52  C   UNL A   1      37.814  31.892  33.132  1.00  0.00     0.031 C 
ATOM     53  C   UNL A   1      39.688  28.314  27.538  1.00  0.00     0.029 A 
ATOM     54  C   UNL A   1      40.560  28.178  28.701  1.00  0.00     0.049 A 
ATOM     55  H   UNL A   1      40.254  28.962  30.607  1.00  0.00     0.167 HD
ATOM     56  C   UNL A   1      39.777  31.132  34.412  1.00  0.00     0.034 A 
ATOM     57  C   UNL A   1      41.726  27.502  28.735  1.00  0.00     0.034 A 
ATOM     58  C   UNL A   1      40.933  30.304  34.593  1.00  0.00     0.049 A 
ATOM     59  C   UNL A   1      42.504  27.453  30.025  1.00  0.00     0.074 A 
ATOM     60  C   UNL A   1      41.692  30.126  35.735  1.00  0.00     0.029 A 
ATOM     61  N   UNL A   1      41.492  29.509  33.606  1.00  0.00    -0.354 N 
ATOM     62  N   UNL A   1      42.229  28.017  31.177  1.00  0.00    -0.248 NA
ATOM     63  C   UNL A   1      43.735  26.648  30.031  1.00  0.00     0.031 C 
ATOM     64  C   UNL A   1      42.730  29.241  35.427  1.00  0.00     0.029 A 
ATOM     65  C   UNL A   1      42.594  28.843  34.107  1.00  0.00     0.049 A 
ATOM     66  H   UNL A   1      41.154  29.431  32.684  1.00  0.00     0.167 HD
ATOM     67  C   UNL A   1      43.228  27.603  32.054  1.00  0.00     0.074 A 
ATOM     68  C   UNL A   1      44.102  26.725  31.303  1.00  0.00     0.031 C 
ATOM     69  C   UNL A   1      43.415  27.929  33.356  1.00  0.00     0.034 A 
BRANCH  56  70
ATOM     70  C   UNL A   1      39.316  31.996  35.557  1.00  0.00     0.023 A 
ATOM     71  C   UNL A   1      38.422  31.473  36.517  1.00  0.00     0.012 A 
ATOM     72  C   UNL A   1      39.789  33.313  35.703  1.00  0.00     0.148 A 
ATOM     73  C   UNL A   1      37.967  32.264  37.571  1.00  0.00     0.002 A 
ATOM     74  C   UNL A   1      39.376  34.076  36.788  1.00  0.00     0.091 A 
ATOM     75  F   UNL A   1      40.620  33.801  34.770  1.00  0.00    -0.205 F 
ATOM     76  C   UNL A   1      38.453  33.560  37.713  1.00  0.00     0.022 A 
BRANCH  74  77
ATOM     77  S   UNL A   1      40.008  35.725  37.112  1.00  0.00     0.127 S 
ATOM     78  O   UNL A   1      39.300  36.075  38.344  1.00  0.00    -0.237 OA
ATOM     79  O   UNL A   1      41.439  35.476  37.280  1.00  0.00    -0.237 OA
ATOM     80  O   UNL A   1      39.661  36.526  35.946  1.00  0.00    -0.744 OA
ENDBRANCH  74  77
ENDBRANCH  56  70
BRANCH  57  81
ATOM     81  C   UNL A   1      42.203  26.757  27.531  1.00  0.00     0.023 A 
ATOM     82  C   UNL A   1      42.850  27.460  26.494  1.00  0.00     0.012 A 
ATOM     83  C   UNL A   1      42.027  25.367  27.407  1.00  0.00     0.148 A 
ATOM     84  C   UNL A   1      43.279  26.800  25.343  1.00  0.00     0.002 A 
ATOM     85  C   UNL A   1      42.506  24.705  26.282  1.00  0.00     0.091 A 
ATOM     86  F   UNL A   1      41.401  24.716  28.398  1.00  0.00    -0.205 F 
ATOM     87  C   UNL A   1      43.114  25.422  25.239  1.00  0.00     0.022 A 
BRANCH  85  88
ATOM     88  S   UNL A   1      42.453  22.917  26.116  1.00  0.00     0.127 S 
ATOM     89  O   UNL A   1      42.961  22.726  24.761  1.00  0.00    -0.237 OA
ATOM     90  O   UNL A   1      43.361  22.491  27.183  1.00  0.00    -0.237 OA
ATOM     91  O   UNL A   1      41.060  22.545  26.328  1.00  0.00    -0.744 OA
ENDBRANCH  85  88
ENDBRANCH  57  81
BRANCH  69  92
ATOM     92  C   UNL A   1      44.578  27.303  34.077  1.00  0.00     0.023 A 
ATOM     93  C   UNL A   1      45.837  27.933  34.064  1.00  0.00     0.012 A 
ATOM     94  C   UNL A   1      44.393  26.138  34.849  1.00  0.00     0.148 A 
ATOM     95  C   UNL A   1      46.905  27.394  34.780  1.00  0.00     0.002 A 
ATOM     96  C   UNL A   1      45.445  25.638  35.604  1.00  0.00     0.091 A 
ATOM     97  F   UNL A   1      43.188  25.549  34.838  1.00  0.00    -0.205 F 
ATOM     98  C   UNL A   1      46.706  26.256  35.560  1.00  0.00     0.022 A 
BRANCH  96  99
ATOM     99  S   UNL A   1      45.254  24.244  36.719  1.00  0.00     0.127 S 
ATOM    100  O   UNL A   1      46.628  24.036  37.173  1.00  0.00    -0.237 OA
ATOM    101  O   UNL A   1      44.350  24.783  37.735  1.00  0.00    -0.237 OA
ATOM    102  O   UNL A   1      44.691  23.163  35.921  1.00  0.00    -0.744 OA
ENDBRANCH  96  99
ENDBRANCH  69  92
ENDBRANCH  43  44
ENDBRANCH  35  38
ENDBRANCH  33  34
ENDBRANCH  32  33
ENDBRANCH  31  32
ENDBRANCH   1  31
TORSDOF 20
ENDMDL
MODEL 2
REMARK VINA RESULT:     -12.1      2.161      7.572
REMARK SMILES CCCOC(=O)c1c(NC(=O)[C@@H]2CC=CC[C@H]2C(=O)NCCCCNC(=O)c2ccc(-c3c4nc(c(-c5cccc(S(=O)(=O)[O-])c5F)c5ccc([nH]5)c(-c5cccc(S(=O)(=O)[O-])c5F)c5nc(c(-c6cccc(S(=O)(=O)[O-])c6F)c6ccc3[nH]6)C=C5)C=C4)cc2)sc2c1CCCC2
REMARK SMILES IDX 21 1 20 2 18 3 19 4 17 6 12 7 13 8 14 9 16 10 15 11 10 12
REMARK SMILES IDX 9 13 11 15 8 16 7 17 93 18 91 19 92 20 94 21 97 22 95 23
REMARK SMILES IDX 96 24 5 25 6 26 4 27 3 28 2 29 1 30 22 31 23 32 24 33 25 34
REMARK SMILES IDX 26 35 27 37 28 38 29 39 90 40 30 41 89 42 31 43 32 44 33 45
REMARK SMILES IDX 83 46 34 47 88 48 82 49 84 50 35 51 87 52 81 53 80 54 36 56
REMARK SMILES IDX 68 57 48 58 67 59 49 60 52 61 66 62 85 63 50 64 51 65 65 67
REMARK SMILES IDX 86 68 53 69 37 70 38 71 46 72 39 73 41 74 47 75 40 76 42 77
REMARK SMILES IDX 43 78 44 79 45 80 69 81 70 82 78 83 71 84 73 85 79 86 72 87
REMARK SMILES IDX 74 88 75 89 76 90 77 91 54 92 55 93 63 94 56 95 58 96 64 97
REMARK SMILES IDX 57 98 59 99 60 100 61 101 62 102
REMARK H PARENT 20 5 9 14 25 36 84 55 52 66
REMARK Flexibility Score: inf
ROOT
ATOM      1  C   UNL A   1      33.581  29.525  25.768  1.00  0.00     0.116 C 
ENDROOT
BRANCH   1   2
ATOM      2  N   UNL A   1      33.676  28.657  24.581  1.00  0.00    -0.356 N 
ATOM      3  C   UNL A   1      32.839  28.003  23.717  1.00  0.00     0.224 C 
ATOM      4  O   UNL A   1      33.281  28.039  22.551  1.00  0.00    -0.275 OA
ATOM      5  H   UNL A   1      34.617  28.501  24.339  1.00  0.00     0.163 HD
BRANCH   3   6
ATOM      6  C   UNL A   1      31.534  27.092  23.912  1.00  0.00     0.095 C 
ATOM      7  C   UNL A   1      31.646  25.572  23.603  1.00  0.00     0.095 C 
ATOM      8  C   UNL A   1      30.344  24.777  23.673  1.00  0.00     0.041 C 
ATOM      9  C   UNL A   1      29.913  24.842  25.083  1.00  0.00    -0.030 C 
ATOM     10  C   UNL A   1      30.648  27.279  25.126  1.00  0.00     0.041 C 
ATOM     11  C   UNL A   1      30.087  25.990  25.739  1.00  0.00    -0.030 C 
BRANCH   7  12
ATOM     12  C   UNL A   1      32.220  25.381  22.266  1.00  0.00     0.229 C 
ATOM     13  N   UNL A   1      33.239  24.507  22.230  1.00  0.00    -0.317 N 
ATOM     14  H   UNL A   1      33.722  24.503  21.372  1.00  0.00     0.170 HD
ATOM     15  O   UNL A   1      31.867  26.003  21.279  1.00  0.00    -0.274 OA
BRANCH  13  16
ATOM     16  C   UNL A   1      33.743  23.618  23.145  1.00  0.00     0.110 A 
ATOM     17  C   UNL A   1      33.654  22.319  23.706  1.00  0.00     0.098 A 
ATOM     18  C   UNL A   1      35.028  22.126  24.312  1.00  0.00    -0.017 A 
ATOM     19  S   UNL A   1      34.932  24.620  23.859  1.00  0.00    -0.122 S 
ATOM     20  C   UNL A   1      35.756  23.303  24.433  1.00  0.00     0.011 A 
ATOM     21  C   UNL A   1      35.691  20.861  24.787  1.00  0.00     0.038 C 
ATOM     22  C   UNL A   1      37.104  23.540  25.033  1.00  0.00     0.047 C 
ATOM     23  C   UNL A   1      36.837  21.164  25.784  1.00  0.00     0.005 C 
ATOM     24  C   UNL A   1      37.820  22.230  25.305  1.00  0.00     0.006 C 
BRANCH  17  25
ATOM     25  C   UNL A   1      32.602  21.137  23.605  1.00  0.00     0.341 C 
ATOM     26  O   UNL A   1      32.037  20.905  22.539  1.00  0.00    -0.246 OA
BRANCH  25  27
ATOM     27  O   UNL A   1      32.426  20.219  24.696  1.00  0.00    -0.462 OA
BRANCH  27  28
ATOM     28  C   UNL A   1      32.385  18.702  24.489  1.00  0.00     0.233 C 
BRANCH  28  29
ATOM     29  C   UNL A   1      33.740  17.762  24.383  1.00  0.00     0.038 C 
ATOM     30  C   UNL A   1      34.206  16.893  23.173  1.00  0.00     0.007 C 
ENDBRANCH  28  29
ENDBRANCH  27  28
ENDBRANCH  25  27
ENDBRANCH  17  25
ENDBRANCH  13  16
ENDBRANCH   7  12
ENDBRANCH   3   6
ENDBRANCH   1   2
BRANCH   1  31
ATOM     31  C   UNL A   1      32.287  30.374  25.987  1.00  0.00     0.023 C 
BRANCH  31  32
ATOM     32  C   UNL A   1      32.290  31.247  27.234  1.00  0.00     0.023 C 
BRANCH  32  33
ATOM     33  C   UNL A   1      33.222  32.465  27.185  1.00  0.00     0.116 C 
BRANCH  33  34
ATOM     34  N   UNL A   1      32.709  33.782  27.570  1.00  0.00    -0.352 N 
ATOM     35  C   UNL A   1      33.168  34.649  28.562  1.00  0.00     0.251 C 
ATOM     36  H   UNL A   1      31.931  34.100  27.057  1.00  0.00     0.163 HD
ATOM     37  O   UNL A   1      32.612  35.730  28.740  1.00  0.00    -0.269 OA
BRANCH  35  38
ATOM     38  C   UNL A   1      34.268  34.226  29.473  1.00  0.00     0.039 A 
ATOM     39  C   UNL A   1      34.006  33.437  30.603  1.00  0.00     0.014 A 
ATOM     40  C   UNL A   1      35.584  34.523  29.143  1.00  0.00     0.014 A 
ATOM     41  C   UNL A   1      35.069  32.868  31.323  1.00  0.00     0.010 A 
ATOM     42  C   UNL A   1      36.616  33.818  29.736  1.00  0.00     0.010 A 
ATOM     43  C   UNL A   1      36.386  33.022  30.867  1.00  0.00    -0.014 A 
BRANCH  43  44
ATOM     44  C   UNL A   1      37.576  32.485  31.581  1.00  0.00     0.031 A 
ATOM     45  C   UNL A   1      38.365  31.372  30.924  1.00  0.00     0.074 A 
ATOM     46  C   UNL A   1      37.882  32.876  32.834  1.00  0.00     0.049 A 
ATOM     47  N   UNL A   1      39.305  30.614  31.422  1.00  0.00    -0.248 NA
ATOM     48  C   UNL A   1      37.991  31.019  29.540  1.00  0.00     0.031 C 
ATOM     49  C   UNL A   1      37.158  33.879  33.618  1.00  0.00     0.029 A 
ATOM     50  N   UNL A   1      38.871  32.446  33.684  1.00  0.00    -0.354 N 
ATOM     51  C   UNL A   1      39.573  29.661  30.445  1.00  0.00     0.074 A 
ATOM     52  C   UNL A   1      38.648  29.886  29.361  1.00  0.00     0.031 C 
ATOM     53  C   UNL A   1      37.736  33.996  34.827  1.00  0.00     0.029 A 
ATOM     54  C   UNL A   1      38.845  33.052  34.921  1.00  0.00     0.049 A 
ATOM     55  H   UNL A   1      39.538  31.767  33.434  1.00  0.00     0.167 HD
ATOM     56  C   UNL A   1      40.539  28.714  30.419  1.00  0.00     0.034 A 
ATOM     57  C   UNL A   1      39.625  32.859  36.004  1.00  0.00     0.034 A 
ATOM     58  C   UNL A   1      41.521  28.559  31.452  1.00  0.00     0.049 A 
ATOM     59  C   UNL A   1      40.738  31.844  35.930  1.00  0.00     0.074 A 
ATOM     60  C   UNL A   1      42.616  27.715  31.478  1.00  0.00     0.029 A 
ATOM     61  N   UNL A   1      41.529  29.270  32.641  1.00  0.00    -0.354 N 
ATOM     62  N   UNL A   1      41.072  31.055  34.937  1.00  0.00    -0.248 NA
ATOM     63  C   UNL A   1      41.602  31.717  37.113  1.00  0.00     0.031 C 
ATOM     64  C   UNL A   1      43.272  27.899  32.699  1.00  0.00     0.029 A 
ATOM     65  C   UNL A   1      42.605  28.881  33.414  1.00  0.00     0.049 A 
ATOM     66  H   UNL A   1      40.867  29.953  32.896  1.00  0.00     0.167 HD
ATOM     67  C   UNL A   1      42.207  30.369  35.359  1.00  0.00     0.074 A 
ATOM     68  C   UNL A   1      42.513  30.851  36.690  1.00  0.00     0.031 C 
ATOM     69  C   UNL A   1      42.923  29.417  34.712  1.00  0.00     0.034 A 
BRANCH  56  70
ATOM     70  C   UNL A   1      40.617  27.825  29.205  1.00  0.00     0.023 A 
ATOM     71  C   UNL A   1      39.774  26.696  29.104  1.00  0.00     0.012 A 
ATOM     72  C   UNL A   1      41.500  28.121  28.150  1.00  0.00     0.148 A 
ATOM     73  C   UNL A   1      39.846  25.850  27.999  1.00  0.00     0.002 A 
ATOM     74  C   UNL A   1      41.525  27.305  27.025  1.00  0.00     0.091 A 
ATOM     75  F   UNL A   1      42.308  29.184  28.271  1.00  0.00    -0.205 F 
ATOM     76  C   UNL A   1      40.713  26.161  26.955  1.00  0.00     0.022 A 
BRANCH  74  77
ATOM     77  S   UNL A   1      42.541  27.664  25.588  1.00  0.00     0.127 S 
ATOM     78  O   UNL A   1      42.298  26.486  24.755  1.00  0.00    -0.237 OA
ATOM     79  O   UNL A   1      41.938  28.899  25.090  1.00  0.00    -0.237 OA
ATOM     80  O   UNL A   1      43.903  27.806  26.083  1.00  0.00    -0.744 OA
ENDBRANCH  74  77
ENDBRANCH  56  70
BRANCH  57  81
ATOM     81  C   UNL A   1      39.430  33.685  37.232  1.00  0.00     0.023 A 
ATOM     82  C   UNL A   1      39.974  34.985  37.285  1.00  0.00     0.012 A 
ATOM     83  C   UNL A   1      38.709  33.201  38.340  1.00  0.00     0.148 A 
ATOM     84  C   UNL A   1      39.837  35.770  38.430  1.00  0.00     0.002 A 
ATOM     85  C   UNL A   1      38.528  34.010  39.456  1.00  0.00     0.091 A 
ATOM     86  F   UNL A   1      38.207  31.960  38.276  1.00  0.00    -0.205 F 
ATOM     87  C   UNL A   1      39.109  35.287  39.512  1.00  0.00     0.022 A 
BRANCH  85  88
ATOM     88  S   UNL A   1      37.500  33.523  40.846  1.00  0.00     0.127 S 
ATOM     89  O   UNL A   1      37.376  34.778  41.582  1.00  0.00    -0.237 OA
ATOM     90  O   UNL A   1      36.278  33.078  40.172  1.00  0.00    -0.237 OA
ATOM     91  O   UNL A   1      38.234  32.462  41.524  1.00  0.00    -0.744 OA
ENDBRANCH  85  88
ENDBRANCH  57  81
BRANCH  69  92
ATOM     92  C   UNL A   1      44.138  28.860  35.404  1.00  0.00     0.023 A 
ATOM     93  C   UNL A   1      45.392  29.477  35.232  1.00  0.00     0.012 A 
ATOM     94  C   UNL A   1      44.012  27.781  36.302  1.00  0.00     0.148 A 
ATOM     95  C   UNL A   1      46.511  29.007  35.919  1.00  0.00     0.002 A 
ATOM     96  C   UNL A   1      45.119  27.353  37.023  1.00  0.00     0.091 A 
ATOM     97  F   UNL A   1      42.811  27.201  36.441  1.00  0.00    -0.205 F 
ATOM     98  C   UNL A   1      46.372  27.956  36.823  1.00  0.00     0.022 A 
BRANCH  96  99
ATOM     99  S   UNL A   1      45.014  26.081  38.285  1.00  0.00     0.127 S 
ATOM    100  O   UNL A   1      46.410  25.955  38.698  1.00  0.00    -0.237 OA
ATOM    101  O   UNL A   1      44.137  26.703  39.278  1.00  0.00    -0.237 OA
ATOM    102  O   UNL A   1      44.450  24.908  37.630  1.00  0.00    -0.744 OA
ENDBRANCH  96  99
ENDBRANCH  69  92
ENDBRANCH  43  44
ENDBRANCH  35  38
ENDBRANCH  33  34
ENDBRANCH  32  33
ENDBRANCH  31  32
ENDBRANCH   1  31
TORSDOF 20
ENDMDL
MODEL 3
REMARK VINA RESULT:     -12.0      5.472      9.177
REMARK SMILES CCCOC(=O)c1c(NC(=O)[C@@H]2CC=CC[C@H]2C(=O)NCCCCNC(=O)c2ccc(-c3c4nc(c(-c5cccc(S(=O)(=O)[O-])c5F)c5ccc([nH]5)c(-c5cccc(S(=O)(=O)[O-])c5F)c5nc(c(-c6cccc(S(=O)(=O)[O-])c6F)c6ccc3[nH]6)C=C5)C=C4)cc2)sc2c1CCCC2
REMARK SMILES IDX 21 1 20 2 18 3 19 4 17 6 12 7 13 8 14 9 16 10 15 11 10 12
REMARK SMILES IDX 9 13 11 15 8 16 7 17 93 18 91 19 92 20 94 21 97 22 95 23
REMARK SMILES IDX 96 24 5 25 6 26 4 27 3 28 2 29 1 30 22 31 23 32 24 33 25 34
REMARK SMILES IDX 26 35 27 37 28 38 29 39 90 40 30 41 89 42 31 43 32 44 33 45
REMARK SMILES IDX 83 46 34 47 88 48 82 49 84 50 35 51 87 52 81 53 80 54 36 56
REMARK SMILES IDX 68 57 48 58 67 59 49 60 52 61 66 62 85 63 50 64 51 65 65 67
REMARK SMILES IDX 86 68 53 69 37 70 38 71 46 72 39 73 41 74 47 75 40 76 42 77
REMARK SMILES IDX 43 78 44 79 45 80 69 81 70 82 78 83 71 84 73 85 79 86 72 87
REMARK SMILES IDX 74 88 75 89 76 90 77 91 54 92 55 93 63 94 56 95 58 96 64 97
REMARK SMILES IDX 57 98 59 99 60 100 61 101 62 102
REMARK H PARENT 20 5 9 14 25 36 84 55 52 66
REMARK Flexibility Score: inf
ROOT
ATOM      1  C   UNL A   1      36.748  23.162  25.909  1.00  0.00     0.116 C 
ENDROOT
BRANCH   1   2
ATOM      2  N   UNL A   1      35.573  22.787  26.714  1.00  0.00    -0.356 N 
ATOM      3  C   UNL A   1      34.414  22.071  26.571  1.00  0.00     0.224 C 
ATOM      4  O   UNL A   1      34.144  21.442  27.613  1.00  0.00    -0.275 OA
ATOM      5  H   UNL A   1      35.641  23.160  27.623  1.00  0.00     0.163 HD
BRANCH   3   6
ATOM      6  C   UNL A   1      33.286  22.005  25.434  1.00  0.00     0.095 C 
ATOM      7  C   UNL A   1      32.253  23.166  25.355  1.00  0.00     0.095 C 
ATOM      8  C   UNL A   1      31.120  22.987  24.348  1.00  0.00     0.041 C 
ATOM      9  C   UNL A   1      31.767  22.970  23.021  1.00  0.00    -0.030 C 
ATOM     10  C   UNL A   1      33.644  21.575  24.027  1.00  0.00     0.041 C 
ATOM     11  C   UNL A   1      32.937  22.340  22.902  1.00  0.00    -0.030 C 
BRANCH   7  12
ATOM     12  C   UNL A   1      31.652  23.382  26.677  1.00  0.00     0.229 C 
ATOM     13  N   UNL A   1      31.477  24.676  26.991  1.00  0.00    -0.317 N 
ATOM     14  H   UNL A   1      31.227  24.821  27.932  1.00  0.00     0.170 HD
ATOM     15  O   UNL A   1      31.394  22.486  27.461  1.00  0.00    -0.274 OA
BRANCH  13  16
ATOM     16  C   UNL A   1      31.576  25.837  26.266  1.00  0.00     0.110 A 
ATOM     17  C   UNL A   1      32.422  26.879  25.809  1.00  0.00     0.098 A 
ATOM     18  C   UNL A   1      31.665  27.420  24.615  1.00  0.00    -0.017 A 
ATOM     19  S   UNL A   1      29.934  26.006  25.816  1.00  0.00    -0.122 S 
ATOM     20  C   UNL A   1      30.339  27.008  24.561  1.00  0.00     0.011 A 
ATOM     21  C   UNL A   1      32.146  28.320  23.510  1.00  0.00     0.038 C 
ATOM     22  C   UNL A   1      29.261  27.372  23.592  1.00  0.00     0.047 C 
ATOM     23  C   UNL A   1      30.964  29.034  22.807  1.00  0.00     0.005 C 
ATOM     24  C   UNL A   1      29.828  28.102  22.389  1.00  0.00     0.006 C 
BRANCH  17  25
ATOM     25  C   UNL A   1      33.904  27.331  26.146  1.00  0.00     0.341 C 
ATOM     26  O   UNL A   1      34.858  26.701  25.697  1.00  0.00    -0.246 OA
BRANCH  25  27
ATOM     27  O   UNL A   1      34.153  28.573  26.825  1.00  0.00    -0.462 OA
BRANCH  27  28
ATOM     28  C   UNL A   1      33.419  29.866  26.460  1.00  0.00     0.233 C 
BRANCH  28  29
ATOM     29  C   UNL A   1      33.402  31.207  27.426  1.00  0.00     0.038 C 
ATOM     30  C   UNL A   1      34.497  31.665  28.440  1.00  0.00     0.007 C 
ENDBRANCH  28  29
ENDBRANCH  27  28
ENDBRANCH  25  27
ENDBRANCH  17  25
ENDBRANCH  13  16
ENDBRANCH   7  12
ENDBRANCH   3   6
ENDBRANCH   1   2
BRANCH   1  31
ATOM     31  C   UNL A   1      37.123  22.297  24.662  1.00  0.00     0.023 C 
BRANCH  31  32
ATOM     32  C   UNL A   1      37.690  20.921  24.977  1.00  0.00     0.023 C 
BRANCH  32  33
ATOM     33  C   UNL A   1      38.946  20.910  25.859  1.00  0.00     0.116 C 
BRANCH  33  34
ATOM     34  N   UNL A   1      39.819  19.733  25.859  1.00  0.00    -0.352 N 
ATOM     35  C   UNL A   1      41.189  19.655  26.110  1.00  0.00     0.251 C 
ATOM     36  H   UNL A   1      39.376  18.878  25.651  1.00  0.00     0.163 HD
ATOM     37  O   UNL A   1      41.760  18.568  26.073  1.00  0.00    -0.269 OA
BRANCH  35  38
ATOM     38  C   UNL A   1      41.981  20.898  26.325  1.00  0.00     0.039 A 
ATOM     39  C   UNL A   1      42.345  21.717  25.247  1.00  0.00     0.014 A 
ATOM     40  C   UNL A   1      42.271  21.309  27.619  1.00  0.00     0.014 A 
ATOM     41  C   UNL A   1      42.897  22.987  25.486  1.00  0.00     0.010 A 
ATOM     42  C   UNL A   1      42.639  22.622  27.855  1.00  0.00     0.010 A 
ATOM     43  C   UNL A   1      43.010  23.466  26.799  1.00  0.00    -0.014 A 
BRANCH  43  44
ATOM     44  C   UNL A   1      43.611  24.781  27.149  1.00  0.00     0.031 A 
ATOM     45  C   UNL A   1      42.709  25.852  27.725  1.00  0.00     0.074 A 
ATOM     46  C   UNL A   1      44.893  25.072  26.849  1.00  0.00     0.049 A 
ATOM     47  N   UNL A   1      42.947  27.121  27.923  1.00  0.00    -0.248 NA
ATOM     48  C   UNL A   1      41.328  25.451  28.056  1.00  0.00     0.031 C 
ATOM     49  C   UNL A   1      45.851  24.163  26.217  1.00  0.00     0.029 A 
ATOM     50  N   UNL A   1      45.602  26.237  27.009  1.00  0.00    -0.354 N 
ATOM     51  C   UNL A   1      41.734  27.671  28.325  1.00  0.00     0.074 A 
ATOM     52  C   UNL A   1      40.748  26.619  28.268  1.00  0.00     0.031 C 
ATOM     53  C   UNL A   1      47.025  24.800  26.057  1.00  0.00     0.029 A 
ATOM     54  C   UNL A   1      46.894  26.173  26.537  1.00  0.00     0.049 A 
ATOM     55  H   UNL A   1      45.222  27.045  27.424  1.00  0.00     0.167 HD
ATOM     56  C   UNL A   1      41.466  28.924  28.757  1.00  0.00     0.034 A 
ATOM     57  C   UNL A   1      47.855  27.118  26.492  1.00  0.00     0.034 A 
ATOM     58  C   UNL A   1      42.469  29.938  28.908  1.00  0.00     0.049 A 
ATOM     59  C   UNL A   1      47.555  28.490  27.040  1.00  0.00     0.074 A 
ATOM     60  C   UNL A   1      42.337  31.203  29.448  1.00  0.00     0.029 A 
ATOM     61  N   UNL A   1      43.792  29.797  28.524  1.00  0.00    -0.354 N 
ATOM     62  N   UNL A   1      46.440  28.948  27.557  1.00  0.00    -0.248 NA
ATOM     63  C   UNL A   1      48.655  29.466  27.030  1.00  0.00     0.031 C 
ATOM     64  C   UNL A   1      43.579  31.839  29.364  1.00  0.00     0.029 A 
ATOM     65  C   UNL A   1      44.490  30.955  28.806  1.00  0.00     0.049 A 
ATOM     66  H   UNL A   1      44.178  28.990  28.112  1.00  0.00     0.167 HD
ATOM     67  C   UNL A   1      46.716  30.247  27.971  1.00  0.00     0.074 A 
ATOM     68  C   UNL A   1      48.108  30.496  27.661  1.00  0.00     0.031 C 
ATOM     69  C   UNL A   1      45.890  31.159  28.541  1.00  0.00     0.034 A 
BRANCH  56  70
ATOM     70  C   UNL A   1      40.049  29.239  29.161  1.00  0.00     0.023 A 
ATOM     71  C   UNL A   1      39.097  29.581  28.176  1.00  0.00     0.012 A 
ATOM     72  C   UNL A   1      39.650  29.168  30.508  1.00  0.00     0.148 A 
ATOM     73  C   UNL A   1      37.787  29.896  28.531  1.00  0.00     0.002 A 
ATOM     74  C   UNL A   1      38.328  29.427  30.848  1.00  0.00     0.091 A 
ATOM     75  F   UNL A   1      40.572  28.863  31.433  1.00  0.00    -0.205 F 
ATOM     76  C   UNL A   1      37.400  29.808  29.865  1.00  0.00     0.022 A 
BRANCH  74  77
ATOM     77  S   UNL A   1      37.706  29.258  32.524  1.00  0.00     0.127 S 
ATOM     78  O   UNL A   1      38.633  30.109  33.270  1.00  0.00    -0.237 OA
ATOM     79  O   UNL A   1      36.351  29.793  32.401  1.00  0.00    -0.237 OA
ATOM     80  O   UNL A   1      37.775  27.838  32.838  1.00  0.00    -0.744 OA
ENDBRANCH  74  77
ENDBRANCH  56  70
BRANCH  57  81
ATOM     81  C   UNL A   1      49.214  26.788  25.969  1.00  0.00     0.023 A 
ATOM     82  C   UNL A   1      50.099  26.035  26.768  1.00  0.00     0.012 A 
ATOM     83  C   UNL A   1      49.634  27.205  24.692  1.00  0.00     0.148 A 
ATOM     84  C   UNL A   1      51.387  25.738  26.322  1.00  0.00     0.002 A 
ATOM     85  C   UNL A   1      50.899  26.858  24.231  1.00  0.00     0.091 A 
ATOM     86  F   UNL A   1      48.784  27.928  23.950  1.00  0.00    -0.205 F 
ATOM     87  C   UNL A   1      51.785  26.142  25.052  1.00  0.00     0.022 A 
BRANCH  85  88
ATOM     88  S   UNL A   1      51.453  27.225  22.562  1.00  0.00     0.127 S 
ATOM     89  O   UNL A   1      52.766  26.586  22.535  1.00  0.00    -0.237 OA
ATOM     90  O   UNL A   1      50.427  26.564  21.754  1.00  0.00    -0.237 OA
ATOM     91  O   UNL A   1      51.455  28.678  22.460  1.00  0.00    -0.744 OA
ENDBRANCH  85  88
ENDBRANCH  57  81
BRANCH  69  92
ATOM     92  C   UNL A   1      46.471  32.496  28.916  1.00  0.00     0.023 A 
ATOM     93  C   UNL A   1      47.092  32.668  30.168  1.00  0.00     0.012 A 
ATOM     94  C   UNL A   1      46.484  33.552  27.983  1.00  0.00     0.148 A 
ATOM     95  C   UNL A   1      47.688  33.884  30.499  1.00  0.00     0.002 A 
ATOM     96  C   UNL A   1      47.127  34.741  28.299  1.00  0.00     0.091 A 
ATOM     97  F   UNL A   1      45.876  33.369  26.802  1.00  0.00    -0.205 F 
ATOM     98  C   UNL A   1      47.718  34.914  29.562  1.00  0.00     0.022 A 
BRANCH  96  99
ATOM     99  S   UNL A   1      47.309  36.081  27.118  1.00  0.00     0.127 S 
ATOM    100  O   UNL A   1      48.012  37.085  27.914  1.00  0.00    -0.237 OA
ATOM    101  O   UNL A   1      48.116  35.460  26.067  1.00  0.00    -0.237 OA
ATOM    102  O   UNL A   1      45.959  36.445  26.709  1.00  0.00    -0.744 OA
ENDBRANCH  96  99
ENDBRANCH  69  92
ENDBRANCH  43  44
ENDBRANCH  35  38
ENDBRANCH  33  34
ENDBRANCH  32  33
ENDBRANCH  31  32
ENDBRANCH   1  31
TORSDOF 20
ENDMDL
