MODEL 1
REMARK VINA RESULT:     -11.4      0.000      0.000
REMARK SMILES Cc1nc(C)n(CC[C@H]2CCC[C@@]2([NH2+]C(C)C)C(=O)NCCCCNC(=O)c2ccc(-c3c4nc(c(-c5cccc(S(=O)(=O)[O-])c5F)c5ccc([nH]5)c(-c5cccc(S(=O)(=O)[O-])c5F)c5nc(c(-c6cccc(S(=O)(=O)[O-])c6F)c6ccc3[nH]6)C=C5)C=C4)cc2)n1
REMARK SMILES IDX 22 1 21 2 20 3 18 4 19 5 13 7 9 8 10 9 11 10 12 11 8 12 7 13
REMARK SMILES IDX 6 14 1 15 2 16 3 17 91 18 4 19 5 20 14 21 15 24 16 25 17 26
REMARK SMILES IDX 23 27 24 28 25 29 26 30 27 32 28 33 29 34 90 35 30 36 89 37
REMARK SMILES IDX 31 38 32 39 33 40 83 41 34 42 88 43 82 44 84 45 35 46 87 47
REMARK SMILES IDX 81 48 80 49 36 51 68 52 48 53 67 54 49 55 52 56 66 57 85 58
REMARK SMILES IDX 50 59 51 60 65 62 86 63 53 64 37 65 38 66 46 67 39 68 41 69
REMARK SMILES IDX 47 70 40 71 42 72 43 73 44 74 45 75 69 76 70 77 78 78 71 79
REMARK SMILES IDX 73 80 79 81 72 82 74 83 75 84 76 85 77 86 54 87 55 88 63 89
REMARK SMILES IDX 56 90 58 91 64 92 57 93 59 94 60 95 61 96 62 97
REMARK H PARENT 20 6 14 22 14 23 25 31 84 50 52 61
REMARK Flexibility Score: inf
ROOT
ATOM      1  C   UNL A   1      34.460  28.771  26.858  1.00  0.00     0.023 C 
ENDROOT
BRANCH   1   2
ATOM      2  C   UNL A   1      33.545  27.643  26.328  1.00  0.00     0.116 C 
BRANCH   2   3
ATOM      3  N   UNL A   1      34.204  26.532  25.653  1.00  0.00    -0.351 N 
ATOM      4  C   UNL A   1      33.749  25.441  24.949  1.00  0.00     0.281 C 
ATOM      5  O   UNL A   1      34.642  24.728  24.470  1.00  0.00    -0.268 OA
ATOM      6  H   UNL A   1      35.186  26.572  25.714  1.00  0.00     0.163 HD
BRANCH   4   7
ATOM      7  C   UNL A   1      32.224  25.033  24.753  1.00  0.00     0.178 C 
ATOM      8  C   UNL A   1      31.272  26.117  24.101  1.00  0.00     0.062 C 
ATOM      9  C   UNL A   1      30.035  25.257  23.744  1.00  0.00     0.011 C 
ATOM     10  C   UNL A   1      30.645  24.019  23.099  1.00  0.00     0.008 C 
ATOM     11  C   UNL A   1      32.073  23.925  23.658  1.00  0.00     0.079 C 
BRANCH   8  12
ATOM     12  C   UNL A   1      31.746  26.771  22.762  1.00  0.00     0.034 C 
BRANCH  12  13
ATOM     13  C   UNL A   1      32.014  28.273  22.851  1.00  0.00     0.147 C 
BRANCH  13  14
ATOM     14  N   UNL A   1      30.773  28.999  22.916  1.00  0.00    -0.250 N 
ATOM     15  C   UNL A   1      27.995  30.332  21.244  1.00  0.00     0.092 C 
ATOM     16  C   UNL A   1      29.117  29.972  22.131  1.00  0.00     0.147 A 
ATOM     17  N   UNL A   1      29.361  30.587  23.332  1.00  0.00    -0.217 NA
ATOM     18  N   UNL A   1      29.956  28.979  21.861  1.00  0.00    -0.156 NA
ATOM     19  C   UNL A   1      30.370  29.909  23.846  1.00  0.00     0.124 A 
ATOM     20  C   UNL A   1      31.015  30.110  25.168  1.00  0.00     0.089 C 
ENDBRANCH  13  14
ENDBRANCH  12  13
ENDBRANCH   8  12
BRANCH   7  21
ATOM     21  N   UNL A   1      31.664  24.654  26.081  1.00  0.00    -0.331 N 
ATOM     22  H   UNL A   1      30.744  25.090  26.150  1.00  0.00     0.347 HD
ATOM     23  H   UNL A   1      32.378  24.967  26.737  1.00  0.00     0.347 HD
BRANCH  21  24
ATOM     24  C   UNL A   1      31.489  23.246  26.414  1.00  0.00     0.176 C 
ATOM     25  C   UNL A   1      32.540  22.868  27.460  1.00  0.00     0.075 C 
ATOM     26  C   UNL A   1      30.100  23.001  27.012  1.00  0.00     0.075 C 
ENDBRANCH  21  24
ENDBRANCH   7  21
ENDBRANCH   4   7
ENDBRANCH   2   3
ENDBRANCH   1   2
BRANCH   1  27
ATOM     27  C   UNL A   1      33.851  30.147  27.195  1.00  0.00     0.023 C 
BRANCH  27  28
ATOM     28  C   UNL A   1      34.826  31.255  27.588  1.00  0.00     0.116 C 
BRANCH  28  29
ATOM     29  N   UNL A   1      34.462  32.105  28.721  1.00  0.00    -0.352 N 
ATOM     30  C   UNL A   1      35.046  32.124  29.991  1.00  0.00     0.251 C 
ATOM     31  H   UNL A   1      33.720  32.736  28.573  1.00  0.00     0.163 HD
ATOM     32  O   UNL A   1      34.562  32.804  30.881  1.00  0.00    -0.269 OA
BRANCH  30  33
ATOM     33  C   UNL A   1      36.271  31.318  30.256  1.00  0.00     0.039 A 
ATOM     34  C   UNL A   1      36.240  29.937  30.449  1.00  0.00     0.014 A 
ATOM     35  C   UNL A   1      37.493  31.966  30.310  1.00  0.00     0.014 A 
ATOM     36  C   UNL A   1      37.451  29.229  30.549  1.00  0.00     0.010 A 
ATOM     37  C   UNL A   1      38.684  31.271  30.300  1.00  0.00     0.010 A 
ATOM     38  C   UNL A   1      38.684  29.897  30.425  1.00  0.00    -0.014 A 
BRANCH  38  39
ATOM     39  C   UNL A   1      39.945  29.162  30.249  1.00  0.00     0.031 A 
ATOM     40  C   UNL A   1      40.627  28.813  31.527  1.00  0.00     0.074 A 
ATOM     41  C   UNL A   1      40.409  28.628  29.094  1.00  0.00     0.049 A 
ATOM     42  N   UNL A   1      41.699  29.351  32.003  1.00  0.00    -0.248 NA
ATOM     43  C   UNL A   1      39.976  27.867  32.447  1.00  0.00     0.031 C 
ATOM     44  C   UNL A   1      39.746  28.555  27.787  1.00  0.00     0.029 A 
ATOM     45  N   UNL A   1      41.558  27.916  28.880  1.00  0.00    -0.354 N 
ATOM     46  C   UNL A   1      42.000  28.642  33.163  1.00  0.00     0.074 A 
ATOM     47  C   UNL A   1      40.815  27.891  33.486  1.00  0.00     0.031 C 
ATOM     48  C   UNL A   1      40.374  27.646  27.007  1.00  0.00     0.029 A 
ATOM     49  C   UNL A   1      41.580  27.206  27.680  1.00  0.00     0.049 A 
ATOM     50  H   UNL A   1      42.306  27.906  29.519  1.00  0.00     0.167 HD
ATOM     51  C   UNL A   1      43.283  28.552  33.614  1.00  0.00     0.034 A 
ATOM     52  C   UNL A   1      42.511  26.307  27.274  1.00  0.00     0.034 A 
ATOM     53  C   UNL A   1      44.141  29.502  32.942  1.00  0.00     0.049 A 
ATOM     54  C   UNL A   1      43.748  26.588  28.034  1.00  0.00     0.074 A 
ATOM     55  C   UNL A   1      44.139  30.871  32.760  1.00  0.00     0.029 A 
ATOM     56  N   UNL A   1      44.990  29.001  31.984  1.00  0.00    -0.354 N 
ATOM     57  N   UNL A   1      44.458  27.669  27.876  1.00  0.00    -0.248 NA
ATOM     58  C   UNL A   1      43.983  25.856  29.265  1.00  0.00     0.031 C 
ATOM     59  C   UNL A   1      44.578  31.060  31.413  1.00  0.00     0.029 A 
ATOM     60  C   UNL A   1      44.889  29.808  30.883  1.00  0.00     0.049 A 
ATOM     61  H   UNL A   1      45.567  28.207  32.074  1.00  0.00     0.167 HD
ATOM     62  C   UNL A   1      44.838  28.012  29.166  1.00  0.00     0.074 A 
ATOM     63  C   UNL A   1      44.631  26.798  29.955  1.00  0.00     0.031 C 
ATOM     64  C   UNL A   1      45.001  29.321  29.526  1.00  0.00     0.034 A 
BRANCH  51  65
ATOM     65  C   UNL A   1      43.875  27.377  34.365  1.00  0.00     0.023 A 
ATOM     66  C   UNL A   1      43.948  26.145  33.670  1.00  0.00     0.012 A 
ATOM     67  C   UNL A   1      44.081  27.332  35.762  1.00  0.00     0.148 A 
ATOM     68  C   UNL A   1      44.123  24.929  34.337  1.00  0.00     0.002 A 
ATOM     69  C   UNL A   1      44.333  26.127  36.413  1.00  0.00     0.091 A 
ATOM     70  F   UNL A   1      43.910  28.428  36.503  1.00  0.00    -0.205 F 
ATOM     71  C   UNL A   1      44.317  24.919  35.711  1.00  0.00     0.022 A 
BRANCH  69  72
ATOM     72  S   UNL A   1      44.637  26.055  38.183  1.00  0.00     0.127 S 
ATOM     73  O   UNL A   1      45.771  26.965  38.320  1.00  0.00    -0.237 OA
ATOM     74  O   UNL A   1      43.372  26.555  38.722  1.00  0.00    -0.237 OA
ATOM     75  O   UNL A   1      44.899  24.653  38.478  1.00  0.00    -0.744 OA
ENDBRANCH  69  72
ENDBRANCH  51  65
BRANCH  52  76
ATOM     76  C   UNL A   1      42.389  25.104  26.417  1.00  0.00     0.023 A 
ATOM     77  C   UNL A   1      43.318  24.890  25.375  1.00  0.00     0.012 A 
ATOM     78  C   UNL A   1      41.565  24.026  26.805  1.00  0.00     0.148 A 
ATOM     79  C   UNL A   1      43.456  23.631  24.777  1.00  0.00     0.002 A 
ATOM     80  C   UNL A   1      41.703  22.777  26.201  1.00  0.00     0.091 A 
ATOM     81  F   UNL A   1      40.718  24.198  27.827  1.00  0.00    -0.205 F 
ATOM     82  C   UNL A   1      42.659  22.572  25.199  1.00  0.00     0.022 A 
BRANCH  80  83
ATOM     83  S   UNL A   1      40.725  21.355  26.705  1.00  0.00     0.127 S 
ATOM     84  O   UNL A   1      39.453  21.604  26.025  1.00  0.00    -0.237 OA
ATOM     85  O   UNL A   1      41.503  20.246  26.159  1.00  0.00    -0.237 OA
ATOM     86  O   UNL A   1      40.644  21.429  28.156  1.00  0.00    -0.744 OA
ENDBRANCH  80  83
ENDBRANCH  52  76
BRANCH  64  87
ATOM     87  C   UNL A   1      45.038  30.361  28.432  1.00  0.00     0.023 A 
ATOM     88  C   UNL A   1      43.870  30.852  27.809  1.00  0.00     0.012 A 
ATOM     89  C   UNL A   1      46.270  30.955  28.112  1.00  0.00     0.148 A 
ATOM     90  C   UNL A   1      43.936  31.878  26.862  1.00  0.00     0.002 A 
ATOM     91  C   UNL A   1      46.327  32.007  27.205  1.00  0.00     0.091 A 
ATOM     92  F   UNL A   1      47.376  30.487  28.712  1.00  0.00    -0.205 F 
ATOM     93  C   UNL A   1      45.163  32.463  26.568  1.00  0.00     0.022 A 
BRANCH  91  94
ATOM     94  S   UNL A   1      47.863  32.873  26.875  1.00  0.00     0.127 S 
ATOM     95  O   UNL A   1      47.471  33.800  25.817  1.00  0.00    -0.237 OA
ATOM     96  O   UNL A   1      48.156  33.504  28.163  1.00  0.00    -0.237 OA
ATOM     97  O   UNL A   1      48.823  31.844  26.490  1.00  0.00    -0.744 OA
ENDBRANCH  91  94
ENDBRANCH  64  87
ENDBRANCH  38  39
ENDBRANCH  30  33
ENDBRANCH  28  29
ENDBRANCH  27  28
ENDBRANCH   1  27
TORSDOF 19
ENDMDL
MODEL 2
REMARK VINA RESULT:     -11.4      1.829      3.591
REMARK SMILES Cc1nc(C)n(CC[C@H]2CCC[C@@]2([NH2+]C(C)C)C(=O)NCCCCNC(=O)c2ccc(-c3c4nc(c(-c5cccc(S(=O)(=O)[O-])c5F)c5ccc([nH]5)c(-c5cccc(S(=O)(=O)[O-])c5F)c5nc(c(-c6cccc(S(=O)(=O)[O-])c6F)c6ccc3[nH]6)C=C5)C=C4)cc2)n1
REMARK SMILES IDX 22 1 21 2 20 3 18 4 19 5 13 7 9 8 10 9 11 10 12 11 8 12 7 13
REMARK SMILES IDX 6 14 1 15 2 16 3 17 91 18 4 19 5 20 14 21 15 24 16 25 17 26
REMARK SMILES IDX 23 27 24 28 25 29 26 30 27 32 28 33 29 34 90 35 30 36 89 37
REMARK SMILES IDX 31 38 32 39 33 40 83 41 34 42 88 43 82 44 84 45 35 46 87 47
REMARK SMILES IDX 81 48 80 49 36 51 68 52 48 53 67 54 49 55 52 56 66 57 85 58
REMARK SMILES IDX 50 59 51 60 65 62 86 63 53 64 37 65 38 66 46 67 39 68 41 69
REMARK SMILES IDX 47 70 40 71 42 72 43 73 44 74 45 75 69 76 70 77 78 78 71 79
REMARK SMILES IDX 73 80 79 81 72 82 74 83 75 84 76 85 77 86 54 87 55 88 63 89
REMARK SMILES IDX 56 90 58 91 64 92 57 93 59 94 60 95 61 96 62 97
REMARK H PARENT 20 6 14 22 14 23 25 31 84 50 52 61
REMARK Flexibility Score: inf
ROOT
ATOM      1  C   UNL A   1      32.273  31.004  26.922  1.00  0.00     0.023 C 
ENDROOT
BRANCH   1   2
ATOM      2  C   UNL A   1      31.876  29.923  25.890  1.00  0.00     0.116 C 
BRANCH   2   3
ATOM      3  N   UNL A   1      32.792  29.720  24.775  1.00  0.00    -0.351 N 
ATOM      4  C   UNL A   1      32.754  28.942  23.641  1.00  0.00     0.281 C 
ATOM      5  O   UNL A   1      33.725  29.083  22.884  1.00  0.00    -0.268 OA
ATOM      6  H   UNL A   1      33.615  30.256  24.848  1.00  0.00     0.163 HD
BRANCH   4   7
ATOM      7  C   UNL A   1      31.616  27.892  23.273  1.00  0.00     0.178 C 
ATOM      8  C   UNL A   1      32.037  26.672  22.355  1.00  0.00     0.062 C 
ATOM      9  C   UNL A   1      30.823  25.728  22.532  1.00  0.00     0.011 C 
ATOM     10  C   UNL A   1      30.584  25.745  24.037  1.00  0.00     0.008 C 
ATOM     11  C   UNL A   1      31.175  27.074  24.533  1.00  0.00     0.079 C 
BRANCH   8  12
ATOM     12  C   UNL A   1      33.293  25.850  22.792  1.00  0.00     0.034 C 
BRANCH  12  13
ATOM     13  C   UNL A   1      33.307  24.404  22.296  1.00  0.00     0.147 C 
BRANCH  13  14
ATOM     14  N   UNL A   1      34.026  23.567  23.220  1.00  0.00    -0.250 N 
ATOM     15  C   UNL A   1      37.067  22.133  24.216  1.00  0.00     0.092 C 
ATOM     16  C   UNL A   1      35.673  22.518  23.920  1.00  0.00     0.147 A 
ATOM     17  N   UNL A   1      34.582  21.828  24.383  1.00  0.00    -0.217 NA
ATOM     18  N   UNL A   1      35.360  23.602  23.220  1.00  0.00    -0.156 NA
ATOM     19  C   UNL A   1      33.549  22.548  23.989  1.00  0.00     0.124 A 
ATOM     20  C   UNL A   1      32.112  22.296  24.263  1.00  0.00     0.089 C 
ENDBRANCH  13  14
ENDBRANCH  12  13
ENDBRANCH   8  12
BRANCH   7  21
ATOM     21  N   UNL A   1      30.502  28.621  22.604  1.00  0.00    -0.331 N 
ATOM     22  H   UNL A   1      30.079  27.972  21.940  1.00  0.00     0.347 HD
ATOM     23  H   UNL A   1      30.957  29.448  22.219  1.00  0.00     0.347 HD
BRANCH  21  24
ATOM     24  C   UNL A   1      29.416  29.172  23.405  1.00  0.00     0.176 C 
ATOM     25  C   UNL A   1      29.236  30.643  23.019  1.00  0.00     0.075 C 
ATOM     26  C   UNL A   1      28.105  28.433  23.120  1.00  0.00     0.075 C 
ENDBRANCH  21  24
ENDBRANCH   7  21
ENDBRANCH   4   7
ENDBRANCH   2   3
ENDBRANCH   1   2
BRANCH   1  27
ATOM     27  C   UNL A   1      33.745  31.122  27.369  1.00  0.00     0.023 C 
BRANCH  27  28
ATOM     28  C   UNL A   1      34.171  32.448  27.996  1.00  0.00     0.116 C 
BRANCH  28  29
ATOM     29  N   UNL A   1      34.074  32.572  29.449  1.00  0.00    -0.352 N 
ATOM     30  C   UNL A   1      34.973  32.091  30.406  1.00  0.00     0.251 C 
ATOM     31  H   UNL A   1      33.283  33.047  29.795  1.00  0.00     0.163 HD
ATOM     32  O   UNL A   1      34.705  32.161  31.593  1.00  0.00    -0.269 OA
BRANCH  30  33
ATOM     33  C   UNL A   1      36.270  31.499  29.971  1.00  0.00     0.039 A 
ATOM     34  C   UNL A   1      37.416  32.264  29.753  1.00  0.00     0.014 A 
ATOM     35  C   UNL A   1      36.343  30.131  29.779  1.00  0.00     0.014 A 
ATOM     36  C   UNL A   1      38.635  31.617  29.486  1.00  0.00     0.010 A 
ATOM     37  C   UNL A   1      37.551  29.482  29.625  1.00  0.00     0.010 A 
ATOM     38  C   UNL A   1      38.712  30.212  29.470  1.00  0.00    -0.014 A 
BRANCH  38  39
ATOM     39  C   UNL A   1      40.003  29.510  29.469  1.00  0.00     0.031 A 
ATOM     40  C   UNL A   1      40.549  29.242  30.830  1.00  0.00     0.074 A 
ATOM     41  C   UNL A   1      40.606  28.938  28.400  1.00  0.00     0.049 A 
ATOM     42  N   UNL A   1      41.547  29.836  31.393  1.00  0.00    -0.248 NA
ATOM     43  C   UNL A   1      39.826  28.321  31.719  1.00  0.00     0.031 C 
ATOM     44  C   UNL A   1      40.094  28.783  27.033  1.00  0.00     0.029 A 
ATOM     45  N   UNL A   1      41.790  28.254  28.348  1.00  0.00    -0.354 N 
ATOM     46  C   UNL A   1      41.737  29.191  32.612  1.00  0.00     0.074 A 
ATOM     47  C   UNL A   1      40.544  28.419  32.841  1.00  0.00     0.031 C 
ATOM     48  C   UNL A   1      40.829  27.859  26.373  1.00  0.00     0.029 A 
ATOM     49  C   UNL A   1      41.964  27.490  27.194  1.00  0.00     0.049 A 
ATOM     50  H   UNL A   1      42.463  28.297  29.065  1.00  0.00     0.167 HD
ATOM     51  C   UNL A   1      42.964  29.163  33.205  1.00  0.00     0.034 A 
ATOM     52  C   UNL A   1      42.958  26.603  26.938  1.00  0.00     0.034 A 
ATOM     53  C   UNL A   1      43.866  30.107  32.584  1.00  0.00     0.049 A 
ATOM     54  C   UNL A   1      44.096  26.958  27.813  1.00  0.00     0.074 A 
ATOM     55  C   UNL A   1      43.848  31.466  32.335  1.00  0.00     0.029 A 
ATOM     56  N   UNL A   1      44.828  29.590  31.751  1.00  0.00    -0.354 N 
ATOM     57  N   UNL A   1      44.790  28.052  27.681  1.00  0.00    -0.248 NA
ATOM     58  C   UNL A   1      44.212  26.291  29.097  1.00  0.00     0.031 C 
ATOM     59  C   UNL A   1      44.428  31.606  31.037  1.00  0.00     0.029 A 
ATOM     60  C   UNL A   1      44.828  30.341  30.607  1.00  0.00     0.049 A 
ATOM     61  H   UNL A   1      45.412  28.820  31.942  1.00  0.00     0.167 HD
ATOM     62  C   UNL A   1      45.016  28.466  28.986  1.00  0.00     0.074 A 
ATOM     63  C   UNL A   1      44.754  27.284  29.806  1.00  0.00     0.031 C 
ATOM     64  C   UNL A   1      45.103  29.795  29.296  1.00  0.00     0.034 A 
BRANCH  51  65
ATOM     65  C   UNL A   1      43.500  28.044  34.074  1.00  0.00     0.023 A 
ATOM     66  C   UNL A   1      44.068  28.415  35.317  1.00  0.00     0.012 A 
ATOM     67  C   UNL A   1      43.745  26.725  33.632  1.00  0.00     0.148 A 
ATOM     68  C   UNL A   1      44.907  27.556  36.032  1.00  0.00     0.002 A 
ATOM     69  C   UNL A   1      44.517  25.846  34.386  1.00  0.00     0.091 A 
ATOM     70  F   UNL A   1      43.346  26.336  32.419  1.00  0.00    -0.205 F 
ATOM     71  C   UNL A   1      45.132  26.268  35.567  1.00  0.00     0.022 A 
BRANCH  69  72
ATOM     72  S   UNL A   1      44.807  24.151  33.859  1.00  0.00     0.127 S 
ATOM     73  O   UNL A   1      43.457  23.599  33.907  1.00  0.00    -0.237 OA
ATOM     74  O   UNL A   1      45.350  24.347  32.514  1.00  0.00    -0.237 OA
ATOM     75  O   UNL A   1      45.760  23.603  34.814  1.00  0.00    -0.744 OA
ENDBRANCH  69  72
ENDBRANCH  51  65
BRANCH  52  76
ATOM     76  C   UNL A   1      42.963  25.358  26.133  1.00  0.00     0.023 A 
ATOM     77  C   UNL A   1      43.971  25.154  25.166  1.00  0.00     0.012 A 
ATOM     78  C   UNL A   1      42.177  24.250  26.517  1.00  0.00     0.148 A 
ATOM     79  C   UNL A   1      44.222  23.881  24.640  1.00  0.00     0.002 A 
ATOM     80  C   UNL A   1      42.427  22.987  25.985  1.00  0.00     0.091 A 
ATOM     81  F   UNL A   1      41.253  24.417  27.472  1.00  0.00    -0.205 F 
ATOM     82  C   UNL A   1      43.459  22.795  25.059  1.00  0.00     0.022 A 
BRANCH  80  83
ATOM     83  S   UNL A   1      41.499  21.532  26.491  1.00  0.00     0.127 S 
ATOM     84  O   UNL A   1      42.106  20.483  25.670  1.00  0.00    -0.237 OA
ATOM     85  O   UNL A   1      41.815  21.453  27.914  1.00  0.00    -0.237 OA
ATOM     86  O   UNL A   1      40.111  21.817  26.157  1.00  0.00    -0.744 OA
ENDBRANCH  80  83
ENDBRANCH  52  76
BRANCH  64  87
ATOM     87  C   UNL A   1      45.233  30.784  28.162  1.00  0.00     0.023 A 
ATOM     88  C   UNL A   1      44.123  31.244  27.421  1.00  0.00     0.012 A 
ATOM     89  C   UNL A   1      46.489  31.365  27.919  1.00  0.00     0.148 A 
ATOM     90  C   UNL A   1      44.269  32.225  26.437  1.00  0.00     0.002 A 
ATOM     91  C   UNL A   1      46.623  32.375  26.973  1.00  0.00     0.091 A 
ATOM     92  F   UNL A   1      47.539  30.928  28.631  1.00  0.00    -0.205 F 
ATOM     93  C   UNL A   1      45.518  32.798  26.220  1.00  0.00     0.022 A 
BRANCH  91  94
ATOM     94  S   UNL A   1      48.183  33.228  26.733  1.00  0.00     0.127 S 
ATOM     95  O   UNL A   1      47.853  34.177  25.674  1.00  0.00    -0.237 OA
ATOM     96  O   UNL A   1      48.419  33.833  28.045  1.00  0.00    -0.237 OA
ATOM     97  O   UNL A   1      49.150  32.194  26.377  1.00  0.00    -0.744 OA
ENDBRANCH  91  94
ENDBRANCH  64  87
ENDBRANCH  38  39
ENDBRANCH  30  33
ENDBRANCH  28  29
ENDBRANCH  27  28
ENDBRANCH   1  27
TORSDOF 19
ENDMDL
MODEL 3
REMARK VINA RESULT:     -11.0      2.234      4.060
REMARK SMILES Cc1nc(C)n(CC[C@H]2CCC[C@@]2([NH2+]C(C)C)C(=O)NCCCCNC(=O)c2ccc(-c3c4nc(c(-c5cccc(S(=O)(=O)[O-])c5F)c5ccc([nH]5)c(-c5cccc(S(=O)(=O)[O-])c5F)c5nc(c(-c6cccc(S(=O)(=O)[O-])c6F)c6ccc3[nH]6)C=C5)C=C4)cc2)n1
REMARK SMILES IDX 22 1 21 2 20 3 18 4 19 5 13 7 9 8 10 9 11 10 12 11 8 12 7 13
REMARK SMILES IDX 6 14 1 15 2 16 3 17 91 18 4 19 5 20 14 21 15 24 16 25 17 26
REMARK SMILES IDX 23 27 24 28 25 29 26 30 27 32 28 33 29 34 90 35 30 36 89 37
REMARK SMILES IDX 31 38 32 39 33 40 83 41 34 42 88 43 82 44 84 45 35 46 87 47
REMARK SMILES IDX 81 48 80 49 36 51 68 52 48 53 67 54 49 55 52 56 66 57 85 58
REMARK SMILES IDX 50 59 51 60 65 62 86 63 53 64 37 65 38 66 46 67 39 68 41 69
REMARK SMILES IDX 47 70 40 71 42 72 43 73 44 74 45 75 69 76 70 77 78 78 71 79
REMARK SMILES IDX 73 80 79 81 72 82 74 83 75 84 76 85 77 86 54 87 55 88 63 89
REMARK SMILES IDX 56 90 58 91 64 92 57 93 59 94 60 95 61 96 62 97
REMARK H PARENT 20 6 14 22 14 23 25 31 84 50 52 61
REMARK Flexibility Score: inf
ROOT
ATOM      1  C   UNL A   1      33.037  28.341  26.025  1.00  0.00     0.023 C 
ENDROOT
BRANCH   1   2
ATOM      2  C   UNL A   1      33.143  26.813  25.806  1.00  0.00     0.116 C 
BRANCH   2   3
ATOM      3  N   UNL A   1      32.034  26.006  26.298  1.00  0.00    -0.351 N 
ATOM      4  C   UNL A   1      31.432  24.848  25.861  1.00  0.00     0.281 C 
ATOM      5  O   UNL A   1      30.526  24.430  26.595  1.00  0.00    -0.268 OA
ATOM      6  H   UNL A   1      31.628  26.368  27.119  1.00  0.00     0.163 HD
BRANCH   4   7
ATOM      7  C   UNL A   1      31.781  24.070  24.519  1.00  0.00     0.178 C 
ATOM      8  C   UNL A   1      33.315  23.945  24.143  1.00  0.00     0.062 C 
ATOM      9  C   UNL A   1      33.268  22.855  23.044  1.00  0.00     0.011 C 
ATOM     10  C   UNL A   1      32.348  21.797  23.640  1.00  0.00     0.008 C 
ATOM     11  C   UNL A   1      31.465  22.543  24.654  1.00  0.00     0.079 C 
BRANCH   8  12
ATOM     12  C   UNL A   1      34.279  23.404  25.249  1.00  0.00     0.034 C 
BRANCH  12  13
ATOM     13  C   UNL A   1      35.655  24.069  25.269  1.00  0.00     0.147 C 
BRANCH  13  14
ATOM     14  N   UNL A   1      36.692  23.072  25.233  1.00  0.00    -0.250 N 
ATOM     15  C   UNL A   1      37.606  19.723  24.742  1.00  0.00     0.092 C 
ATOM     16  C   UNL A   1      37.445  21.142  25.111  1.00  0.00     0.147 A 
ATOM     17  N   UNL A   1      38.353  21.836  25.869  1.00  0.00    -0.217 NA
ATOM     18  N   UNL A   1      36.426  21.883  24.689  1.00  0.00    -0.156 NA
ATOM     19  C   UNL A   1      37.894  23.074  25.875  1.00  0.00     0.124 A 
ATOM     20  C   UNL A   1      38.514  24.266  26.506  1.00  0.00     0.089 C 
ENDBRANCH  13  14
ENDBRANCH  12  13
ENDBRANCH   8  12
BRANCH   7  21
ATOM     21  N   UNL A   1      31.074  24.738  23.390  1.00  0.00    -0.331 N 
ATOM     22  H   UNL A   1      30.110  24.884  23.689  1.00  0.00     0.347 HD
ATOM     23  H   UNL A   1      31.227  24.105  22.606  1.00  0.00     0.347 HD
BRANCH  21  24
ATOM     24  C   UNL A   1      31.560  26.019  22.892  1.00  0.00     0.176 C 
ATOM     25  C   UNL A   1      31.847  25.873  21.395  1.00  0.00     0.075 C 
ATOM     26  C   UNL A   1      30.500  27.109  23.079  1.00  0.00     0.075 C 
ENDBRANCH  21  24
ENDBRANCH   7  21
ENDBRANCH   4   7
ENDBRANCH   2   3
ENDBRANCH   1   2
BRANCH   1  27
ATOM     27  C   UNL A   1      34.321  29.167  26.243  1.00  0.00     0.023 C 
BRANCH  27  28
ATOM     28  C   UNL A   1      34.734  29.429  27.690  1.00  0.00     0.116 C 
BRANCH  28  29
ATOM     29  N   UNL A   1      34.564  30.786  28.206  1.00  0.00    -0.352 N 
ATOM     30  C   UNL A   1      35.334  31.428  29.182  1.00  0.00     0.251 C 
ATOM     31  H   UNL A   1      33.822  31.308  27.824  1.00  0.00     0.163 HD
ATOM     32  O   UNL A   1      35.005  32.524  29.603  1.00  0.00    -0.269 OA
BRANCH  30  33
ATOM     33  C   UNL A   1      36.568  30.773  29.701  1.00  0.00     0.039 A 
ATOM     34  C   UNL A   1      36.553  29.534  30.343  1.00  0.00     0.014 A 
ATOM     35  C   UNL A   1      37.781  31.418  29.538  1.00  0.00     0.014 A 
ATOM     36  C   UNL A   1      37.772  28.917  30.674  1.00  0.00     0.010 A 
ATOM     37  C   UNL A   1      38.981  30.776  29.760  1.00  0.00     0.010 A 
ATOM     38  C   UNL A   1      38.998  29.522  30.336  1.00  0.00    -0.014 A 
BRANCH  38  39
ATOM     39  C   UNL A   1      40.268  28.788  30.417  1.00  0.00     0.031 A 
ATOM     40  C   UNL A   1      40.829  28.694  31.794  1.00  0.00     0.074 A 
ATOM     41  C   UNL A   1      40.836  28.055  29.429  1.00  0.00     0.049 A 
ATOM     42  N   UNL A   1      41.853  29.330  32.256  1.00  0.00    -0.248 NA
ATOM     43  C   UNL A   1      40.095  27.927  32.811  1.00  0.00     0.031 C 
ATOM     44  C   UNL A   1      40.297  27.730  28.104  1.00  0.00     0.029 A 
ATOM     45  N   UNL A   1      42.000  27.336  29.457  1.00  0.00    -0.354 N 
ATOM     46  C   UNL A   1      42.045  28.854  33.551  1.00  0.00     0.074 A 
ATOM     47  C   UNL A   1      40.834  28.157  33.900  1.00  0.00     0.031 C 
ATOM     48  C   UNL A   1      40.994  26.702  27.568  1.00  0.00     0.029 A 
ATOM     49  C   UNL A   1      42.132  26.415  28.418  1.00  0.00     0.049 A 
ATOM     50  H   UNL A   1      42.685  27.457  30.153  1.00  0.00     0.167 HD
ATOM     51  C   UNL A   1      43.280  28.871  34.126  1.00  0.00     0.034 A 
ATOM     52  C   UNL A   1      43.096  25.471  28.274  1.00  0.00     0.034 A 
ATOM     53  C   UNL A   1      44.198  29.692  33.369  1.00  0.00     0.049 A 
ATOM     54  C   UNL A   1      44.258  25.909  29.078  1.00  0.00     0.074 A 
ATOM     55  C   UNL A   1      44.214  31.003  32.934  1.00  0.00     0.029 A 
ATOM     56  N   UNL A   1      45.131  29.036  32.603  1.00  0.00    -0.354 N 
ATOM     57  N   UNL A   1      44.980  26.953  28.786  1.00  0.00    -0.248 NA
ATOM     58  C   UNL A   1      44.377  25.423  30.440  1.00  0.00     0.031 C 
ATOM     59  C   UNL A   1      44.776  30.946  31.622  1.00  0.00     0.029 A 
ATOM     60  C   UNL A   1      45.133  29.621  31.366  1.00  0.00     0.049 A 
ATOM     61  H   UNL A   1      45.697  28.282  32.892  1.00  0.00     0.167 HD
ATOM     62  C   UNL A   1      45.240  27.536  30.018  1.00  0.00     0.074 A 
ATOM     63  C   UNL A   1      44.959  26.487  30.998  1.00  0.00     0.031 C 
ATOM     64  C   UNL A   1      45.370  28.892  30.140  1.00  0.00     0.034 A 
BRANCH  51  65
ATOM     65  C   UNL A   1      43.799  27.866  35.134  1.00  0.00     0.023 A 
ATOM     66  C   UNL A   1      44.533  28.382  36.231  1.00  0.00     0.012 A 
ATOM     67  C   UNL A   1      43.868  26.472  34.924  1.00  0.00     0.148 A 
ATOM     68  C   UNL A   1      45.359  27.571  37.014  1.00  0.00     0.002 A 
ATOM     69  C   UNL A   1      44.631  25.656  35.754  1.00  0.00     0.091 A 
ATOM     70  F   UNL A   1      43.304  25.926  33.844  1.00  0.00    -0.205 F 
ATOM     71  C   UNL A   1      45.408  26.205  36.777  1.00  0.00     0.022 A 
BRANCH  69  72
ATOM     72  S   UNL A   1      44.698  23.873  35.525  1.00  0.00     0.127 S 
ATOM     73  O   UNL A   1      45.491  23.768  34.304  1.00  0.00    -0.237 OA
ATOM     74  O   UNL A   1      45.379  23.443  36.747  1.00  0.00    -0.237 OA
ATOM     75  O   UNL A   1      43.311  23.440  35.431  1.00  0.00    -0.744 OA
ENDBRANCH  69  72
ENDBRANCH  51  65
BRANCH  52  76
ATOM     76  C   UNL A   1      43.052  24.127  27.650  1.00  0.00     0.023 A 
ATOM     77  C   UNL A   1      41.873  23.355  27.734  1.00  0.00     0.012 A 
ATOM     78  C   UNL A   1      44.040  23.733  26.721  1.00  0.00     0.148 A 
ATOM     79  C   UNL A   1      41.664  22.260  26.887  1.00  0.00     0.002 A 
ATOM     80  C   UNL A   1      43.828  22.639  25.885  1.00  0.00     0.091 A 
ATOM     81  F   UNL A   1      45.139  24.487  26.592  1.00  0.00    -0.205 F 
ATOM     82  C   UNL A   1      42.635  21.910  25.954  1.00  0.00     0.022 A 
BRANCH  80  83
ATOM     83  S   UNL A   1      45.025  22.136  24.641  1.00  0.00     0.127 S 
ATOM     84  O   UNL A   1      46.193  21.804  25.459  1.00  0.00    -0.237 OA
ATOM     85  O   UNL A   1      44.361  20.988  24.031  1.00  0.00    -0.237 OA
ATOM     86  O   UNL A   1      45.213  23.299  23.786  1.00  0.00    -0.744 OA
ENDBRANCH  80  83
ENDBRANCH  52  76
BRANCH  64  87
ATOM     87  C   UNL A   1      45.509  29.711  28.878  1.00  0.00     0.023 A 
ATOM     88  C   UNL A   1      44.401  30.080  28.084  1.00  0.00     0.012 A 
ATOM     89  C   UNL A   1      46.772  30.232  28.552  1.00  0.00     0.148 A 
ATOM     90  C   UNL A   1      44.557  30.911  26.972  1.00  0.00     0.002 A 
ATOM     91  C   UNL A   1      46.916  31.096  27.473  1.00  0.00     0.091 A 
ATOM     92  F   UNL A   1      47.820  29.881  29.314  1.00  0.00    -0.205 F 
ATOM     93  C   UNL A   1      45.814  31.429  26.673  1.00  0.00     0.022 A 
BRANCH  91  94
ATOM     94  S   UNL A   1      48.488  31.882  27.111  1.00  0.00     0.127 S 
ATOM     95  O   UNL A   1      48.118  32.846  26.078  1.00  0.00    -0.237 OA
ATOM     96  O   UNL A   1      48.851  32.476  28.399  1.00  0.00    -0.237 OA
ATOM     97  O   UNL A   1      49.379  30.809  26.683  1.00  0.00    -0.744 OA
ENDBRANCH  91  94
ENDBRANCH  64  87
ENDBRANCH  38  39
ENDBRANCH  30  33
ENDBRANCH  28  29
ENDBRANCH  27  28
ENDBRANCH   1  27
TORSDOF 19
ENDMDL
