MODEL 1
REMARK VINA RESULT:     -11.7      0.000      0.000
REMARK SMILES CCNC(=O)c1ccc(N[C@@H]2COC[C@@]2(C)C(=O)NCCCCNC(=O)c2ccc(-c3c4nc(c(-c5cccc(S(=O)(=O)[O-])c5F)c5ccc([nH]5)c(-c5cccc(S(=O)(=O)[O-])c5F)c5nc(c(-c6cccc(S(=O)(=O)[O-])c6F)c6ccc3[nH]6)C=C5)C=C4)cc2)nn1
REMARK SMILES IDX 21 1 20 2 19 3 17 4 18 5 15 7 11 8 12 9 13 10 14 11 16 12
REMARK SMILES IDX 10 13 9 15 6 16 7 17 91 18 8 19 90 20 4 21 3 22 5 24 2 25
REMARK SMILES IDX 1 26 22 27 23 28 24 29 25 30 26 32 27 33 28 34 89 35 29 36
REMARK SMILES IDX 88 37 30 38 31 39 32 40 82 41 33 42 87 43 81 44 83 45 34 46
REMARK SMILES IDX 86 47 80 48 79 49 35 51 67 52 47 53 66 54 48 55 51 56 65 57
REMARK SMILES IDX 84 58 49 59 50 60 64 62 85 63 52 64 36 65 37 66 45 67 38 68
REMARK SMILES IDX 40 69 46 70 39 71 41 72 42 73 43 74 44 75 68 76 69 77 77 78
REMARK SMILES IDX 70 79 72 80 78 81 71 82 73 83 74 84 75 85 76 86 53 87 54 88
REMARK SMILES IDX 62 89 55 90 57 91 63 92 56 93 58 94 59 95 60 96 61 97
REMARK H PARENT 19 6 10 14 3 23 24 31 83 50 51 61
REMARK Flexibility Score: inf
ROOT
ATOM      1  C   UNL A   1      34.725  30.713  27.755  1.00  0.00     0.023 C 
ENDROOT
BRANCH   1   2
ATOM      2  C   UNL A   1      34.253  29.338  27.301  1.00  0.00     0.116 C 
BRANCH   2   3
ATOM      3  N   UNL A   1      32.968  28.957  27.861  1.00  0.00    -0.355 N 
ATOM      4  C   UNL A   1      32.004  28.107  27.396  1.00  0.00     0.230 C 
ATOM      5  O   UNL A   1      31.056  27.873  28.152  1.00  0.00    -0.274 OA
ATOM      6  H   UNL A   1      32.754  29.385  28.722  1.00  0.00     0.163 HD
BRANCH   4   7
ATOM      7  C   UNL A   1      32.103  27.455  26.012  1.00  0.00     0.092 C 
ATOM      8  C   UNL A   1      30.786  26.726  25.664  1.00  0.00     0.124 C 
ATOM      9  C   UNL A   1      30.701  26.831  24.152  1.00  0.00     0.186 C 
ATOM     10  O   UNL A   1      31.256  28.113  23.826  1.00  0.00    -0.378 OA
ATOM     11  C   UNL A   1      32.099  28.532  24.914  1.00  0.00     0.179 C 
ATOM     12  C   UNL A   1      33.353  26.567  25.927  1.00  0.00     0.026 C 
BRANCH   8  13
ATOM     13  N   UNL A   1      30.564  25.402  26.251  1.00  0.00    -0.362 N 
ATOM     14  H   UNL A   1      29.782  25.302  26.841  1.00  0.00     0.162 HD
BRANCH  13  15
ATOM     15  C   UNL A   1      31.348  24.286  26.056  1.00  0.00     0.149 A 
ATOM     16  C   UNL A   1      32.490  21.836  25.670  1.00  0.00     0.150 A 
ATOM     17  C   UNL A   1      32.088  22.548  24.557  1.00  0.00     0.040 A 
ATOM     18  N   UNL A   1      32.404  22.334  26.916  1.00  0.00    -0.143 NA
ATOM     19  C   UNL A   1      31.518  23.803  24.762  1.00  0.00     0.051 A 
ATOM     20  N   UNL A   1      31.837  23.575  27.094  1.00  0.00    -0.132 NA
BRANCH  16  21
ATOM     21  C   UNL A   1      32.996  20.457  25.534  1.00  0.00     0.271 C 
ATOM     22  N   UNL A   1      34.352  20.235  25.525  1.00  0.00    -0.351 N 
ATOM     23  H   UNL A   1      34.639  19.314  25.328  1.00  0.00     0.163 HD
ATOM     24  O   UNL A   1      32.214  19.521  25.384  1.00  0.00    -0.267 OA
BRANCH  22  25
ATOM     25  C   UNL A   1      35.413  21.191  25.770  1.00  0.00     0.113 C 
ATOM     26  C   UNL A   1      36.642  20.853  24.948  1.00  0.00     0.027 C 
ENDBRANCH  22  25
ENDBRANCH  16  21
ENDBRANCH  13  15
ENDBRANCH   8  13
ENDBRANCH   4   7
ENDBRANCH   2   3
ENDBRANCH   1   2
BRANCH   1  27
ATOM     27  C   UNL A   1      33.618  31.722  28.046  1.00  0.00     0.023 C 
BRANCH  27  28
ATOM     28  C   UNL A   1      33.532  32.906  27.089  1.00  0.00     0.116 C 
BRANCH  28  29
ATOM     29  N   UNL A   1      32.890  34.078  27.669  1.00  0.00    -0.352 N 
ATOM     30  C   UNL A   1      33.196  34.754  28.827  1.00  0.00     0.251 C 
ATOM     31  H   UNL A   1      32.127  34.437  27.160  1.00  0.00     0.163 HD
ATOM     32  O   UNL A   1      32.474  35.670  29.214  1.00  0.00    -0.269 OA
BRANCH  30  33
ATOM     33  C   UNL A   1      34.375  34.349  29.621  1.00  0.00     0.039 A 
ATOM     34  C   UNL A   1      34.177  33.743  30.865  1.00  0.00     0.014 A 
ATOM     35  C   UNL A   1      35.667  34.531  29.123  1.00  0.00     0.014 A 
ATOM     36  C   UNL A   1      35.273  33.238  31.570  1.00  0.00     0.010 A 
ATOM     37  C   UNL A   1      36.748  33.963  29.792  1.00  0.00     0.010 A 
ATOM     38  C   UNL A   1      36.562  33.306  31.018  1.00  0.00    -0.014 A 
BRANCH  38  39
ATOM     39  C   UNL A   1      37.727  32.671  31.688  1.00  0.00     0.031 A 
ATOM     40  C   UNL A   1      38.440  31.518  31.036  1.00  0.00     0.074 A 
ATOM     41  C   UNL A   1      38.073  33.061  32.932  1.00  0.00     0.049 A 
ATOM     42  N   UNL A   1      39.417  30.785  31.502  1.00  0.00    -0.248 NA
ATOM     43  C   UNL A   1      37.974  31.115  29.698  1.00  0.00     0.031 C 
ATOM     44  C   UNL A   1      37.402  34.106  33.710  1.00  0.00     0.029 A 
ATOM     45  N   UNL A   1      39.053  32.600  33.776  1.00  0.00    -0.354 N 
ATOM     46  C   UNL A   1      39.655  29.812  30.539  1.00  0.00     0.074 A 
ATOM     47  C   UNL A   1      38.701  30.029  29.473  1.00  0.00     0.031 C 
ATOM     48  C   UNL A   1      37.988  34.204  34.914  1.00  0.00     0.029 A 
ATOM     49  C   UNL A   1      39.058  33.216  35.006  1.00  0.00     0.049 A 
ATOM     50  H   UNL A   1      39.693  31.896  33.524  1.00  0.00     0.167 HD
ATOM     51  C   UNL A   1      40.601  28.843  30.527  1.00  0.00     0.034 A 
ATOM     52  C   UNL A   1      39.833  33.007  36.089  1.00  0.00     0.034 A 
ATOM     53  C   UNL A   1      41.589  28.669  31.556  1.00  0.00     0.049 A 
ATOM     54  C   UNL A   1      40.921  31.969  36.019  1.00  0.00     0.074 A 
ATOM     55  C   UNL A   1      42.656  27.787  31.584  1.00  0.00     0.029 A 
ATOM     56  N   UNL A   1      41.636  29.390  32.739  1.00  0.00    -0.354 N 
ATOM     57  N   UNL A   1      41.243  31.177  35.026  1.00  0.00    -0.248 NA
ATOM     58  C   UNL A   1      41.780  31.823  37.204  1.00  0.00     0.031 C 
ATOM     59  C   UNL A   1      43.341  27.968  32.790  1.00  0.00     0.029 A 
ATOM     60  C   UNL A   1      42.710  28.971  33.505  1.00  0.00     0.049 A 
ATOM     61  H   UNL A   1      41.000  30.097  32.995  1.00  0.00     0.167 HD
ATOM     62  C   UNL A   1      42.358  30.465  35.450  1.00  0.00     0.074 A 
ATOM     63  C   UNL A   1      42.672  30.936  36.783  1.00  0.00     0.031 C 
ATOM     64  C   UNL A   1      43.049  29.495  34.803  1.00  0.00     0.034 A 
BRANCH  51  65
ATOM     65  C   UNL A   1      40.663  27.937  29.327  1.00  0.00     0.023 A 
ATOM     66  C   UNL A   1      39.784  26.838  29.246  1.00  0.00     0.012 A 
ATOM     67  C   UNL A   1      41.531  28.211  28.252  1.00  0.00     0.148 A 
ATOM     68  C   UNL A   1      39.785  26.010  28.125  1.00  0.00     0.002 A 
ATOM     69  C   UNL A   1      41.498  27.403  27.120  1.00  0.00     0.091 A 
ATOM     70  F   UNL A   1      42.374  29.247  28.357  1.00  0.00    -0.205 F 
ATOM     71  C   UNL A   1      40.632  26.298  27.060  1.00  0.00     0.022 A 
BRANCH  69  72
ATOM     72  S   UNL A   1      42.495  27.733  25.663  1.00  0.00     0.127 S 
ATOM     73  O   UNL A   1      41.936  29.005  25.205  1.00  0.00    -0.237 OA
ATOM     74  O   UNL A   1      43.843  27.826  26.225  1.00  0.00    -0.237 OA
ATOM     75  O   UNL A   1      42.287  26.602  24.769  1.00  0.00    -0.744 OA
ENDBRANCH  69  72
ENDBRANCH  51  65
BRANCH  52  76
ATOM     76  C   UNL A   1      39.658  33.847  37.307  1.00  0.00     0.023 A 
ATOM     77  C   UNL A   1      40.201  35.147  37.330  1.00  0.00     0.012 A 
ATOM     78  C   UNL A   1      38.947  33.381  38.429  1.00  0.00     0.148 A 
ATOM     79  C   UNL A   1      40.069  35.955  38.460  1.00  0.00     0.002 A 
ATOM     80  C   UNL A   1      38.772  34.212  39.531  1.00  0.00     0.091 A 
ATOM     81  F   UNL A   1      38.452  32.137  38.398  1.00  0.00    -0.205 F 
ATOM     82  C   UNL A   1      39.346  35.492  39.556  1.00  0.00     0.022 A 
BRANCH  80  83
ATOM     83  S   UNL A   1      37.742  33.740  40.925  1.00  0.00     0.127 S 
ATOM     84  O   UNL A   1      38.619  32.827  41.653  1.00  0.00    -0.237 OA
ATOM     85  O   UNL A   1      37.506  35.024  41.585  1.00  0.00    -0.237 OA
ATOM     86  O   UNL A   1      36.547  33.147  40.337  1.00  0.00    -0.744 OA
ENDBRANCH  80  83
ENDBRANCH  52  76
BRANCH  64  87
ATOM     87  C   UNL A   1      44.236  28.893  35.506  1.00  0.00     0.023 A 
ATOM     88  C   UNL A   1      45.517  29.443  35.307  1.00  0.00     0.012 A 
ATOM     89  C   UNL A   1      44.070  27.838  36.427  1.00  0.00     0.148 A 
ATOM     90  C   UNL A   1      46.620  28.937  35.993  1.00  0.00     0.002 A 
ATOM     91  C   UNL A   1      45.167  27.369  37.140  1.00  0.00     0.091 A 
ATOM     92  F   UNL A   1      42.846  27.315  36.587  1.00  0.00    -0.205 F 
ATOM     93  C   UNL A   1      46.443  27.909  36.917  1.00  0.00     0.022 A 
BRANCH  91  94
ATOM     94  S   UNL A   1      45.013  26.115  38.417  1.00  0.00     0.127 S 
ATOM     95  O   UNL A   1      44.647  24.936  37.633  1.00  0.00    -0.237 OA
ATOM     96  O   UNL A   1      46.363  26.076  38.982  1.00  0.00    -0.237 OA
ATOM     97  O   UNL A   1      43.992  26.602  39.333  1.00  0.00    -0.744 OA
ENDBRANCH  91  94
ENDBRANCH  64  87
ENDBRANCH  38  39
ENDBRANCH  30  33
ENDBRANCH  28  29
ENDBRANCH  27  28
ENDBRANCH   1  27
TORSDOF 18
ENDMDL
MODEL 2
REMARK VINA RESULT:     -11.7      2.704      7.869
REMARK SMILES CCNC(=O)c1ccc(N[C@@H]2COC[C@@]2(C)C(=O)NCCCCNC(=O)c2ccc(-c3c4nc(c(-c5cccc(S(=O)(=O)[O-])c5F)c5ccc([nH]5)c(-c5cccc(S(=O)(=O)[O-])c5F)c5nc(c(-c6cccc(S(=O)(=O)[O-])c6F)c6ccc3[nH]6)C=C5)C=C4)cc2)nn1
REMARK SMILES IDX 21 1 20 2 19 3 17 4 18 5 15 7 11 8 12 9 13 10 14 11 16 12
REMARK SMILES IDX 10 13 9 15 6 16 7 17 91 18 8 19 90 20 4 21 3 22 5 24 2 25
REMARK SMILES IDX 1 26 22 27 23 28 24 29 25 30 26 32 27 33 28 34 89 35 29 36
REMARK SMILES IDX 88 37 30 38 31 39 32 40 82 41 33 42 87 43 81 44 83 45 34 46
REMARK SMILES IDX 86 47 80 48 79 49 35 51 67 52 47 53 66 54 48 55 51 56 65 57
REMARK SMILES IDX 84 58 49 59 50 60 64 62 85 63 52 64 36 65 37 66 45 67 38 68
REMARK SMILES IDX 40 69 46 70 39 71 41 72 42 73 43 74 44 75 68 76 69 77 77 78
REMARK SMILES IDX 70 79 72 80 78 81 71 82 73 83 74 84 75 85 76 86 53 87 54 88
REMARK SMILES IDX 62 89 55 90 57 91 63 92 56 93 58 94 59 95 60 96 61 97
REMARK H PARENT 19 6 10 14 3 23 24 31 83 50 51 61
REMARK Flexibility Score: inf
ROOT
ATOM      1  C   UNL A   1      31.708  29.032  27.316  1.00  0.00     0.023 C 
ENDROOT
BRANCH   1   2
ATOM      2  C   UNL A   1      31.984  27.848  26.399  1.00  0.00     0.116 C 
BRANCH   2   3
ATOM      3  N   UNL A   1      31.399  26.605  26.873  1.00  0.00    -0.355 N 
ATOM      4  C   UNL A   1      31.632  25.308  26.508  1.00  0.00     0.230 C 
ATOM      5  O   UNL A   1      31.075  24.434  27.177  1.00  0.00    -0.274 OA
ATOM      6  H   UNL A   1      30.720  26.715  27.577  1.00  0.00     0.163 HD
BRANCH   4   7
ATOM      7  C   UNL A   1      32.557  24.954  25.338  1.00  0.00     0.092 C 
ATOM      8  C   UNL A   1      32.325  23.493  24.891  1.00  0.00     0.124 C 
ATOM      9  C   UNL A   1      32.633  23.515  23.405  1.00  0.00     0.186 C 
ATOM     10  O   UNL A   1      32.176  24.792  22.938  1.00  0.00    -0.378 OA
ATOM     11  C   UNL A   1      32.110  25.687  24.063  1.00  0.00     0.179 C 
ATOM     12  C   UNL A   1      34.016  25.277  25.693  1.00  0.00     0.026 C 
BRANCH   8  13
ATOM     13  N   UNL A   1      32.949  22.431  25.684  1.00  0.00    -0.362 N 
ATOM     14  H   UNL A   1      33.324  22.688  26.557  1.00  0.00     0.162 HD
BRANCH  13  15
ATOM     15  C   UNL A   1      33.060  21.106  25.321  1.00  0.00     0.149 A 
ATOM     16  C   UNL A   1      33.269  18.644  24.158  1.00  0.00     0.150 A 
ATOM     17  C   UNL A   1      34.431  19.350  24.397  1.00  0.00     0.040 A 
ATOM     18  N   UNL A   1      32.060  19.092  24.541  1.00  0.00    -0.143 NA
ATOM     19  C   UNL A   1      34.317  20.600  25.002  1.00  0.00     0.051 A 
ATOM     20  N   UNL A   1      31.972  20.329  25.136  1.00  0.00    -0.132 NA
BRANCH  16  21
ATOM     21  C   UNL A   1      33.306  17.368  23.419  1.00  0.00     0.271 C 
ATOM     22  N   UNL A   1      33.818  16.250  24.032  1.00  0.00    -0.351 N 
ATOM     23  H   UNL A   1      33.917  15.452  23.464  1.00  0.00     0.163 HD
ATOM     24  O   UNL A   1      32.926  17.315  22.252  1.00  0.00    -0.267 OA
BRANCH  22  25
ATOM     25  C   UNL A   1      34.232  16.101  25.413  1.00  0.00     0.113 C 
ATOM     26  C   UNL A   1      35.719  15.817  25.501  1.00  0.00     0.027 C 
ENDBRANCH  22  25
ENDBRANCH  16  21
ENDBRANCH  13  15
ENDBRANCH   8  13
ENDBRANCH   4   7
ENDBRANCH   2   3
ENDBRANCH   1   2
BRANCH   1  27
ATOM     27  C   UNL A   1      31.881  30.408  26.677  1.00  0.00     0.023 C 
BRANCH  27  28
ATOM     28  C   UNL A   1      33.156  31.157  27.053  1.00  0.00     0.116 C 
BRANCH  28  29
ATOM     29  N   UNL A   1      32.950  32.580  27.280  1.00  0.00    -0.352 N 
ATOM     30  C   UNL A   1      33.654  33.443  28.087  1.00  0.00     0.251 C 
ATOM     31  H   UNL A   1      32.199  32.983  26.786  1.00  0.00     0.163 HD
ATOM     32  O   UNL A   1      33.270  34.601  28.233  1.00  0.00    -0.269 OA
BRANCH  30  33
ATOM     33  C   UNL A   1      34.852  32.961  28.805  1.00  0.00     0.039 A 
ATOM     34  C   UNL A   1      34.688  32.296  30.024  1.00  0.00     0.014 A 
ATOM     35  C   UNL A   1      36.127  33.127  28.260  1.00  0.00     0.014 A 
ATOM     36  C   UNL A   1      35.796  31.721  30.652  1.00  0.00     0.010 A 
ATOM     37  C   UNL A   1      37.216  32.491  28.849  1.00  0.00     0.010 A 
ATOM     38  C   UNL A   1      37.062  31.777  30.047  1.00  0.00    -0.014 A 
BRANCH  38  39
ATOM     39  C   UNL A   1      38.232  31.072  30.631  1.00  0.00     0.031 A 
ATOM     40  C   UNL A   1      38.800  31.511  31.953  1.00  0.00     0.074 A 
ATOM     41  C   UNL A   1      38.850  30.107  29.918  1.00  0.00     0.049 A 
ATOM     42  N   UNL A   1      39.862  31.075  32.578  1.00  0.00    -0.248 NA
ATOM     43  C   UNL A   1      38.102  32.604  32.650  1.00  0.00     0.031 C 
ATOM     44  C   UNL A   1      38.452  29.653  28.584  1.00  0.00     0.029 A 
ATOM     45  N   UNL A   1      39.966  29.359  30.202  1.00  0.00    -0.354 N 
ATOM     46  C   UNL A   1      39.985  31.864  33.715  1.00  0.00     0.074 A 
ATOM     47  C   UNL A   1      38.904  32.826  33.681  1.00  0.00     0.031 C 
ATOM     48  C   UNL A   1      39.310  28.708  28.165  1.00  0.00     0.029 A 
ATOM     49  C   UNL A   1      40.332  28.505  29.187  1.00  0.00     0.049 A 
ATOM     50  H   UNL A   1      40.457  29.426  31.053  1.00  0.00     0.167 HD
ATOM     51  C   UNL A   1      40.895  31.779  34.714  1.00  0.00     0.034 A 
ATOM     52  C   UNL A   1      41.376  27.658  29.087  1.00  0.00     0.034 A 
ATOM     53  C   UNL A   1      41.929  30.782  34.778  1.00  0.00     0.049 A 
ATOM     54  C   UNL A   1      42.332  27.537  30.244  1.00  0.00     0.074 A 
ATOM     55  C   UNL A   1      42.832  30.544  35.800  1.00  0.00     0.029 A 
ATOM     56  N   UNL A   1      42.199  29.856  33.783  1.00  0.00    -0.354 N 
ATOM     57  N   UNL A   1      42.324  28.172  31.390  1.00  0.00    -0.248 NA
ATOM     58  C   UNL A   1      43.417  26.553  30.110  1.00  0.00     0.031 C 
ATOM     59  C   UNL A   1      43.656  29.481  35.417  1.00  0.00     0.029 A 
ATOM     60  C   UNL A   1      43.256  29.048  34.164  1.00  0.00     0.049 A 
ATOM     61  H   UNL A   1      41.710  29.783  32.932  1.00  0.00     0.167 HD
ATOM     62  C   UNL A   1      43.377  27.643  32.127  1.00  0.00     0.074 A 
ATOM     63  C   UNL A   1      43.988  26.618  31.306  1.00  0.00     0.031 C 
ATOM     64  C   UNL A   1      43.812  27.988  33.364  1.00  0.00     0.034 A 
BRANCH  51  65
ATOM     65  C   UNL A   1      40.773  32.744  35.861  1.00  0.00     0.023 A 
ATOM     66  C   UNL A   1      39.871  32.464  36.907  1.00  0.00     0.012 A 
ATOM     67  C   UNL A   1      41.597  33.884  35.944  1.00  0.00     0.148 A 
ATOM     68  C   UNL A   1      39.771  33.315  38.006  1.00  0.00     0.002 A 
ATOM     69  C   UNL A   1      41.520  34.707  37.063  1.00  0.00     0.091 A 
ATOM     70  F   UNL A   1      42.433  34.145  34.930  1.00  0.00    -0.205 F 
ATOM     71  C   UNL A   1      40.601  34.428  38.089  1.00  0.00     0.022 A 
BRANCH  69  72
ATOM     72  S   UNL A   1      42.598  36.123  37.302  1.00  0.00     0.127 S 
ATOM     73  O   UNL A   1      42.071  36.689  38.543  1.00  0.00    -0.237 OA
ATOM     74  O   UNL A   1      43.912  35.493  37.429  1.00  0.00    -0.237 OA
ATOM     75  O   UNL A   1      42.436  36.956  36.118  1.00  0.00    -0.744 OA
ENDBRANCH  69  72
ENDBRANCH  51  65
BRANCH  52  76
ATOM     76  C   UNL A   1      41.531  26.803  27.877  1.00  0.00     0.023 A 
ATOM     77  C   UNL A   1      42.155  27.338  26.732  1.00  0.00     0.012 A 
ATOM     78  C   UNL A   1      41.087  25.467  27.855  1.00  0.00     0.148 A 
ATOM     79  C   UNL A   1      42.303  26.569  25.577  1.00  0.00     0.002 A 
ATOM     80  C   UNL A   1      41.287  24.690  26.719  1.00  0.00     0.091 A 
ATOM     81  F   UNL A   1      40.481  24.979  28.946  1.00  0.00    -0.205 F 
ATOM     82  C   UNL A   1      41.879  25.244  25.573  1.00  0.00     0.022 A 
BRANCH  80  83
ATOM     83  S   UNL A   1      40.891  22.938  26.682  1.00  0.00     0.127 S 
ATOM     84  O   UNL A   1      41.772  22.453  25.624  1.00  0.00    -0.237 OA
ATOM     85  O   UNL A   1      41.256  22.510  28.032  1.00  0.00    -0.237 OA
ATOM     86  O   UNL A   1      39.462  22.873  26.405  1.00  0.00    -0.744 OA
ENDBRANCH  80  83
ENDBRANCH  52  76
BRANCH  64  87
ATOM     87  C   UNL A   1      44.986  27.233  33.929  1.00  0.00     0.023 A 
ATOM     88  C   UNL A   1      46.291  27.721  33.725  1.00  0.00     0.012 A 
ATOM     89  C   UNL A   1      44.790  26.090  34.731  1.00  0.00     0.148 A 
ATOM     90  C   UNL A   1      47.387  27.069  34.287  1.00  0.00     0.002 A 
ATOM     91  C   UNL A   1      45.884  25.472  35.325  1.00  0.00     0.091 A 
ATOM     92  F   UNL A   1      43.541  25.631  34.895  1.00  0.00    -0.205 F 
ATOM     93  C   UNL A   1      47.183  25.953  35.096  1.00  0.00     0.022 A 
BRANCH  91  94
ATOM     94  S   UNL A   1      45.703  24.088  36.457  1.00  0.00     0.127 S 
ATOM     95  O   UNL A   1      44.849  24.664  37.495  1.00  0.00    -0.237 OA
ATOM     96  O   UNL A   1      45.049  23.082  35.619  1.00  0.00    -0.237 OA
ATOM     97  O   UNL A   1      47.053  23.738  36.876  1.00  0.00    -0.744 OA
ENDBRANCH  91  94
ENDBRANCH  64  87
ENDBRANCH  38  39
ENDBRANCH  30  33
ENDBRANCH  28  29
ENDBRANCH  27  28
ENDBRANCH   1  27
TORSDOF 18
ENDMDL
MODEL 3
REMARK VINA RESULT:     -11.5      5.660     10.764
REMARK SMILES CCNC(=O)c1ccc(N[C@@H]2COC[C@@]2(C)C(=O)NCCCCNC(=O)c2ccc(-c3c4nc(c(-c5cccc(S(=O)(=O)[O-])c5F)c5ccc([nH]5)c(-c5cccc(S(=O)(=O)[O-])c5F)c5nc(c(-c6cccc(S(=O)(=O)[O-])c6F)c6ccc3[nH]6)C=C5)C=C4)cc2)nn1
REMARK SMILES IDX 21 1 20 2 19 3 17 4 18 5 15 7 11 8 12 9 13 10 14 11 16 12
REMARK SMILES IDX 10 13 9 15 6 16 7 17 91 18 8 19 90 20 4 21 3 22 5 24 2 25
REMARK SMILES IDX 1 26 22 27 23 28 24 29 25 30 26 32 27 33 28 34 89 35 29 36
REMARK SMILES IDX 88 37 30 38 31 39 32 40 82 41 33 42 87 43 81 44 83 45 34 46
REMARK SMILES IDX 86 47 80 48 79 49 35 51 67 52 47 53 66 54 48 55 51 56 65 57
REMARK SMILES IDX 84 58 49 59 50 60 64 62 85 63 52 64 36 65 37 66 45 67 38 68
REMARK SMILES IDX 40 69 46 70 39 71 41 72 42 73 43 74 44 75 68 76 69 77 77 78
REMARK SMILES IDX 70 79 72 80 78 81 71 82 73 83 74 84 75 85 76 86 53 87 54 88
REMARK SMILES IDX 62 89 55 90 57 91 63 92 56 93 58 94 59 95 60 96 61 97
REMARK H PARENT 19 6 10 14 3 23 24 31 83 50 51 61
REMARK Flexibility Score: inf
ROOT
ATOM      1  C   UNL A   1      35.372  24.374  24.989  1.00  0.00     0.023 C 
ENDROOT
BRANCH   1   2
ATOM      2  C   UNL A   1      33.898  24.658  24.728  1.00  0.00     0.116 C 
BRANCH   2   3
ATOM      3  N   UNL A   1      33.096  24.692  25.939  1.00  0.00    -0.355 N 
ATOM      4  C   UNL A   1      32.136  23.836  26.403  1.00  0.00     0.230 C 
ATOM      5  O   UNL A   1      31.704  24.049  27.539  1.00  0.00    -0.274 OA
ATOM      6  H   UNL A   1      33.273  25.464  26.525  1.00  0.00     0.163 HD
BRANCH   4   7
ATOM      7  C   UNL A   1      31.636  22.655  25.564  1.00  0.00     0.092 C 
ATOM      8  C   UNL A   1      31.698  22.999  24.058  1.00  0.00     0.124 C 
ATOM      9  C   UNL A   1      31.952  21.660  23.390  1.00  0.00     0.186 C 
ATOM     10  O   UNL A   1      32.802  20.937  24.291  1.00  0.00    -0.378 OA
ATOM     11  C   UNL A   1      32.652  21.502  25.606  1.00  0.00     0.179 C 
ATOM     12  C   UNL A   1      30.250  22.205  26.047  1.00  0.00     0.026 C 
BRANCH   8  13
ATOM     13  N   UNL A   1      30.624  23.826  23.503  1.00  0.00    -0.362 N 
ATOM     14  H   UNL A   1      29.911  23.359  23.012  1.00  0.00     0.162 HD
BRANCH  13  15
ATOM     15  C   UNL A   1      30.520  25.197  23.605  1.00  0.00     0.149 A 
ATOM     16  C   UNL A   1      30.754  27.891  23.978  1.00  0.00     0.150 A 
ATOM     17  C   UNL A   1      31.186  27.362  22.778  1.00  0.00     0.040 A 
ATOM     18  N   UNL A   1      30.163  27.143  24.927  1.00  0.00    -0.143 NA
ATOM     19  C   UNL A   1      31.051  25.988  22.591  1.00  0.00     0.051 A 
ATOM     20  N   UNL A   1      30.042  25.789  24.719  1.00  0.00    -0.132 NA
BRANCH  16  21
ATOM     21  C   UNL A   1      30.970  29.317  24.289  1.00  0.00     0.271 C 
ATOM     22  N   UNL A   1      30.104  30.255  23.782  1.00  0.00    -0.351 N 
ATOM     23  H   UNL A   1      30.350  31.197  23.931  1.00  0.00     0.163 HD
ATOM     24  O   UNL A   1      31.941  29.667  24.956  1.00  0.00    -0.267 OA
BRANCH  22  25
ATOM     25  C   UNL A   1      28.871  30.029  23.054  1.00  0.00     0.113 C 
ATOM     26  C   UNL A   1      29.002  30.497  21.618  1.00  0.00     0.027 C 
ENDBRANCH  22  25
ENDBRANCH  16  21
ENDBRANCH  13  15
ENDBRANCH   8  13
ENDBRANCH   4   7
ENDBRANCH   2   3
ENDBRANCH   1   2
BRANCH   1  27
ATOM     27  C   UNL A   1      35.821  22.942  24.711  1.00  0.00     0.023 C 
BRANCH  27  28
ATOM     28  C   UNL A   1      36.237  22.129  25.932  1.00  0.00     0.116 C 
BRANCH  28  29
ATOM     29  N   UNL A   1      37.281  21.152  25.653  1.00  0.00    -0.352 N 
ATOM     30  C   UNL A   1      38.640  21.256  25.833  1.00  0.00     0.251 C 
ATOM     31  H   UNL A   1      36.970  20.295  25.282  1.00  0.00     0.163 HD
ATOM     32  O   UNL A   1      39.384  20.359  25.444  1.00  0.00    -0.269 OA
BRANCH  30  33
ATOM     33  C   UNL A   1      39.204  22.469  26.463  1.00  0.00     0.039 A 
ATOM     34  C   UNL A   1      40.182  22.325  27.452  1.00  0.00     0.014 A 
ATOM     35  C   UNL A   1      38.800  23.741  26.052  1.00  0.00     0.014 A 
ATOM     36  C   UNL A   1      40.817  23.458  27.965  1.00  0.00     0.010 A 
ATOM     37  C   UNL A   1      39.485  24.862  26.512  1.00  0.00     0.010 A 
ATOM     38  C   UNL A   1      40.504  24.733  27.467  1.00  0.00    -0.014 A 
BRANCH  38  39
ATOM     39  C   UNL A   1      41.248  25.942  27.907  1.00  0.00     0.031 A 
ATOM     40  C   UNL A   1      40.548  27.022  28.686  1.00  0.00     0.074 A 
ATOM     41  C   UNL A   1      42.525  26.117  27.510  1.00  0.00     0.049 A 
ATOM     42  N   UNL A   1      41.006  28.180  29.081  1.00  0.00    -0.248 NA
ATOM     43  C   UNL A   1      39.138  26.783  29.040  1.00  0.00     0.031 C 
ATOM     44  C   UNL A   1      43.289  25.187  26.675  1.00  0.00     0.029 A 
ATOM     45  N   UNL A   1      43.396  27.156  27.727  1.00  0.00    -0.354 N 
ATOM     46  C   UNL A   1      39.936  28.824  29.691  1.00  0.00     0.074 A 
ATOM     47  C   UNL A   1      38.796  27.939  29.590  1.00  0.00     0.031 C 
ATOM     48  C   UNL A   1      44.510  25.697  26.449  1.00  0.00     0.029 A 
ATOM     49  C   UNL A   1      44.612  26.999  27.101  1.00  0.00     0.049 A 
ATOM     50  H   UNL A   1      43.173  27.940  28.279  1.00  0.00     0.167 HD
ATOM     51  C   UNL A   1      39.910  30.030  30.308  1.00  0.00     0.034 A 
ATOM     52  C   UNL A   1      45.685  27.813  27.051  1.00  0.00     0.034 A 
ATOM     53  C   UNL A   1      41.059  30.879  30.464  1.00  0.00     0.049 A 
ATOM     54  C   UNL A   1      45.649  29.116  27.804  1.00  0.00     0.074 A 
ATOM     55  C   UNL A   1      41.161  32.068  31.166  1.00  0.00     0.029 A 
ATOM     56  N   UNL A   1      42.307  30.632  29.914  1.00  0.00    -0.354 N 
ATOM     57  N   UNL A   1      44.681  29.626  28.525  1.00  0.00    -0.248 NA
ATOM     58  C   UNL A   1      46.868  29.939  27.770  1.00  0.00     0.031 C 
ATOM     59  C   UNL A   1      42.468  32.546  31.030  1.00  0.00     0.029 A 
ATOM     60  C   UNL A   1      43.184  31.647  30.257  1.00  0.00     0.049 A 
ATOM     61  H   UNL A   1      42.537  29.850  29.363  1.00  0.00     0.167 HD
ATOM     62  C   UNL A   1      45.182  30.807  29.058  1.00  0.00     0.074 A 
ATOM     63  C   UNL A   1      46.549  30.927  28.595  1.00  0.00     0.031 C 
ATOM     64  C   UNL A   1      44.561  31.721  29.843  1.00  0.00     0.034 A 
BRANCH  51  65
ATOM     65  C   UNL A   1      38.613  30.475  30.926  1.00  0.00     0.023 A 
ATOM     66  C   UNL A   1      38.352  30.168  32.277  1.00  0.00     0.012 A 
ATOM     67  C   UNL A   1      37.691  31.256  30.202  1.00  0.00     0.148 A 
ATOM     68  C   UNL A   1      37.180  30.609  32.891  1.00  0.00     0.002 A 
ATOM     69  C   UNL A   1      36.544  31.725  30.834  1.00  0.00     0.091 A 
ATOM     70  F   UNL A   1      37.948  31.519  28.913  1.00  0.00    -0.205 F 
ATOM     71  C   UNL A   1      36.284  31.395  32.174  1.00  0.00     0.022 A 
BRANCH  69  72
ATOM     72  S   UNL A   1      35.363  32.808  30.021  1.00  0.00     0.127 S 
ATOM     73  O   UNL A   1      34.843  31.938  28.967  1.00  0.00    -0.237 OA
ATOM     74  O   UNL A   1      34.415  33.095  31.098  1.00  0.00    -0.237 OA
ATOM     75  O   UNL A   1      36.126  33.960  29.560  1.00  0.00    -0.744 OA
ENDBRANCH  69  72
ENDBRANCH  51  65
BRANCH  52  76
ATOM     76  C   UNL A   1      46.913  27.387  26.322  1.00  0.00     0.023 A 
ATOM     77  C   UNL A   1      47.878  26.613  26.994  1.00  0.00     0.012 A 
ATOM     78  C   UNL A   1      47.123  27.723  24.971  1.00  0.00     0.148 A 
ATOM     79  C   UNL A   1      49.047  26.210  26.346  1.00  0.00     0.002 A 
ATOM     80  C   UNL A   1      48.263  27.272  24.315  1.00  0.00     0.091 A 
ATOM     81  F   UNL A   1      46.202  28.475  24.351  1.00  0.00    -0.205 F 
ATOM     82  C   UNL A   1      49.235  26.530  25.004  1.00  0.00     0.022 A 
BRANCH  80  83
ATOM     83  S   UNL A   1      48.514  27.529  22.554  1.00  0.00     0.127 S 
ATOM     84  O   UNL A   1      47.325  28.295  22.190  1.00  0.00    -0.237 OA
ATOM     85  O   UNL A   1      49.766  28.286  22.527  1.00  0.00    -0.237 OA
ATOM     86  O   UNL A   1      48.615  26.193  21.982  1.00  0.00    -0.744 OA
ENDBRANCH  80  83
ENDBRANCH  52  76
BRANCH  64  87
ATOM     87  C   UNL A   1      45.356  32.920  30.286  1.00  0.00     0.023 A 
ATOM     88  C   UNL A   1      46.099  32.860  31.481  1.00  0.00     0.012 A 
ATOM     89  C   UNL A   1      45.434  34.072  29.477  1.00  0.00     0.148 A 
ATOM     90  C   UNL A   1      46.888  33.939  31.879  1.00  0.00     0.002 A 
ATOM     91  C   UNL A   1      46.257  35.125  29.858  1.00  0.00     0.091 A 
ATOM     92  F   UNL A   1      44.703  34.116  28.354  1.00  0.00    -0.205 F 
ATOM     93  C   UNL A   1      46.976  35.065  31.063  1.00  0.00     0.022 A 
BRANCH  91  94
ATOM     94  S   UNL A   1      46.504  36.571  28.821  1.00  0.00     0.127 S 
ATOM     95  O   UNL A   1      46.769  35.961  27.519  1.00  0.00    -0.237 OA
ATOM     96  O   UNL A   1      45.213  37.254  28.923  1.00  0.00    -0.237 OA
ATOM     97  O   UNL A   1      47.618  37.300  29.412  1.00  0.00    -0.744 OA
ENDBRANCH  91  94
ENDBRANCH  64  87
ENDBRANCH  38  39
ENDBRANCH  30  33
ENDBRANCH  28  29
ENDBRANCH  27  28
ENDBRANCH   1  27
TORSDOF 18
ENDMDL
