MODEL 1
REMARK VINA RESULT:     -12.2      0.000      0.000
REMARK SMILES COc1ccccc1N1CC[NH+]([C@@H](C(=O)NCCCCNC(=O)c2ccc(-c3c4nc(c(-c5cccc(S(=O)(=O)[O-])c5F)c5ccc([nH]5)c(-c5cccc(S(=O)(=O)[O-])c5F)c5nc(c(-c6cccc(S(=O)(=O)[O-])c6F)c6ccc3[nH]6)C=C5)C=C4)cc2)c2c[nH]c3ccc(OCC#N)cc23)CC1
REMARK SMILES IDX 18 1 17 2 16 3 14 4 15 5 13 7 12 8 9 9 10 10 101 11 11 12
REMARK SMILES IDX 100 13 8 15 3 16 4 17 5 18 7 19 6 20 2 21 1 22 87 23 88 24
REMARK SMILES IDX 99 25 89 26 90 27 98 28 91 30 93 31 92 32 94 33 95 34 96 35
REMARK SMILES IDX 97 36 19 37 20 38 21 39 22 40 23 42 24 43 25 44 86 45 26 46
REMARK SMILES IDX 85 47 27 48 28 49 29 50 79 51 30 52 84 53 78 54 80 55 31 56
REMARK SMILES IDX 83 57 77 58 76 59 32 61 64 62 44 63 63 64 45 65 48 66 62 67
REMARK SMILES IDX 81 68 46 69 47 70 61 72 82 73 49 74 33 75 34 76 42 77 35 78
REMARK SMILES IDX 37 79 43 80 36 81 38 82 39 83 40 84 41 85 65 86 66 87 74 88
REMARK SMILES IDX 67 89 69 90 75 91 68 92 70 93 71 94 72 95 73 96 50 97 51 98
REMARK SMILES IDX 59 99 52 100 54 101 60 102 53 103 55 104 56 105 57 106
REMARK SMILES IDX 58 107
REMARK H PARENT 16 6 12 14 89 29 21 41 80 60 48 71
REMARK Flexibility Score: inf
ROOT
ATOM      1  C   UNL A   1      31.779  27.896  26.618  1.00  0.00     0.023 C 
ENDROOT
BRANCH   1   2
ATOM      2  C   UNL A   1      33.200  27.239  26.710  1.00  0.00     0.116 C 
BRANCH   2   3
ATOM      3  N   UNL A   1      33.642  26.309  25.633  1.00  0.00    -0.351 N 
ATOM      4  C   UNL A   1      33.168  25.454  24.646  1.00  0.00     0.283 C 
ATOM      5  O   UNL A   1      34.069  25.089  23.871  1.00  0.00    -0.268 OA
ATOM      6  H   UNL A   1      34.627  26.295  25.614  1.00  0.00     0.163 HD
BRANCH   4   7
ATOM      7  C   UNL A   1      31.678  24.993  24.368  1.00  0.00     0.307 C 
BRANCH   7   8
ATOM      8  N   UNL A   1      31.291  23.525  24.449  1.00  0.00    -0.318 N 
ATOM      9  N   UNL A   1      33.639  21.755  24.444  1.00  0.00    -0.357 N 
ATOM     10  C   UNL A   1      33.155  22.344  23.194  1.00  0.00     0.178 C 
ATOM     11  C   UNL A   1      33.276  22.517  25.639  1.00  0.00     0.178 C 
ATOM     12  C   UNL A   1      31.651  22.579  23.376  1.00  0.00     0.284 C 
ATOM     13  C   UNL A   1      31.760  22.852  25.660  1.00  0.00     0.284 C 
ATOM     14  H   UNL A   1      30.287  23.693  24.394  1.00  0.00     0.349 HD
BRANCH   9  15
ATOM     15  C   UNL A   1      34.936  21.249  24.514  1.00  0.00     0.080 A 
ATOM     16  C   UNL A   1      35.201  19.881  24.738  1.00  0.00     0.142 A 
ATOM     17  C   UNL A   1      36.531  19.457  24.885  1.00  0.00     0.048 A 
ATOM     18  C   UNL A   1      37.594  20.357  24.836  1.00  0.00     0.004 A 
ATOM     19  C   UNL A   1      36.028  22.144  24.480  1.00  0.00     0.030 A 
ATOM     20  C   UNL A   1      37.341  21.707  24.641  1.00  0.00     0.002 A 
BRANCH  16  21
ATOM     21  O   UNL A   1      34.322  18.834  24.855  1.00  0.00    -0.495 OA
ATOM     22  C   UNL A   1      33.341  18.598  23.861  1.00  0.00     0.278 C 
ENDBRANCH  16  21
ENDBRANCH   9  15
ENDBRANCH   7   8
BRANCH   7  23
ATOM     23  C   UNL A   1      30.890  25.802  23.174  1.00  0.00     0.044 A 
ATOM     24  C   UNL A   1      31.511  25.805  21.919  1.00  0.00     0.094 A 
ATOM     25  C   UNL A   1      30.285  27.160  23.107  1.00  0.00     0.013 A 
ATOM     26  N   UNL A   1      32.131  27.035  21.882  1.00  0.00    -0.361 N 
ATOM     27  C   UNL A   1      31.272  27.933  22.487  1.00  0.00     0.046 A 
ATOM     28  C   UNL A   1      29.017  27.839  23.248  1.00  0.00     0.057 A 
ATOM     29  H   UNL A   1      33.016  27.236  21.499  1.00  0.00     0.166 HD
ATOM     30  C   UNL A   1      31.295  29.329  22.540  1.00  0.00     0.030 A 
ATOM     31  C   UNL A   1      28.921  29.252  22.981  1.00  0.00     0.121 A 
ATOM     32  C   UNL A   1      30.096  29.978  22.831  1.00  0.00     0.048 A 
BRANCH  31  33
ATOM     33  O   UNL A   1      27.680  29.879  22.854  1.00  0.00    -0.479 OA
BRANCH  33  34
ATOM     34  C   UNL A   1      27.619  31.395  22.845  1.00  0.00     0.349 C 
BRANCH  34  35
ATOM     35  C   UNL A   1      27.794  31.901  21.422  1.00  0.00     0.104 C 
ATOM     36  N   UNL A   1      27.939  32.322  20.243  1.00  0.00    -0.195 NA
ENDBRANCH  34  35
ENDBRANCH  33  34
ENDBRANCH  31  33
ENDBRANCH   7  23
ENDBRANCH   4   7
ENDBRANCH   2   3
ENDBRANCH   1   2
BRANCH   1  37
ATOM     37  C   UNL A   1      31.686  29.426  26.716  1.00  0.00     0.023 C 
BRANCH  37  38
ATOM     38  C   UNL A   1      33.005  30.149  26.556  1.00  0.00     0.116 C 
BRANCH  38  39
ATOM     39  N   UNL A   1      32.876  31.591  26.722  1.00  0.00    -0.352 N 
ATOM     40  C   UNL A   1      33.613  32.438  27.525  1.00  0.00     0.251 C 
ATOM     41  H   UNL A   1      32.168  32.019  26.189  1.00  0.00     0.163 HD
ATOM     42  O   UNL A   1      33.266  33.604  27.652  1.00  0.00    -0.269 OA
BRANCH  40  43
ATOM     43  C   UNL A   1      34.811  31.931  28.241  1.00  0.00     0.039 A 
ATOM     44  C   UNL A   1      35.886  32.794  28.470  1.00  0.00     0.014 A 
ATOM     45  C   UNL A   1      34.892  30.602  28.661  1.00  0.00     0.014 A 
ATOM     46  C   UNL A   1      37.029  32.320  29.121  1.00  0.00     0.010 A 
ATOM     47  C   UNL A   1      35.966  30.169  29.422  1.00  0.00     0.010 A 
ATOM     48  C   UNL A   1      37.073  31.002  29.602  1.00  0.00    -0.014 A 
BRANCH  48  49
ATOM     49  C   UNL A   1      38.304  30.437  30.201  1.00  0.00     0.031 A 
ATOM     50  C   UNL A   1      38.720  30.872  31.585  1.00  0.00     0.074 A 
ATOM     51  C   UNL A   1      39.066  29.587  29.488  1.00  0.00     0.049 A 
ATOM     52  N   UNL A   1      39.766  30.517  32.283  1.00  0.00    -0.248 NA
ATOM     53  C   UNL A   1      37.869  31.870  32.262  1.00  0.00     0.031 C 
ATOM     54  C   UNL A   1      38.806  29.170  28.109  1.00  0.00     0.029 A 
ATOM     55  N   UNL A   1      40.221  28.932  29.822  1.00  0.00    -0.354 N 
ATOM     56  C   UNL A   1      39.719  31.272  33.450  1.00  0.00     0.074 A 
ATOM     57  C   UNL A   1      38.577  32.149  33.345  1.00  0.00     0.031 C 
ATOM     58  C   UNL A   1      39.763  28.311  27.722  1.00  0.00     0.029 A 
ATOM     59  C   UNL A   1      40.715  28.137  28.814  1.00  0.00     0.049 A 
ATOM     60  H   UNL A   1      40.658  29.021  30.701  1.00  0.00     0.167 HD
ATOM     61  C   UNL A   1      40.528  31.213  34.532  1.00  0.00     0.034 A 
ATOM     62  C   UNL A   1      41.809  27.355  28.783  1.00  0.00     0.034 A 
ATOM     63  C   UNL A   1      41.627  30.296  34.647  1.00  0.00     0.049 A 
ATOM     64  C   UNL A   1      42.653  27.254  30.025  1.00  0.00     0.074 A 
ATOM     65  C   UNL A   1      42.463  30.081  35.727  1.00  0.00     0.029 A 
ATOM     66  N   UNL A   1      42.039  29.437  33.639  1.00  0.00    -0.354 N 
ATOM     67  N   UNL A   1      42.507  27.865  31.176  1.00  0.00    -0.248 NA
ATOM     68  C   UNL A   1      43.786  26.319  29.981  1.00  0.00     0.031 C 
ATOM     69  C   UNL A   1      43.402  29.112  35.360  1.00  0.00     0.029 A 
ATOM     70  C   UNL A   1      43.123  28.693  34.068  1.00  0.00     0.049 A 
ATOM     71  H   UNL A   1      41.623  29.367  32.750  1.00  0.00     0.167 HD
ATOM     72  C   UNL A   1      43.500  27.360  32.006  1.00  0.00     0.074 A 
ATOM     73  C   UNL A   1      44.227  26.375  31.229  1.00  0.00     0.031 C 
ATOM     74  C   UNL A   1      43.795  27.684  33.289  1.00  0.00     0.034 A 
BRANCH  61  75
ATOM     75  C   UNL A   1      40.222  32.129  35.691  1.00  0.00     0.023 A 
ATOM     76  C   UNL A   1      40.968  33.313  35.866  1.00  0.00     0.012 A 
ATOM     77  C   UNL A   1      39.173  31.839  36.585  1.00  0.00     0.148 A 
ATOM     78  C   UNL A   1      40.706  34.171  36.935  1.00  0.00     0.002 A 
ATOM     79  C   UNL A   1      38.882  32.725  37.617  1.00  0.00     0.091 A 
ATOM     80  F   UNL A   1      38.488  30.699  36.418  1.00  0.00    -0.205 F 
ATOM     81  C   UNL A   1      39.657  33.882  37.802  1.00  0.00     0.022 A 
BRANCH  79  82
ATOM     82  S   UNL A   1      37.500  32.489  38.738  1.00  0.00     0.127 S 
ATOM     83  O   UNL A   1      37.854  33.389  39.836  1.00  0.00    -0.237 OA
ATOM     84  O   UNL A   1      36.368  32.935  37.925  1.00  0.00    -0.237 OA
ATOM     85  O   UNL A   1      37.489  31.072  39.074  1.00  0.00    -0.744 OA
ENDBRANCH  79  82
ENDBRANCH  61  75
BRANCH  62  86
ATOM     86  C   UNL A   1      42.119  26.550  27.568  1.00  0.00     0.023 A 
ATOM     87  C   UNL A   1      42.749  27.164  26.468  1.00  0.00     0.012 A 
ATOM     88  C   UNL A   1      41.818  25.175  27.507  1.00  0.00     0.148 A 
ATOM     89  C   UNL A   1      43.037  26.434  25.314  1.00  0.00     0.002 A 
ATOM     90  C   UNL A   1      42.159  24.442  26.377  1.00  0.00     0.091 A 
ATOM     91  F   UNL A   1      41.215  24.611  28.563  1.00  0.00    -0.205 F 
ATOM     92  C   UNL A   1      42.751  25.072  25.272  1.00  0.00     0.022 A 
BRANCH  90  93
ATOM     93  S   UNL A   1      41.947  22.660  26.287  1.00  0.00     0.127 S 
ATOM     94  O   UNL A   1      40.493  22.531  26.312  1.00  0.00    -0.237 OA
ATOM     95  O   UNL A   1      42.573  22.348  25.002  1.00  0.00    -0.237 OA
ATOM     96  O   UNL A   1      42.651  22.120  27.443  1.00  0.00    -0.744 OA
ENDBRANCH  90  93
ENDBRANCH  62  86
BRANCH  74  97
ATOM     97  C   UNL A   1      44.915  26.931  33.954  1.00  0.00     0.023 A 
ATOM     98  C   UNL A   1      46.248  27.361  33.799  1.00  0.00     0.012 A 
ATOM     99  C   UNL A   1      44.635  25.827  34.784  1.00  0.00     0.148 A 
ATOM    100  C   UNL A   1      47.288  26.675  34.423  1.00  0.00     0.002 A 
ATOM    101  C   UNL A   1      45.671  25.185  35.448  1.00  0.00     0.091 A 
ATOM    102  F   UNL A   1      43.361  25.424  34.904  1.00  0.00    -0.205 F 
ATOM    103  C   UNL A   1      46.999  25.596  35.255  1.00  0.00     0.022 A 
BRANCH 101 104
ATOM    104  S   UNL A   1      45.378  23.858  36.621  1.00  0.00     0.127 S 
ATOM    105  O   UNL A   1      44.720  22.858  35.781  1.00  0.00    -0.237 OA
ATOM    106  O   UNL A   1      46.735  23.508  37.038  1.00  0.00    -0.237 OA
ATOM    107  O   UNL A   1      44.552  24.431  37.676  1.00  0.00    -0.744 OA
ENDBRANCH 101 104
ENDBRANCH  74  97
ENDBRANCH  48  49
ENDBRANCH  40  43
ENDBRANCH  38  39
ENDBRANCH  37  38
ENDBRANCH   1  37
TORSDOF 21
ENDMDL
MODEL 2
REMARK VINA RESULT:     -11.9      1.885      7.487
REMARK SMILES COc1ccccc1N1CC[NH+]([C@@H](C(=O)NCCCCNC(=O)c2ccc(-c3c4nc(c(-c5cccc(S(=O)(=O)[O-])c5F)c5ccc([nH]5)c(-c5cccc(S(=O)(=O)[O-])c5F)c5nc(c(-c6cccc(S(=O)(=O)[O-])c6F)c6ccc3[nH]6)C=C5)C=C4)cc2)c2c[nH]c3ccc(OCC#N)cc23)CC1
REMARK SMILES IDX 18 1 17 2 16 3 14 4 15 5 13 7 12 8 9 9 10 10 101 11 11 12
REMARK SMILES IDX 100 13 8 15 3 16 4 17 5 18 7 19 6 20 2 21 1 22 87 23 88 24
REMARK SMILES IDX 99 25 89 26 90 27 98 28 91 30 93 31 92 32 94 33 95 34 96 35
REMARK SMILES IDX 97 36 19 37 20 38 21 39 22 40 23 42 24 43 25 44 86 45 26 46
REMARK SMILES IDX 85 47 27 48 28 49 29 50 79 51 30 52 84 53 78 54 80 55 31 56
REMARK SMILES IDX 83 57 77 58 76 59 32 61 64 62 44 63 63 64 45 65 48 66 62 67
REMARK SMILES IDX 81 68 46 69 47 70 61 72 82 73 49 74 33 75 34 76 42 77 35 78
REMARK SMILES IDX 37 79 43 80 36 81 38 82 39 83 40 84 41 85 65 86 66 87 74 88
REMARK SMILES IDX 67 89 69 90 75 91 68 92 70 93 71 94 72 95 73 96 50 97 51 98
REMARK SMILES IDX 59 99 52 100 54 101 60 102 53 103 55 104 56 105 57 106
REMARK SMILES IDX 58 107
REMARK H PARENT 16 6 12 14 89 29 21 41 80 60 48 71
REMARK Flexibility Score: inf
ROOT
ATOM      1  C   UNL A   1      31.973  29.816  26.252  1.00  0.00     0.023 C 
ENDROOT
BRANCH   1   2
ATOM      2  C   UNL A   1      32.588  28.698  27.163  1.00  0.00     0.116 C 
BRANCH   2   3
ATOM      3  N   UNL A   1      33.206  27.500  26.526  1.00  0.00    -0.351 N 
ATOM      4  C   UNL A   1      32.905  26.349  25.810  1.00  0.00     0.283 C 
ATOM      5  O   UNL A   1      33.922  25.809  25.342  1.00  0.00    -0.268 OA
ATOM      6  H   UNL A   1      34.180  27.539  26.662  1.00  0.00     0.163 HD
BRANCH   4   7
ATOM      7  C   UNL A   1      31.483  25.735  25.474  1.00  0.00     0.307 C 
BRANCH   7   8
ATOM      8  N   UNL A   1      31.131  24.317  25.892  1.00  0.00    -0.318 N 
ATOM      9  N   UNL A   1      33.385  22.462  25.542  1.00  0.00    -0.357 N 
ATOM     10  C   UNL A   1      32.580  22.873  24.390  1.00  0.00     0.178 C 
ATOM     11  C   UNL A   1      33.362  23.416  26.652  1.00  0.00     0.178 C 
ATOM     12  C   UNL A   1      31.183  23.201  24.928  1.00  0.00     0.284 C 
ATOM     13  C   UNL A   1      31.910  23.818  27.025  1.00  0.00     0.284 C 
ATOM     14  H   UNL A   1      30.149  24.520  26.082  1.00  0.00     0.349 HD
BRANCH   9  15
ATOM     15  C   UNL A   1      34.651  21.914  25.342  1.00  0.00     0.080 A 
ATOM     16  C   UNL A   1      34.838  20.584  24.910  1.00  0.00     0.142 A 
ATOM     17  C   UNL A   1      36.141  20.072  24.815  1.00  0.00     0.048 A 
ATOM     18  C   UNL A   1      37.254  20.839  25.157  1.00  0.00     0.004 A 
ATOM     19  C   UNL A   1      35.792  22.669  25.694  1.00  0.00     0.030 A 
ATOM     20  C   UNL A   1      37.078  22.140  25.606  1.00  0.00     0.002 A 
BRANCH  16  21
ATOM     21  O   UNL A   1      33.901  19.646  24.557  1.00  0.00    -0.495 OA
ATOM     22  C   UNL A   1      34.199  18.263  24.621  1.00  0.00     0.278 C 
ENDBRANCH  16  21
ENDBRANCH   9  15
ENDBRANCH   7   8
BRANCH   7  23
ATOM     23  C   UNL A   1      30.850  26.154  24.017  1.00  0.00     0.044 A 
ATOM     24  C   UNL A   1      31.573  25.742  22.890  1.00  0.00     0.094 A 
ATOM     25  C   UNL A   1      30.337  27.441  23.474  1.00  0.00     0.013 A 
ATOM     26  N   UNL A   1      32.269  26.878  22.536  1.00  0.00    -0.361 N 
ATOM     27  C   UNL A   1      31.418  27.948  22.746  1.00  0.00     0.046 A 
ATOM     28  C   UNL A   1      29.107  28.171  23.271  1.00  0.00     0.057 A 
ATOM     29  H   UNL A   1      33.193  26.919  22.200  1.00  0.00     0.166 HD
ATOM     30  C   UNL A   1      31.524  29.288  22.366  1.00  0.00     0.030 A 
ATOM     31  C   UNL A   1      29.121  29.431  22.572  1.00  0.00     0.121 A 
ATOM     32  C   UNL A   1      30.347  30.035  22.322  1.00  0.00     0.048 A 
BRANCH  31  33
ATOM     33  O   UNL A   1      27.936  30.027  22.135  1.00  0.00    -0.479 OA
BRANCH  33  34
ATOM     34  C   UNL A   1      27.932  30.775  20.816  1.00  0.00     0.349 C 
BRANCH  34  35
ATOM     35  C   UNL A   1      27.818  32.268  21.079  1.00  0.00     0.104 C 
ATOM     36  N   UNL A   1      27.725  33.507  21.298  1.00  0.00    -0.195 NA
ENDBRANCH  34  35
ENDBRANCH  33  34
ENDBRANCH  31  33
ENDBRANCH   7  23
ENDBRANCH   4   7
ENDBRANCH   2   3
ENDBRANCH   1   2
BRANCH   1  37
ATOM     37  C   UNL A   1      31.716  31.194  26.880  1.00  0.00     0.023 C 
BRANCH  37  38
ATOM     38  C   UNL A   1      32.960  32.027  27.103  1.00  0.00     0.116 C 
BRANCH  38  39
ATOM     39  N   UNL A   1      32.654  33.413  27.430  1.00  0.00    -0.352 N 
ATOM     40  C   UNL A   1      33.193  34.206  28.422  1.00  0.00     0.251 C 
ATOM     41  H   UNL A   1      31.970  33.842  26.868  1.00  0.00     0.163 HD
ATOM     42  O   UNL A   1      32.707  35.306  28.648  1.00  0.00    -0.269 OA
BRANCH  40  43
ATOM     43  C   UNL A   1      34.349  33.720  29.219  1.00  0.00     0.039 A 
ATOM     44  C   UNL A   1      35.622  34.236  28.960  1.00  0.00     0.014 A 
ATOM     45  C   UNL A   1      34.187  32.738  30.198  1.00  0.00     0.014 A 
ATOM     46  C   UNL A   1      36.720  33.766  29.687  1.00  0.00     0.010 A 
ATOM     47  C   UNL A   1      35.251  32.371  31.007  1.00  0.00     0.010 A 
ATOM     48  C   UNL A   1      36.538  32.830  30.717  1.00  0.00    -0.014 A 
BRANCH  48  49
ATOM     49  C   UNL A   1      37.688  32.235  31.435  1.00  0.00     0.031 A 
ATOM     50  C   UNL A   1      38.471  31.121  30.784  1.00  0.00     0.074 A 
ATOM     51  C   UNL A   1      37.989  32.653  32.679  1.00  0.00     0.049 A 
ATOM     52  N   UNL A   1      39.495  30.453  31.245  1.00  0.00    -0.248 NA
ATOM     53  C   UNL A   1      38.021  30.669  29.454  1.00  0.00     0.031 C 
ATOM     54  C   UNL A   1      37.244  33.659  33.438  1.00  0.00     0.029 A 
ATOM     55  N   UNL A   1      38.995  32.273  33.528  1.00  0.00    -0.354 N 
ATOM     56  C   UNL A   1      39.779  29.485  30.287  1.00  0.00     0.074 A 
ATOM     57  C   UNL A   1      38.787  29.611  29.246  1.00  0.00     0.031 C 
ATOM     58  C   UNL A   1      37.832  33.833  34.632  1.00  0.00     0.029 A 
ATOM     59  C   UNL A   1      38.978  32.935  34.733  1.00  0.00     0.049 A 
ATOM     60  H   UNL A   1      39.668  31.592  33.297  1.00  0.00     0.167 HD
ATOM     61  C   UNL A   1      40.801  28.598  30.254  1.00  0.00     0.034 A 
ATOM     62  C   UNL A   1      39.800  32.828  35.793  1.00  0.00     0.034 A 
ATOM     63  C   UNL A   1      41.813  28.522  31.269  1.00  0.00     0.049 A 
ATOM     64  C   UNL A   1      40.968  31.884  35.702  1.00  0.00     0.074 A 
ATOM     65  C   UNL A   1      42.943  27.727  31.302  1.00  0.00     0.029 A 
ATOM     66  N   UNL A   1      41.815  29.276  32.433  1.00  0.00    -0.354 N 
ATOM     67  N   UNL A   1      41.308  31.082  34.722  1.00  0.00    -0.248 NA
ATOM     68  C   UNL A   1      41.894  31.865  36.843  1.00  0.00     0.031 C 
ATOM     69  C   UNL A   1      43.613  27.979  32.504  1.00  0.00     0.029 A 
ATOM     70  C   UNL A   1      42.924  28.963  33.197  1.00  0.00     0.049 A 
ATOM     71  H   UNL A   1      41.128  29.937  32.679  1.00  0.00     0.167 HD
ATOM     72  C   UNL A   1      42.507  30.494  35.107  1.00  0.00     0.074 A 
ATOM     73  C   UNL A   1      42.843  31.051  36.402  1.00  0.00     0.031 C 
ATOM     74  C   UNL A   1      43.258  29.570  34.459  1.00  0.00     0.034 A 
BRANCH  61  75
ATOM     75  C   UNL A   1      40.896  27.679  29.061  1.00  0.00     0.023 A 
ATOM     76  C   UNL A   1      40.003  26.594  28.938  1.00  0.00     0.012 A 
ATOM     77  C   UNL A   1      41.843  27.909  28.045  1.00  0.00     0.148 A 
ATOM     78  C   UNL A   1      40.079  25.728  27.847  1.00  0.00     0.002 A 
ATOM     79  C   UNL A   1      41.878  27.074  26.934  1.00  0.00     0.091 A 
ATOM     80  F   UNL A   1      42.698  28.932  28.188  1.00  0.00    -0.205 F 
ATOM     81  C   UNL A   1      41.008  25.975  26.841  1.00  0.00     0.022 A 
BRANCH  79  82
ATOM     82  S   UNL A   1      42.979  27.353  25.543  1.00  0.00     0.127 S 
ATOM     83  O   UNL A   1      42.220  28.327  24.757  1.00  0.00    -0.237 OA
ATOM     84  O   UNL A   1      44.169  27.895  26.200  1.00  0.00    -0.237 OA
ATOM     85  O   UNL A   1      43.168  26.055  24.911  1.00  0.00    -0.744 OA
ENDBRANCH  79  82
ENDBRANCH  61  75
BRANCH  62  86
ATOM     86  C   UNL A   1      39.593  33.692  36.990  1.00  0.00     0.023 A 
ATOM     87  C   UNL A   1      40.093  35.009  36.992  1.00  0.00     0.012 A 
ATOM     88  C   UNL A   1      38.882  33.226  38.112  1.00  0.00     0.148 A 
ATOM     89  C   UNL A   1      39.924  35.832  38.106  1.00  0.00     0.002 A 
ATOM     90  C   UNL A   1      38.668  34.070  39.196  1.00  0.00     0.091 A 
ATOM     91  F   UNL A   1      38.419  31.968  38.092  1.00  0.00    -0.205 F 
ATOM     92  C   UNL A   1      39.204  35.366  39.203  1.00  0.00     0.022 A 
BRANCH  90  93
ATOM     93  S   UNL A   1      37.643  33.600  40.594  1.00  0.00     0.127 S 
ATOM     94  O   UNL A   1      38.553  32.753  41.360  1.00  0.00    -0.237 OA
ATOM     95  O   UNL A   1      37.349  34.898  41.201  1.00  0.00    -0.237 OA
ATOM     96  O   UNL A   1      36.483  32.928  40.024  1.00  0.00    -0.744 OA
ENDBRANCH  90  93
ENDBRANCH  62  86
BRANCH  74  97
ATOM     97  C   UNL A   1      44.546  29.144  35.111  1.00  0.00     0.023 A 
ATOM     98  C   UNL A   1      45.724  29.888  34.908  1.00  0.00     0.012 A 
ATOM     99  C   UNL A   1      44.569  28.031  35.976  1.00  0.00     0.148 A 
ATOM    100  C   UNL A   1      46.916  29.506  35.519  1.00  0.00     0.002 A 
ATOM    101  C   UNL A   1      45.747  27.690  36.626  1.00  0.00     0.091 A 
ATOM    102  F   UNL A   1      43.441  27.325  36.141  1.00  0.00    -0.205 F 
ATOM    103  C   UNL A   1      46.925  28.415  36.386  1.00  0.00     0.022 A 
BRANCH 101 104
ATOM    104  S   UNL A   1      45.822  26.370  37.840  1.00  0.00     0.127 S 
ATOM    105  O   UNL A   1      45.418  27.065  39.061  1.00  0.00    -0.237 OA
ATOM    106  O   UNL A   1      44.838  25.419  37.325  1.00  0.00    -0.237 OA
ATOM    107  O   UNL A   1      47.196  25.886  37.822  1.00  0.00    -0.744 OA
ENDBRANCH 101 104
ENDBRANCH  74  97
ENDBRANCH  48  49
ENDBRANCH  40  43
ENDBRANCH  38  39
ENDBRANCH  37  38
ENDBRANCH   1  37
TORSDOF 21
ENDMDL
MODEL 3
REMARK VINA RESULT:     -11.8      2.533      2.926
REMARK SMILES COc1ccccc1N1CC[NH+]([C@@H](C(=O)NCCCCNC(=O)c2ccc(-c3c4nc(c(-c5cccc(S(=O)(=O)[O-])c5F)c5ccc([nH]5)c(-c5cccc(S(=O)(=O)[O-])c5F)c5nc(c(-c6cccc(S(=O)(=O)[O-])c6F)c6ccc3[nH]6)C=C5)C=C4)cc2)c2c[nH]c3ccc(OCC#N)cc23)CC1
REMARK SMILES IDX 18 1 17 2 16 3 14 4 15 5 13 7 12 8 9 9 10 10 101 11 11 12
REMARK SMILES IDX 100 13 8 15 3 16 4 17 5 18 7 19 6 20 2 21 1 22 87 23 88 24
REMARK SMILES IDX 99 25 89 26 90 27 98 28 91 30 93 31 92 32 94 33 95 34 96 35
REMARK SMILES IDX 97 36 19 37 20 38 21 39 22 40 23 42 24 43 25 44 86 45 26 46
REMARK SMILES IDX 85 47 27 48 28 49 29 50 79 51 30 52 84 53 78 54 80 55 31 56
REMARK SMILES IDX 83 57 77 58 76 59 32 61 64 62 44 63 63 64 45 65 48 66 62 67
REMARK SMILES IDX 81 68 46 69 47 70 61 72 82 73 49 74 33 75 34 76 42 77 35 78
REMARK SMILES IDX 37 79 43 80 36 81 38 82 39 83 40 84 41 85 65 86 66 87 74 88
REMARK SMILES IDX 67 89 69 90 75 91 68 92 70 93 71 94 72 95 73 96 50 97 51 98
REMARK SMILES IDX 59 99 52 100 54 101 60 102 53 103 55 104 56 105 57 106
REMARK SMILES IDX 58 107
REMARK H PARENT 16 6 12 14 89 29 21 41 80 60 48 71
REMARK Flexibility Score: inf
ROOT
ATOM      1  C   UNL A   1      32.539  28.366  26.058  1.00  0.00     0.023 C 
ENDROOT
BRANCH   1   2
ATOM      2  C   UNL A   1      33.621  27.319  26.497  1.00  0.00     0.116 C 
BRANCH   2   3
ATOM      3  N   UNL A   1      33.969  26.202  25.572  1.00  0.00    -0.351 N 
ATOM      4  C   UNL A   1      33.412  25.262  24.716  1.00  0.00     0.283 C 
ATOM      5  O   UNL A   1      34.271  24.702  24.013  1.00  0.00    -0.268 OA
ATOM      6  H   UNL A   1      34.947  26.091  25.567  1.00  0.00     0.163 HD
BRANCH   4   7
ATOM      7  C   UNL A   1      31.884  24.910  24.490  1.00  0.00     0.307 C 
BRANCH   7   8
ATOM      8  N   UNL A   1      31.363  23.506  24.753  1.00  0.00    -0.318 N 
ATOM      9  N   UNL A   1      33.508  21.496  24.694  1.00  0.00    -0.357 N 
ATOM     10  C   UNL A   1      32.955  22.023  23.445  1.00  0.00     0.178 C 
ATOM     11  C   UNL A   1      33.352  22.395  25.838  1.00  0.00     0.178 C 
ATOM     12  C   UNL A   1      31.510  22.436  23.747  1.00  0.00     0.284 C 
ATOM     13  C   UNL A   1      31.888  22.894  25.973  1.00  0.00     0.284 C 
ATOM     14  H   UNL A   1      30.380  23.778  24.778  1.00  0.00     0.349 HD
BRANCH   9  15
ATOM     15  C   UNL A   1      34.748  20.859  24.687  1.00  0.00     0.080 A 
ATOM     16  C   UNL A   1      34.876  19.455  24.762  1.00  0.00     0.142 A 
ATOM     17  C   UNL A   1      36.157  18.888  24.840  1.00  0.00     0.048 A 
ATOM     18  C   UNL A   1      37.305  19.678  24.867  1.00  0.00     0.004 A 
ATOM     19  C   UNL A   1      35.924  21.640  24.729  1.00  0.00     0.030 A 
ATOM     20  C   UNL A   1      37.188  21.060  24.820  1.00  0.00     0.002 A 
BRANCH  16  21
ATOM     21  O   UNL A   1      33.896  18.494  24.783  1.00  0.00    -0.495 OA
ATOM     22  C   UNL A   1      33.059  18.288  23.660  1.00  0.00     0.278 C 
ENDBRANCH  16  21
ENDBRANCH   9  15
ENDBRANCH   7   8
BRANCH   7  23
ATOM     23  C   UNL A   1      31.166  25.634  23.201  1.00  0.00     0.044 A 
ATOM     24  C   UNL A   1      31.823  25.493  21.972  1.00  0.00     0.094 A 
ATOM     25  C   UNL A   1      30.621  27.001  22.988  1.00  0.00     0.013 A 
ATOM     26  N   UNL A   1      32.495  26.689  21.842  1.00  0.00    -0.361 N 
ATOM     27  C   UNL A   1      31.657  27.673  22.332  1.00  0.00     0.046 A 
ATOM     28  C   UNL A   1      29.380  27.741  23.023  1.00  0.00     0.057 A 
ATOM     29  H   UNL A   1      33.399  26.817  21.471  1.00  0.00     0.166 HD
ATOM     30  C   UNL A   1      31.739  29.066  22.255  1.00  0.00     0.030 A 
ATOM     31  C   UNL A   1      29.352  29.125  22.623  1.00  0.00     0.121 A 
ATOM     32  C   UNL A   1      30.560  29.787  22.445  1.00  0.00     0.048 A 
BRANCH  31  33
ATOM     33  O   UNL A   1      28.142  29.786  22.398  1.00  0.00    -0.479 OA
BRANCH  33  34
ATOM     34  C   UNL A   1      27.999  30.655  21.163  1.00  0.00     0.349 C 
BRANCH  34  35
ATOM     35  C   UNL A   1      28.001  32.120  21.570  1.00  0.00     0.104 C 
ATOM     36  N   UNL A   1      28.003  33.335  21.909  1.00  0.00    -0.195 NA
ENDBRANCH  34  35
ENDBRANCH  33  34
ENDBRANCH  31  33
ENDBRANCH   7  23
ENDBRANCH   4   7
ENDBRANCH   2   3
ENDBRANCH   1   2
BRANCH   1  37
ATOM     37  C   UNL A   1      32.537  29.733  26.758  1.00  0.00     0.023 C 
BRANCH  37  38
ATOM     38  C   UNL A   1      33.901  30.220  27.197  1.00  0.00     0.116 C 
BRANCH  38  39
ATOM     39  N   UNL A   1      33.847  31.517  27.856  1.00  0.00    -0.352 N 
ATOM     40  C   UNL A   1      34.702  32.042  28.802  1.00  0.00     0.251 C 
ATOM     41  H   UNL A   1      33.099  32.099  27.590  1.00  0.00     0.163 HD
ATOM     42  O   UNL A   1      34.417  33.094  29.359  1.00  0.00    -0.269 OA
BRANCH  40  43
ATOM     43  C   UNL A   1      35.955  31.326  29.154  1.00  0.00     0.039 A 
ATOM     44  C   UNL A   1      35.883  30.162  29.925  1.00  0.00     0.014 A 
ATOM     45  C   UNL A   1      37.201  31.812  28.752  1.00  0.00     0.014 A 
ATOM     46  C   UNL A   1      37.058  29.495  30.283  1.00  0.00     0.010 A 
ATOM     47  C   UNL A   1      38.352  31.079  28.993  1.00  0.00     0.010 A 
ATOM     48  C   UNL A   1      38.301  29.952  29.816  1.00  0.00    -0.014 A 
BRANCH  48  49
ATOM     49  C   UNL A   1      39.570  29.332  30.260  1.00  0.00     0.031 A 
ATOM     50  C   UNL A   1      40.255  29.853  31.500  1.00  0.00     0.074 A 
ATOM     51  C   UNL A   1      40.128  28.351  29.526  1.00  0.00     0.049 A 
ATOM     52  N   UNL A   1      41.376  29.468  32.048  1.00  0.00    -0.248 NA
ATOM     53  C   UNL A   1      39.615  30.986  32.197  1.00  0.00     0.031 C 
ATOM     54  C   UNL A   1      39.600  27.833  28.263  1.00  0.00     0.029 A 
ATOM     55  N   UNL A   1      41.271  27.624  29.732  1.00  0.00    -0.354 N 
ATOM     56  C   UNL A   1      41.592  30.330  33.118  1.00  0.00     0.074 A 
ATOM     57  C   UNL A   1      40.520  31.297  33.110  1.00  0.00     0.031 C 
ATOM     58  C   UNL A   1      40.405  26.856  27.817  1.00  0.00     0.029 A 
ATOM     59  C   UNL A   1      41.518  26.696  28.748  1.00  0.00     0.049 A 
ATOM     60  H   UNL A   1      41.860  27.753  30.511  1.00  0.00     0.167 HD
ATOM     61  C   UNL A   1      42.572  30.296  34.050  1.00  0.00     0.034 A 
ATOM     62  C   UNL A   1      42.527  25.815  28.620  1.00  0.00     0.034 A 
ATOM     63  C   UNL A   1      43.600  29.295  34.079  1.00  0.00     0.049 A 
ATOM     64  C   UNL A   1      43.565  25.752  29.707  1.00  0.00     0.074 A 
ATOM     65  C   UNL A   1      44.594  29.105  35.021  1.00  0.00     0.029 A 
ATOM     66  N   UNL A   1      43.763  28.311  33.115  1.00  0.00    -0.354 N 
ATOM     67  N   UNL A   1      43.670  26.479  30.793  1.00  0.00    -0.248 NA
ATOM     68  C   UNL A   1      44.598  24.714  29.576  1.00  0.00     0.031 C 
ATOM     69  C   UNL A   1      45.377  28.021  34.609  1.00  0.00     0.029 A 
ATOM     70  C   UNL A   1      44.845  27.511  33.436  1.00  0.00     0.049 A 
ATOM     71  H   UNL A   1      43.194  28.198  32.321  1.00  0.00     0.167 HD
ATOM     72  C   UNL A   1      44.752  25.962  31.496  1.00  0.00     0.074 A 
ATOM     73  C   UNL A   1      45.254  24.846  30.720  1.00  0.00     0.031 C 
ATOM     74  C   UNL A   1      45.291  26.376  32.670  1.00  0.00     0.034 A 
BRANCH  61  75
ATOM     75  C   UNL A   1      42.545  31.342  35.138  1.00  0.00     0.023 A 
ATOM     76  C   UNL A   1      41.986  31.033  36.395  1.00  0.00     0.012 A 
ATOM     77  C   UNL A   1      43.106  32.617  34.929  1.00  0.00     0.148 A 
ATOM     78  C   UNL A   1      41.945  31.987  37.412  1.00  0.00     0.002 A 
ATOM     79  C   UNL A   1      43.109  33.545  35.964  1.00  0.00     0.091 A 
ATOM     80  F   UNL A   1      43.613  32.902  33.721  1.00  0.00    -0.205 F 
ATOM     81  C   UNL A   1      42.517  33.238  37.199  1.00  0.00     0.022 A 
BRANCH  79  82
ATOM     82  S   UNL A   1      43.894  35.155  35.821  1.00  0.00     0.127 S 
ATOM     83  O   UNL A   1      43.759  35.670  37.184  1.00  0.00    -0.237 OA
ATOM     84  O   UNL A   1      45.259  34.796  35.438  1.00  0.00    -0.237 OA
ATOM     85  O   UNL A   1      43.145  35.880  34.804  1.00  0.00    -0.744 OA
ENDBRANCH  79  82
ENDBRANCH  61  75
BRANCH  62  86
ATOM     86  C   UNL A   1      42.556  24.874  27.464  1.00  0.00     0.023 A 
ATOM     87  C   UNL A   1      43.146  25.280  26.251  1.00  0.00     0.012 A 
ATOM     88  C   UNL A   1      42.028  23.573  27.569  1.00  0.00     0.148 A 
ATOM     89  C   UNL A   1      43.174  24.421  25.151  1.00  0.00     0.002 A 
ATOM     90  C   UNL A   1      42.109  22.704  26.488  1.00  0.00     0.091 A 
ATOM     91  F   UNL A   1      41.466  23.208  28.730  1.00  0.00    -0.205 F 
ATOM     92  C   UNL A   1      42.664  23.132  25.272  1.00  0.00     0.022 A 
BRANCH  90  93
ATOM     93  S   UNL A   1      41.598  20.985  26.594  1.00  0.00     0.127 S 
ATOM     94  O   UNL A   1      40.142  21.106  26.580  1.00  0.00    -0.237 OA
ATOM     95  O   UNL A   1      42.183  20.422  25.377  1.00  0.00    -0.237 OA
ATOM     96  O   UNL A   1      42.179  20.477  27.830  1.00  0.00    -0.744 OA
ENDBRANCH  90  93
ENDBRANCH  62  86
BRANCH  74  97
ATOM     97  C   UNL A   1      46.449  25.586  33.216  1.00  0.00     0.023 A 
ATOM     98  C   UNL A   1      46.226  24.547  34.140  1.00  0.00     0.012 A 
ATOM     99  C   UNL A   1      47.759  25.842  32.763  1.00  0.00     0.148 A 
ATOM    100  C   UNL A   1      47.294  23.804  34.640  1.00  0.00     0.002 A 
ATOM    101  C   UNL A   1      48.811  25.060  33.221  1.00  0.00     0.091 A 
ATOM    102  F   UNL A   1      47.952  26.848  31.897  1.00  0.00    -0.205 F 
ATOM    103  C   UNL A   1      48.583  24.052  34.173  1.00  0.00     0.022 A 
BRANCH 101 104
ATOM    104  S   UNL A   1      50.482  25.239  32.592  1.00  0.00     0.127 S 
ATOM    105  O   UNL A   1      51.280  25.014  33.797  1.00  0.00    -0.237 OA
ATOM    106  O   UNL A   1      50.557  24.167  31.601  1.00  0.00    -0.237 OA
ATOM    107  O   UNL A   1      50.558  26.583  32.033  1.00  0.00    -0.744 OA
ENDBRANCH 101 104
ENDBRANCH  74  97
ENDBRANCH  48  49
ENDBRANCH  40  43
ENDBRANCH  38  39
ENDBRANCH  37  38
ENDBRANCH   1  37
TORSDOF 21
ENDMDL
