MODEL 1
REMARK VINA RESULT:     -13.1      0.000      0.000
REMARK SMILES O=C(NCCCCNC(=O)[C@@H]1CCCN1S(=O)(=O)c1ccc2c3c(cccc13)C(=O)N2)c1ccc(-c2c3nc(c(-c4cccc(S(=O)(=O)[O-])c4F)c4ccc([nH]4)c(-c4cccc(S(=O)(=O)[O-])c4F)c4nc(c(-c5cccc(S(=O)(=O)[O-])c5F)c5ccc2[nH]5)C=C4)C=C3)cc1
REMARK SMILES IDX 5 1 4 2 3 3 1 4 2 5 32 7 33 8 94 9 34 10 93 11 35 12 36 13
REMARK SMILES IDX 37 14 87 15 38 16 92 17 86 18 88 19 39 20 91 21 85 22 84 23
REMARK SMILES IDX 40 25 72 26 52 27 71 28 53 29 56 30 70 31 89 32 54 33 55 34
REMARK SMILES IDX 69 36 90 37 57 38 41 39 42 40 50 41 43 42 45 43 51 44 44 45
REMARK SMILES IDX 46 46 47 47 48 48 49 49 73 50 74 51 82 52 75 53 77 54 83 55
REMARK SMILES IDX 76 56 78 57 79 58 80 59 81 60 58 61 59 62 67 63 60 64 62 65
REMARK SMILES IDX 68 66 61 67 63 68 64 69 65 70 66 71 6 72 7 73 8 74 9 75
REMARK SMILES IDX 10 77 11 78 12 79 15 80 13 81 14 82 16 83 17 84 18 85 19 86
REMARK SMILES IDX 20 87 28 88 21 89 23 90 27 91 22 92 24 93 26 94 31 95 25 96
REMARK SMILES IDX 29 97 30 99
REMARK H PARENT 3 6 88 24 56 35 8 76 31 98
REMARK Flexibility Score: inf
ROOT
ATOM      1  C   UNL A   1      31.700  31.865  26.779  1.00  0.00     0.023 C 
ENDROOT
BRANCH   1   2
ATOM      2  C   UNL A   1      32.947  32.560  27.312  1.00  0.00     0.116 C 
BRANCH   2   3
ATOM      3  N   UNL A   1      32.681  33.948  27.653  1.00  0.00    -0.352 N 
ATOM      4  O   UNL A   1      32.680  35.764  28.987  1.00  0.00    -0.269 OA
ATOM      5  C   UNL A   1      33.179  34.682  28.700  1.00  0.00     0.251 C 
ATOM      6  H   UNL A   1      32.060  34.423  27.056  1.00  0.00     0.163 HD
BRANCH   5   7
ATOM      7  C   UNL A   1      34.312  34.139  29.472  1.00  0.00     0.039 A 
ATOM      8  C   UNL A   1      35.624  34.430  29.081  1.00  0.00     0.014 A 
ATOM      9  C   UNL A   1      34.058  33.322  30.575  1.00  0.00     0.014 A 
ATOM     10  C   UNL A   1      36.685  33.812  29.732  1.00  0.00     0.010 A 
ATOM     11  C   UNL A   1      35.128  32.745  31.258  1.00  0.00     0.010 A 
ATOM     12  C   UNL A   1      36.445  32.961  30.822  1.00  0.00    -0.014 A 
BRANCH  12  13
ATOM     13  C   UNL A   1      37.588  32.324  31.516  1.00  0.00     0.031 A 
ATOM     14  C   UNL A   1      38.344  31.196  30.873  1.00  0.00     0.074 A 
ATOM     15  C   UNL A   1      37.947  32.778  32.732  1.00  0.00     0.049 A 
ATOM     16  N   UNL A   1      39.380  30.545  31.328  1.00  0.00    -0.248 NA
ATOM     17  C   UNL A   1      37.883  30.743  29.551  1.00  0.00     0.031 C 
ATOM     18  C   UNL A   1      37.274  33.858  33.459  1.00  0.00     0.029 A 
ATOM     19  N   UNL A   1      38.958  32.389  33.570  1.00  0.00    -0.354 N 
ATOM     20  C   UNL A   1      39.686  29.592  30.365  1.00  0.00     0.074 A 
ATOM     21  C   UNL A   1      38.719  29.743  29.300  1.00  0.00     0.031 C 
ATOM     22  C   UNL A   1      37.897  34.049  34.632  1.00  0.00     0.029 A 
ATOM     23  C   UNL A   1      38.986  33.085  34.755  1.00  0.00     0.049 A 
ATOM     24  H   UNL A   1      39.603  31.679  33.346  1.00  0.00     0.167 HD
ATOM     25  C   UNL A   1      40.692  28.689  30.364  1.00  0.00     0.034 A 
ATOM     26  C   UNL A   1      39.790  32.955  35.828  1.00  0.00     0.034 A 
ATOM     27  C   UNL A   1      41.663  28.556  31.415  1.00  0.00     0.049 A 
ATOM     28  C   UNL A   1      40.885  31.929  35.807  1.00  0.00     0.074 A 
ATOM     29  C   UNL A   1      42.748  27.698  31.473  1.00  0.00     0.029 A 
ATOM     30  N   UNL A   1      41.664  29.285  32.593  1.00  0.00    -0.354 N 
ATOM     31  N   UNL A   1      41.218  31.106  34.844  1.00  0.00    -0.248 NA
ATOM     32  C   UNL A   1      41.728  31.826  37.007  1.00  0.00     0.031 C 
ATOM     33  C   UNL A   1      43.391  27.892  32.697  1.00  0.00     0.029 A 
ATOM     34  C   UNL A   1      42.723  28.888  33.389  1.00  0.00     0.049 A 
ATOM     35  H   UNL A   1      41.008  29.981  32.828  1.00  0.00     0.167 HD
ATOM     36  C   UNL A   1      42.322  30.402  35.309  1.00  0.00     0.074 A 
ATOM     37  C   UNL A   1      42.610  30.904  36.638  1.00  0.00     0.031 C 
ATOM     38  C   UNL A   1      43.024  29.423  34.692  1.00  0.00     0.034 A 
BRANCH  25  39
ATOM     39  C   UNL A   1      40.839  27.787  29.170  1.00  0.00     0.023 A 
ATOM     40  C   UNL A   1      40.038  26.633  29.075  1.00  0.00     0.012 A 
ATOM     41  C   UNL A   1      41.670  28.150  28.092  1.00  0.00     0.148 A 
ATOM     42  C   UNL A   1      40.060  25.850  27.923  1.00  0.00     0.002 A 
ATOM     43  C   UNL A   1      41.666  27.380  26.935  1.00  0.00     0.091 A 
ATOM     44  F   UNL A   1      42.428  29.249  28.212  1.00  0.00    -0.205 F 
ATOM     45  C   UNL A   1      40.864  26.229  26.850  1.00  0.00     0.022 A 
BRANCH  43  46
ATOM     46  S   UNL A   1      42.626  27.805  25.479  1.00  0.00     0.127 S 
ATOM     47  O   UNL A   1      42.442  26.615  24.648  1.00  0.00    -0.237 OA
ATOM     48  O   UNL A   1      41.937  29.000  24.995  1.00  0.00    -0.237 OA
ATOM     49  O   UNL A   1      43.989  28.026  25.942  1.00  0.00    -0.744 OA
ENDBRANCH  43  46
ENDBRANCH  25  39
BRANCH  26  50
ATOM     50  C   UNL A   1      39.602  33.865  36.988  1.00  0.00     0.023 A 
ATOM     51  C   UNL A   1      39.976  35.217  36.872  1.00  0.00     0.012 A 
ATOM     52  C   UNL A   1      38.987  33.414  38.171  1.00  0.00     0.148 A 
ATOM     53  C   UNL A   1      39.746  36.106  37.922  1.00  0.00     0.002 A 
ATOM     54  C   UNL A   1      38.727  34.312  39.199  1.00  0.00     0.091 A 
ATOM     55  F   UNL A   1      38.638  32.122  38.250  1.00  0.00    -0.205 F 
ATOM     56  C   UNL A   1      39.114  35.657  39.079  1.00  0.00     0.022 A 
BRANCH  54  57
ATOM     57  S   UNL A   1      37.840  33.851  40.690  1.00  0.00     0.127 S 
ATOM     58  O   UNL A   1      36.632  33.241  40.140  1.00  0.00    -0.237 OA
ATOM     59  O   UNL A   1      38.774  32.914  41.313  1.00  0.00    -0.237 OA
ATOM     60  O   UNL A   1      37.633  35.088  41.430  1.00  0.00    -0.744 OA
ENDBRANCH  54  57
ENDBRANCH  26  50
BRANCH  38  61
ATOM     61  C   UNL A   1      44.195  28.820  35.418  1.00  0.00     0.023 A 
ATOM     62  C   UNL A   1      45.475  29.386  35.258  1.00  0.00     0.012 A 
ATOM     63  C   UNL A   1      43.999  27.792  36.360  1.00  0.00     0.148 A 
ATOM     64  C   UNL A   1      46.545  28.932  36.027  1.00  0.00     0.002 A 
ATOM     65  C   UNL A   1      45.062  27.369  37.146  1.00  0.00     0.091 A 
ATOM     66  F   UNL A   1      42.770  27.271  36.487  1.00  0.00    -0.205 F 
ATOM     67  C   UNL A   1      46.337  27.936  36.979  1.00  0.00     0.022 A 
BRANCH  65  68
ATOM     68  S   UNL A   1      44.881  26.142  38.445  1.00  0.00     0.127 S 
ATOM     69  O   UNL A   1      44.302  25.017  37.711  1.00  0.00    -0.237 OA
ATOM     70  O   UNL A   1      46.264  25.943  38.876  1.00  0.00    -0.237 OA
ATOM     71  O   UNL A   1      44.008  26.738  39.448  1.00  0.00    -0.744 OA
ENDBRANCH  65  68
ENDBRANCH  38  61
ENDBRANCH  12  13
ENDBRANCH   5   7
ENDBRANCH   2   3
ENDBRANCH   1   2
BRANCH   1  72
ATOM     72  C   UNL A   1      31.799  30.335  26.743  1.00  0.00     0.023 C 
BRANCH  72  73
ATOM     73  C   UNL A   1      32.107  29.765  25.354  1.00  0.00     0.116 C 
BRANCH  73  74
ATOM     74  N   UNL A   1      31.095  28.789  24.989  1.00  0.00    -0.355 N 
ATOM     75  C   UNL A   1      31.126  28.181  23.756  1.00  0.00     0.238 C 
ATOM     76  H   UNL A   1      30.383  28.559  25.630  1.00  0.00     0.163 HD
ATOM     77  O   UNL A   1      30.195  28.384  22.981  1.00  0.00    -0.273 OA
BRANCH  75  78
ATOM     78  C   UNL A   1      32.319  27.318  23.453  1.00  0.00     0.162 C 
ATOM     79  C   UNL A   1      32.174  26.745  22.048  1.00  0.00     0.032 C 
ATOM     80  N   UNL A   1      32.749  26.149  24.290  1.00  0.00    -0.185 NA
ATOM     81  C   UNL A   1      33.393  25.863  21.936  1.00  0.00     0.019 C 
ATOM     82  C   UNL A   1      33.604  25.319  23.347  1.00  0.00     0.103 C 
BRANCH  80  83
ATOM     83  S   UNL A   1      31.612  25.184  25.154  1.00  0.00     0.244 S 
ATOM     84  O   UNL A   1      31.317  25.844  26.405  1.00  0.00    -0.207 OA
ATOM     85  O   UNL A   1      30.532  24.958  24.213  1.00  0.00    -0.207 OA
BRANCH  83  86
ATOM     86  C   UNL A   1      32.322  23.565  25.524  1.00  0.00     0.090 A 
ATOM     87  C   UNL A   1      32.632  23.273  26.875  1.00  0.00     0.024 A 
ATOM     88  C   UNL A   1      32.328  22.490  24.560  1.00  0.00     0.005 A 
ATOM     89  C   UNL A   1      33.060  22.012  27.326  1.00  0.00     0.028 A 
ATOM     90  C   UNL A   1      32.702  21.270  25.068  1.00  0.00     0.019 A 
ATOM     91  C   UNL A   1      31.959  22.415  23.184  1.00  0.00     0.010 A 
ATOM     92  C   UNL A   1      33.067  21.024  26.372  1.00  0.00     0.050 A 
ATOM     93  C   UNL A   1      32.697  20.049  24.404  1.00  0.00     0.050 A 
ATOM     94  C   UNL A   1      31.938  21.191  22.473  1.00  0.00     0.002 A 
ATOM     95  N   UNL A   1      33.317  19.672  26.501  1.00  0.00    -0.321 N 
ATOM     96  C   UNL A   1      32.299  19.982  23.075  1.00  0.00     0.014 A 
ATOM     97  C   UNL A   1      33.095  18.986  25.305  1.00  0.00     0.256 C 
ATOM     98  H   UNL A   1      33.616  19.243  27.334  1.00  0.00     0.170 HD
ATOM     99  O   UNL A   1      33.216  17.778  25.155  1.00  0.00    -0.269 OA
ENDBRANCH  83  86
ENDBRANCH  80  83
ENDBRANCH  75  78
ENDBRANCH  73  74
ENDBRANCH  72  73
ENDBRANCH   1  72
TORSDOF 16
ENDMDL
MODEL 2
REMARK VINA RESULT:     -13.1      6.203     11.572
REMARK SMILES O=C(NCCCCNC(=O)[C@@H]1CCCN1S(=O)(=O)c1ccc2c3c(cccc13)C(=O)N2)c1ccc(-c2c3nc(c(-c4cccc(S(=O)(=O)[O-])c4F)c4ccc([nH]4)c(-c4cccc(S(=O)(=O)[O-])c4F)c4nc(c(-c5cccc(S(=O)(=O)[O-])c5F)c5ccc2[nH]5)C=C4)C=C3)cc1
REMARK SMILES IDX 5 1 4 2 3 3 1 4 2 5 32 7 33 8 94 9 34 10 93 11 35 12 36 13
REMARK SMILES IDX 37 14 87 15 38 16 92 17 86 18 88 19 39 20 91 21 85 22 84 23
REMARK SMILES IDX 40 25 72 26 52 27 71 28 53 29 56 30 70 31 89 32 54 33 55 34
REMARK SMILES IDX 69 36 90 37 57 38 41 39 42 40 50 41 43 42 45 43 51 44 44 45
REMARK SMILES IDX 46 46 47 47 48 48 49 49 73 50 74 51 82 52 75 53 77 54 83 55
REMARK SMILES IDX 76 56 78 57 79 58 80 59 81 60 58 61 59 62 67 63 60 64 62 65
REMARK SMILES IDX 68 66 61 67 63 68 64 69 65 70 66 71 6 72 7 73 8 74 9 75
REMARK SMILES IDX 10 77 11 78 12 79 15 80 13 81 14 82 16 83 17 84 18 85 19 86
REMARK SMILES IDX 20 87 28 88 21 89 23 90 27 91 22 92 24 93 26 94 31 95 25 96
REMARK SMILES IDX 29 97 30 99
REMARK H PARENT 3 6 88 24 56 35 8 76 31 98
REMARK Flexibility Score: inf
ROOT
ATOM      1  C   UNL A   1      38.241  19.899  24.942  1.00  0.00     0.023 C 
ENDROOT
BRANCH   1   2
ATOM      2  C   UNL A   1      39.223  20.145  26.082  1.00  0.00     0.116 C 
BRANCH   2   3
ATOM      3  N   UNL A   1      40.320  19.190  26.058  1.00  0.00    -0.352 N 
ATOM      4  O   UNL A   1      42.460  18.537  25.791  1.00  0.00    -0.269 OA
ATOM      5  C   UNL A   1      41.669  19.439  26.047  1.00  0.00     0.251 C 
ATOM      6  H   UNL A   1      40.060  18.241  26.046  1.00  0.00     0.163 HD
BRANCH   5   7
ATOM      7  C   UNL A   1      42.142  20.804  26.338  1.00  0.00     0.039 A 
ATOM      8  C   UNL A   1      42.238  21.240  27.664  1.00  0.00     0.014 A 
ATOM      9  C   UNL A   1      42.468  21.654  25.280  1.00  0.00     0.014 A 
ATOM     10  C   UNL A   1      42.559  22.567  27.927  1.00  0.00     0.010 A 
ATOM     11  C   UNL A   1      42.841  22.970  25.551  1.00  0.00     0.010 A 
ATOM     12  C   UNL A   1      42.858  23.443  26.873  1.00  0.00    -0.014 A 
BRANCH  12  13
ATOM     13  C   UNL A   1      43.215  24.849  27.171  1.00  0.00     0.031 A 
ATOM     14  C   UNL A   1      42.217  25.776  27.804  1.00  0.00     0.074 A 
ATOM     15  C   UNL A   1      44.454  25.283  26.875  1.00  0.00     0.049 A 
ATOM     16  N   UNL A   1      42.371  27.025  28.154  1.00  0.00    -0.248 NA
ATOM     17  C   UNL A   1      40.877  25.235  28.085  1.00  0.00     0.031 C 
ATOM     18  C   UNL A   1      45.500  24.474  26.243  1.00  0.00     0.029 A 
ATOM     19  N   UNL A   1      45.042  26.507  27.058  1.00  0.00    -0.354 N 
ATOM     20  C   UNL A   1      41.149  27.429  28.676  1.00  0.00     0.074 A 
ATOM     21  C   UNL A   1      40.257  26.294  28.590  1.00  0.00     0.031 C 
ATOM     22  C   UNL A   1      46.604  25.223  26.099  1.00  0.00     0.029 A 
ATOM     23  C   UNL A   1      46.333  26.570  26.593  1.00  0.00     0.049 A 
ATOM     24  H   UNL A   1      44.584  27.268  27.482  1.00  0.00     0.167 HD
ATOM     25  C   UNL A   1      40.811  28.631  29.195  1.00  0.00     0.034 A 
ATOM     26  C   UNL A   1      47.202  27.599  26.555  1.00  0.00     0.034 A 
ATOM     27  C   UNL A   1      41.708  29.750  29.297  1.00  0.00     0.049 A 
ATOM     28  C   UNL A   1      46.792  28.928  27.119  1.00  0.00     0.074 A 
ATOM     29  C   UNL A   1      41.462  30.993  29.855  1.00  0.00     0.029 A 
ATOM     30  N   UNL A   1      43.009  29.771  28.825  1.00  0.00    -0.354 N 
ATOM     31  N   UNL A   1      45.664  29.260  27.698  1.00  0.00    -0.248 NA
ATOM     32  C   UNL A   1      47.776  30.018  27.046  1.00  0.00     0.031 C 
ATOM     33  C   UNL A   1      42.609  31.774  29.698  1.00  0.00     0.029 A 
ATOM     34  C   UNL A   1      43.576  31.010  29.067  1.00  0.00     0.049 A 
ATOM     35  H   UNL A   1      43.463  29.018  28.382  1.00  0.00     0.167 HD
ATOM     36  C   UNL A   1      45.809  30.588  28.079  1.00  0.00     0.074 A 
ATOM     37  C   UNL A   1      47.139  30.998  27.676  1.00  0.00     0.031 C 
ATOM     38  C   UNL A   1      44.915  31.394  28.698  1.00  0.00     0.034 A 
BRANCH  25  39
ATOM     39  C   UNL A   1      39.422  28.807  29.742  1.00  0.00     0.023 A 
ATOM     40  C   UNL A   1      39.143  28.389  31.058  1.00  0.00     0.012 A 
ATOM     41  C   UNL A   1      38.440  29.497  29.006  1.00  0.00     0.148 A 
ATOM     42  C   UNL A   1      37.903  28.656  31.635  1.00  0.00     0.002 A 
ATOM     43  C   UNL A   1      37.215  29.783  29.597  1.00  0.00     0.091 A 
ATOM     44  F   UNL A   1      38.730  29.875  27.753  1.00  0.00    -0.205 F 
ATOM     45  C   UNL A   1      36.945  29.362  30.911  1.00  0.00     0.022 A 
BRANCH  43  46
ATOM     46  S   UNL A   1      35.931  30.727  28.771  1.00  0.00     0.127 S 
ATOM     47  O   UNL A   1      35.199  31.286  29.907  1.00  0.00    -0.237 OA
ATOM     48  O   UNL A   1      36.710  31.701  28.008  1.00  0.00    -0.237 OA
ATOM     49  O   UNL A   1      35.182  29.773  27.966  1.00  0.00    -0.744 OA
ENDBRANCH  43  46
ENDBRANCH  25  39
BRANCH  26  50
ATOM     50  C   UNL A   1      48.563  27.379  25.999  1.00  0.00     0.023 A 
ATOM     51  C   UNL A   1      49.583  26.900  26.841  1.00  0.00     0.012 A 
ATOM     52  C   UNL A   1      48.826  27.570  24.629  1.00  0.00     0.148 A 
ATOM     53  C   UNL A   1      50.849  26.619  26.327  1.00  0.00     0.002 A 
ATOM     54  C   UNL A   1      50.077  27.255  24.117  1.00  0.00     0.091 A 
ATOM     55  F   UNL A   1      47.832  28.024  23.852  1.00  0.00    -0.205 F 
ATOM     56  C   UNL A   1      51.093  26.787  24.966  1.00  0.00     0.022 A 
BRANCH  54  57
ATOM     57  S   UNL A   1      50.463  27.352  22.366  1.00  0.00     0.127 S 
ATOM     58  O   UNL A   1      50.363  28.788  22.119  1.00  0.00    -0.237 OA
ATOM     59  O   UNL A   1      51.822  26.813  22.331  1.00  0.00    -0.237 OA
ATOM     60  O   UNL A   1      49.465  26.533  21.692  1.00  0.00    -0.744 OA
ENDBRANCH  54  57
ENDBRANCH  26  50
BRANCH  38  61
ATOM     61  C   UNL A   1      45.324  32.807  29.010  1.00  0.00     0.023 A 
ATOM     62  C   UNL A   1      46.008  33.081  30.209  1.00  0.00     0.012 A 
ATOM     63  C   UNL A   1      45.158  33.826  28.052  1.00  0.00     0.148 A 
ATOM     64  C   UNL A   1      46.518  34.356  30.452  1.00  0.00     0.002 A 
ATOM     65  C   UNL A   1      45.699  35.083  28.286  1.00  0.00     0.091 A 
ATOM     66  F   UNL A   1      44.499  33.535  26.920  1.00  0.00    -0.205 F 
ATOM     67  C   UNL A   1      46.377  35.351  29.487  1.00  0.00     0.022 A 
BRANCH  65  68
ATOM     68  S   UNL A   1      45.629  36.409  27.077  1.00  0.00     0.127 S 
ATOM     69  O   UNL A   1      44.188  36.535  26.858  1.00  0.00    -0.237 OA
ATOM     70  O   UNL A   1      46.235  37.523  27.806  1.00  0.00    -0.237 OA
ATOM     71  O   UNL A   1      46.390  35.949  25.923  1.00  0.00    -0.744 OA
ENDBRANCH  65  68
ENDBRANCH  38  61
ENDBRANCH  12  13
ENDBRANCH   5   7
ENDBRANCH   2   3
ENDBRANCH   1   2
BRANCH   1  72
ATOM     72  C   UNL A   1      37.361  21.106  24.599  1.00  0.00     0.023 C 
BRANCH  72  73
ATOM     73  C   UNL A   1      36.069  21.186  25.418  1.00  0.00     0.116 C 
BRANCH  73  74
ATOM     74  N   UNL A   1      34.924  21.219  24.525  1.00  0.00    -0.355 N 
ATOM     75  C   UNL A   1      33.649  21.332  25.030  1.00  0.00     0.238 C 
ATOM     76  H   UNL A   1      35.061  21.161  23.551  1.00  0.00     0.163 HD
ATOM     77  O   UNL A   1      32.866  20.404  24.852  1.00  0.00    -0.273 OA
BRANCH  75  78
ATOM     78  C   UNL A   1      33.324  22.595  25.778  1.00  0.00     0.162 C 
ATOM     79  C   UNL A   1      31.901  22.502  26.315  1.00  0.00     0.032 C 
ATOM     80  N   UNL A   1      33.411  23.972  25.186  1.00  0.00    -0.185 NA
ATOM     81  C   UNL A   1      31.715  23.853  26.961  1.00  0.00     0.019 C 
ATOM     82  C   UNL A   1      32.517  24.811  26.082  1.00  0.00     0.103 C 
BRANCH  80  83
ATOM     83  S   UNL A   1      33.109  24.263  23.514  1.00  0.00     0.244 S 
ATOM     84  O   UNL A   1      34.326  23.994  22.782  1.00  0.00    -0.207 OA
ATOM     85  O   UNL A   1      31.927  23.478  23.213  1.00  0.00    -0.207 OA
BRANCH  83  86
ATOM     86  C   UNL A   1      32.662  25.992  23.253  1.00  0.00     0.090 A 
ATOM     87  C   UNL A   1      33.619  26.836  22.637  1.00  0.00     0.024 A 
ATOM     88  C   UNL A   1      31.305  26.466  23.393  1.00  0.00     0.005 A 
ATOM     89  C   UNL A   1      33.362  28.163  22.249  1.00  0.00     0.028 A 
ATOM     90  C   UNL A   1      31.099  27.748  22.948  1.00  0.00     0.019 A 
ATOM     91  C   UNL A   1      30.102  25.848  23.844  1.00  0.00     0.010 A 
ATOM     92  C   UNL A   1      32.063  28.575  22.417  1.00  0.00     0.050 A 
ATOM     93  C   UNL A   1      29.886  28.421  22.863  1.00  0.00     0.050 A 
ATOM     94  C   UNL A   1      28.846  26.497  23.771  1.00  0.00     0.002 A 
ATOM     95  N   UNL A   1      31.455  29.757  22.039  1.00  0.00    -0.321 N 
ATOM     96  C   UNL A   1      28.715  27.795  23.268  1.00  0.00     0.014 A 
ATOM     97  C   UNL A   1      30.079  29.733  22.279  1.00  0.00     0.256 C 
ATOM     98  H   UNL A   1      31.933  30.523  21.650  1.00  0.00     0.170 HD
ATOM     99  O   UNL A   1      29.303  30.640  22.009  1.00  0.00    -0.269 OA
ENDBRANCH  83  86
ENDBRANCH  80  83
ENDBRANCH  75  78
ENDBRANCH  73  74
ENDBRANCH  72  73
ENDBRANCH   1  72
TORSDOF 16
ENDMDL
MODEL 3
REMARK VINA RESULT:     -13.1      6.261      9.692
REMARK SMILES O=C(NCCCCNC(=O)[C@@H]1CCCN1S(=O)(=O)c1ccc2c3c(cccc13)C(=O)N2)c1ccc(-c2c3nc(c(-c4cccc(S(=O)(=O)[O-])c4F)c4ccc([nH]4)c(-c4cccc(S(=O)(=O)[O-])c4F)c4nc(c(-c5cccc(S(=O)(=O)[O-])c5F)c5ccc2[nH]5)C=C4)C=C3)cc1
REMARK SMILES IDX 5 1 4 2 3 3 1 4 2 5 32 7 33 8 94 9 34 10 93 11 35 12 36 13
REMARK SMILES IDX 37 14 87 15 38 16 92 17 86 18 88 19 39 20 91 21 85 22 84 23
REMARK SMILES IDX 40 25 72 26 52 27 71 28 53 29 56 30 70 31 89 32 54 33 55 34
REMARK SMILES IDX 69 36 90 37 57 38 41 39 42 40 50 41 43 42 45 43 51 44 44 45
REMARK SMILES IDX 46 46 47 47 48 48 49 49 73 50 74 51 82 52 75 53 77 54 83 55
REMARK SMILES IDX 76 56 78 57 79 58 80 59 81 60 58 61 59 62 67 63 60 64 62 65
REMARK SMILES IDX 68 66 61 67 63 68 64 69 65 70 66 71 6 72 7 73 8 74 9 75
REMARK SMILES IDX 10 77 11 78 12 79 15 80 13 81 14 82 16 83 17 84 18 85 19 86
REMARK SMILES IDX 20 87 28 88 21 89 23 90 27 91 22 92 24 93 26 94 31 95 25 96
REMARK SMILES IDX 29 97 30 99
REMARK H PARENT 3 6 88 24 56 35 8 76 31 98
REMARK Flexibility Score: inf
ROOT
ATOM      1  C   UNL A   1      37.669  20.007  24.982  1.00  0.00     0.023 C 
ENDROOT
BRANCH   1   2
ATOM      2  C   UNL A   1      38.848  20.529  25.797  1.00  0.00     0.116 C 
BRANCH   2   3
ATOM      3  N   UNL A   1      39.885  19.520  25.940  1.00  0.00    -0.352 N 
ATOM      4  O   UNL A   1      42.005  18.762  26.022  1.00  0.00    -0.269 OA
ATOM      5  C   UNL A   1      41.228  19.700  26.158  1.00  0.00     0.251 C 
ATOM      6  H   UNL A   1      39.585  18.585  25.871  1.00  0.00     0.163 HD
BRANCH   5   7
ATOM      7  C   UNL A   1      41.712  21.038  26.543  1.00  0.00     0.039 A 
ATOM      8  C   UNL A   1      41.856  21.363  27.897  1.00  0.00     0.014 A 
ATOM      9  C   UNL A   1      42.000  21.974  25.549  1.00  0.00     0.014 A 
ATOM     10  C   UNL A   1      42.187  22.664  28.257  1.00  0.00     0.010 A 
ATOM     11  C   UNL A   1      42.383  23.264  25.914  1.00  0.00     0.010 A 
ATOM     12  C   UNL A   1      42.448  23.625  27.270  1.00  0.00    -0.014 A 
BRANCH  12  13
ATOM     13  C   UNL A   1      42.816  25.002  27.670  1.00  0.00     0.031 A 
ATOM     14  C   UNL A   1      44.239  25.475  27.575  1.00  0.00     0.074 A 
ATOM     15  C   UNL A   1      41.853  25.832  28.114  1.00  0.00     0.049 A 
ATOM     16  N   UNL A   1      44.729  26.652  27.859  1.00  0.00    -0.248 NA
ATOM     17  C   UNL A   1      45.240  24.507  27.097  1.00  0.00     0.031 C 
ATOM     18  C   UNL A   1      40.440  25.474  28.263  1.00  0.00     0.029 A 
ATOM     19  N   UNL A   1      41.914  27.137  28.525  1.00  0.00    -0.354 N 
ATOM     20  C   UNL A   1      46.094  26.566  27.617  1.00  0.00     0.074 A 
ATOM     21  C   UNL A   1      46.360  25.217  27.169  1.00  0.00     0.031 C 
ATOM     22  C   UNL A   1      39.766  26.540  28.726  1.00  0.00     0.029 A 
ATOM     23  C   UNL A   1      40.703  27.638  28.938  1.00  0.00     0.049 A 
ATOM     24  H   UNL A   1      42.745  27.665  28.523  1.00  0.00     0.167 HD
ATOM     25  C   UNL A   1      47.033  27.531  27.740  1.00  0.00     0.034 A 
ATOM     26  C   UNL A   1      40.381  28.845  29.444  1.00  0.00     0.034 A 
ATOM     27  C   UNL A   1      46.761  28.877  28.166  1.00  0.00     0.049 A 
ATOM     28  C   UNL A   1      41.449  29.889  29.590  1.00  0.00     0.074 A 
ATOM     29  C   UNL A   1      47.647  29.935  28.272  1.00  0.00     0.029 A 
ATOM     30  N   UNL A   1      45.522  29.348  28.566  1.00  0.00    -0.354 N 
ATOM     31  N   UNL A   1      42.715  29.818  29.261  1.00  0.00    -0.248 NA
ATOM     32  C   UNL A   1      41.044  31.185  30.154  1.00  0.00     0.031 C 
ATOM     33  C   UNL A   1      46.947  31.041  28.760  1.00  0.00     0.029 A 
ATOM     34  C   UNL A   1      45.622  30.679  28.932  1.00  0.00     0.049 A 
ATOM     35  H   UNL A   1      44.694  28.816  28.588  1.00  0.00     0.167 HD
ATOM     36  C   UNL A   1      43.256  31.064  29.556  1.00  0.00     0.074 A 
ATOM     37  C   UNL A   1      42.176  31.876  30.080  1.00  0.00     0.031 C 
ATOM     38  C   UNL A   1      44.532  31.489  29.413  1.00  0.00     0.034 A 
BRANCH  25  39
ATOM     39  C   UNL A   1      48.451  27.198  27.370  1.00  0.00     0.023 A 
ATOM     40  C   UNL A   1      49.251  26.482  28.282  1.00  0.00     0.012 A 
ATOM     41  C   UNL A   1      48.943  27.476  26.080  1.00  0.00     0.148 A 
ATOM     42  C   UNL A   1      50.524  26.048  27.916  1.00  0.00     0.002 A 
ATOM     43  C   UNL A   1      50.202  27.016  25.712  1.00  0.00     0.091 A 
ATOM     44  F   UNL A   1      48.164  28.166  25.235  1.00  0.00    -0.205 F 
ATOM     45  C   UNL A   1      50.994  26.304  26.630  1.00  0.00     0.022 A 
BRANCH  43  46
ATOM     46  S   UNL A   1      50.883  27.249  24.068  1.00  0.00     0.127 S 
ATOM     47  O   UNL A   1      49.842  26.653  23.231  1.00  0.00    -0.237 OA
ATOM     48  O   UNL A   1      50.977  28.706  23.979  1.00  0.00    -0.237 OA
ATOM     49  O   UNL A   1      52.160  26.549  24.055  1.00  0.00    -0.744 OA
ENDBRANCH  43  46
ENDBRANCH  25  39
BRANCH  26  50
ATOM     50  C   UNL A   1      38.966  29.127  29.803  1.00  0.00     0.023 A 
ATOM     51  C   UNL A   1      38.524  28.874  31.114  1.00  0.00     0.012 A 
ATOM     52  C   UNL A   1      38.086  29.712  28.873  1.00  0.00     0.148 A 
ATOM     53  C   UNL A   1      37.221  29.196  31.494  1.00  0.00     0.002 A 
ATOM     54  C   UNL A   1      36.801  30.063  29.268  1.00  0.00     0.091 A 
ATOM     55  F   UNL A   1      38.538  29.945  27.633  1.00  0.00    -0.205 F 
ATOM     56  C   UNL A   1      36.364  29.798  30.575  1.00  0.00     0.022 A 
BRANCH  54  57
ATOM     57  S   UNL A   1      35.654  30.922  28.186  1.00  0.00     0.127 S 
ATOM     58  O   UNL A   1      36.444  32.081  27.776  1.00  0.00    -0.237 OA
ATOM     59  O   UNL A   1      35.432  29.926  27.138  1.00  0.00    -0.237 OA
ATOM     60  O   UNL A   1      34.485  31.220  29.001  1.00  0.00    -0.744 OA
ENDBRANCH  54  57
ENDBRANCH  26  50
BRANCH  38  61
ATOM     61  C   UNL A   1      44.861  32.903  29.804  1.00  0.00     0.023 A 
ATOM     62  C   UNL A   1      45.387  33.162  31.085  1.00  0.00     0.012 A 
ATOM     63  C   UNL A   1      44.784  33.943  28.858  1.00  0.00     0.148 A 
ATOM     64  C   UNL A   1      45.828  34.442  31.418  1.00  0.00     0.002 A 
ATOM     65  C   UNL A   1      45.257  35.206  29.185  1.00  0.00     0.091 A 
ATOM     66  F   UNL A   1      44.276  33.666  27.648  1.00  0.00    -0.205 F 
ATOM     67  C   UNL A   1      45.777  35.459  30.466  1.00  0.00     0.022 A 
BRANCH  65  68
ATOM     68  S   UNL A   1      45.297  36.563  28.009  1.00  0.00     0.127 S 
ATOM     69  O   UNL A   1      46.001  35.955  26.879  1.00  0.00    -0.237 OA
ATOM     70  O   UNL A   1      43.875  36.812  27.779  1.00  0.00    -0.237 OA
ATOM     71  O   UNL A   1      46.010  37.650  28.666  1.00  0.00    -0.744 OA
ENDBRANCH  65  68
ENDBRANCH  38  61
ENDBRANCH  12  13
ENDBRANCH   5   7
ENDBRANCH   2   3
ENDBRANCH   1   2
BRANCH   1  72
ATOM     72  C   UNL A   1      36.834  21.104  24.311  1.00  0.00     0.023 C 
BRANCH  72  73
ATOM     73  C   UNL A   1      35.619  21.549  25.131  1.00  0.00     0.116 C 
BRANCH  73  74
ATOM     74  N   UNL A   1      35.404  22.975  24.956  1.00  0.00    -0.355 N 
ATOM     75  C   UNL A   1      34.603  23.440  23.939  1.00  0.00     0.238 C 
ATOM     76  H   UNL A   1      35.834  23.614  25.570  1.00  0.00     0.163 HD
ATOM     77  O   UNL A   1      35.114  24.128  23.060  1.00  0.00    -0.273 OA
BRANCH  75  78
ATOM     78  C   UNL A   1      33.151  23.048  23.984  1.00  0.00     0.162 C 
ATOM     79  C   UNL A   1      32.434  23.662  22.787  1.00  0.00     0.032 C 
ATOM     80  N   UNL A   1      32.241  23.322  25.145  1.00  0.00    -0.185 NA
ATOM     81  C   UNL A   1      31.005  23.241  23.024  1.00  0.00     0.019 C 
ATOM     82  C   UNL A   1      30.849  23.248  24.543  1.00  0.00     0.103 C 
BRANCH  80  83
ATOM     83  S   UNL A   1      32.440  24.708  26.150  1.00  0.00     0.244 S 
ATOM     84  O   UNL A   1      31.416  24.679  27.170  1.00  0.00    -0.207 OA
ATOM     85  O   UNL A   1      33.831  24.669  26.558  1.00  0.00    -0.207 OA
BRANCH  83  86
ATOM     86  C   UNL A   1      32.228  26.216  25.180  1.00  0.00     0.090 A 
ATOM     87  C   UNL A   1      33.394  26.853  24.687  1.00  0.00     0.024 A 
ATOM     88  C   UNL A   1      30.942  26.630  24.671  1.00  0.00     0.005 A 
ATOM     89  C   UNL A   1      33.376  27.951  23.809  1.00  0.00     0.028 A 
ATOM     90  C   UNL A   1      30.989  27.670  23.776  1.00  0.00     0.019 A 
ATOM     91  C   UNL A   1      29.618  26.133  24.857  1.00  0.00     0.010 A 
ATOM     92  C   UNL A   1      32.131  28.320  23.365  1.00  0.00     0.050 A 
ATOM     93  C   UNL A   1      29.928  28.201  23.052  1.00  0.00     0.050 A 
ATOM     94  C   UNL A   1      28.511  26.644  24.138  1.00  0.00     0.002 A 
ATOM     95  N   UNL A   1      31.771  29.265  22.423  1.00  0.00    -0.321 N 
ATOM     96  C   UNL A   1      28.649  27.684  23.213  1.00  0.00     0.014 A 
ATOM     97  C   UNL A   1      30.399  29.244  22.164  1.00  0.00     0.256 C 
ATOM     98  H   UNL A   1      32.405  29.879  21.989  1.00  0.00     0.170 HD
ATOM     99  O   UNL A   1      29.827  29.958  21.351  1.00  0.00    -0.269 OA
ENDBRANCH  83  86
ENDBRANCH  80  83
ENDBRANCH  75  78
ENDBRANCH  73  74
ENDBRANCH  72  73
ENDBRANCH   1  72
TORSDOF 16
ENDMDL
