MODEL 1
REMARK VINA RESULT:     -12.0      0.000      0.000
REMARK SMILES O=C(CS(=O)(=O)NCc1ccc(N2CCOCC2)nc1)NCCCCNC(=O)c1ccc(-c2c3nc(c(-c4cccc(S(=O)(=O)[O-])c4F)c4ccc([nH]4)c(-c4cccc(S(=O)(=O)[O-])c4F)c4nc(c(-c5cccc(S(=O)(=O)[O-])c5F)c5ccc2[nH]5)C=C4)C=C3)cc1
REMARK SMILES IDX 22 1 21 2 1 3 2 4 3 6 4 7 5 8 6 9 7 10 8 12 9 13 10 14 20 15
REMARK SMILES IDX 11 16 19 17 12 18 13 19 14 20 18 21 15 22 17 23 16 24 23 25
REMARK SMILES IDX 24 26 25 27 26 28 27 29 28 31 29 32 30 33 91 34 31 35 90 36
REMARK SMILES IDX 32 37 33 38 34 39 84 40 35 41 89 42 83 43 85 44 36 45 88 46
REMARK SMILES IDX 82 47 81 48 37 50 69 51 49 52 68 53 50 54 53 55 67 56 86 57
REMARK SMILES IDX 51 58 52 59 66 61 87 62 54 63 38 64 39 65 47 66 40 67 42 68
REMARK SMILES IDX 48 69 41 70 43 71 44 72 45 73 46 74 70 75 71 76 79 77 72 78
REMARK SMILES IDX 74 79 80 80 73 81 75 82 76 83 77 84 78 85 55 86 56 87 64 88
REMARK SMILES IDX 57 89 59 90 65 91 58 92 60 93 61 94 62 95 63 96
REMARK H PARENT 21 5 7 11 26 30 85 49 53 60
REMARK Flexibility Score: inf
ROOT
ATOM      1  C   UNL A   1      34.275  23.466  23.484  1.00  0.00     0.116 C 
ENDROOT
BRANCH   1   2
ATOM      2  N   UNL A   1      33.478  23.179  24.667  1.00  0.00    -0.355 N 
ATOM      3  O   UNL A   1      33.879  25.178  25.712  1.00  0.00    -0.274 OA
ATOM      4  C   UNL A   1      33.324  24.079  25.700  1.00  0.00     0.236 C 
ATOM      5  H   UNL A   1      33.029  22.305  24.732  1.00  0.00     0.163 HD
BRANCH   4   6
ATOM      6  C   UNL A   1      32.491  23.632  26.862  1.00  0.00     0.253 C 
BRANCH   6   7
ATOM      7  S   UNL A   1      30.849  23.189  26.375  1.00  0.00     0.220 S 
ATOM      8  O   UNL A   1      30.919  21.996  25.557  1.00  0.00    -0.212 OA
ATOM      9  O   UNL A   1      30.035  23.196  27.570  1.00  0.00    -0.212 OA
BRANCH   7  10
ATOM     10  N   UNL A   1      30.256  24.469  25.480  1.00  0.00    -0.210 NA
ATOM     11  H   UNL A   1      30.562  25.313  25.965  1.00  0.00     0.141 HD
BRANCH  10  12
ATOM     12  C   UNL A   1      30.577  24.681  24.062  1.00  0.00     0.135 C 
BRANCH  12  13
ATOM     13  C   UNL A   1      30.170  26.006  23.497  1.00  0.00    -0.015 A 
ATOM     14  C   UNL A   1      31.023  26.767  22.703  1.00  0.00     0.010 A 
ATOM     15  C   UNL A   1      28.925  26.551  23.789  1.00  0.00     0.118 A 
ATOM     16  C   UNL A   1      30.648  28.056  22.347  1.00  0.00     0.047 A 
ATOM     17  N   UNL A   1      28.540  27.802  23.453  1.00  0.00    -0.239 NA
ATOM     18  C   UNL A   1      29.422  28.558  22.771  1.00  0.00     0.128 A 
BRANCH  18  19
ATOM     19  N   UNL A   1      29.203  29.899  22.677  1.00  0.00    -0.352 N 
ATOM     20  C   UNL A   1      28.923  30.788  23.788  1.00  0.00     0.146 C 
ATOM     21  C   UNL A   1      29.281  30.512  21.366  1.00  0.00     0.146 C 
ATOM     22  C   UNL A   1      27.715  31.678  23.422  1.00  0.00     0.181 C 
ATOM     23  C   UNL A   1      28.007  31.308  21.101  1.00  0.00     0.181 C 
ATOM     24  O   UNL A   1      27.851  32.304  22.130  1.00  0.00    -0.378 OA
ENDBRANCH  18  19
ENDBRANCH  12  13
ENDBRANCH  10  12
ENDBRANCH   7  10
ENDBRANCH   6   7
ENDBRANCH   4   6
ENDBRANCH   1   2
BRANCH   1  25
ATOM     25  C   UNL A   1      35.726  23.006  23.599  1.00  0.00     0.023 C 
BRANCH  25  26
ATOM     26  C   UNL A   1      35.967  21.798  24.508  1.00  0.00     0.023 C 
BRANCH  26  27
ATOM     27  C   UNL A   1      36.812  22.040  25.758  1.00  0.00     0.116 C 
BRANCH  27  28
ATOM     28  N   UNL A   1      37.978  21.166  25.870  1.00  0.00    -0.352 N 
ATOM     29  C   UNL A   1      39.295  21.422  26.214  1.00  0.00     0.251 C 
ATOM     30  H   UNL A   1      37.793  20.221  25.664  1.00  0.00     0.163 HD
ATOM     31  O   UNL A   1      40.112  20.507  26.116  1.00  0.00    -0.269 OA
BRANCH  29  32
ATOM     32  C   UNL A   1      39.755  22.750  26.719  1.00  0.00     0.039 A 
ATOM     33  C   UNL A   1      40.611  22.860  27.820  1.00  0.00     0.014 A 
ATOM     34  C   UNL A   1      39.288  23.922  26.147  1.00  0.00     0.014 A 
ATOM     35  C   UNL A   1      41.037  24.128  28.271  1.00  0.00     0.010 A 
ATOM     36  C   UNL A   1      39.726  25.177  26.556  1.00  0.00     0.010 A 
ATOM     37  C   UNL A   1      40.616  25.301  27.618  1.00  0.00    -0.014 A 
BRANCH  37  38
ATOM     38  C   UNL A   1      41.213  26.642  27.858  1.00  0.00     0.031 A 
ATOM     39  C   UNL A   1      42.660  26.952  27.561  1.00  0.00     0.074 A 
ATOM     40  C   UNL A   1      40.499  27.510  28.602  1.00  0.00     0.049 A 
ATOM     41  N   UNL A   1      43.317  28.070  27.748  1.00  0.00    -0.248 NA
ATOM     42  C   UNL A   1      43.489  25.858  27.031  1.00  0.00     0.031 C 
ATOM     43  C   UNL A   1      39.168  27.241  29.156  1.00  0.00     0.029 A 
ATOM     44  N   UNL A   1      40.811  28.758  29.081  1.00  0.00    -0.354 N 
ATOM     45  C   UNL A   1      44.632  27.819  27.369  1.00  0.00     0.074 A 
ATOM     46  C   UNL A   1      44.689  26.424  26.983  1.00  0.00     0.031 C 
ATOM     47  C   UNL A   1      38.785  28.284  29.904  1.00  0.00     0.029 A 
ATOM     48  C   UNL A   1      39.834  29.298  29.883  1.00  0.00     0.049 A 
ATOM     49  H   UNL A   1      41.653  29.221  28.869  1.00  0.00     0.167 HD
ATOM     50  C   UNL A   1      45.685  28.675  27.322  1.00  0.00     0.034 A 
ATOM     51  C   UNL A   1      39.776  30.482  30.520  1.00  0.00     0.034 A 
ATOM     52  C   UNL A   1      45.613  30.060  27.720  1.00  0.00     0.049 A 
ATOM     53  C   UNL A   1      40.901  31.460  30.349  1.00  0.00     0.074 A 
ATOM     54  C   UNL A   1      46.567  31.053  27.569  1.00  0.00     0.029 A 
ATOM     55  N   UNL A   1      44.540  30.641  28.376  1.00  0.00    -0.354 N 
ATOM     56  N   UNL A   1      42.043  31.300  29.728  1.00  0.00    -0.248 NA
ATOM     57  C   UNL A   1      40.705  32.803  30.913  1.00  0.00     0.031 C 
ATOM     58  C   UNL A   1      46.083  32.223  28.165  1.00  0.00     0.029 A 
ATOM     59  C   UNL A   1      44.809  31.972  28.649  1.00  0.00     0.049 A 
ATOM     60  H   UNL A   1      43.706  30.175  28.614  1.00  0.00     0.167 HD
ATOM     61  C   UNL A   1      42.687  32.530  29.791  1.00  0.00     0.074 A 
ATOM     62  C   UNL A   1      41.795  33.431  30.494  1.00  0.00     0.031 C 
ATOM     63  C   UNL A   1      43.908  32.877  29.316  1.00  0.00     0.034 A 
BRANCH  50  64
ATOM     64  C   UNL A   1      46.990  28.177  26.736  1.00  0.00     0.023 A 
ATOM     65  C   UNL A   1      48.007  27.736  27.610  1.00  0.00     0.012 A 
ATOM     66  C   UNL A   1      47.178  28.036  25.346  1.00  0.00     0.148 A 
ATOM     67  C   UNL A   1      49.195  27.199  27.117  1.00  0.00     0.002 A 
ATOM     68  C   UNL A   1      48.348  27.457  24.861  1.00  0.00     0.091 A 
ATOM     69  F   UNL A   1      46.210  28.461  24.521  1.00  0.00    -0.205 F 
ATOM     70  C   UNL A   1      49.361  27.051  25.743  1.00  0.00     0.022 A 
BRANCH  68  71
ATOM     71  S   UNL A   1      48.633  27.135  23.113  1.00  0.00     0.127 S 
ATOM     72  O   UNL A   1      50.076  27.346  23.005  1.00  0.00    -0.237 OA
ATOM     73  O   UNL A   1      48.211  25.741  22.984  1.00  0.00    -0.237 OA
ATOM     74  O   UNL A   1      47.806  28.090  22.387  1.00  0.00    -0.744 OA
ENDBRANCH  68  71
ENDBRANCH  50  64
BRANCH  51  75
ATOM     75  C   UNL A   1      38.542  30.847  31.268  1.00  0.00     0.023 A 
ATOM     76  C   UNL A   1      38.479  30.589  32.651  1.00  0.00     0.012 A 
ATOM     77  C   UNL A   1      37.466  31.501  30.637  1.00  0.00     0.148 A 
ATOM     78  C   UNL A   1      37.350  30.943  33.389  1.00  0.00     0.002 A 
ATOM     79  C   UNL A   1      36.368  31.900  31.389  1.00  0.00     0.091 A 
ATOM     80  F   UNL A   1      37.553  31.742  29.322  1.00  0.00    -0.205 F 
ATOM     81  C   UNL A   1      36.300  31.606  32.761  1.00  0.00     0.022 A 
BRANCH  79  82
ATOM     82  S   UNL A   1      35.030  32.880  30.699  1.00  0.00     0.127 S 
ATOM     83  O   UNL A   1      34.551  32.016  29.624  1.00  0.00    -0.237 OA
ATOM     84  O   UNL A   1      34.125  33.001  31.843  1.00  0.00    -0.237 OA
ATOM     85  O   UNL A   1      35.638  34.136  30.279  1.00  0.00    -0.744 OA
ENDBRANCH  79  82
ENDBRANCH  51  75
BRANCH  63  86
ATOM     86  C   UNL A   1      44.350  34.306  29.505  1.00  0.00     0.023 A 
ATOM     87  C   UNL A   1      44.988  34.696  30.700  1.00  0.00     0.012 A 
ATOM     88  C   UNL A   1      44.178  35.253  28.475  1.00  0.00     0.148 A 
ATOM     89  C   UNL A   1      45.412  36.013  30.882  1.00  0.00     0.002 A 
ATOM     90  C   UNL A   1      44.650  36.549  28.642  1.00  0.00     0.091 A 
ATOM     91  F   UNL A   1      43.553  34.869  27.352  1.00  0.00    -0.205 F 
ATOM     92  C   UNL A   1      45.253  36.935  29.849  1.00  0.00     0.022 A 
BRANCH  90  93
ATOM     93  S   UNL A   1      44.575  37.780  27.336  1.00  0.00     0.127 S 
ATOM     94  O   UNL A   1      44.932  39.001  28.057  1.00  0.00    -0.237 OA
ATOM     95  O   UNL A   1      45.597  37.303  26.402  1.00  0.00    -0.237 OA
ATOM     96  O   UNL A   1      43.215  37.738  26.818  1.00  0.00    -0.744 OA
ENDBRANCH  90  93
ENDBRANCH  63  86
ENDBRANCH  37  38
ENDBRANCH  29  32
ENDBRANCH  27  28
ENDBRANCH  26  27
ENDBRANCH  25  26
ENDBRANCH   1  25
TORSDOF 19
ENDMDL
MODEL 2
REMARK VINA RESULT:     -11.3      1.226      7.623
REMARK SMILES O=C(CS(=O)(=O)NCc1ccc(N2CCOCC2)nc1)NCCCCNC(=O)c1ccc(-c2c3nc(c(-c4cccc(S(=O)(=O)[O-])c4F)c4ccc([nH]4)c(-c4cccc(S(=O)(=O)[O-])c4F)c4nc(c(-c5cccc(S(=O)(=O)[O-])c5F)c5ccc2[nH]5)C=C4)C=C3)cc1
REMARK SMILES IDX 22 1 21 2 1 3 2 4 3 6 4 7 5 8 6 9 7 10 8 12 9 13 10 14 20 15
REMARK SMILES IDX 11 16 19 17 12 18 13 19 14 20 18 21 15 22 17 23 16 24 23 25
REMARK SMILES IDX 24 26 25 27 26 28 27 29 28 31 29 32 30 33 91 34 31 35 90 36
REMARK SMILES IDX 32 37 33 38 34 39 84 40 35 41 89 42 83 43 85 44 36 45 88 46
REMARK SMILES IDX 82 47 81 48 37 50 69 51 49 52 68 53 50 54 53 55 67 56 86 57
REMARK SMILES IDX 51 58 52 59 66 61 87 62 54 63 38 64 39 65 47 66 40 67 42 68
REMARK SMILES IDX 48 69 41 70 43 71 44 72 45 73 46 74 70 75 71 76 79 77 72 78
REMARK SMILES IDX 74 79 80 80 73 81 75 82 76 83 77 84 78 85 55 86 56 87 64 88
REMARK SMILES IDX 57 89 59 90 65 91 58 92 60 93 61 94 62 95 63 96
REMARK H PARENT 21 5 7 11 26 30 85 49 53 60
REMARK Flexibility Score: inf
ROOT
ATOM      1  C   UNL A   1      35.357  23.641  23.362  1.00  0.00     0.116 C 
ENDROOT
BRANCH   1   2
ATOM      2  N   UNL A   1      34.366  23.340  24.384  1.00  0.00    -0.355 N 
ATOM      3  O   UNL A   1      33.786  25.517  24.800  1.00  0.00    -0.274 OA
ATOM      4  C   UNL A   1      33.632  24.317  25.023  1.00  0.00     0.236 C 
ATOM      5  H   UNL A   1      34.214  22.399  24.630  1.00  0.00     0.163 HD
BRANCH   4   6
ATOM      6  C   UNL A   1      32.665  23.853  26.070  1.00  0.00     0.253 C 
BRANCH   6   7
ATOM      7  S   UNL A   1      31.374  22.853  25.390  1.00  0.00     0.220 S 
ATOM      8  O   UNL A   1      31.963  21.918  24.454  1.00  0.00    -0.212 OA
ATOM      9  O   UNL A   1      30.588  22.362  26.499  1.00  0.00    -0.212 OA
BRANCH   7  10
ATOM     10  N   UNL A   1      30.336  23.892  24.594  1.00  0.00    -0.210 NA
ATOM     11  H   UNL A   1      30.150  24.654  25.246  1.00  0.00     0.141 HD
BRANCH  10  12
ATOM     12  C   UNL A   1      30.660  24.531  23.311  1.00  0.00     0.135 C 
BRANCH  12  13
ATOM     13  C   UNL A   1      30.566  26.024  23.290  1.00  0.00    -0.015 A 
ATOM     14  C   UNL A   1      30.058  26.750  24.363  1.00  0.00     0.010 A 
ATOM     15  C   UNL A   1      30.945  26.745  22.163  1.00  0.00     0.118 A 
ATOM     16  C   UNL A   1      29.846  28.115  24.218  1.00  0.00     0.047 A 
ATOM     17  N   UNL A   1      30.747  28.072  22.001  1.00  0.00    -0.239 NA
ATOM     18  C   UNL A   1      30.161  28.737  23.015  1.00  0.00     0.128 A 
BRANCH  18  19
ATOM     19  N   UNL A   1      29.674  29.988  22.785  1.00  0.00    -0.352 N 
ATOM     20  C   UNL A   1      29.367  30.974  23.803  1.00  0.00     0.146 C 
ATOM     21  C   UNL A   1      29.465  30.396  21.410  1.00  0.00     0.146 C 
ATOM     22  C   UNL A   1      27.971  31.571  23.515  1.00  0.00     0.181 C 
ATOM     23  C   UNL A   1      28.037  30.906  21.242  1.00  0.00     0.181 C 
ATOM     24  O   UNL A   1      27.819  32.005  22.148  1.00  0.00    -0.378 OA
ENDBRANCH  18  19
ENDBRANCH  12  13
ENDBRANCH  10  12
ENDBRANCH   7  10
ENDBRANCH   6   7
ENDBRANCH   4   6
ENDBRANCH   1   2
BRANCH   1  25
ATOM     25  C   UNL A   1      36.656  22.856  23.520  1.00  0.00     0.023 C 
BRANCH  25  26
ATOM     26  C   UNL A   1      36.533  21.510  24.240  1.00  0.00     0.023 C 
BRANCH  26  27
ATOM     27  C   UNL A   1      37.137  21.427  25.641  1.00  0.00     0.116 C 
BRANCH  27  28
ATOM     28  N   UNL A   1      38.290  20.536  25.742  1.00  0.00    -0.352 N 
ATOM     29  C   UNL A   1      39.605  20.764  26.115  1.00  0.00     0.251 C 
ATOM     30  H   UNL A   1      38.098  19.600  25.503  1.00  0.00     0.163 HD
ATOM     31  O   UNL A   1      40.413  19.843  25.999  1.00  0.00    -0.269 OA
BRANCH  29  32
ATOM     32  C   UNL A   1      40.072  22.069  26.670  1.00  0.00     0.039 A 
ATOM     33  C   UNL A   1      41.053  22.134  27.665  1.00  0.00     0.014 A 
ATOM     34  C   UNL A   1      39.493  23.258  26.259  1.00  0.00     0.014 A 
ATOM     35  C   UNL A   1      41.483  23.382  28.166  1.00  0.00     0.010 A 
ATOM     36  C   UNL A   1      39.929  24.497  26.716  1.00  0.00     0.010 A 
ATOM     37  C   UNL A   1      40.939  24.580  27.669  1.00  0.00    -0.014 A 
BRANCH  37  38
ATOM     38  C   UNL A   1      41.509  25.926  27.946  1.00  0.00     0.031 A 
ATOM     39  C   UNL A   1      40.718  27.019  28.623  1.00  0.00     0.074 A 
ATOM     40  C   UNL A   1      42.668  26.242  27.335  1.00  0.00     0.049 A 
ATOM     41  N   UNL A   1      41.082  28.247  28.900  1.00  0.00    -0.248 NA
ATOM     42  C   UNL A   1      39.327  26.713  28.995  1.00  0.00     0.031 C 
ATOM     43  C   UNL A   1      43.422  25.345  26.455  1.00  0.00     0.029 A 
ATOM     44  N   UNL A   1      43.379  27.415  27.301  1.00  0.00    -0.354 N 
ATOM     45  C   UNL A   1      39.972  28.864  29.471  1.00  0.00     0.074 A 
ATOM     46  C   UNL A   1      38.905  27.885  29.457  1.00  0.00     0.031 C 
ATOM     47  C   UNL A   1      44.480  26.001  25.960  1.00  0.00     0.029 A 
ATOM     48  C   UNL A   1      44.487  27.361  26.488  1.00  0.00     0.049 A 
ATOM     49  H   UNL A   1      43.121  28.217  27.810  1.00  0.00     0.167 HD
ATOM     50  C   UNL A   1      39.861  30.118  29.979  1.00  0.00     0.034 A 
ATOM     51  C   UNL A   1      45.416  28.294  26.207  1.00  0.00     0.034 A 
ATOM     52  C   UNL A   1      40.932  31.085  29.976  1.00  0.00     0.049 A 
ATOM     53  C   UNL A   1      45.336  29.632  26.883  1.00  0.00     0.074 A 
ATOM     54  C   UNL A   1      40.982  32.322  30.598  1.00  0.00     0.029 A 
ATOM     55  N   UNL A   1      42.127  30.940  29.290  1.00  0.00    -0.354 N 
ATOM     56  N   UNL A   1      44.399  30.104  27.667  1.00  0.00    -0.248 NA
ATOM     57  C   UNL A   1      46.471  30.544  26.684  1.00  0.00     0.031 C 
ATOM     58  C   UNL A   1      42.194  32.936  30.260  1.00  0.00     0.029 A 
ATOM     59  C   UNL A   1      42.917  32.065  29.462  1.00  0.00     0.049 A 
ATOM     60  H   UNL A   1      42.379  30.151  28.757  1.00  0.00     0.167 HD
ATOM     61  C   UNL A   1      44.846  31.350  28.088  1.00  0.00     0.074 A 
ATOM     62  C   UNL A   1      46.150  31.550  27.487  1.00  0.00     0.031 C 
ATOM     63  C   UNL A   1      44.228  32.248  28.893  1.00  0.00     0.034 A 
BRANCH  50  64
ATOM     64  C   UNL A   1      38.570  30.500  30.672  1.00  0.00     0.023 A 
ATOM     65  C   UNL A   1      38.436  30.249  32.054  1.00  0.00     0.012 A 
ATOM     66  C   UNL A   1      37.544  31.202  30.005  1.00  0.00     0.148 A 
ATOM     67  C   UNL A   1      37.297  30.651  32.751  1.00  0.00     0.002 A 
ATOM     68  C   UNL A   1      36.430  31.641  30.715  1.00  0.00     0.091 A 
ATOM     69  F   UNL A   1      37.676  31.434  28.690  1.00  0.00    -0.205 F 
ATOM     70  C   UNL A   1      36.300  31.356  32.084  1.00  0.00     0.022 A 
BRANCH  68  71
ATOM     71  S   UNL A   1      35.124  32.635  29.978  1.00  0.00     0.127 S 
ATOM     72  O   UNL A   1      35.868  33.810  29.524  1.00  0.00    -0.237 OA
ATOM     73  O   UNL A   1      34.646  31.767  28.903  1.00  0.00    -0.237 OA
ATOM     74  O   UNL A   1      34.156  32.881  31.038  1.00  0.00    -0.744 OA
ENDBRANCH  68  71
ENDBRANCH  50  64
BRANCH  51  75
ATOM     75  C   UNL A   1      46.571  27.933  25.342  1.00  0.00     0.023 A 
ATOM     76  C   UNL A   1      46.470  28.124  23.950  1.00  0.00     0.012 A 
ATOM     77  C   UNL A   1      47.783  27.467  25.888  1.00  0.00     0.148 A 
ATOM     78  C   UNL A   1      47.541  27.823  23.111  1.00  0.00     0.002 A 
ATOM     79  C   UNL A   1      48.865  27.222  25.052  1.00  0.00     0.091 A 
ATOM     80  F   UNL A   1      47.858  27.301  27.215  1.00  0.00    -0.205 F 
ATOM     81  C   UNL A   1      48.741  27.382  23.662  1.00  0.00     0.022 A 
BRANCH  79  82
ATOM     82  S   UNL A   1      50.490  26.784  25.679  1.00  0.00     0.127 S 
ATOM     83  O   UNL A   1      50.722  27.834  26.667  1.00  0.00    -0.237 OA
ATOM     84  O   UNL A   1      50.249  25.454  26.238  1.00  0.00    -0.237 OA
ATOM     85  O   UNL A   1      51.377  26.798  24.523  1.00  0.00    -0.744 OA
ENDBRANCH  79  82
ENDBRANCH  51  75
BRANCH  63  86
ATOM     86  C   UNL A   1      44.965  33.526  29.208  1.00  0.00     0.023 A 
ATOM     87  C   UNL A   1      45.707  33.639  30.401  1.00  0.00     0.012 A 
ATOM     88  C   UNL A   1      44.963  34.599  28.294  1.00  0.00     0.148 A 
ATOM     89  C   UNL A   1      46.401  34.812  30.698  1.00  0.00     0.002 A 
ATOM     90  C   UNL A   1      45.701  35.744  28.571  1.00  0.00     0.091 A 
ATOM     91  F   UNL A   1      44.238  34.481  27.172  1.00  0.00    -0.205 F 
ATOM     92  C   UNL A   1      46.407  35.858  29.778  1.00  0.00     0.022 A 
BRANCH  90  93
ATOM     93  S   UNL A   1      45.844  37.105  27.408  1.00  0.00     0.127 S 
ATOM     94  O   UNL A   1      46.631  36.498  26.335  1.00  0.00    -0.237 OA
ATOM     95  O   UNL A   1      44.446  37.367  27.065  1.00  0.00    -0.237 OA
ATOM     96  O   UNL A   1      46.503  38.185  28.129  1.00  0.00    -0.744 OA
ENDBRANCH  90  93
ENDBRANCH  63  86
ENDBRANCH  37  38
ENDBRANCH  29  32
ENDBRANCH  27  28
ENDBRANCH  26  27
ENDBRANCH  25  26
ENDBRANCH   1  25
TORSDOF 19
ENDMDL
MODEL 3
REMARK VINA RESULT:     -11.2      2.006      7.719
REMARK SMILES O=C(CS(=O)(=O)NCc1ccc(N2CCOCC2)nc1)NCCCCNC(=O)c1ccc(-c2c3nc(c(-c4cccc(S(=O)(=O)[O-])c4F)c4ccc([nH]4)c(-c4cccc(S(=O)(=O)[O-])c4F)c4nc(c(-c5cccc(S(=O)(=O)[O-])c5F)c5ccc2[nH]5)C=C4)C=C3)cc1
REMARK SMILES IDX 22 1 21 2 1 3 2 4 3 6 4 7 5 8 6 9 7 10 8 12 9 13 10 14 20 15
REMARK SMILES IDX 11 16 19 17 12 18 13 19 14 20 18 21 15 22 17 23 16 24 23 25
REMARK SMILES IDX 24 26 25 27 26 28 27 29 28 31 29 32 30 33 91 34 31 35 90 36
REMARK SMILES IDX 32 37 33 38 34 39 84 40 35 41 89 42 83 43 85 44 36 45 88 46
REMARK SMILES IDX 82 47 81 48 37 50 69 51 49 52 68 53 50 54 53 55 67 56 86 57
REMARK SMILES IDX 51 58 52 59 66 61 87 62 54 63 38 64 39 65 47 66 40 67 42 68
REMARK SMILES IDX 48 69 41 70 43 71 44 72 45 73 46 74 70 75 71 76 79 77 72 78
REMARK SMILES IDX 74 79 80 80 73 81 75 82 76 83 77 84 78 85 55 86 56 87 64 88
REMARK SMILES IDX 57 89 59 90 65 91 58 92 60 93 61 94 62 95 63 96
REMARK H PARENT 21 5 7 11 26 30 85 49 53 60
REMARK Flexibility Score: inf
ROOT
ATOM      1  C   UNL A   1      35.555  23.582  23.479  1.00  0.00     0.116 C 
ENDROOT
BRANCH   1   2
ATOM      2  N   UNL A   1      34.736  23.555  24.682  1.00  0.00    -0.355 N 
ATOM      3  O   UNL A   1      34.073  25.746  24.563  1.00  0.00    -0.274 OA
ATOM      4  C   UNL A   1      34.031  24.654  25.129  1.00  0.00     0.236 C 
ATOM      5  H   UNL A   1      34.682  22.718  25.197  1.00  0.00     0.163 HD
BRANCH   4   6
ATOM      6  C   UNL A   1      33.250  24.479  26.396  1.00  0.00     0.253 C 
BRANCH   6   7
ATOM      7  S   UNL A   1      31.784  23.520  26.149  1.00  0.00     0.220 S 
ATOM      8  O   UNL A   1      32.112  22.389  25.304  1.00  0.00    -0.212 OA
ATOM      9  O   UNL A   1      31.197  23.298  27.451  1.00  0.00    -0.212 OA
BRANCH   7  10
ATOM     10  N   UNL A   1      30.687  24.516  25.379  1.00  0.00    -0.210 NA
ATOM     11  H   UNL A   1      30.685  25.389  25.907  1.00  0.00     0.141 HD
BRANCH  10  12
ATOM     12  C   UNL A   1      30.798  24.902  23.965  1.00  0.00     0.135 C 
BRANCH  12  13
ATOM     13  C   UNL A   1      30.686  26.367  23.683  1.00  0.00    -0.015 A 
ATOM     14  C   UNL A   1      30.699  27.320  24.697  1.00  0.00     0.010 A 
ATOM     15  C   UNL A   1      30.515  26.830  22.384  1.00  0.00     0.118 A 
ATOM     16  C   UNL A   1      30.427  28.646  24.384  1.00  0.00     0.047 A 
ATOM     17  N   UNL A   1      30.248  28.114  22.057  1.00  0.00    -0.239 NA
ATOM     18  C   UNL A   1      30.166  29.003  23.066  1.00  0.00     0.128 A 
BRANCH  18  19
ATOM     19  N   UNL A   1      29.611  30.223  22.822  1.00  0.00    -0.352 N 
ATOM     20  C   UNL A   1      29.196  31.178  23.832  1.00  0.00     0.146 C 
ATOM     21  C   UNL A   1      29.441  30.631  21.442  1.00  0.00     0.146 C 
ATOM     22  C   UNL A   1      27.780  31.688  23.483  1.00  0.00     0.181 C 
ATOM     23  C   UNL A   1      27.992  31.051  21.212  1.00  0.00     0.181 C 
ATOM     24  O   UNL A   1      27.663  32.125  22.114  1.00  0.00    -0.378 OA
ENDBRANCH  18  19
ENDBRANCH  12  13
ENDBRANCH  10  12
ENDBRANCH   7  10
ENDBRANCH   6   7
ENDBRANCH   4   6
ENDBRANCH   1   2
BRANCH   1  25
ATOM     25  C   UNL A   1      36.725  22.602  23.516  1.00  0.00     0.023 C 
BRANCH  25  26
ATOM     26  C   UNL A   1      36.470  21.295  24.271  1.00  0.00     0.023 C 
BRANCH  26  27
ATOM     27  C   UNL A   1      37.146  21.149  25.634  1.00  0.00     0.116 C 
BRANCH  27  28
ATOM     28  N   UNL A   1      38.302  20.254  25.635  1.00  0.00    -0.352 N 
ATOM     29  C   UNL A   1      39.630  20.460  25.971  1.00  0.00     0.251 C 
ATOM     30  H   UNL A   1      38.099  19.336  25.344  1.00  0.00     0.163 HD
ATOM     31  O   UNL A   1      40.431  19.549  25.766  1.00  0.00    -0.269 OA
BRANCH  29  32
ATOM     32  C   UNL A   1      40.120  21.728  26.589  1.00  0.00     0.039 A 
ATOM     33  C   UNL A   1      41.036  21.722  27.646  1.00  0.00     0.014 A 
ATOM     34  C   UNL A   1      39.623  22.953  26.173  1.00  0.00     0.014 A 
ATOM     35  C   UNL A   1      41.489  22.937  28.206  1.00  0.00     0.010 A 
ATOM     36  C   UNL A   1      40.086  24.159  26.690  1.00  0.00     0.010 A 
ATOM     37  C   UNL A   1      41.035  24.171  27.708  1.00  0.00    -0.014 A 
BRANCH  37  38
ATOM     38  C   UNL A   1      41.646  25.481  28.056  1.00  0.00     0.031 A 
ATOM     39  C   UNL A   1      40.859  26.603  28.688  1.00  0.00     0.074 A 
ATOM     40  C   UNL A   1      42.866  25.746  27.548  1.00  0.00     0.049 A 
ATOM     41  N   UNL A   1      41.260  27.806  29.017  1.00  0.00    -0.248 NA
ATOM     42  C   UNL A   1      39.429  26.364  28.940  1.00  0.00     0.031 C 
ATOM     43  C   UNL A   1      43.644  24.824  26.714  1.00  0.00     0.029 A 
ATOM     44  N   UNL A   1      43.636  26.881  27.594  1.00  0.00    -0.354 N 
ATOM     45  C   UNL A   1      40.139  28.471  29.507  1.00  0.00     0.074 A 
ATOM     46  C   UNL A   1      39.029  27.548  29.388  1.00  0.00     0.031 C 
ATOM     47  C   UNL A   1      44.771  25.433  26.319  1.00  0.00     0.029 A 
ATOM     48  C   UNL A   1      44.803  26.783  26.873  1.00  0.00     0.049 A 
ATOM     49  H   UNL A   1      43.378  27.687  28.095  1.00  0.00     0.167 HD
ATOM     50  C   UNL A   1      40.050  29.721  30.029  1.00  0.00     0.034 A 
ATOM     51  C   UNL A   1      45.797  27.670  26.686  1.00  0.00     0.034 A 
ATOM     52  C   UNL A   1      41.165  30.631  30.132  1.00  0.00     0.049 A 
ATOM     53  C   UNL A   1      45.730  29.000  27.379  1.00  0.00     0.074 A 
ATOM     54  C   UNL A   1      41.226  31.854  30.780  1.00  0.00     0.029 A 
ATOM     55  N   UNL A   1      42.404  30.435  29.543  1.00  0.00    -0.354 N 
ATOM     56  N   UNL A   1      44.756  29.507  28.093  1.00  0.00    -0.248 NA
ATOM     57  C   UNL A   1      46.921  29.855  27.291  1.00  0.00     0.031 C 
ATOM     58  C   UNL A   1      42.490  32.410  30.553  1.00  0.00     0.029 A 
ATOM     59  C   UNL A   1      43.232  31.515  29.800  1.00  0.00     0.049 A 
ATOM     60  H   UNL A   1      42.659  29.642  29.017  1.00  0.00     0.167 HD
ATOM     61  C   UNL A   1      45.230  30.723  28.574  1.00  0.00     0.074 A 
ATOM     62  C   UNL A   1      46.586  30.864  28.084  1.00  0.00     0.031 C 
ATOM     63  C   UNL A   1      44.593  31.639  29.343  1.00  0.00     0.034 A 
BRANCH  50  64
ATOM     64  C   UNL A   1      38.727  30.159  30.623  1.00  0.00     0.023 A 
ATOM     65  C   UNL A   1      38.487  29.936  31.995  1.00  0.00     0.012 A 
ATOM     66  C   UNL A   1      37.777  30.883  29.873  1.00  0.00     0.148 A 
ATOM     67  C   UNL A   1      37.316  30.389  32.603  1.00  0.00     0.002 A 
ATOM     68  C   UNL A   1      36.631  31.372  30.496  1.00  0.00     0.091 A 
ATOM     69  F   UNL A   1      38.009  31.088  28.569  1.00  0.00    -0.205 F 
ATOM     70  C   UNL A   1      36.394  31.115  31.856  1.00  0.00     0.022 A 
BRANCH  68  71
ATOM     71  S   UNL A   1      35.417  32.397  29.652  1.00  0.00     0.127 S 
ATOM     72  O   UNL A   1      34.897  31.471  28.646  1.00  0.00    -0.237 OA
ATOM     73  O   UNL A   1      34.478  32.713  30.729  1.00  0.00    -0.237 OA
ATOM     74  O   UNL A   1      36.149  33.541  29.128  1.00  0.00    -0.744 OA
ENDBRANCH  68  71
ENDBRANCH  50  64
BRANCH  51  75
ATOM     75  C   UNL A   1      47.000  27.263  25.910  1.00  0.00     0.023 A 
ATOM     76  C   UNL A   1      47.922  26.373  26.495  1.00  0.00     0.012 A 
ATOM     77  C   UNL A   1      47.202  27.695  24.586  1.00  0.00     0.148 A 
ATOM     78  C   UNL A   1      49.046  25.948  25.789  1.00  0.00     0.002 A 
ATOM     79  C   UNL A   1      48.295  27.224  23.868  1.00  0.00     0.091 A 
ATOM     80  F   UNL A   1      46.307  28.535  24.048  1.00  0.00    -0.205 F 
ATOM     81  C   UNL A   1      49.227  26.365  24.473  1.00  0.00     0.022 A 
BRANCH  79  82
ATOM     82  S   UNL A   1      48.538  27.594  22.127  1.00  0.00     0.127 S 
ATOM     83  O   UNL A   1      47.228  28.113  21.746  1.00  0.00    -0.237 OA
ATOM     84  O   UNL A   1      49.607  28.592  22.178  1.00  0.00    -0.237 OA
ATOM     85  O   UNL A   1      48.924  26.333  21.506  1.00  0.00    -0.744 OA
ENDBRANCH  79  82
ENDBRANCH  51  75
BRANCH  63  86
ATOM     86  C   UNL A   1      45.365  32.872  29.742  1.00  0.00     0.023 A 
ATOM     87  C   UNL A   1      45.307  34.031  28.942  1.00  0.00     0.012 A 
ATOM     88  C   UNL A   1      46.108  32.897  30.939  1.00  0.00     0.148 A 
ATOM     89  C   UNL A   1      46.008  35.181  29.306  1.00  0.00     0.002 A 
ATOM     90  C   UNL A   1      46.760  34.063  31.323  1.00  0.00     0.091 A 
ATOM     91  F   UNL A   1      46.167  31.780  31.679  1.00  0.00    -0.205 F 
ATOM     92  C   UNL A   1      46.724  35.200  30.501  1.00  0.00     0.022 A 
BRANCH  90  93
ATOM     93  S   UNL A   1      47.630  34.213  32.887  1.00  0.00     0.127 S 
ATOM     94  O   UNL A   1      46.549  34.003  33.850  1.00  0.00    -0.237 OA
ATOM     95  O   UNL A   1      48.598  33.118  32.809  1.00  0.00    -0.237 OA
ATOM     96  O   UNL A   1      48.221  35.544  32.896  1.00  0.00    -0.744 OA
ENDBRANCH  90  93
ENDBRANCH  63  86
ENDBRANCH  37  38
ENDBRANCH  29  32
ENDBRANCH  27  28
ENDBRANCH  26  27
ENDBRANCH  25  26
ENDBRANCH   1  25
TORSDOF 19
ENDMDL
