MODEL 1
REMARK VINA RESULT:     -12.3      0.000      0.000
REMARK SMILES Cc1nnc(SCC2=C(C(=O)NCCCCNC(=O)c3ccc(-c4c5nc(c(-c6cccc(S(=O)(=O)[O-])c6F)c6ccc([nH]6)c(-c6cccc(S(=O)(=O)[O-])c6F)c6nc(c(-c7cccc(S(=O)(=O)[O-])c7F)c7ccc4[nH]7)C=C6)C=C5)cc3)N3C(=O)[C@H](NC(=O)c4ccc(F)cc4F)[C@H]3SC2)s1
REMARK SMILES IDX 14 1 13 2 12 3 10 4 11 5 9 7 8 8 100 9 83 10 99 11 84 12
REMARK SMILES IDX 98 13 85 14 86 15 7 16 6 17 5 18 1 19 2 20 3 21 101 22 4 23
REMARK SMILES IDX 87 24 88 25 89 27 90 28 91 29 96 30 92 31 95 32 97 33 93 34
REMARK SMILES IDX 94 35 15 36 16 37 17 38 18 39 19 41 20 42 21 43 82 44 22 45
REMARK SMILES IDX 81 46 23 47 24 48 25 49 75 50 26 51 80 52 74 53 76 54 27 55
REMARK SMILES IDX 79 56 73 57 72 58 28 60 60 61 40 62 59 63 41 64 44 65 58 66
REMARK SMILES IDX 77 67 42 68 43 69 57 71 78 72 45 73 29 74 30 75 38 76 31 77
REMARK SMILES IDX 33 78 39 79 32 80 34 81 35 82 36 83 37 84 61 85 62 86 70 87
REMARK SMILES IDX 63 88 65 89 71 90 64 91 66 92 67 93 68 94 69 95 46 96 47 97
REMARK SMILES IDX 55 98 48 99 50 100 56 101 49 102 51 103 52 104 53 105 54 106
REMARK H PARENT 12 6 87 26 17 40 76 59 44 70
REMARK Flexibility Score: inf
ROOT
ATOM      1  C   UNL A   1      38.886  23.325  26.278  1.00  0.00     0.023 C 
ENDROOT
BRANCH   1   2
ATOM      2  C   UNL A   1      37.424  23.740  26.110  1.00  0.00     0.116 C 
BRANCH   2   3
ATOM      3  N   UNL A   1      36.883  23.386  24.823  1.00  0.00    -0.351 N 
ATOM      4  C   UNL A   1      35.732  23.528  24.140  1.00  0.00     0.268 C 
ATOM      5  O   UNL A   1      35.932  23.556  22.917  1.00  0.00    -0.268 OA
ATOM      6  H   UNL A   1      37.549  22.898  24.287  1.00  0.00     0.163 HD
BRANCH   4   7
ATOM      7  C   UNL A   1      34.276  23.608  24.636  1.00  0.00     0.111 C 
ATOM      8  C   UNL A   1      33.442  24.657  24.940  1.00  0.00    -0.020 C 
ATOM      9  C   UNL A   1      31.988  24.509  25.440  1.00  0.00     0.106 C 
ATOM     10  N   UNL A   1      33.676  22.357  24.638  1.00  0.00    -0.290 N 
ATOM     11  S   UNL A   1      31.386  22.845  25.752  1.00  0.00    -0.129 SA
ATOM     12  C   UNL A   1      33.958  21.032  24.545  1.00  0.00     0.253 C 
ATOM     13  C   UNL A   1      32.282  22.235  24.322  1.00  0.00     0.181 C 
ATOM     14  O   UNL A   1      34.940  20.342  24.701  1.00  0.00    -0.272 OA
ATOM     15  C   UNL A   1      32.447  20.711  24.252  1.00  0.00     0.206 C 
BRANCH   8  16
ATOM     16  C   UNL A   1      33.724  26.134  24.891  1.00  0.00     0.111 C 
BRANCH  16  17
ATOM     17  S   UNL A   1      32.283  27.184  24.561  1.00  0.00    -0.089 SA
BRANCH  17  18
ATOM     18  C   UNL A   1      32.593  28.639  25.474  1.00  0.00     0.174 A 
ATOM     19  C   UNL A   1      34.105  31.221  27.876  1.00  0.00     0.081 C 
ATOM     20  C   UNL A   1      33.370  30.362  26.913  1.00  0.00     0.115 A 
ATOM     21  N   UNL A   1      32.148  30.587  26.479  1.00  0.00    -0.143 NA
ATOM     22  S   UNL A   1      34.073  28.921  26.294  1.00  0.00    -0.091 S 
ATOM     23  N   UNL A   1      31.694  29.577  25.654  1.00  0.00    -0.132 NA
ENDBRANCH  17  18
ENDBRANCH  16  17
ENDBRANCH   8  16
BRANCH  15  24
ATOM     24  N   UNL A   1      32.147  20.054  22.940  1.00  0.00    -0.338 N 
ATOM     25  C   UNL A   1      32.354  18.751  22.536  1.00  0.00     0.254 C 
ATOM     26  H   UNL A   1      31.739  20.641  22.263  1.00  0.00     0.164 HD
ATOM     27  O   UNL A   1      32.265  18.431  21.355  1.00  0.00    -0.269 OA
BRANCH  25  28
ATOM     28  C   UNL A   1      32.729  17.712  23.509  1.00  0.00     0.075 A 
ATOM     29  C   UNL A   1      32.015  17.578  24.702  1.00  0.00     0.020 A 
ATOM     30  C   UNL A   1      33.850  16.908  23.283  1.00  0.00     0.138 A 
ATOM     31  C   UNL A   1      32.363  16.563  25.599  1.00  0.00     0.040 A 
ATOM     32  C   UNL A   1      34.161  15.859  24.140  1.00  0.00     0.079 A 
ATOM     33  F   UNL A   1      34.621  17.099  22.204  1.00  0.00    -0.206 F 
ATOM     34  C   UNL A   1      33.406  15.691  25.291  1.00  0.00     0.126 A 
ATOM     35  F   UNL A   1      33.695  14.684  26.126  1.00  0.00    -0.207 F 
ENDBRANCH  25  28
ENDBRANCH  15  24
ENDBRANCH   4   7
ENDBRANCH   2   3
ENDBRANCH   1   2
BRANCH   1  36
ATOM     36  C   UNL A   1      39.142  21.891  25.830  1.00  0.00     0.023 C 
BRANCH  36  37
ATOM     37  C   UNL A   1      39.767  21.015  26.907  1.00  0.00     0.116 C 
BRANCH  37  38
ATOM     38  N   UNL A   1      40.410  19.809  26.396  1.00  0.00    -0.352 N 
ATOM     39  C   UNL A   1      41.748  19.659  26.097  1.00  0.00     0.251 C 
ATOM     40  H   UNL A   1      39.833  19.025  26.251  1.00  0.00     0.163 HD
ATOM     41  O   UNL A   1      42.189  18.623  25.615  1.00  0.00    -0.269 OA
BRANCH  39  42
ATOM     42  C   UNL A   1      42.621  20.825  26.337  1.00  0.00     0.039 A 
ATOM     43  C   UNL A   1      42.902  21.690  25.278  1.00  0.00     0.014 A 
ATOM     44  C   UNL A   1      42.957  21.157  27.651  1.00  0.00     0.014 A 
ATOM     45  C   UNL A   1      43.456  22.941  25.553  1.00  0.00     0.010 A 
ATOM     46  C   UNL A   1      43.418  22.436  27.926  1.00  0.00     0.010 A 
ATOM     47  C   UNL A   1      43.671  23.342  26.882  1.00  0.00    -0.014 A 
BRANCH  47  48
ATOM     48  C   UNL A   1      44.170  24.698  27.223  1.00  0.00     0.031 A 
ATOM     49  C   UNL A   1      43.203  25.722  27.749  1.00  0.00     0.074 A 
ATOM     50  C   UNL A   1      45.446  25.043  26.956  1.00  0.00     0.049 A 
ATOM     51  N   UNL A   1      43.388  26.995  27.972  1.00  0.00    -0.248 NA
ATOM     52  C   UNL A   1      41.832  25.257  28.027  1.00  0.00     0.031 C 
ATOM     53  C   UNL A   1      46.465  24.159  26.387  1.00  0.00     0.029 A 
ATOM     54  N   UNL A   1      46.095  26.247  27.095  1.00  0.00    -0.354 N 
ATOM     55  C   UNL A   1      42.152  27.492  28.365  1.00  0.00     0.074 A 
ATOM     56  C   UNL A   1      41.215  26.392  28.315  1.00  0.00     0.031 C 
ATOM     57  C   UNL A   1      47.608  24.849  26.225  1.00  0.00     0.029 A 
ATOM     58  C   UNL A   1      47.391  26.233  26.633  1.00  0.00     0.049 A 
ATOM     59  H   UNL A   1      45.671  27.044  27.487  1.00  0.00     0.167 HD
ATOM     60  C   UNL A   1      41.828  28.745  28.758  1.00  0.00     0.034 A 
ATOM     61  C   UNL A   1      48.296  27.229  26.530  1.00  0.00     0.034 A 
ATOM     62  C   UNL A   1      42.772  29.822  28.848  1.00  0.00     0.049 A 
ATOM     63  C   UNL A   1      47.917  28.613  26.989  1.00  0.00     0.074 A 
ATOM     64  C   UNL A   1      42.566  31.106  29.317  1.00  0.00     0.029 A 
ATOM     65  N   UNL A   1      44.097  29.747  28.450  1.00  0.00    -0.354 N 
ATOM     66  N   UNL A   1      46.779  29.031  27.487  1.00  0.00    -0.248 NA
ATOM     67  C   UNL A   1      48.950  29.655  26.900  1.00  0.00     0.031 C 
ATOM     68  C   UNL A   1      43.757  31.820  29.167  1.00  0.00     0.029 A 
ATOM     69  C   UNL A   1      44.719  30.965  28.650  1.00  0.00     0.049 A 
ATOM     70  H   UNL A   1      44.532  28.945  28.080  1.00  0.00     0.167 HD
ATOM     71  C   UNL A   1      46.975  30.368  27.816  1.00  0.00     0.074 A 
ATOM     72  C   UNL A   1      48.341  30.690  27.464  1.00  0.00     0.031 C 
ATOM     73  C   UNL A   1      46.100  31.250  28.357  1.00  0.00     0.034 A 
BRANCH  60  74
ATOM     74  C   UNL A   1      40.400  29.009  29.155  1.00  0.00     0.023 A 
ATOM     75  C   UNL A   1      39.440  29.305  28.166  1.00  0.00     0.012 A 
ATOM     76  C   UNL A   1      40.000  28.911  30.501  1.00  0.00     0.148 A 
ATOM     77  C   UNL A   1      38.112  29.543  28.515  1.00  0.00     0.002 A 
ATOM     78  C   UNL A   1      38.664  29.097  30.835  1.00  0.00     0.091 A 
ATOM     79  F   UNL A   1      40.932  28.649  31.429  1.00  0.00    -0.205 F 
ATOM     80  C   UNL A   1      37.723  29.426  29.847  1.00  0.00     0.022 A 
BRANCH  78  81
ATOM     81  S   UNL A   1      38.047  28.887  32.508  1.00  0.00     0.127 S 
ATOM     82  O   UNL A   1      38.929  29.778  33.261  1.00  0.00    -0.237 OA
ATOM     83  O   UNL A   1      36.667  29.355  32.385  1.00  0.00    -0.237 OA
ATOM     84  O   UNL A   1      38.184  27.469  32.814  1.00  0.00    -0.744 OA
ENDBRANCH  78  81
ENDBRANCH  60  74
BRANCH  61  85
ATOM     85  C   UNL A   1      49.664  26.950  26.004  1.00  0.00     0.023 A 
ATOM     86  C   UNL A   1      50.629  26.373  26.853  1.00  0.00     0.012 A 
ATOM     87  C   UNL A   1      50.012  27.240  24.671  1.00  0.00     0.148 A 
ATOM     88  C   UNL A   1      51.924  26.123  26.396  1.00  0.00     0.002 A 
ATOM     89  C   UNL A   1      51.286  26.938  24.206  1.00  0.00     0.091 A 
ATOM     90  F   UNL A   1      49.083  27.796  23.881  1.00  0.00    -0.205 F 
ATOM     91  C   UNL A   1      52.250  26.398  25.071  1.00  0.00     0.022 A 
BRANCH  89  92
ATOM     92  S   UNL A   1      51.757  27.138  22.484  1.00  0.00     0.127 S 
ATOM     93  O   UNL A   1      52.095  28.558  22.430  1.00  0.00    -0.237 OA
ATOM     94  O   UNL A   1      52.898  26.228  22.379  1.00  0.00    -0.237 OA
ATOM     95  O   UNL A   1      50.593  26.735  21.708  1.00  0.00    -0.744 OA
ENDBRANCH  89  92
ENDBRANCH  61  85
BRANCH  73  96
ATOM     96  C   UNL A   1      46.592  32.635  28.681  1.00  0.00     0.023 A 
ATOM     97  C   UNL A   1      47.158  32.911  29.941  1.00  0.00     0.012 A 
ATOM     98  C   UNL A   1      46.610  33.626  27.679  1.00  0.00     0.148 A 
ATOM     99  C   UNL A   1      47.721  34.160  30.201  1.00  0.00     0.002 A 
ATOM    100  C   UNL A   1      47.221  34.846  27.928  1.00  0.00     0.091 A 
ATOM    101  F   UNL A   1      46.052  33.342  26.493  1.00  0.00    -0.205 F 
ATOM    102  C   UNL A   1      47.767  35.121  29.192  1.00  0.00     0.022 A 
BRANCH 100 103
ATOM    103  S   UNL A   1      47.423  36.101  26.658  1.00  0.00     0.127 S 
ATOM    104  O   UNL A   1      46.084  36.685  26.600  1.00  0.00    -0.237 OA
ATOM    105  O   UNL A   1      48.444  36.970  27.245  1.00  0.00    -0.237 OA
ATOM    106  O   UNL A   1      47.842  35.396  25.454  1.00  0.00    -0.744 OA
ENDBRANCH 100 103
ENDBRANCH  73  96
ENDBRANCH  47  48
ENDBRANCH  39  42
ENDBRANCH  37  38
ENDBRANCH  36  37
ENDBRANCH   1  36
TORSDOF 19
ENDMDL
MODEL 2
REMARK VINA RESULT:     -12.2      5.612     11.202
REMARK SMILES Cc1nnc(SCC2=C(C(=O)NCCCCNC(=O)c3ccc(-c4c5nc(c(-c6cccc(S(=O)(=O)[O-])c6F)c6ccc([nH]6)c(-c6cccc(S(=O)(=O)[O-])c6F)c6nc(c(-c7cccc(S(=O)(=O)[O-])c7F)c7ccc4[nH]7)C=C6)C=C5)cc3)N3C(=O)[C@H](NC(=O)c4ccc(F)cc4F)[C@H]3SC2)s1
REMARK SMILES IDX 14 1 13 2 12 3 10 4 11 5 9 7 8 8 100 9 83 10 99 11 84 12
REMARK SMILES IDX 98 13 85 14 86 15 7 16 6 17 5 18 1 19 2 20 3 21 101 22 4 23
REMARK SMILES IDX 87 24 88 25 89 27 90 28 91 29 96 30 92 31 95 32 97 33 93 34
REMARK SMILES IDX 94 35 15 36 16 37 17 38 18 39 19 41 20 42 21 43 82 44 22 45
REMARK SMILES IDX 81 46 23 47 24 48 25 49 75 50 26 51 80 52 74 53 76 54 27 55
REMARK SMILES IDX 79 56 73 57 72 58 28 60 60 61 40 62 59 63 41 64 44 65 58 66
REMARK SMILES IDX 77 67 42 68 43 69 57 71 78 72 45 73 29 74 30 75 38 76 31 77
REMARK SMILES IDX 33 78 39 79 32 80 34 81 35 82 36 83 37 84 61 85 62 86 70 87
REMARK SMILES IDX 63 88 65 89 71 90 64 91 66 92 67 93 68 94 69 95 46 96 47 97
REMARK SMILES IDX 55 98 48 99 50 100 56 101 49 102 51 103 52 104 53 105 54 106
REMARK H PARENT 12 6 87 26 17 40 76 59 44 70
REMARK Flexibility Score: inf
ROOT
ATOM      1  C   UNL A   1      34.310  29.824  27.860  1.00  0.00     0.023 C 
ENDROOT
BRANCH   1   2
ATOM      2  C   UNL A   1      34.063  28.583  27.002  1.00  0.00     0.116 C 
BRANCH   2   3
ATOM      3  N   UNL A   1      32.678  28.189  26.966  1.00  0.00    -0.351 N 
ATOM      4  C   UNL A   1      31.898  27.306  26.315  1.00  0.00     0.268 C 
ATOM      5  O   UNL A   1      30.925  26.967  27.006  1.00  0.00    -0.268 OA
ATOM      6  H   UNL A   1      32.148  28.721  27.603  1.00  0.00     0.163 HD
BRANCH   4   7
ATOM      7  C   UNL A   1      32.012  26.726  24.894  1.00  0.00     0.111 C 
ATOM      8  C   UNL A   1      31.951  27.286  23.641  1.00  0.00    -0.020 C 
ATOM      9  C   UNL A   1      32.084  26.500  22.318  1.00  0.00     0.106 C 
ATOM     10  N   UNL A   1      32.380  25.389  24.925  1.00  0.00    -0.290 N 
ATOM     11  S   UNL A   1      32.215  24.711  22.428  1.00  0.00    -0.129 SA
ATOM     12  C   UNL A   1      32.495  24.327  25.765  1.00  0.00     0.253 C 
ATOM     13  C   UNL A   1      33.232  24.860  23.899  1.00  0.00     0.181 C 
ATOM     14  O   UNL A   1      32.039  24.022  26.843  1.00  0.00    -0.272 OA
ATOM     15  C   UNL A   1      33.393  23.572  24.717  1.00  0.00     0.206 C 
BRANCH   8  16
ATOM     16  C   UNL A   1      31.726  28.724  23.258  1.00  0.00     0.111 C 
BRANCH  16  17
ATOM     17  S   UNL A   1      30.264  29.500  23.996  1.00  0.00    -0.089 SA
BRANCH  17  18
ATOM     18  C   UNL A   1      29.466  30.278  22.654  1.00  0.00     0.174 A 
ATOM     19  C   UNL A   1      27.583  32.795  20.452  1.00  0.00     0.081 C 
ATOM     20  C   UNL A   1      28.298  31.691  21.142  1.00  0.00     0.115 A 
ATOM     21  N   UNL A   1      28.354  30.446  20.720  1.00  0.00    -0.143 NA
ATOM     22  S   UNL A   1      29.111  31.957  22.632  1.00  0.00    -0.091 S 
ATOM     23  N   UNL A   1      29.021  29.625  21.607  1.00  0.00    -0.132 NA
ENDBRANCH  17  18
ENDBRANCH  16  17
ENDBRANCH   8  16
BRANCH  15  24
ATOM     24  N   UNL A   1      34.779  23.217  25.160  1.00  0.00    -0.338 N 
ATOM     25  C   UNL A   1      35.307  21.993  25.514  1.00  0.00     0.254 C 
ATOM     26  H   UNL A   1      35.409  23.972  25.205  1.00  0.00     0.164 HD
ATOM     27  O   UNL A   1      36.397  21.909  26.074  1.00  0.00    -0.269 OA
BRANCH  25  28
ATOM     28  C   UNL A   1      34.559  20.750  25.268  1.00  0.00     0.075 A 
ATOM     29  C   UNL A   1      33.190  20.689  25.544  1.00  0.00     0.020 A 
ATOM     30  C   UNL A   1      35.225  19.600  24.836  1.00  0.00     0.138 A 
ATOM     31  C   UNL A   1      32.487  19.512  25.271  1.00  0.00     0.040 A 
ATOM     32  C   UNL A   1      34.522  18.448  24.504  1.00  0.00     0.079 A 
ATOM     33  F   UNL A   1      36.556  19.600  24.681  1.00  0.00    -0.206 F 
ATOM     34  C   UNL A   1      33.152  18.418  24.719  1.00  0.00     0.126 A 
ATOM     35  F   UNL A   1      32.461  17.314  24.405  1.00  0.00    -0.207 F 
ENDBRANCH  25  28
ENDBRANCH  15  24
ENDBRANCH   4   7
ENDBRANCH   2   3
ENDBRANCH   1   2
BRANCH   1  36
ATOM     36  C   UNL A   1      33.358  30.966  27.523  1.00  0.00     0.023 C 
BRANCH  36  37
ATOM     37  C   UNL A   1      34.058  32.300  27.302  1.00  0.00     0.116 C 
BRANCH  37  38
ATOM     38  N   UNL A   1      33.213  33.465  27.552  1.00  0.00    -0.352 N 
ATOM     39  C   UNL A   1      33.318  34.338  28.614  1.00  0.00     0.251 C 
ATOM     40  H   UNL A   1      32.501  33.646  26.897  1.00  0.00     0.163 HD
ATOM     41  O   UNL A   1      32.525  35.258  28.773  1.00  0.00    -0.269 OA
BRANCH  39  42
ATOM     42  C   UNL A   1      34.402  34.085  29.583  1.00  0.00     0.039 A 
ATOM     43  C   UNL A   1      34.202  33.140  30.592  1.00  0.00     0.014 A 
ATOM     44  C   UNL A   1      35.667  34.622  29.336  1.00  0.00     0.014 A 
ATOM     45  C   UNL A   1      35.302  32.671  31.309  1.00  0.00     0.010 A 
ATOM     46  C   UNL A   1      36.767  34.083  29.987  1.00  0.00     0.010 A 
ATOM     47  C   UNL A   1      36.597  33.101  30.979  1.00  0.00    -0.014 A 
BRANCH  47  48
ATOM     48  C   UNL A   1      37.803  32.557  31.653  1.00  0.00     0.031 A 
ATOM     49  C   UNL A   1      38.564  31.438  30.998  1.00  0.00     0.074 A 
ATOM     50  C   UNL A   1      38.143  32.978  32.888  1.00  0.00     0.049 A 
ATOM     51  N   UNL A   1      39.549  30.721  31.470  1.00  0.00    -0.248 NA
ATOM     52  C   UNL A   1      38.135  31.049  29.643  1.00  0.00     0.031 C 
ATOM     53  C   UNL A   1      37.448  34.013  33.655  1.00  0.00     0.029 A 
ATOM     54  N   UNL A   1      39.144  32.559  33.732  1.00  0.00    -0.354 N 
ATOM     55  C   UNL A   1      39.822  29.769  30.497  1.00  0.00     0.074 A 
ATOM     56  C   UNL A   1      38.876  29.974  29.423  1.00  0.00     0.031 C 
ATOM     57  C   UNL A   1      38.040  34.147  34.855  1.00  0.00     0.029 A 
ATOM     58  C   UNL A   1      39.127  33.178  34.961  1.00  0.00     0.049 A 
ATOM     59  H   UNL A   1      39.810  31.879  33.480  1.00  0.00     0.167 HD
ATOM     60  C   UNL A   1      40.789  28.824  30.483  1.00  0.00     0.034 A 
ATOM     61  C   UNL A   1      39.886  32.973  36.058  1.00  0.00     0.034 A 
ATOM     62  C   UNL A   1      41.753  28.654  31.533  1.00  0.00     0.049 A 
ATOM     63  C   UNL A   1      40.967  31.925  36.012  1.00  0.00     0.074 A 
ATOM     64  C   UNL A   1      42.828  27.785  31.577  1.00  0.00     0.029 A 
ATOM     65  N   UNL A   1      41.755  29.358  32.726  1.00  0.00    -0.354 N 
ATOM     66  N   UNL A   1      41.298  31.126  35.027  1.00  0.00    -0.248 NA
ATOM     67  C   UNL A   1      41.800  31.769  37.214  1.00  0.00     0.031 C 
ATOM     68  C   UNL A   1      43.457  27.936  32.816  1.00  0.00     0.029 A 
ATOM     69  C   UNL A   1      42.803  28.934  33.522  1.00  0.00     0.049 A 
ATOM     70  H   UNL A   1      41.106  30.056  32.972  1.00  0.00     0.167 HD
ATOM     71  C   UNL A   1      42.403  30.410  35.472  1.00  0.00     0.074 A 
ATOM     72  C   UNL A   1      42.690  30.871  36.814  1.00  0.00     0.031 C 
ATOM     73  C   UNL A   1      43.115  29.452  34.828  1.00  0.00     0.034 A 
BRANCH  60  74
ATOM     74  C   UNL A   1      40.874  27.924  29.279  1.00  0.00     0.023 A 
ATOM     75  C   UNL A   1      40.089  26.754  29.221  1.00  0.00     0.012 A 
ATOM     76  C   UNL A   1      41.693  28.265  28.185  1.00  0.00     0.148 A 
ATOM     77  C   UNL A   1      40.149  25.915  28.110  1.00  0.00     0.002 A 
ATOM     78  C   UNL A   1      41.706  27.451  27.059  1.00  0.00     0.091 A 
ATOM     79  F   UNL A   1      42.447  29.370  28.270  1.00  0.00    -0.205 F 
ATOM     80  C   UNL A   1      40.947  26.270  27.025  1.00  0.00     0.022 A 
BRANCH  78  81
ATOM     81  S   UNL A   1      42.635  27.863  25.579  1.00  0.00     0.127 S 
ATOM     82  O   UNL A   1      42.439  26.663  24.766  1.00  0.00    -0.237 OA
ATOM     83  O   UNL A   1      41.929  29.049  25.096  1.00  0.00    -0.237 OA
ATOM     84  O   UNL A   1      44.004  28.103  26.015  1.00  0.00    -0.744 OA
ENDBRANCH  78  81
ENDBRANCH  60  74
BRANCH  61  85
ATOM     85  C   UNL A   1      39.679  33.801  37.281  1.00  0.00     0.023 A 
ATOM     86  C   UNL A   1      40.229  35.097  37.342  1.00  0.00     0.012 A 
ATOM     87  C   UNL A   1      38.935  33.321  38.375  1.00  0.00     0.148 A 
ATOM     88  C   UNL A   1      40.072  35.884  38.484  1.00  0.00     0.002 A 
ATOM     89  C   UNL A   1      38.735  34.131  39.487  1.00  0.00     0.091 A 
ATOM     90  F   UNL A   1      38.426  32.082  38.301  1.00  0.00    -0.205 F 
ATOM     91  C   UNL A   1      39.319  35.405  39.552  1.00  0.00     0.022 A 
BRANCH  89  92
ATOM     92  S   UNL A   1      37.675  33.649  40.854  1.00  0.00     0.127 S 
ATOM     93  O   UNL A   1      38.510  32.673  41.549  1.00  0.00    -0.237 OA
ATOM     94  O   UNL A   1      37.497  34.921  41.556  1.00  0.00    -0.237 OA
ATOM     95  O   UNL A   1      36.462  33.122  40.245  1.00  0.00    -0.744 OA
ENDBRANCH  89  92
ENDBRANCH  61  85
BRANCH  73  96
ATOM     96  C   UNL A   1      44.324  28.877  35.517  1.00  0.00     0.023 A 
ATOM     97  C   UNL A   1      45.586  29.480  35.357  1.00  0.00     0.012 A 
ATOM     98  C   UNL A   1      44.171  27.814  36.430  1.00  0.00     0.148 A 
ATOM     99  C   UNL A   1      46.682  29.020  36.087  1.00  0.00     0.002 A 
ATOM    100  C   UNL A   1      45.254  27.399  37.191  1.00  0.00     0.091 A 
ATOM    101  F   UNL A   1      42.961  27.248  36.553  1.00  0.00    -0.205 F 
ATOM    102  C   UNL A   1      46.514  27.993  37.014  1.00  0.00     0.022 A 
BRANCH 100 103
ATOM    103  S   UNL A   1      45.108  26.161  38.484  1.00  0.00     0.127 S 
ATOM    104  O   UNL A   1      46.506  25.798  38.709  1.00  0.00    -0.237 OA
ATOM    105  O   UNL A   1      44.492  26.922  39.571  1.00  0.00    -0.237 OA
ATOM    106  O   UNL A   1      44.274  25.099  37.936  1.00  0.00    -0.744 OA
ENDBRANCH 100 103
ENDBRANCH  73  96
ENDBRANCH  47  48
ENDBRANCH  39  42
ENDBRANCH  37  38
ENDBRANCH  36  37
ENDBRANCH   1  36
TORSDOF 19
ENDMDL
MODEL 3
REMARK VINA RESULT:     -12.1      6.360     10.617
REMARK SMILES Cc1nnc(SCC2=C(C(=O)NCCCCNC(=O)c3ccc(-c4c5nc(c(-c6cccc(S(=O)(=O)[O-])c6F)c6ccc([nH]6)c(-c6cccc(S(=O)(=O)[O-])c6F)c6nc(c(-c7cccc(S(=O)(=O)[O-])c7F)c7ccc4[nH]7)C=C6)C=C5)cc3)N3C(=O)[C@H](NC(=O)c4ccc(F)cc4F)[C@H]3SC2)s1
REMARK SMILES IDX 14 1 13 2 12 3 10 4 11 5 9 7 8 8 100 9 83 10 99 11 84 12
REMARK SMILES IDX 98 13 85 14 86 15 7 16 6 17 5 18 1 19 2 20 3 21 101 22 4 23
REMARK SMILES IDX 87 24 88 25 89 27 90 28 91 29 96 30 92 31 95 32 97 33 93 34
REMARK SMILES IDX 94 35 15 36 16 37 17 38 18 39 19 41 20 42 21 43 82 44 22 45
REMARK SMILES IDX 81 46 23 47 24 48 25 49 75 50 26 51 80 52 74 53 76 54 27 55
REMARK SMILES IDX 79 56 73 57 72 58 28 60 60 61 40 62 59 63 41 64 44 65 58 66
REMARK SMILES IDX 77 67 42 68 43 69 57 71 78 72 45 73 29 74 30 75 38 76 31 77
REMARK SMILES IDX 33 78 39 79 32 80 34 81 35 82 36 83 37 84 61 85 62 86 70 87
REMARK SMILES IDX 63 88 65 89 71 90 64 91 66 92 67 93 68 94 69 95 46 96 47 97
REMARK SMILES IDX 55 98 48 99 50 100 56 101 49 102 51 103 52 104 53 105 54 106
REMARK H PARENT 12 6 87 26 17 40 76 59 44 70
REMARK Flexibility Score: inf
ROOT
ATOM      1  C   UNL A   1      35.037  30.457  27.997  1.00  0.00     0.023 C 
ENDROOT
BRANCH   1   2
ATOM      2  C   UNL A   1      34.736  29.137  27.285  1.00  0.00     0.116 C 
BRANCH   2   3
ATOM      3  N   UNL A   1      33.336  28.796  27.299  1.00  0.00    -0.351 N 
ATOM      4  C   UNL A   1      32.511  27.903  26.722  1.00  0.00     0.268 C 
ATOM      5  O   UNL A   1      31.540  27.649  27.450  1.00  0.00    -0.268 OA
ATOM      6  H   UNL A   1      32.839  29.389  27.907  1.00  0.00     0.163 HD
BRANCH   4   7
ATOM      7  C   UNL A   1      32.575  27.226  25.341  1.00  0.00     0.111 C 
ATOM      8  C   UNL A   1      33.235  26.119  24.866  1.00  0.00    -0.020 C 
ATOM      9  C   UNL A   1      33.165  25.609  23.409  1.00  0.00     0.106 C 
ATOM     10  N   UNL A   1      31.670  27.797  24.458  1.00  0.00    -0.290 N 
ATOM     11  S   UNL A   1      32.243  26.603  22.229  1.00  0.00    -0.129 SA
ATOM     12  C   UNL A   1      30.866  28.880  24.297  1.00  0.00     0.253 C 
ATOM     13  C   UNL A   1      31.013  26.978  23.481  1.00  0.00     0.181 C 
ATOM     14  O   UNL A   1      30.807  29.993  24.768  1.00  0.00    -0.272 OA
ATOM     15  C   UNL A   1      30.077  28.147  23.151  1.00  0.00     0.206 C 
BRANCH   8  16
ATOM     16  C   UNL A   1      34.164  25.186  25.595  1.00  0.00     0.111 C 
BRANCH  16  17
ATOM     17  S   UNL A   1      35.141  24.086  24.536  1.00  0.00    -0.089 SA
BRANCH  17  18
ATOM     18  C   UNL A   1      34.351  22.536  24.680  1.00  0.00     0.174 A 
ATOM     19  C   UNL A   1      33.651  18.767  24.855  1.00  0.00     0.081 C 
ATOM     20  C   UNL A   1      33.716  20.250  24.798  1.00  0.00     0.115 A 
ATOM     21  N   UNL A   1      32.687  21.044  24.593  1.00  0.00    -0.143 NA
ATOM     22  S   UNL A   1      35.212  21.079  24.963  1.00  0.00    -0.091 S 
ATOM     23  N   UNL A   1      33.061  22.371  24.511  1.00  0.00    -0.132 NA
ENDBRANCH  17  18
ENDBRANCH  16  17
ENDBRANCH   8  16
BRANCH  15  24
ATOM     24  N   UNL A   1      28.613  27.932  23.381  1.00  0.00    -0.338 N 
ATOM     25  C   UNL A   1      27.551  28.791  23.183  1.00  0.00     0.254 C 
ATOM     26  H   UNL A   1      28.371  27.043  23.725  1.00  0.00     0.164 HD
ATOM     27  O   UNL A   1      26.439  28.541  23.637  1.00  0.00    -0.269 OA
BRANCH  25  28
ATOM     28  C   UNL A   1      27.733  30.057  22.454  1.00  0.00     0.075 A 
ATOM     29  C   UNL A   1      27.881  30.051  21.064  1.00  0.00     0.020 A 
ATOM     30  C   UNL A   1      27.840  31.263  23.152  1.00  0.00     0.138 A 
ATOM     31  C   UNL A   1      28.018  31.264  20.384  1.00  0.00     0.040 A 
ATOM     32  C   UNL A   1      27.912  32.476  22.477  1.00  0.00     0.079 A 
ATOM     33  F   UNL A   1      27.822  31.280  24.491  1.00  0.00    -0.206 F 
ATOM     34  C   UNL A   1      27.993  32.465  21.093  1.00  0.00     0.126 A 
ATOM     35  F   UNL A   1      28.064  33.626  20.429  1.00  0.00    -0.207 F 
ENDBRANCH  25  28
ENDBRANCH  15  24
ENDBRANCH   4   7
ENDBRANCH   2   3
ENDBRANCH   1   2
BRANCH   1  36
ATOM     36  C   UNL A   1      33.878  31.443  27.913  1.00  0.00     0.023 C 
BRANCH  36  37
ATOM     37  C   UNL A   1      34.318  32.890  27.737  1.00  0.00     0.116 C 
BRANCH  37  38
ATOM     38  N   UNL A   1      33.412  33.866  28.336  1.00  0.00    -0.352 N 
ATOM     39  C   UNL A   1      33.478  34.361  29.622  1.00  0.00     0.251 C 
ATOM     40  H   UNL A   1      32.684  34.204  27.767  1.00  0.00     0.163 HD
ATOM     41  O   UNL A   1      32.636  35.136  30.058  1.00  0.00    -0.269 OA
BRANCH  39  42
ATOM     42  C   UNL A   1      34.584  33.875  30.469  1.00  0.00     0.039 A 
ATOM     43  C   UNL A   1      34.324  32.890  31.424  1.00  0.00     0.014 A 
ATOM     44  C   UNL A   1      35.893  34.243  30.148  1.00  0.00     0.014 A 
ATOM     45  C   UNL A   1      35.394  32.210  32.005  1.00  0.00     0.010 A 
ATOM     46  C   UNL A   1      36.946  33.499  30.658  1.00  0.00     0.010 A 
ATOM     47  C   UNL A   1      36.709  32.474  31.590  1.00  0.00    -0.014 A 
BRANCH  47  48
ATOM     48  C   UNL A   1      37.868  31.708  32.114  1.00  0.00     0.031 A 
ATOM     49  C   UNL A   1      38.469  32.103  33.435  1.00  0.00     0.074 A 
ATOM     50  C   UNL A   1      38.447  30.748  31.364  1.00  0.00     0.049 A 
ATOM     51  N   UNL A   1      39.561  31.672  34.007  1.00  0.00    -0.248 NA
ATOM     52  C   UNL A   1      37.765  33.150  34.196  1.00  0.00     0.031 C 
ATOM     53  C   UNL A   1      37.996  30.316  30.040  1.00  0.00     0.029 A 
ATOM     54  N   UNL A   1      39.567  29.985  31.596  1.00  0.00    -0.354 N 
ATOM     55  C   UNL A   1      39.702  32.427  35.164  1.00  0.00     0.074 A 
ATOM     56  C   UNL A   1      38.606  33.369  35.195  1.00  0.00     0.031 C 
ATOM     57  C   UNL A   1      38.830  29.369  29.577  1.00  0.00     0.029 A 
ATOM     58  C   UNL A   1      39.899  29.158  30.548  1.00  0.00     0.049 A 
ATOM     59  H   UNL A   1      40.083  30.028  32.434  1.00  0.00     0.167 HD
ATOM     60  C   UNL A   1      40.645  32.330  36.129  1.00  0.00     0.034 A 
ATOM     61  C   UNL A   1      40.958  28.339  30.378  1.00  0.00     0.034 A 
ATOM     62  C   UNL A   1      41.706  31.364  36.114  1.00  0.00     0.049 A 
ATOM     63  C   UNL A   1      41.986  28.237  31.475  1.00  0.00     0.074 A 
ATOM     64  C   UNL A   1      42.661  31.125  37.085  1.00  0.00     0.029 A 
ATOM     65  N   UNL A   1      41.961  30.486  35.074  1.00  0.00    -0.354 N 
ATOM     66  N   UNL A   1      42.027  28.863  32.626  1.00  0.00    -0.248 NA
ATOM     67  C   UNL A   1      43.097  27.297  31.266  1.00  0.00     0.031 C 
ATOM     68  C   UNL A   1      43.518  30.127  36.614  1.00  0.00     0.029 A 
ATOM     69  C   UNL A   1      43.066  29.711  35.371  1.00  0.00     0.049 A 
ATOM     70  H   UNL A   1      41.433  30.423  34.245  1.00  0.00     0.167 HD
ATOM     71  C   UNL A   1      43.135  28.358  33.296  1.00  0.00     0.074 A 
ATOM     72  C   UNL A   1      43.738  27.372  32.425  1.00  0.00     0.031 C 
ATOM     73  C   UNL A   1      43.613  28.686  34.521  1.00  0.00     0.034 A 
BRANCH  60  74
ATOM     74  C   UNL A   1      40.549  33.272  37.300  1.00  0.00     0.023 A 
ATOM     75  C   UNL A   1      39.690  32.967  38.376  1.00  0.00     0.012 A 
ATOM     76  C   UNL A   1      41.347  34.430  37.357  1.00  0.00     0.148 A 
ATOM     77  C   UNL A   1      39.596  33.823  39.472  1.00  0.00     0.002 A 
ATOM     78  C   UNL A   1      41.287  35.250  38.476  1.00  0.00     0.091 A 
ATOM     79  F   UNL A   1      42.141  34.712  36.314  1.00  0.00    -0.205 F 
ATOM     80  C   UNL A   1      40.403  34.957  39.527  1.00  0.00     0.022 A 
BRANCH  78  81
ATOM     81  S   UNL A   1      42.345  36.687  38.681  1.00  0.00     0.127 S 
ATOM     82  O   UNL A   1      42.542  37.107  37.294  1.00  0.00    -0.237 OA
ATOM     83  O   UNL A   1      41.499  37.578  39.474  1.00  0.00    -0.237 OA
ATOM     84  O   UNL A   1      43.541  36.213  39.364  1.00  0.00    -0.744 OA
ENDBRANCH  78  81
ENDBRANCH  60  74
BRANCH  61  85
ATOM     85  C   UNL A   1      41.084  27.519  29.139  1.00  0.00     0.023 A 
ATOM     86  C   UNL A   1      40.401  26.290  29.048  1.00  0.00     0.012 A 
ATOM     87  C   UNL A   1      41.862  27.952  28.048  1.00  0.00     0.148 A 
ATOM     88  C   UNL A   1      40.521  25.491  27.910  1.00  0.00     0.002 A 
ATOM     89  C   UNL A   1      41.932  27.178  26.896  1.00  0.00     0.091 A 
ATOM     90  F   UNL A   1      42.510  29.121  28.156  1.00  0.00    -0.205 F 
ATOM     91  C   UNL A   1      41.278  25.938  26.831  1.00  0.00     0.022 A 
BRANCH  89  92
ATOM     92  S   UNL A   1      42.777  27.732  25.411  1.00  0.00     0.127 S 
ATOM     93  O   UNL A   1      42.652  26.563  24.543  1.00  0.00    -0.237 OA
ATOM     94  O   UNL A   1      41.964  28.883  25.016  1.00  0.00    -0.237 OA
ATOM     95  O   UNL A   1      44.131  28.065  25.829  1.00  0.00    -0.744 OA
ENDBRANCH  89  92
ENDBRANCH  61  85
BRANCH  73  96
ATOM     96  C   UNL A   1      44.805  27.931  35.047  1.00  0.00     0.023 A 
ATOM     97  C   UNL A   1      44.626  26.732  35.763  1.00  0.00     0.012 A 
ATOM     98  C   UNL A   1      46.107  28.352  34.709  1.00  0.00     0.148 A 
ATOM     99  C   UNL A   1      45.731  25.971  36.148  1.00  0.00     0.002 A 
ATOM    100  C   UNL A   1      47.196  27.562  35.049  1.00  0.00     0.091 A 
ATOM    101  F   UNL A   1      46.250  29.505  34.040  1.00  0.00    -0.205 F 
ATOM    102  C   UNL A   1      47.011  26.376  35.777  1.00  0.00     0.022 A 
BRANCH 100 103
ATOM    103  S   UNL A   1      48.869  27.948  34.521  1.00  0.00     0.127 S 
ATOM    104  O   UNL A   1      49.084  29.253  35.144  1.00  0.00    -0.237 OA
ATOM    105  O   UNL A   1      49.638  26.854  35.116  1.00  0.00    -0.237 OA
ATOM    106  O   UNL A   1      48.845  27.953  33.065  1.00  0.00    -0.744 OA
ENDBRANCH 100 103
ENDBRANCH  73  96
ENDBRANCH  47  48
ENDBRANCH  39  42
ENDBRANCH  37  38
ENDBRANCH  36  37
ENDBRANCH   1  36
TORSDOF 19
ENDMDL
