MODEL 1
REMARK VINA RESULT:     -12.6      0.000      0.000
REMARK SMILES CC(=O)NC(C)(C)C(=O)N1C[C@@H](C(=O)NCCCCNC(=O)c2ccc(-c3c4nc(c(-c5cccc(S(=O)(=O)[O-])c5F)c5ccc([nH]5)c(-c5cccc(S(=O)(=O)[O-])c5F)c5nc(c(-c6cccc(S(=O)(=O)[O-])c6F)c6ccc3[nH]6)C=C5)C=C4)cc2)[C@H](c2ccccc2C)C1
REMARK SMILES IDX 17 1 16 2 15 3 13 4 14 5 12 7 10 8 11 9 94 10 86 11 8 12
REMARK SMILES IDX 9 13 5 14 6 15 7 16 4 17 1 18 2 19 3 20 87 22 88 23 92 24
REMARK SMILES IDX 89 25 91 26 93 27 90 28 18 29 19 30 20 31 21 32 22 34 23 35
REMARK SMILES IDX 24 36 85 37 25 38 84 39 26 40 27 41 28 42 78 43 29 44 83 45
REMARK SMILES IDX 77 46 79 47 30 48 82 49 76 50 75 51 31 53 63 54 43 55 62 56
REMARK SMILES IDX 44 57 47 58 61 59 80 60 45 61 46 62 60 64 81 65 48 66 32 67
REMARK SMILES IDX 33 68 41 69 34 70 36 71 42 72 35 73 37 74 38 75 39 76 40 77
REMARK SMILES IDX 64 78 65 79 73 80 66 81 68 82 74 83 67 84 69 85 70 86 71 87
REMARK SMILES IDX 72 88 49 89 50 90 58 91 51 92 53 93 59 94 52 95 54 96 55 97
REMARK SMILES IDX 56 98 57 99
REMARK H PARENT 15 6 4 21 20 33 79 52 47 63
REMARK Flexibility Score: inf
ROOT
ATOM      1  C   UNL A   1      36.194  20.395  24.978  1.00  0.00     0.023 C 
ENDROOT
BRANCH   1   2
ATOM      2  C   UNL A   1      36.366  21.869  25.330  1.00  0.00     0.116 C 
BRANCH   2   3
ATOM      3  N   UNL A   1      35.658  22.256  26.533  1.00  0.00    -0.356 N 
ATOM      4  C   UNL A   1      34.370  22.569  26.805  1.00  0.00     0.225 C 
ATOM      5  O   UNL A   1      34.104  22.710  28.006  1.00  0.00    -0.275 OA
ATOM      6  H   UNL A   1      36.240  22.302  27.325  1.00  0.00     0.163 HD
BRANCH   4   7
ATOM      7  C   UNL A   1      33.287  22.870  25.771  1.00  0.00     0.107 C 
ATOM      8  N   UNL A   1      31.313  24.102  25.463  1.00  0.00    -0.339 N 
ATOM      9  C   UNL A   1      32.500  24.083  26.284  1.00  0.00     0.133 C 
ATOM     10  C   UNL A   1      30.899  22.733  25.245  1.00  0.00     0.128 C 
ATOM     11  C   UNL A   1      32.169  21.865  25.437  1.00  0.00     0.053 C 
BRANCH   8  12
ATOM     12  C   UNL A   1      30.360  25.093  25.654  1.00  0.00     0.247 C 
ATOM     13  O   UNL A   1      29.692  25.150  26.684  1.00  0.00    -0.272 OA
BRANCH  12  14
ATOM     14  C   UNL A   1      30.348  26.195  24.540  1.00  0.00     0.113 C 
ATOM     15  C   UNL A   1      28.924  26.451  24.020  1.00  0.00     0.045 C 
ATOM     16  C   UNL A   1      31.204  25.632  23.385  1.00  0.00     0.045 C 
BRANCH  14  17
ATOM     17  N   UNL A   1      30.959  27.500  24.900  1.00  0.00    -0.342 N 
ATOM     18  C   UNL A   1      30.574  28.916  22.902  1.00  0.00     0.114 C 
ATOM     19  C   UNL A   1      31.336  28.562  24.143  1.00  0.00     0.217 C 
ATOM     20  O   UNL A   1      32.260  29.269  24.548  1.00  0.00    -0.275 OA
ATOM     21  H   UNL A   1      31.120  27.616  25.865  1.00  0.00     0.164 HD
ENDBRANCH  14  17
ENDBRANCH  12  14
ENDBRANCH   8  12
BRANCH  11  22
ATOM     22  C   UNL A   1      32.308  20.834  24.309  1.00  0.00    -0.039 A 
ATOM     23  C   UNL A   1      32.100  21.364  23.007  1.00  0.00     0.004 A 
ATOM     24  C   UNL A   1      32.529  19.441  24.414  1.00  0.00    -0.048 A 
ATOM     25  C   UNL A   1      32.036  20.558  21.871  1.00  0.00     0.000 A 
ATOM     26  C   UNL A   1      32.415  18.639  23.253  1.00  0.00     0.004 A 
ATOM     27  C   UNL A   1      32.898  18.700  25.672  1.00  0.00     0.044 C 
ATOM     28  C   UNL A   1      32.161  19.186  22.000  1.00  0.00     0.000 A 
ENDBRANCH  11  22
ENDBRANCH   4   7
ENDBRANCH   2   3
ENDBRANCH   1   2
BRANCH   1  29
ATOM     29  C   UNL A   1      37.482  19.591  24.902  1.00  0.00     0.023 C 
BRANCH  29  30
ATOM     30  C   UNL A   1      38.645  20.182  25.678  1.00  0.00     0.116 C 
BRANCH  30  31
ATOM     31  N   UNL A   1      39.807  19.301  25.758  1.00  0.00    -0.352 N 
ATOM     32  C   UNL A   1      41.092  19.627  26.122  1.00  0.00     0.251 C 
ATOM     33  H   UNL A   1      39.651  18.358  25.521  1.00  0.00     0.163 HD
ATOM     34  O   UNL A   1      42.001  18.806  26.049  1.00  0.00    -0.269 OA
BRANCH  32  35
ATOM     35  C   UNL A   1      41.355  21.009  26.569  1.00  0.00     0.039 A 
ATOM     36  C   UNL A   1      42.101  21.225  27.728  1.00  0.00     0.014 A 
ATOM     37  C   UNL A   1      40.971  22.074  25.753  1.00  0.00     0.014 A 
ATOM     38  C   UNL A   1      42.535  22.518  28.025  1.00  0.00     0.010 A 
ATOM     39  C   UNL A   1      41.500  23.331  25.988  1.00  0.00     0.010 A 
ATOM     40  C   UNL A   1      42.276  23.572  27.133  1.00  0.00    -0.014 A 
BRANCH  40  41
ATOM     41  C   UNL A   1      42.786  24.945  27.369  1.00  0.00     0.031 A 
ATOM     42  C   UNL A   1      41.906  25.950  28.065  1.00  0.00     0.074 A 
ATOM     43  C   UNL A   1      43.974  25.320  26.852  1.00  0.00     0.049 A 
ATOM     44  N   UNL A   1      42.108  27.224  28.265  1.00  0.00    -0.248 NA
ATOM     45  C   UNL A   1      40.602  25.467  28.552  1.00  0.00     0.031 C 
ATOM     46  C   UNL A   1      44.864  24.466  26.061  1.00  0.00     0.029 A 
ATOM     47  N   UNL A   1      44.623  26.528  26.889  1.00  0.00    -0.354 N 
ATOM     48  C   UNL A   1      40.937  27.705  28.841  1.00  0.00     0.074 A 
ATOM     49  C   UNL A   1      40.013  26.597  28.913  1.00  0.00     0.031 C 
ATOM     50  C   UNL A   1      45.947  25.173  25.700  1.00  0.00     0.029 A 
ATOM     51  C   UNL A   1      45.820  26.533  26.209  1.00  0.00     0.049 A 
ATOM     52  H   UNL A   1      44.266  27.316  27.357  1.00  0.00     0.167 HD
ATOM     53  C   UNL A   1      40.670  28.945  29.310  1.00  0.00     0.034 A 
ATOM     54  C   UNL A   1      46.713  27.526  26.024  1.00  0.00     0.034 A 
ATOM     55  C   UNL A   1      41.630  30.013  29.317  1.00  0.00     0.049 A 
ATOM     56  C   UNL A   1      46.441  28.867  26.652  1.00  0.00     0.074 A 
ATOM     57  C   UNL A   1      41.516  31.270  29.881  1.00  0.00     0.029 A 
ATOM     58  N   UNL A   1      42.888  29.943  28.738  1.00  0.00    -0.354 N 
ATOM     59  N   UNL A   1      45.400  29.254  27.349  1.00  0.00    -0.248 NA
ATOM     60  C   UNL A   1      47.482  29.894  26.506  1.00  0.00     0.031 C 
ATOM     61  C   UNL A   1      42.706  31.963  29.637  1.00  0.00     0.029 A 
ATOM     62  C   UNL A   1      43.564  31.133  28.931  1.00  0.00     0.049 A 
ATOM     63  H   UNL A   1      43.248  29.160  28.261  1.00  0.00     0.167 HD
ATOM     64  C   UNL A   1      45.671  30.558  27.749  1.00  0.00     0.074 A 
ATOM     65  C   UNL A   1      46.986  30.884  27.238  1.00  0.00     0.031 C 
ATOM     66  C   UNL A   1      44.896  31.414  28.460  1.00  0.00     0.034 A 
BRANCH  53  67
ATOM     67  C   UNL A   1      39.314  29.182  29.922  1.00  0.00     0.023 A 
ATOM     68  C   UNL A   1      39.037  28.683  31.212  1.00  0.00     0.012 A 
ATOM     69  C   UNL A   1      38.326  29.917  29.240  1.00  0.00     0.148 A 
ATOM     70  C   UNL A   1      37.785  28.870  31.794  1.00  0.00     0.002 A 
ATOM     71  C   UNL A   1      37.094  30.140  29.848  1.00  0.00     0.091 A 
ATOM     72  F   UNL A   1      38.596  30.363  28.005  1.00  0.00    -0.205 F 
ATOM     73  C   UNL A   1      36.819  29.606  31.116  1.00  0.00     0.022 A 
BRANCH  71  74
ATOM     74  S   UNL A   1      35.811  31.144  29.091  1.00  0.00     0.127 S 
ATOM     75  O   UNL A   1      36.603  32.142  28.374  1.00  0.00    -0.237 OA
ATOM     76  O   UNL A   1      35.129  30.175  28.232  1.00  0.00    -0.237 OA
ATOM     77  O   UNL A   1      35.003  31.655  30.189  1.00  0.00    -0.744 OA
ENDBRANCH  71  74
ENDBRANCH  53  67
BRANCH  54  78
ATOM     78  C   UNL A   1      47.985  27.256  25.295  1.00  0.00     0.023 A 
ATOM     79  C   UNL A   1      49.042  26.618  25.973  1.00  0.00     0.012 A 
ATOM     80  C   UNL A   1      48.141  27.581  23.933  1.00  0.00     0.148 A 
ATOM     81  C   UNL A   1      50.242  26.334  25.318  1.00  0.00     0.002 A 
ATOM     82  C   UNL A   1      49.319  27.247  23.273  1.00  0.00     0.091 A 
ATOM     83  F   UNL A   1      47.129  28.197  23.307  1.00  0.00    -0.205 F 
ATOM     84  C   UNL A   1      50.376  26.638  23.967  1.00  0.00     0.022 A 
BRANCH  82  85
ATOM     85  S   UNL A   1      49.528  27.478  21.503  1.00  0.00     0.127 S 
ATOM     86  O   UNL A   1      50.742  26.708  21.241  1.00  0.00    -0.237 OA
ATOM     87  O   UNL A   1      48.298  26.889  20.971  1.00  0.00    -0.237 OA
ATOM     88  O   UNL A   1      49.634  28.918  21.307  1.00  0.00    -0.744 OA
ENDBRANCH  82  85
ENDBRANCH  54  78
BRANCH  66  89
ATOM     89  C   UNL A   1      45.454  32.780  28.751  1.00  0.00     0.023 A 
ATOM     90  C   UNL A   1      46.163  33.002  29.947  1.00  0.00     0.012 A 
ATOM     91  C   UNL A   1      45.353  33.814  27.800  1.00  0.00     0.148 A 
ATOM     92  C   UNL A   1      46.742  34.243  30.204  1.00  0.00     0.002 A 
ATOM     93  C   UNL A   1      45.974  35.033  28.043  1.00  0.00     0.091 A 
ATOM     94  F   UNL A   1      44.657  33.587  26.676  1.00  0.00    -0.205 F 
ATOM     95  C   UNL A   1      46.660  35.253  29.249  1.00  0.00     0.022 A 
BRANCH  93  96
ATOM     96  S   UNL A   1      46.001  36.353  26.825  1.00  0.00     0.127 S 
ATOM     97  O   UNL A   1      46.376  35.631  25.611  1.00  0.00    -0.237 OA
ATOM     98  O   UNL A   1      44.616  36.829  26.849  1.00  0.00    -0.237 OA
ATOM     99  O   UNL A   1      46.977  37.321  27.307  1.00  0.00    -0.744 OA
ENDBRANCH  93  96
ENDBRANCH  66  89
ENDBRANCH  40  41
ENDBRANCH  32  35
ENDBRANCH  30  31
ENDBRANCH  29  30
ENDBRANCH   1  29
TORSDOF 18
ENDMDL
MODEL 2
REMARK VINA RESULT:     -12.4      6.060     11.590
REMARK SMILES CC(=O)NC(C)(C)C(=O)N1C[C@@H](C(=O)NCCCCNC(=O)c2ccc(-c3c4nc(c(-c5cccc(S(=O)(=O)[O-])c5F)c5ccc([nH]5)c(-c5cccc(S(=O)(=O)[O-])c5F)c5nc(c(-c6cccc(S(=O)(=O)[O-])c6F)c6ccc3[nH]6)C=C5)C=C4)cc2)[C@H](c2ccccc2C)C1
REMARK SMILES IDX 17 1 16 2 15 3 13 4 14 5 12 7 10 8 11 9 94 10 86 11 8 12
REMARK SMILES IDX 9 13 5 14 6 15 7 16 4 17 1 18 2 19 3 20 87 22 88 23 92 24
REMARK SMILES IDX 89 25 91 26 93 27 90 28 18 29 19 30 20 31 21 32 22 34 23 35
REMARK SMILES IDX 24 36 85 37 25 38 84 39 26 40 27 41 28 42 78 43 29 44 83 45
REMARK SMILES IDX 77 46 79 47 30 48 82 49 76 50 75 51 31 53 63 54 43 55 62 56
REMARK SMILES IDX 44 57 47 58 61 59 80 60 45 61 46 62 60 64 81 65 48 66 32 67
REMARK SMILES IDX 33 68 41 69 34 70 36 71 42 72 35 73 37 74 38 75 39 76 40 77
REMARK SMILES IDX 64 78 65 79 73 80 66 81 68 82 74 83 67 84 69 85 70 86 71 87
REMARK SMILES IDX 72 88 49 89 50 90 58 91 51 92 53 93 59 94 52 95 54 96 55 97
REMARK SMILES IDX 56 98 57 99
REMARK H PARENT 15 6 4 21 20 33 79 52 47 63
REMARK Flexibility Score: inf
ROOT
ATOM      1  C   UNL A   1      31.419  31.395  25.978  1.00  0.00     0.023 C 
ENDROOT
BRANCH   1   2
ATOM      2  C   UNL A   1      32.202  30.090  26.083  1.00  0.00     0.116 C 
BRANCH   2   3
ATOM      3  N   UNL A   1      33.076  29.855  24.952  1.00  0.00    -0.356 N 
ATOM      4  C   UNL A   1      33.128  28.906  23.988  1.00  0.00     0.225 C 
ATOM      5  O   UNL A   1      33.945  29.120  23.082  1.00  0.00    -0.275 OA
ATOM      6  H   UNL A   1      33.784  30.532  24.864  1.00  0.00     0.163 HD
BRANCH   4   7
ATOM      7  C   UNL A   1      32.370  27.581  23.997  1.00  0.00     0.107 C 
ATOM      8  N   UNL A   1      32.593  25.316  23.425  1.00  0.00    -0.339 N 
ATOM      9  C   UNL A   1      33.398  26.472  23.739  1.00  0.00     0.133 C 
ATOM     10  C   UNL A   1      31.466  25.758  22.634  1.00  0.00     0.128 C 
ATOM     11  C   UNL A   1      31.268  27.259  22.970  1.00  0.00     0.053 C 
BRANCH   8  12
ATOM     12  C   UNL A   1      33.210  24.106  23.138  1.00  0.00     0.247 C 
ATOM     13  O   UNL A   1      33.823  23.933  22.087  1.00  0.00    -0.272 OA
BRANCH  12  14
ATOM     14  C   UNL A   1      33.197  23.082  24.323  1.00  0.00     0.113 C 
ATOM     15  C   UNL A   1      34.578  22.434  24.520  1.00  0.00     0.045 C 
ATOM     16  C   UNL A   1      32.188  21.986  23.918  1.00  0.00     0.045 C 
BRANCH  14  17
ATOM     17  N   UNL A   1      32.729  23.601  25.634  1.00  0.00    -0.342 N 
ATOM     18  C   UNL A   1      33.378  21.832  27.246  1.00  0.00     0.114 C 
ATOM     19  C   UNL A   1      32.520  22.987  26.827  1.00  0.00     0.217 C 
ATOM     20  O   UNL A   1      31.668  23.456  27.583  1.00  0.00    -0.275 OA
ATOM     21  H   UNL A   1      32.536  24.566  25.639  1.00  0.00     0.164 HD
ENDBRANCH  14  17
ENDBRANCH  12  14
ENDBRANCH   8  12
BRANCH  11  22
ATOM     22  C   UNL A   1      29.789  27.574  23.233  1.00  0.00    -0.039 A 
ATOM     23  C   UNL A   1      29.079  26.532  23.887  1.00  0.00     0.004 A 
ATOM     24  C   UNL A   1      29.050  28.714  22.838  1.00  0.00    -0.048 A 
ATOM     25  C   UNL A   1      27.698  26.571  24.076  1.00  0.00     0.000 A 
ATOM     26  C   UNL A   1      27.644  28.710  23.000  1.00  0.00     0.004 A 
ATOM     27  C   UNL A   1      29.625  29.977  22.253  1.00  0.00     0.044 C 
ATOM     28  C   UNL A   1      26.974  27.649  23.600  1.00  0.00     0.000 A 
ENDBRANCH  11  22
ENDBRANCH   4   7
ENDBRANCH   2   3
ENDBRANCH   1   2
BRANCH   1  29
ATOM     29  C   UNL A   1      31.528  32.316  27.183  1.00  0.00     0.023 C 
BRANCH  29  30
ATOM     30  C   UNL A   1      32.688  33.294  27.132  1.00  0.00     0.116 C 
BRANCH  30  31
ATOM     31  N   UNL A   1      32.466  34.511  27.907  1.00  0.00    -0.352 N 
ATOM     32  C   UNL A   1      33.158  34.947  29.013  1.00  0.00     0.251 C 
ATOM     33  H   UNL A   1      31.732  35.090  27.600  1.00  0.00     0.163 HD
ATOM     34  O   UNL A   1      32.801  35.945  29.632  1.00  0.00    -0.269 OA
BRANCH  32  35
ATOM     35  C   UNL A   1      34.322  34.157  29.456  1.00  0.00     0.039 A 
ATOM     36  C   UNL A   1      35.600  34.515  29.025  1.00  0.00     0.014 A 
ATOM     37  C   UNL A   1      34.141  33.151  30.408  1.00  0.00     0.014 A 
ATOM     38  C   UNL A   1      36.711  33.912  29.617  1.00  0.00     0.010 A 
ATOM     39  C   UNL A   1      35.244  32.642  31.072  1.00  0.00     0.010 A 
ATOM     40  C   UNL A   1      36.541  33.005  30.676  1.00  0.00    -0.014 A 
BRANCH  40  41
ATOM     41  C   UNL A   1      37.695  32.401  31.386  1.00  0.00     0.031 A 
ATOM     42  C   UNL A   1      38.445  31.265  30.743  1.00  0.00     0.074 A 
ATOM     43  C   UNL A   1      37.985  32.785  32.646  1.00  0.00     0.049 A 
ATOM     44  N   UNL A   1      39.400  30.523  31.236  1.00  0.00    -0.248 NA
ATOM     45  C   UNL A   1      38.028  30.876  29.384  1.00  0.00     0.031 C 
ATOM     46  C   UNL A   1      37.257  33.796  33.416  1.00  0.00     0.029 A 
ATOM     47  N   UNL A   1      38.952  32.344  33.513  1.00  0.00    -0.354 N 
ATOM     48  C   UNL A   1      39.651  29.547  30.278  1.00  0.00     0.074 A 
ATOM     49  C   UNL A   1      38.717  29.761  29.198  1.00  0.00     0.031 C 
ATOM     50  C   UNL A   1      37.812  33.908  34.634  1.00  0.00     0.029 A 
ATOM     51  C   UNL A   1      38.915  32.961  34.743  1.00  0.00     0.049 A 
ATOM     52  H   UNL A   1      39.611  31.651  33.279  1.00  0.00     0.167 HD
ATOM     53  C   UNL A   1      40.605  28.587  30.275  1.00  0.00     0.034 A 
ATOM     54  C   UNL A   1      39.690  32.783  35.832  1.00  0.00     0.034 A 
ATOM     55  C   UNL A   1      41.587  28.443  31.312  1.00  0.00     0.049 A 
ATOM     56  C   UNL A   1      40.814  31.785  35.762  1.00  0.00     0.074 A 
ATOM     57  C   UNL A   1      42.676  27.593  31.355  1.00  0.00     0.029 A 
ATOM     58  N   UNL A   1      41.603  29.179  32.488  1.00  0.00    -0.354 N 
ATOM     59  N   UNL A   1      41.149  30.989  34.775  1.00  0.00    -0.248 NA
ATOM     60  C   UNL A   1      41.693  31.687  36.936  1.00  0.00     0.031 C 
ATOM     61  C   UNL A   1      43.348  27.811  32.562  1.00  0.00     0.029 A 
ATOM     62  C   UNL A   1      42.683  28.805  33.265  1.00  0.00     0.049 A 
ATOM     63  H   UNL A   1      40.942  29.867  32.732  1.00  0.00     0.167 HD
ATOM     64  C   UNL A   1      42.292  30.318  35.194  1.00  0.00     0.074 A 
ATOM     65  C   UNL A   1      42.606  30.820  36.516  1.00  0.00     0.031 C 
ATOM     66  C   UNL A   1      43.007  29.361  34.553  1.00  0.00     0.034 A 
BRANCH  53  67
ATOM     67  C   UNL A   1      40.672  27.675  29.079  1.00  0.00     0.023 A 
ATOM     68  C   UNL A   1      39.810  26.559  29.006  1.00  0.00     0.012 A 
ATOM     69  C   UNL A   1      41.560  27.929  28.017  1.00  0.00     0.148 A 
ATOM     70  C   UNL A   1      39.863  25.687  27.921  1.00  0.00     0.002 A 
ATOM     71  C   UNL A   1      41.574  27.080  26.915  1.00  0.00     0.091 A 
ATOM     72  F   UNL A   1      42.390  28.977  28.112  1.00  0.00    -0.205 F 
ATOM     73  C   UNL A   1      40.738  25.953  26.872  1.00  0.00     0.022 A 
BRANCH  71  74
ATOM     74  S   UNL A   1      42.608  27.380  25.476  1.00  0.00     0.127 S 
ATOM     75  O   UNL A   1      43.927  27.530  26.088  1.00  0.00    -0.237 OA
ATOM     76  O   UNL A   1      42.429  26.149  24.706  1.00  0.00    -0.237 OA
ATOM     77  O   UNL A   1      42.072  28.575  24.841  1.00  0.00    -0.744 OA
ENDBRANCH  71  74
ENDBRANCH  53  67
BRANCH  54  78
ATOM     78  C   UNL A   1      39.487  33.638  37.037  1.00  0.00     0.023 A 
ATOM     79  C   UNL A   1      39.955  34.967  37.023  1.00  0.00     0.012 A 
ATOM     80  C   UNL A   1      38.800  33.165  38.173  1.00  0.00     0.148 A 
ATOM     81  C   UNL A   1      39.767  35.801  38.126  1.00  0.00     0.002 A 
ATOM     82  C   UNL A   1      38.570  34.018  39.247  1.00  0.00     0.091 A 
ATOM     83  F   UNL A   1      38.372  31.895  38.172  1.00  0.00    -0.205 F 
ATOM     84  C   UNL A   1      39.067  35.331  39.233  1.00  0.00     0.022 A 
BRANCH  82  85
ATOM     85  S   UNL A   1      37.561  33.541  40.656  1.00  0.00     0.127 S 
ATOM     86  O   UNL A   1      37.449  34.802  41.385  1.00  0.00    -0.237 OA
ATOM     87  O   UNL A   1      36.328  33.091  40.008  1.00  0.00    -0.237 OA
ATOM     88  O   UNL A   1      38.304  32.481  41.327  1.00  0.00    -0.744 OA
ENDBRANCH  82  85
ENDBRANCH  54  78
BRANCH  66  89
ATOM     89  C   UNL A   1      44.215  28.806  35.257  1.00  0.00     0.023 A 
ATOM     90  C   UNL A   1      45.479  29.385  35.033  1.00  0.00     0.012 A 
ATOM     91  C   UNL A   1      44.082  27.773  36.206  1.00  0.00     0.148 A 
ATOM     92  C   UNL A   1      46.598  28.927  35.724  1.00  0.00     0.002 A 
ATOM     93  C   UNL A   1      45.194  27.354  36.925  1.00  0.00     0.091 A 
ATOM     94  F   UNL A   1      42.873  27.223  36.390  1.00  0.00    -0.205 F 
ATOM     95  C   UNL A   1      46.455  27.922  36.678  1.00  0.00     0.022 A 
BRANCH  93  96
ATOM     96  S   UNL A   1      45.081  26.137  38.241  1.00  0.00     0.127 S 
ATOM     97  O   UNL A   1      44.567  24.971  37.525  1.00  0.00    -0.237 OA
ATOM     98  O   UNL A   1      46.473  26.019  38.678  1.00  0.00    -0.237 OA
ATOM     99  O   UNL A   1      44.184  26.708  39.237  1.00  0.00    -0.744 OA
ENDBRANCH  93  96
ENDBRANCH  66  89
ENDBRANCH  40  41
ENDBRANCH  32  35
ENDBRANCH  30  31
ENDBRANCH  29  30
ENDBRANCH   1  29
TORSDOF 18
ENDMDL
MODEL 3
REMARK VINA RESULT:     -12.0      6.012      9.691
REMARK SMILES CC(=O)NC(C)(C)C(=O)N1C[C@@H](C(=O)NCCCCNC(=O)c2ccc(-c3c4nc(c(-c5cccc(S(=O)(=O)[O-])c5F)c5ccc([nH]5)c(-c5cccc(S(=O)(=O)[O-])c5F)c5nc(c(-c6cccc(S(=O)(=O)[O-])c6F)c6ccc3[nH]6)C=C5)C=C4)cc2)[C@H](c2ccccc2C)C1
REMARK SMILES IDX 17 1 16 2 15 3 13 4 14 5 12 7 10 8 11 9 94 10 86 11 8 12
REMARK SMILES IDX 9 13 5 14 6 15 7 16 4 17 1 18 2 19 3 20 87 22 88 23 92 24
REMARK SMILES IDX 89 25 91 26 93 27 90 28 18 29 19 30 20 31 21 32 22 34 23 35
REMARK SMILES IDX 24 36 85 37 25 38 84 39 26 40 27 41 28 42 78 43 29 44 83 45
REMARK SMILES IDX 77 46 79 47 30 48 82 49 76 50 75 51 31 53 63 54 43 55 62 56
REMARK SMILES IDX 44 57 47 58 61 59 80 60 45 61 46 62 60 64 81 65 48 66 32 67
REMARK SMILES IDX 33 68 41 69 34 70 36 71 42 72 35 73 37 74 38 75 39 76 40 77
REMARK SMILES IDX 64 78 65 79 73 80 66 81 68 82 74 83 67 84 69 85 70 86 71 87
REMARK SMILES IDX 72 88 49 89 50 90 58 91 51 92 53 93 59 94 52 95 54 96 55 97
REMARK SMILES IDX 56 98 57 99
REMARK H PARENT 15 6 4 21 20 33 79 52 47 63
REMARK Flexibility Score: inf
ROOT
ATOM      1  C   UNL A   1      31.616  31.217  26.515  1.00  0.00     0.023 C 
ENDROOT
BRANCH   1   2
ATOM      2  C   UNL A   1      31.488  30.213  25.373  1.00  0.00     0.116 C 
BRANCH   2   3
ATOM      3  N   UNL A   1      32.762  29.692  24.924  1.00  0.00    -0.356 N 
ATOM      4  C   UNL A   1      33.137  28.576  24.256  1.00  0.00     0.225 C 
ATOM      5  O   UNL A   1      34.327  28.542  23.914  1.00  0.00    -0.275 OA
ATOM      6  H   UNL A   1      33.520  30.275  25.154  1.00  0.00     0.163 HD
BRANCH   4   7
ATOM      7  C   UNL A   1      32.265  27.348  24.008  1.00  0.00     0.107 C 
ATOM      8  N   UNL A   1      32.320  25.193  23.080  1.00  0.00    -0.339 N 
ATOM      9  C   UNL A   1      33.204  26.199  23.620  1.00  0.00     0.133 C 
ATOM     10  C   UNL A   1      31.290  25.866  22.320  1.00  0.00     0.128 C 
ATOM     11  C   UNL A   1      31.206  27.305  22.890  1.00  0.00     0.053 C 
BRANCH   8  12
ATOM     12  C   UNL A   1      32.844  23.990  22.626  1.00  0.00     0.247 C 
ATOM     13  O   UNL A   1      33.629  23.948  21.682  1.00  0.00    -0.272 OA
BRANCH  12  14
ATOM     14  C   UNL A   1      32.483  22.756  23.521  1.00  0.00     0.113 C 
ATOM     15  C   UNL A   1      33.698  22.280  24.335  1.00  0.00     0.045 C 
ATOM     16  C   UNL A   1      32.072  21.635  22.543  1.00  0.00     0.045 C 
BRANCH  14  17
ATOM     17  N   UNL A   1      31.335  22.929  24.447  1.00  0.00    -0.342 N 
ATOM     18  C   UNL A   1      32.336  23.986  26.454  1.00  0.00     0.114 C 
ATOM     19  C   UNL A   1      31.278  23.163  25.783  1.00  0.00     0.217 C 
ATOM     20  O   UNL A   1      30.297  22.754  26.406  1.00  0.00    -0.275 OA
ATOM     21  H   UNL A   1      30.454  22.862  24.013  1.00  0.00     0.164 HD
ENDBRANCH  14  17
ENDBRANCH  12  14
ENDBRANCH   8  12
BRANCH  11  22
ATOM     22  C   UNL A   1      29.748  27.719  23.129  1.00  0.00    -0.039 A 
ATOM     23  C   UNL A   1      28.967  26.739  23.799  1.00  0.00     0.004 A 
ATOM     24  C   UNL A   1      29.086  28.893  22.700  1.00  0.00    -0.048 A 
ATOM     25  C   UNL A   1      27.589  26.868  23.973  1.00  0.00     0.000 A 
ATOM     26  C   UNL A   1      27.681  28.981  22.847  1.00  0.00     0.004 A 
ATOM     27  C   UNL A   1      29.744  30.103  22.093  1.00  0.00     0.044 C 
ATOM     28  C   UNL A   1      26.939  27.979  23.464  1.00  0.00     0.000 A 
ENDBRANCH  11  22
ENDBRANCH   4   7
ENDBRANCH   2   3
ENDBRANCH   1   2
BRANCH   1  29
ATOM     29  C   UNL A   1      32.878  31.087  27.354  1.00  0.00     0.023 C 
BRANCH  29  30
ATOM     30  C   UNL A   1      33.781  32.307  27.335  1.00  0.00     0.116 C 
BRANCH  30  31
ATOM     31  N   UNL A   1      33.135  33.524  27.817  1.00  0.00    -0.352 N 
ATOM     32  C   UNL A   1      33.423  34.241  28.956  1.00  0.00     0.251 C 
ATOM     33  H   UNL A   1      32.403  33.875  27.260  1.00  0.00     0.163 HD
ATOM     34  O   UNL A   1      32.732  35.195  29.297  1.00  0.00    -0.269 OA
BRANCH  32  35
ATOM     35  C   UNL A   1      34.568  33.803  29.777  1.00  0.00     0.039 A 
ATOM     36  C   UNL A   1      34.359  32.906  30.825  1.00  0.00     0.014 A 
ATOM     37  C   UNL A   1      35.859  34.186  29.406  1.00  0.00     0.014 A 
ATOM     38  C   UNL A   1      35.462  32.326  31.453  1.00  0.00     0.010 A 
ATOM     39  C   UNL A   1      36.944  33.522  29.951  1.00  0.00     0.010 A 
ATOM     40  C   UNL A   1      36.761  32.595  30.990  1.00  0.00    -0.014 A 
BRANCH  40  41
ATOM     41  C   UNL A   1      37.956  31.939  31.575  1.00  0.00     0.031 A 
ATOM     42  C   UNL A   1      38.552  32.489  32.843  1.00  0.00     0.074 A 
ATOM     43  C   UNL A   1      38.571  30.942  30.907  1.00  0.00     0.049 A 
ATOM     44  N   UNL A   1      39.654  32.144  33.454  1.00  0.00    -0.248 NA
ATOM     45  C   UNL A   1      37.843  33.614  33.479  1.00  0.00     0.031 C 
ATOM     46  C   UNL A   1      38.151  30.401  29.612  1.00  0.00     0.029 A 
ATOM     47  N   UNL A   1      39.701  30.227  31.213  1.00  0.00    -0.354 N 
ATOM     48  C   UNL A   1      39.800  33.045  34.503  1.00  0.00     0.074 A 
ATOM     49  C   UNL A   1      38.704  33.981  34.416  1.00  0.00     0.031 C 
ATOM     50  C   UNL A   1      39.003  29.431  29.242  1.00  0.00     0.029 A 
ATOM     51  C   UNL A   1      40.043  29.298  30.256  1.00  0.00     0.049 A 
ATOM     52  H   UNL A   1      40.219  30.366  32.038  1.00  0.00     0.167 HD
ATOM     53  C   UNL A   1      40.738  33.066  35.479  1.00  0.00     0.034 A 
ATOM     54  C   UNL A   1      41.077  28.435  30.210  1.00  0.00     0.034 A 
ATOM     55  C   UNL A   1      41.769  32.075  35.607  1.00  0.00     0.049 A 
ATOM     56  C   UNL A   1      42.043  28.404  31.363  1.00  0.00     0.074 A 
ATOM     57  C   UNL A   1      42.692  31.920  36.624  1.00  0.00     0.029 A 
ATOM     58  N   UNL A   1      42.005  31.062  34.690  1.00  0.00    -0.354 N 
ATOM     59  N   UNL A   1      42.064  29.151  32.441  1.00  0.00    -0.248 NA
ATOM     60  C   UNL A   1      43.102  27.386  31.319  1.00  0.00     0.031 C 
ATOM     61  C   UNL A   1      43.493  30.814  36.317  1.00  0.00     0.029 A 
ATOM     62  C   UNL A   1      43.059  30.275  35.115  1.00  0.00     0.049 A 
ATOM     63  H   UNL A   1      41.496  30.923  33.858  1.00  0.00     0.167 HD
ATOM     64  C   UNL A   1      43.117  28.677  33.215  1.00  0.00     0.074 A 
ATOM     65  C   UNL A   1      43.693  27.561  32.494  1.00  0.00     0.031 C 
ATOM     66  C   UNL A   1      43.578  29.134  34.406  1.00  0.00     0.034 A 
BRANCH  53  67
ATOM     67  C   UNL A   1      40.637  34.149  36.520  1.00  0.00     0.023 A 
ATOM     68  C   UNL A   1      41.153  35.433  36.240  1.00  0.00     0.012 A 
ATOM     69  C   UNL A   1      40.013  33.913  37.759  1.00  0.00     0.148 A 
ATOM     70  C   UNL A   1      41.091  36.449  37.191  1.00  0.00     0.002 A 
ATOM     71  C   UNL A   1      39.913  34.946  38.686  1.00  0.00     0.091 A 
ATOM     72  F   UNL A   1      39.550  32.683  38.020  1.00  0.00    -0.205 F 
ATOM     73  C   UNL A   1      40.463  36.208  38.408  1.00  0.00     0.022 A 
BRANCH  71  74
ATOM     74  S   UNL A   1      39.052  34.761  40.252  1.00  0.00     0.127 S 
ATOM     75  O   UNL A   1      40.131  34.312  41.129  1.00  0.00    -0.237 OA
ATOM     76  O   UNL A   1      38.584  36.124  40.509  1.00  0.00    -0.237 OA
ATOM     77  O   UNL A   1      37.993  33.791  40.013  1.00  0.00    -0.744 OA
ENDBRANCH  71  74
ENDBRANCH  53  67
BRANCH  54  78
ATOM     78  C   UNL A   1      41.190  27.469  29.079  1.00  0.00     0.023 A 
ATOM     79  C   UNL A   1      40.428  26.284  29.110  1.00  0.00     0.012 A 
ATOM     80  C   UNL A   1      42.004  27.731  27.960  1.00  0.00     0.148 A 
ATOM     81  C   UNL A   1      40.494  25.365  28.062  1.00  0.00     0.002 A 
ATOM     82  C   UNL A   1      42.024  26.836  26.895  1.00  0.00     0.091 A 
ATOM     83  F   UNL A   1      42.729  28.857  27.952  1.00  0.00    -0.205 F 
ATOM     84  C   UNL A   1      41.283  25.645  26.950  1.00  0.00     0.022 A 
BRANCH  82  85
ATOM     85  S   UNL A   1      42.905  27.180  25.366  1.00  0.00     0.127 S 
ATOM     86  O   UNL A   1      44.270  27.383  25.846  1.00  0.00    -0.237 OA
ATOM     87  O   UNL A   1      42.694  25.945  24.609  1.00  0.00    -0.237 OA
ATOM     88  O   UNL A   1      42.251  28.349  24.793  1.00  0.00    -0.744 OA
ENDBRANCH  82  85
ENDBRANCH  54  78
BRANCH  66  89
ATOM     89  C   UNL A   1      44.748  28.417  35.021  1.00  0.00     0.023 A 
ATOM     90  C   UNL A   1      46.057  28.853  34.741  1.00  0.00     0.012 A 
ATOM     91  C   UNL A   1      44.546  27.372  35.944  1.00  0.00     0.148 A 
ATOM     92  C   UNL A   1      47.151  28.242  35.351  1.00  0.00     0.002 A 
ATOM     93  C   UNL A   1      45.638  26.801  36.584  1.00  0.00     0.091 A 
ATOM     94  F   UNL A   1      43.292  26.960  36.181  1.00  0.00    -0.205 F 
ATOM     95  C   UNL A   1      46.942  27.227  36.281  1.00  0.00     0.022 A 
BRANCH  93  96
ATOM     96  S   UNL A   1      45.453  25.557  37.866  1.00  0.00     0.127 S 
ATOM     97  O   UNL A   1      44.634  26.261  38.850  1.00  0.00    -0.237 OA
ATOM     98  O   UNL A   1      44.762  24.477  37.158  1.00  0.00    -0.237 OA
ATOM     99  O   UNL A   1      46.804  25.224  38.298  1.00  0.00    -0.744 OA
ENDBRANCH  93  96
ENDBRANCH  66  89
ENDBRANCH  40  41
ENDBRANCH  32  35
ENDBRANCH  30  31
ENDBRANCH  29  30
ENDBRANCH   1  29
TORSDOF 18
ENDMDL
