MODEL 1
REMARK VINA RESULT:     -12.7      0.000      0.000
REMARK SMILES Cc1c(NC(=O)c2ccc(Br)cc2N)cccc1C(=O)NCCCCNC(=O)c1ccc(-c2c3nc(c(-c4cccc(S(=O)(=O)[O-])c4F)c4ccc([nH]4)c(-c4cccc(S(=O)(=O)[O-])c4F)c4nc(c(-c5cccc(S(=O)(=O)[O-])c5F)c5ccc2[nH]5)C=C4)C=C3)cc1
REMARK SMILES IDX 23 1 22 2 21 3 19 4 20 5 18 7 1 8 2 9 3 10 15 11 17 12 16 13
REMARK SMILES IDX 4 14 5 15 6 17 7 18 8 19 13 20 9 21 12 22 10 23 11 24 14 25
REMARK SMILES IDX 24 28 25 29 26 30 27 31 28 33 29 34 30 35 91 36 31 37 90 38
REMARK SMILES IDX 32 39 33 40 34 41 84 42 35 43 89 44 83 45 85 46 36 47 88 48
REMARK SMILES IDX 82 49 81 50 37 52 69 53 49 54 68 55 50 56 53 57 67 58 86 59
REMARK SMILES IDX 51 60 52 61 66 63 87 64 54 65 38 66 39 67 47 68 40 69 42 70
REMARK SMILES IDX 48 71 41 72 43 73 44 74 45 75 46 76 70 77 71 78 79 79 72 80
REMARK SMILES IDX 74 81 80 82 73 83 75 84 76 85 77 86 78 87 55 88 56 89 64 90
REMARK SMILES IDX 57 91 59 92 65 93 58 94 60 95 61 96 62 97 63 98
REMARK H PARENT 21 6 4 16 14 26 14 27 26 32 85 51 53 62
REMARK Flexibility Score: inf
ROOT
ATOM      1  C   UNL A   1      36.225  21.073  24.703  1.00  0.00     0.023 C 
ENDROOT
BRANCH   1   2
ATOM      2  C   UNL A   1      35.021  20.218  25.130  1.00  0.00     0.116 C 
BRANCH   2   3
ATOM      3  N   UNL A   1      33.911  20.436  24.228  1.00  0.00    -0.352 N 
ATOM      4  C   UNL A   1      33.068  21.466  23.916  1.00  0.00     0.251 C 
ATOM      5  O   UNL A   1      32.115  21.122  23.205  1.00  0.00    -0.269 OA
ATOM      6  H   UNL A   1      33.709  19.631  23.700  1.00  0.00     0.163 HD
BRANCH   4   7
ATOM      7  C   UNL A   1      33.176  22.936  24.266  1.00  0.00     0.044 A 
ATOM      8  C   UNL A   1      31.565  23.187  26.262  1.00  0.00     0.047 C 
ATOM      9  C   UNL A   1      32.609  23.702  25.312  1.00  0.00    -0.015 A 
ATOM     10  C   UNL A   1      32.858  25.106  25.371  1.00  0.00     0.045 A 
ATOM     11  C   UNL A   1      33.563  25.767  24.368  1.00  0.00     0.026 A 
ATOM     12  C   UNL A   1      33.905  23.653  23.278  1.00  0.00     0.014 A 
ATOM     13  C   UNL A   1      34.077  25.038  23.310  1.00  0.00     0.003 A 
BRANCH  10  14
ATOM     14  N   UNL A   1      32.348  25.819  26.470  1.00  0.00    -0.322 N 
ATOM     15  C   UNL A   1      31.591  26.963  26.542  1.00  0.00     0.257 C 
ATOM     16  H   UNL A   1      32.573  25.428  27.344  1.00  0.00     0.170 HD
ATOM     17  O   UNL A   1      31.378  27.457  27.651  1.00  0.00    -0.269 OA
BRANCH  15  18
ATOM     18  C   UNL A   1      30.971  27.601  25.352  1.00  0.00     0.063 A 
ATOM     19  C   UNL A   1      31.366  28.934  25.131  1.00  0.00     0.017 A 
ATOM     20  C   UNL A   1      30.009  27.005  24.507  1.00  0.00     0.045 A 
ATOM     21  C   UNL A   1      30.859  29.661  24.058  1.00  0.00     0.016 A 
ATOM     22  C   UNL A   1      29.533  27.746  23.414  1.00  0.00     0.042 A 
ATOM     23  C   UNL A   1      29.959  29.055  23.191  1.00  0.00     0.020 A 
ATOM     24  Br  UNL A   1      29.268  30.028  21.725  1.00  0.00    -0.051 Br
BRANCH  20  25
ATOM     25  N   UNL A   1      29.366  25.800  24.777  1.00  0.00    -0.398 N 
ATOM     26  H   UNL A   1      28.949  25.650  25.656  1.00  0.00     0.156 HD
ATOM     27  H   UNL A   1      29.327  25.098  24.088  1.00  0.00     0.156 HD
ENDBRANCH  20  25
ENDBRANCH  15  18
ENDBRANCH  10  14
ENDBRANCH   4   7
ENDBRANCH   2   3
ENDBRANCH   1   2
BRANCH   1  28
ATOM     28  C   UNL A   1      36.804  22.055  25.726  1.00  0.00     0.023 C 
BRANCH  28  29
ATOM     29  C   UNL A   1      38.258  22.447  25.534  1.00  0.00     0.116 C 
BRANCH  29  30
ATOM     30  N   UNL A   1      39.063  22.133  26.711  1.00  0.00    -0.352 N 
ATOM     31  C   UNL A   1      40.047  22.882  27.325  1.00  0.00     0.251 C 
ATOM     32  H   UNL A   1      38.877  21.261  27.127  1.00  0.00     0.163 HD
ATOM     33  O   UNL A   1      40.956  22.294  27.896  1.00  0.00    -0.269 OA
BRANCH  31  34
ATOM     34  C   UNL A   1      39.928  24.353  27.361  1.00  0.00     0.039 A 
ATOM     35  C   UNL A   1      40.516  25.180  26.395  1.00  0.00     0.014 A 
ATOM     36  C   UNL A   1      39.383  24.918  28.505  1.00  0.00     0.014 A 
ATOM     37  C   UNL A   1      40.686  26.535  26.679  1.00  0.00     0.010 A 
ATOM     38  C   UNL A   1      39.266  26.259  28.634  1.00  0.00     0.010 A 
ATOM     39  C   UNL A   1      40.124  27.023  27.851  1.00  0.00    -0.014 A 
BRANCH  39  40
ATOM     40  C   UNL A   1      40.492  28.234  28.559  1.00  0.00     0.031 A 
ATOM     41  C   UNL A   1      39.607  29.396  28.478  1.00  0.00     0.074 A 
ATOM     42  C   UNL A   1      41.265  27.968  29.642  1.00  0.00     0.049 A 
ATOM     43  N   UNL A   1      39.814  30.506  29.087  1.00  0.00    -0.248 NA
ATOM     44  C   UNL A   1      38.388  29.381  27.678  1.00  0.00     0.031 C 
ATOM     45  C   UNL A   1      41.201  28.570  30.964  1.00  0.00     0.029 A 
ATOM     46  N   UNL A   1      42.256  26.984  29.787  1.00  0.00    -0.354 N 
ATOM     47  C   UNL A   1      38.610  31.181  29.077  1.00  0.00     0.074 A 
ATOM     48  C   UNL A   1      37.849  30.552  28.027  1.00  0.00     0.031 C 
ATOM     49  C   UNL A   1      42.267  28.160  31.675  1.00  0.00     0.029 A 
ATOM     50  C   UNL A   1      43.149  27.459  30.752  1.00  0.00     0.049 A 
ATOM     51  H   UNL A   1      42.311  26.128  29.304  1.00  0.00     0.167 HD
ATOM     52  C   UNL A   1      38.337  32.033  30.107  1.00  0.00     0.034 A 
ATOM     53  C   UNL A   1      44.415  27.858  30.417  1.00  0.00     0.034 A 
ATOM     54  C   UNL A   1      39.517  32.145  30.997  1.00  0.00     0.049 A 
ATOM     55  C   UNL A   1      44.591  29.365  30.570  1.00  0.00     0.074 A 
ATOM     56  C   UNL A   1      39.808  31.634  32.251  1.00  0.00     0.029 A 
ATOM     57  N   UNL A   1      40.730  32.594  30.476  1.00  0.00    -0.354 N 
ATOM     58  N   UNL A   1      43.631  30.184  30.906  1.00  0.00    -0.248 NA
ATOM     59  C   UNL A   1      45.851  30.074  30.360  1.00  0.00     0.031 C 
ATOM     60  C   UNL A   1      41.225  31.661  32.419  1.00  0.00     0.029 A 
ATOM     61  C   UNL A   1      41.796  32.226  31.290  1.00  0.00     0.049 A 
ATOM     62  H   UNL A   1      40.821  33.107  29.641  1.00  0.00     0.167 HD
ATOM     63  C   UNL A   1      44.047  31.480  30.810  1.00  0.00     0.074 A 
ATOM     64  C   UNL A   1      45.474  31.352  30.555  1.00  0.00     0.031 C 
ATOM     65  C   UNL A   1      43.172  32.534  30.886  1.00  0.00     0.034 A 
BRANCH  52  66
ATOM     66  C   UNL A   1      36.957  32.561  30.507  1.00  0.00     0.023 A 
ATOM     67  C   UNL A   1      36.484  32.195  31.790  1.00  0.00     0.012 A 
ATOM     68  C   UNL A   1      36.052  33.328  29.729  1.00  0.00     0.148 A 
ATOM     69  C   UNL A   1      35.196  32.513  32.245  1.00  0.00     0.002 A 
ATOM     70  C   UNL A   1      34.768  33.655  30.182  1.00  0.00     0.091 A 
ATOM     71  F   UNL A   1      36.399  33.766  28.524  1.00  0.00    -0.205 F 
ATOM     72  C   UNL A   1      34.333  33.237  31.439  1.00  0.00     0.022 A 
BRANCH  70  73
ATOM     73  S   UNL A   1      33.594  34.604  29.189  1.00  0.00     0.127 S 
ATOM     74  O   UNL A   1      33.198  33.631  28.170  1.00  0.00    -0.237 OA
ATOM     75  O   UNL A   1      32.550  34.924  30.162  1.00  0.00    -0.237 OA
ATOM     76  O   UNL A   1      34.320  35.758  28.670  1.00  0.00    -0.744 OA
ENDBRANCH  70  73
ENDBRANCH  52  66
BRANCH  53  77
ATOM     77  C   UNL A   1      45.030  26.992  29.357  1.00  0.00     0.023 A 
ATOM     78  C   UNL A   1      45.232  25.633  29.701  1.00  0.00     0.012 A 
ATOM     79  C   UNL A   1      44.933  27.336  27.995  1.00  0.00     0.148 A 
ATOM     80  C   UNL A   1      45.165  24.629  28.732  1.00  0.00     0.002 A 
ATOM     81  C   UNL A   1      44.838  26.326  27.036  1.00  0.00     0.091 A 
ATOM     82  F   UNL A   1      44.817  28.630  27.672  1.00  0.00    -0.205 F 
ATOM     83  C   UNL A   1      44.914  24.973  27.408  1.00  0.00     0.022 A 
BRANCH  81  84
ATOM     84  S   UNL A   1      44.432  26.682  25.319  1.00  0.00     0.127 S 
ATOM     85  O   UNL A   1      45.756  26.783  24.717  1.00  0.00    -0.237 OA
ATOM     86  O   UNL A   1      43.666  25.504  24.922  1.00  0.00    -0.237 OA
ATOM     87  O   UNL A   1      43.650  27.912  25.361  1.00  0.00    -0.744 OA
ENDBRANCH  81  84
ENDBRANCH  53  77
BRANCH  65  88
ATOM     88  C   UNL A   1      43.523  33.974  30.559  1.00  0.00     0.023 A 
ATOM     89  C   UNL A   1      43.953  34.889  31.538  1.00  0.00     0.012 A 
ATOM     90  C   UNL A   1      43.583  34.411  29.210  1.00  0.00     0.148 A 
ATOM     91  C   UNL A   1      44.353  36.189  31.210  1.00  0.00     0.002 A 
ATOM     92  C   UNL A   1      44.109  35.655  28.880  1.00  0.00     0.091 A 
ATOM     93  F   UNL A   1      43.107  33.629  28.229  1.00  0.00    -0.205 F 
ATOM     94  C   UNL A   1      44.459  36.564  29.878  1.00  0.00     0.022 A 
BRANCH  92  95
ATOM     95  S   UNL A   1      44.524  36.054  27.175  1.00  0.00     0.127 S 
ATOM     96  O   UNL A   1      45.249  34.859  26.751  1.00  0.00    -0.237 OA
ATOM     97  O   UNL A   1      43.205  36.217  26.561  1.00  0.00    -0.237 OA
ATOM     98  O   UNL A   1      45.298  37.286  27.254  1.00  0.00    -0.744 OA
ENDBRANCH  92  95
ENDBRANCH  65  88
ENDBRANCH  39  40
ENDBRANCH  31  34
ENDBRANCH  29  30
ENDBRANCH  28  29
ENDBRANCH   1  28
TORSDOF 17
ENDMDL
MODEL 2
REMARK VINA RESULT:     -12.6      4.263      9.686
REMARK SMILES Cc1c(NC(=O)c2ccc(Br)cc2N)cccc1C(=O)NCCCCNC(=O)c1ccc(-c2c3nc(c(-c4cccc(S(=O)(=O)[O-])c4F)c4ccc([nH]4)c(-c4cccc(S(=O)(=O)[O-])c4F)c4nc(c(-c5cccc(S(=O)(=O)[O-])c5F)c5ccc2[nH]5)C=C4)C=C3)cc1
REMARK SMILES IDX 23 1 22 2 21 3 19 4 20 5 18 7 1 8 2 9 3 10 15 11 17 12 16 13
REMARK SMILES IDX 4 14 5 15 6 17 7 18 8 19 13 20 9 21 12 22 10 23 11 24 14 25
REMARK SMILES IDX 24 28 25 29 26 30 27 31 28 33 29 34 30 35 91 36 31 37 90 38
REMARK SMILES IDX 32 39 33 40 34 41 84 42 35 43 89 44 83 45 85 46 36 47 88 48
REMARK SMILES IDX 82 49 81 50 37 52 69 53 49 54 68 55 50 56 53 57 67 58 86 59
REMARK SMILES IDX 51 60 52 61 66 63 87 64 54 65 38 66 39 67 47 68 40 69 42 70
REMARK SMILES IDX 48 71 41 72 43 73 44 74 45 75 46 76 70 77 71 78 79 79 72 80
REMARK SMILES IDX 74 81 80 82 73 83 75 84 76 85 77 86 78 87 55 88 56 89 64 90
REMARK SMILES IDX 57 91 59 92 65 93 58 94 60 95 61 96 62 97 63 98
REMARK H PARENT 21 6 4 16 14 26 14 27 26 32 85 51 53 62
REMARK Flexibility Score: inf
ROOT
ATOM      1  C   UNL A   1      32.087  30.795  26.463  1.00  0.00     0.023 C 
ENDROOT
BRANCH   1   2
ATOM      2  C   UNL A   1      31.407  30.028  25.318  1.00  0.00     0.116 C 
BRANCH   2   3
ATOM      3  N   UNL A   1      32.398  29.557  24.375  1.00  0.00    -0.352 N 
ATOM      4  C   UNL A   1      32.973  28.362  24.047  1.00  0.00     0.251 C 
ATOM      5  O   UNL A   1      33.946  28.477  23.290  1.00  0.00    -0.269 OA
ATOM      6  H   UNL A   1      32.751  30.292  23.824  1.00  0.00     0.163 HD
BRANCH   4   7
ATOM      7  C   UNL A   1      32.554  26.957  24.428  1.00  0.00     0.044 A 
ATOM      8  C   UNL A   1      31.923  25.896  22.166  1.00  0.00     0.047 C 
ATOM      9  C   UNL A   1      32.169  25.842  23.647  1.00  0.00    -0.015 A 
ATOM     10  C   UNL A   1      31.778  24.630  24.293  1.00  0.00     0.045 A 
ATOM     11  C   UNL A   1      31.666  24.544  25.679  1.00  0.00     0.026 A 
ATOM     12  C   UNL A   1      32.441  26.813  25.838  1.00  0.00     0.014 A 
ATOM     13  C   UNL A   1      31.986  25.645  26.453  1.00  0.00     0.003 A 
BRANCH  10  14
ATOM     14  N   UNL A   1      31.484  23.519  23.485  1.00  0.00    -0.322 N 
ATOM     15  C   UNL A   1      32.242  22.436  23.113  1.00  0.00     0.257 C 
ATOM     16  H   UNL A   1      30.570  23.517  23.119  1.00  0.00     0.170 HD
ATOM     17  O   UNL A   1      31.780  21.652  22.282  1.00  0.00    -0.269 OA
BRANCH  15  18
ATOM     18  C   UNL A   1      33.571  22.135  23.708  1.00  0.00     0.063 A 
ATOM     19  C   UNL A   1      34.622  22.937  23.224  1.00  0.00     0.017 A 
ATOM     20  C   UNL A   1      33.843  21.103  24.633  1.00  0.00     0.045 A 
ATOM     21  C   UNL A   1      35.925  22.761  23.685  1.00  0.00     0.016 A 
ATOM     22  C   UNL A   1      35.157  20.963  25.106  1.00  0.00     0.042 A 
ATOM     23  C   UNL A   1      36.182  21.787  24.641  1.00  0.00     0.020 A 
ATOM     24  Br  UNL A   1      37.943  21.543  25.281  1.00  0.00    -0.051 Br
BRANCH  20  25
ATOM     25  N   UNL A   1      32.940  20.102  24.981  1.00  0.00    -0.398 N 
ATOM     26  H   UNL A   1      32.865  19.293  24.426  1.00  0.00     0.156 HD
ATOM     27  H   UNL A   1      32.377  20.204  25.782  1.00  0.00     0.156 HD
ENDBRANCH  20  25
ENDBRANCH  15  18
ENDBRANCH  10  14
ENDBRANCH   4   7
ENDBRANCH   2   3
ENDBRANCH   1   2
BRANCH   1  28
ATOM     28  C   UNL A   1      33.173  30.070  27.264  1.00  0.00     0.023 C 
BRANCH  28  29
ATOM     29  C   UNL A   1      34.388  30.895  27.648  1.00  0.00     0.116 C 
BRANCH  29  30
ATOM     30  N   UNL A   1      34.032  32.279  27.945  1.00  0.00    -0.352 N 
ATOM     31  C   UNL A   1      34.382  33.062  29.027  1.00  0.00     0.251 C 
ATOM     32  H   UNL A   1      33.459  32.718  27.275  1.00  0.00     0.163 HD
ATOM     33  O   UNL A   1      33.600  33.930  29.394  1.00  0.00    -0.269 OA
BRANCH  31  34
ATOM     34  C   UNL A   1      35.714  32.902  29.643  1.00  0.00     0.039 A 
ATOM     35  C   UNL A   1      36.894  33.287  28.994  1.00  0.00     0.014 A 
ATOM     36  C   UNL A   1      35.786  32.162  30.814  1.00  0.00     0.014 A 
ATOM     37  C   UNL A   1      38.111  32.780  29.450  1.00  0.00     0.010 A 
ATOM     38  C   UNL A   1      36.971  31.941  31.427  1.00  0.00     0.010 A 
ATOM     39  C   UNL A   1      38.101  32.036  30.622  1.00  0.00    -0.014 A 
BRANCH  39  40
ATOM     40  C   UNL A   1      39.106  31.089  31.066  1.00  0.00     0.031 A 
ATOM     41  C   UNL A   1      39.206  29.797  30.387  1.00  0.00     0.074 A 
ATOM     42  C   UNL A   1      40.172  31.714  31.627  1.00  0.00     0.049 A 
ATOM     43  N   UNL A   1      40.075  28.897  30.671  1.00  0.00    -0.248 NA
ATOM     44  C   UNL A   1      38.302  29.423  29.307  1.00  0.00     0.031 C 
ATOM     45  C   UNL A   1      41.583  31.404  31.468  1.00  0.00     0.029 A 
ATOM     46  N   UNL A   1      40.186  32.867  32.427  1.00  0.00    -0.354 N 
ATOM     47  C   UNL A   1      40.097  28.031  29.597  1.00  0.00     0.074 A 
ATOM     48  C   UNL A   1      38.856  28.275  28.907  1.00  0.00     0.031 C 
ATOM     49  C   UNL A   1      42.287  32.141  32.347  1.00  0.00     0.029 A 
ATOM     50  C   UNL A   1      41.323  32.776  33.235  1.00  0.00     0.049 A 
ATOM     51  H   UNL A   1      39.526  33.597  32.420  1.00  0.00     0.167 HD
ATOM     52  C   UNL A   1      41.263  27.382  29.313  1.00  0.00     0.034 A 
ATOM     53  C   UNL A   1      41.224  32.549  34.581  1.00  0.00     0.034 A 
ATOM     54  C   UNL A   1      42.272  27.675  30.357  1.00  0.00     0.049 A 
ATOM     55  C   UNL A   1      41.742  31.166  34.961  1.00  0.00     0.074 A 
ATOM     56  C   UNL A   1      43.396  28.484  30.386  1.00  0.00     0.029 A 
ATOM     57  N   UNL A   1      42.001  27.350  31.686  1.00  0.00    -0.354 N 
ATOM     58  N   UNL A   1      42.158  30.279  34.097  1.00  0.00    -0.248 NA
ATOM     59  C   UNL A   1      41.836  30.667  36.330  1.00  0.00     0.031 C 
ATOM     60  C   UNL A   1      43.714  28.748  31.752  1.00  0.00     0.029 A 
ATOM     61  C   UNL A   1      42.813  28.068  32.557  1.00  0.00     0.049 A 
ATOM     62  H   UNL A   1      41.322  26.697  31.972  1.00  0.00     0.167 HD
ATOM     63  C   UNL A   1      42.410  29.087  34.715  1.00  0.00     0.074 A 
ATOM     64  C   UNL A   1      42.283  29.413  36.127  1.00  0.00     0.031 C 
ATOM     65  C   UNL A   1      42.638  27.934  34.007  1.00  0.00     0.034 A 
BRANCH  52  66
ATOM     66  C   UNL A   1      41.629  26.711  27.986  1.00  0.00     0.023 A 
ATOM     67  C   UNL A   1      41.603  27.530  26.832  1.00  0.00     0.012 A 
ATOM     68  C   UNL A   1      41.933  25.347  27.748  1.00  0.00     0.148 A 
ATOM     69  C   UNL A   1      41.807  27.028  25.538  1.00  0.00     0.002 A 
ATOM     70  C   UNL A   1      42.146  24.842  26.459  1.00  0.00     0.091 A 
ATOM     71  F   UNL A   1      42.027  24.488  28.757  1.00  0.00    -0.205 F 
ATOM     72  C   UNL A   1      42.071  25.682  25.349  1.00  0.00     0.022 A 
BRANCH  70  73
ATOM     73  S   UNL A   1      42.503  23.100  26.138  1.00  0.00     0.127 S 
ATOM     74  O   UNL A   1      43.613  22.840  27.056  1.00  0.00    -0.237 OA
ATOM     75  O   UNL A   1      41.245  22.451  26.506  1.00  0.00    -0.237 OA
ATOM     76  O   UNL A   1      42.853  22.997  24.726  1.00  0.00    -0.744 OA
ENDBRANCH  70  73
ENDBRANCH  52  66
BRANCH  53  77
ATOM     77  C   UNL A   1      40.062  33.267  35.202  1.00  0.00     0.023 A 
ATOM     78  C   UNL A   1      38.843  32.548  35.259  1.00  0.00     0.012 A 
ATOM     79  C   UNL A   1      40.266  34.324  36.110  1.00  0.00     0.148 A 
ATOM     80  C   UNL A   1      37.932  32.760  36.298  1.00  0.00     0.002 A 
ATOM     81  C   UNL A   1      39.365  34.511  37.161  1.00  0.00     0.091 A 
ATOM     82  F   UNL A   1      41.387  35.048  36.004  1.00  0.00    -0.205 F 
ATOM     83  C   UNL A   1      38.220  33.704  37.277  1.00  0.00     0.022 A 
BRANCH  81  84
ATOM     84  S   UNL A   1      39.705  35.650  38.512  1.00  0.00     0.127 S 
ATOM     85  O   UNL A   1      38.625  35.338  39.441  1.00  0.00    -0.237 OA
ATOM     86  O   UNL A   1      41.033  35.236  38.953  1.00  0.00    -0.237 OA
ATOM     87  O   UNL A   1      39.667  36.977  37.907  1.00  0.00    -0.744 OA
ENDBRANCH  81  84
ENDBRANCH  53  77
BRANCH  65  88
ATOM     88  C   UNL A   1      42.694  26.545  34.615  1.00  0.00     0.023 A 
ATOM     89  C   UNL A   1      41.638  26.006  35.373  1.00  0.00     0.012 A 
ATOM     90  C   UNL A   1      43.766  25.667  34.303  1.00  0.00     0.148 A 
ATOM     91  C   UNL A   1      41.670  24.693  35.855  1.00  0.00     0.002 A 
ATOM     92  C   UNL A   1      43.727  24.326  34.670  1.00  0.00     0.091 A 
ATOM     93  F   UNL A   1      44.849  26.131  33.662  1.00  0.00    -0.205 F 
ATOM     94  C   UNL A   1      42.701  23.843  35.481  1.00  0.00     0.022 A 
BRANCH  92  95
ATOM     95  S   UNL A   1      44.888  23.147  33.965  1.00  0.00     0.127 S 
ATOM     96  O   UNL A   1      44.660  23.315  32.532  1.00  0.00    -0.237 OA
ATOM     97  O   UNL A   1      46.178  23.653  34.440  1.00  0.00    -0.237 OA
ATOM     98  O   UNL A   1      44.510  21.860  34.533  1.00  0.00    -0.744 OA
ENDBRANCH  92  95
ENDBRANCH  65  88
ENDBRANCH  39  40
ENDBRANCH  31  34
ENDBRANCH  29  30
ENDBRANCH  28  29
ENDBRANCH   1  28
TORSDOF 17
ENDMDL
MODEL 3
REMARK VINA RESULT:     -12.3      2.986      3.887
REMARK SMILES Cc1c(NC(=O)c2ccc(Br)cc2N)cccc1C(=O)NCCCCNC(=O)c1ccc(-c2c3nc(c(-c4cccc(S(=O)(=O)[O-])c4F)c4ccc([nH]4)c(-c4cccc(S(=O)(=O)[O-])c4F)c4nc(c(-c5cccc(S(=O)(=O)[O-])c5F)c5ccc2[nH]5)C=C4)C=C3)cc1
REMARK SMILES IDX 23 1 22 2 21 3 19 4 20 5 18 7 1 8 2 9 3 10 15 11 17 12 16 13
REMARK SMILES IDX 4 14 5 15 6 17 7 18 8 19 13 20 9 21 12 22 10 23 11 24 14 25
REMARK SMILES IDX 24 28 25 29 26 30 27 31 28 33 29 34 30 35 91 36 31 37 90 38
REMARK SMILES IDX 32 39 33 40 34 41 84 42 35 43 89 44 83 45 85 46 36 47 88 48
REMARK SMILES IDX 82 49 81 50 37 52 69 53 49 54 68 55 50 56 53 57 67 58 86 59
REMARK SMILES IDX 51 60 52 61 66 63 87 64 54 65 38 66 39 67 47 68 40 69 42 70
REMARK SMILES IDX 48 71 41 72 43 73 44 74 45 75 46 76 70 77 71 78 79 79 72 80
REMARK SMILES IDX 74 81 80 82 73 83 75 84 76 85 77 86 78 87 55 88 56 89 64 90
REMARK SMILES IDX 57 91 59 92 65 93 58 94 60 95 61 96 62 97 63 98
REMARK H PARENT 21 6 4 16 14 26 14 27 26 32 85 51 53 62
REMARK Flexibility Score: inf
ROOT
ATOM      1  C   UNL A   1      37.112  23.189  25.419  1.00  0.00     0.023 C 
ENDROOT
BRANCH   1   2
ATOM      2  C   UNL A   1      35.771  23.122  26.166  1.00  0.00     0.116 C 
BRANCH   2   3
ATOM      3  N   UNL A   1      34.969  22.032  25.654  1.00  0.00    -0.352 N 
ATOM      4  C   UNL A   1      33.819  21.897  24.929  1.00  0.00     0.251 C 
ATOM      5  O   UNL A   1      33.393  20.734  24.897  1.00  0.00    -0.269 OA
ATOM      6  H   UNL A   1      35.354  21.158  25.889  1.00  0.00     0.163 HD
BRANCH   4   7
ATOM      7  C   UNL A   1      33.054  22.937  24.137  1.00  0.00     0.044 A 
ATOM      8  C   UNL A   1      30.738  22.954  25.267  1.00  0.00     0.047 C 
ATOM      9  C   UNL A   1      31.756  23.477  24.294  1.00  0.00    -0.015 A 
ATOM     10  C   UNL A   1      31.273  24.436  23.352  1.00  0.00     0.045 A 
ATOM     11  C   UNL A   1      32.006  24.781  22.219  1.00  0.00     0.026 A 
ATOM     12  C   UNL A   1      33.770  23.336  22.975  1.00  0.00     0.014 A 
ATOM     13  C   UNL A   1      33.254  24.217  22.024  1.00  0.00     0.003 A 
BRANCH  10  14
ATOM     14  N   UNL A   1      30.014  25.013  23.588  1.00  0.00    -0.322 N 
ATOM     15  C   UNL A   1      29.639  26.121  24.306  1.00  0.00     0.257 C 
ATOM     16  H   UNL A   1      29.265  24.536  23.161  1.00  0.00     0.170 HD
ATOM     17  O   UNL A   1      28.437  26.343  24.460  1.00  0.00    -0.269 OA
BRANCH  15  18
ATOM     18  C   UNL A   1      30.615  27.096  24.859  1.00  0.00     0.063 A 
ATOM     19  C   UNL A   1      31.155  26.737  26.109  1.00  0.00     0.017 A 
ATOM     20  C   UNL A   1      30.968  28.330  24.270  1.00  0.00     0.045 A 
ATOM     21  C   UNL A   1      32.077  27.560  26.752  1.00  0.00     0.016 A 
ATOM     22  C   UNL A   1      31.920  29.130  24.921  1.00  0.00     0.042 A 
ATOM     23  C   UNL A   1      32.471  28.745  26.143  1.00  0.00     0.020 A 
ATOM     24  Br  UNL A   1      33.725  29.867  27.001  1.00  0.00    -0.051 Br
BRANCH  20  25
ATOM     25  N   UNL A   1      30.314  28.894  23.178  1.00  0.00    -0.398 N 
ATOM     26  H   UNL A   1      29.868  29.767  23.269  1.00  0.00     0.156 HD
ATOM     27  H   UNL A   1      30.298  28.421  22.315  1.00  0.00     0.156 HD
ENDBRANCH  20  25
ENDBRANCH  15  18
ENDBRANCH  10  14
ENDBRANCH   4   7
ENDBRANCH   2   3
ENDBRANCH   1   2
BRANCH   1  28
ATOM     28  C   UNL A   1      38.114  22.052  25.642  1.00  0.00     0.023 C 
BRANCH  28  29
ATOM     29  C   UNL A   1      39.390  22.415  26.379  1.00  0.00     0.116 C 
BRANCH  29  30
ATOM     30  N   UNL A   1      40.357  21.321  26.361  1.00  0.00    -0.352 N 
ATOM     31  C   UNL A   1      41.731  21.367  26.236  1.00  0.00     0.251 C 
ATOM     32  H   UNL A   1      39.972  20.419  26.452  1.00  0.00     0.163 HD
ATOM     33  O   UNL A   1      42.298  20.425  25.698  1.00  0.00    -0.269 OA
BRANCH  31  34
ATOM     34  C   UNL A   1      42.481  22.489  26.834  1.00  0.00     0.039 A 
ATOM     35  C   UNL A   1      42.592  22.667  28.219  1.00  0.00     0.014 A 
ATOM     36  C   UNL A   1      42.908  23.493  25.978  1.00  0.00     0.014 A 
ATOM     37  C   UNL A   1      42.978  23.914  28.711  1.00  0.00     0.010 A 
ATOM     38  C   UNL A   1      43.575  24.572  26.447  1.00  0.00     0.010 A 
ATOM     39  C   UNL A   1      43.380  24.873  27.790  1.00  0.00    -0.014 A 
BRANCH  39  40
ATOM     40  C   UNL A   1      43.424  26.309  27.988  1.00  0.00     0.031 A 
ATOM     41  C   UNL A   1      42.168  27.057  28.016  1.00  0.00     0.074 A 
ATOM     42  C   UNL A   1      44.525  26.686  28.688  1.00  0.00     0.049 A 
ATOM     43  N   UNL A   1      42.084  28.322  28.215  1.00  0.00    -0.248 NA
ATOM     44  C   UNL A   1      40.880  26.406  27.814  1.00  0.00     0.031 C 
ATOM     45  C   UNL A   1      44.623  27.681  29.743  1.00  0.00     0.029 A 
ATOM     46  N   UNL A   1      45.821  26.150  28.632  1.00  0.00    -0.354 N 
ATOM     47  C   UNL A   1      40.768  28.573  28.548  1.00  0.00     0.074 A 
ATOM     48  C   UNL A   1      40.048  27.417  28.077  1.00  0.00     0.031 C 
ATOM     49  C   UNL A   1      45.923  27.879  30.027  1.00  0.00     0.029 A 
ATOM     50  C   UNL A   1      46.691  27.176  29.009  1.00  0.00     0.049 A 
ATOM     51  H   UNL A   1      46.068  25.231  28.378  1.00  0.00     0.167 HD
ATOM     52  C   UNL A   1      40.498  29.623  29.375  1.00  0.00     0.034 A 
ATOM     53  C   UNL A   1      47.527  27.770  28.102  1.00  0.00     0.034 A 
ATOM     54  C   UNL A   1      41.741  30.383  29.650  1.00  0.00     0.049 A 
ATOM     55  C   UNL A   1      47.121  29.213  27.821  1.00  0.00     0.074 A 
ATOM     56  C   UNL A   1      42.574  30.467  30.754  1.00  0.00     0.029 A 
ATOM     57  N   UNL A   1      42.455  30.940  28.590  1.00  0.00    -0.354 N 
ATOM     58  N   UNL A   1      46.062  29.787  28.327  1.00  0.00    -0.248 NA
ATOM     59  C   UNL A   1      47.864  30.126  26.957  1.00  0.00     0.031 C 
ATOM     60  C   UNL A   1      43.840  30.957  30.314  1.00  0.00     0.029 A 
ATOM     61  C   UNL A   1      43.769  31.213  28.954  1.00  0.00     0.049 A 
ATOM     62  H   UNL A   1      42.078  31.118  27.698  1.00  0.00     0.167 HD
ATOM     63  C   UNL A   1      45.873  31.021  27.775  1.00  0.00     0.074 A 
ATOM     64  C   UNL A   1      47.084  31.223  26.993  1.00  0.00     0.031 C 
ATOM     65  C   UNL A   1      44.716  31.733  27.962  1.00  0.00     0.034 A 
BRANCH  52  66
ATOM     66  C   UNL A   1      39.211  29.842  30.175  1.00  0.00     0.023 A 
ATOM     67  C   UNL A   1      38.830  28.807  31.061  1.00  0.00     0.012 A 
ATOM     68  C   UNL A   1      38.306  30.932  30.099  1.00  0.00     0.148 A 
ATOM     69  C   UNL A   1      37.622  28.821  31.773  1.00  0.00     0.002 A 
ATOM     70  C   UNL A   1      37.102  30.955  30.814  1.00  0.00     0.091 A 
ATOM     71  F   UNL A   1      38.575  31.983  29.333  1.00  0.00    -0.205 F 
ATOM     72  C   UNL A   1      36.752  29.892  31.645  1.00  0.00     0.022 A 
BRANCH  70  73
ATOM     73  S   UNL A   1      35.926  32.321  30.702  1.00  0.00     0.127 S 
ATOM     74  O   UNL A   1      35.423  32.183  29.335  1.00  0.00    -0.237 OA
ATOM     75  O   UNL A   1      34.956  31.983  31.744  1.00  0.00    -0.237 OA
ATOM     76  O   UNL A   1      36.680  33.546  30.945  1.00  0.00    -0.744 OA
ENDBRANCH  70  73
ENDBRANCH  52  66
BRANCH  53  77
ATOM     77  C   UNL A   1      48.090  26.794  27.111  1.00  0.00     0.023 A 
ATOM     78  C   UNL A   1      47.352  26.625  25.914  1.00  0.00     0.012 A 
ATOM     79  C   UNL A   1      49.461  26.472  27.110  1.00  0.00     0.148 A 
ATOM     80  C   UNL A   1      47.995  26.314  24.712  1.00  0.00     0.002 A 
ATOM     81  C   UNL A   1      50.100  26.190  25.902  1.00  0.00     0.091 A 
ATOM     82  F   UNL A   1      50.136  26.562  28.263  1.00  0.00    -0.205 F 
ATOM     83  C   UNL A   1      49.375  26.149  24.698  1.00  0.00     0.022 A 
BRANCH  81  84
ATOM     84  S   UNL A   1      51.891  26.047  25.785  1.00  0.00     0.127 S 
ATOM     85  O   UNL A   1      52.117  24.711  26.322  1.00  0.00    -0.237 OA
ATOM     86  O   UNL A   1      52.128  26.181  24.350  1.00  0.00    -0.237 OA
ATOM     87  O   UNL A   1      52.411  27.155  26.578  1.00  0.00    -0.744 OA
ENDBRANCH  81  84
ENDBRANCH  53  77
BRANCH  65  88
ATOM     88  C   UNL A   1      44.344  32.992  27.202  1.00  0.00     0.023 A 
ATOM     89  C   UNL A   1      44.232  33.026  25.799  1.00  0.00     0.012 A 
ATOM     90  C   UNL A   1      43.935  34.159  27.899  1.00  0.00     0.148 A 
ATOM     91  C   UNL A   1      43.807  34.172  25.118  1.00  0.00     0.002 A 
ATOM     92  C   UNL A   1      43.386  35.245  27.226  1.00  0.00     0.091 A 
ATOM     93  F   UNL A   1      44.095  34.237  29.229  1.00  0.00    -0.205 F 
ATOM     94  C   UNL A   1      43.356  35.273  25.833  1.00  0.00     0.022 A 
BRANCH  92  95
ATOM     95  S   UNL A   1      42.538  36.551  28.127  1.00  0.00     0.127 S 
ATOM     96  O   UNL A   1      42.060  37.407  27.045  1.00  0.00    -0.237 OA
ATOM     97  O   UNL A   1      41.486  35.814  28.832  1.00  0.00    -0.237 OA
ATOM     98  O   UNL A   1      43.551  37.123  29.004  1.00  0.00    -0.744 OA
ENDBRANCH  92  95
ENDBRANCH  65  88
ENDBRANCH  39  40
ENDBRANCH  31  34
ENDBRANCH  29  30
ENDBRANCH  28  29
ENDBRANCH   1  28
TORSDOF 17
ENDMDL
