MODEL 1
REMARK VINA RESULT:     -13.7      0.000      0.000
REMARK SMILES O=C(NCCCCNC(=O)c1cc2n(n1)[C@@H](C(F)(F)F)C[C@H](c1ccc3c(c1)OCO3)N2)c1ccc(-c2c3nc(c(-c4cccc(S(=O)(=O)[O-])c4F)c4ccc([nH]4)c(-c4cccc(S(=O)(=O)[O-])c4F)c4nc(c(-c5cccc(S(=O)(=O)[O-])c5F)c5ccc2[nH]5)C=C4)C=C3)cc1
REMARK SMILES IDX 4 1 3 2 1 3 2 4 33 6 34 7 95 8 35 9 94 10 36 11 37 12 38 13
REMARK SMILES IDX 88 14 39 15 93 16 87 17 89 18 40 19 92 20 86 21 85 22 41 24
REMARK SMILES IDX 73 25 53 26 72 27 54 28 57 29 71 30 90 31 55 32 56 33 70 35
REMARK SMILES IDX 91 36 58 37 42 38 43 39 51 40 44 41 46 42 52 43 45 44 47 45
REMARK SMILES IDX 48 46 49 47 50 48 74 49 75 50 83 51 76 52 78 53 84 54 77 55
REMARK SMILES IDX 79 56 80 57 81 58 82 59 59 60 60 61 68 62 61 63 63 64 69 65
REMARK SMILES IDX 62 66 64 67 65 68 66 69 67 70 5 71 6 72 7 73 8 74 9 75 10 77
REMARK SMILES IDX 11 78 12 79 15 80 13 81 14 82 32 83 16 84 22 85 21 87 17 88
REMARK SMILES IDX 18 89 19 90 20 91 23 92 24 93 28 94 25 95 27 96 26 97 29 98
REMARK SMILES IDX 31 99 30 100
REMARK H PARENT 3 5 89 23 57 34 8 76 32 86
REMARK Flexibility Score: inf
ROOT
ATOM      1  C   UNL A   1      32.992  29.289  25.533  1.00  0.00     0.116 C 
ENDROOT
BRANCH   1   2
ATOM      2  N   UNL A   1      32.553  30.601  25.983  1.00  0.00    -0.352 N 
ATOM      3  O   UNL A   1      32.500  32.427  27.304  1.00  0.00    -0.269 OA
ATOM      4  C   UNL A   1      33.090  31.407  26.962  1.00  0.00     0.251 C 
ATOM      5  H   UNL A   1      31.762  30.963  25.523  1.00  0.00     0.163 HD
BRANCH   4   6
ATOM      6  C   UNL A   1      34.358  31.015  27.615  1.00  0.00     0.039 A 
ATOM      7  C   UNL A   1      34.596  29.681  27.957  1.00  0.00     0.014 A 
ATOM      8  C   UNL A   1      35.306  31.997  27.913  1.00  0.00     0.014 A 
ATOM      9  C   UNL A   1      35.697  29.357  28.741  1.00  0.00     0.010 A 
ATOM     10  C   UNL A   1      36.462  31.650  28.620  1.00  0.00     0.010 A 
ATOM     11  C   UNL A   1      36.648  30.335  29.074  1.00  0.00    -0.014 A 
BRANCH  11  12
ATOM     12  C   UNL A   1      37.858  29.943  29.842  1.00  0.00     0.031 A 
ATOM     13  C   UNL A   1      38.105  30.457  31.234  1.00  0.00     0.074 A 
ATOM     14  C   UNL A   1      38.745  29.111  29.262  1.00  0.00     0.049 A 
ATOM     15  N   UNL A   1      39.106  30.203  32.037  1.00  0.00    -0.248 NA
ATOM     16  C   UNL A   1      37.107  31.381  31.798  1.00  0.00     0.031 C 
ATOM     17  C   UNL A   1      38.634  28.579  27.901  1.00  0.00     0.029 A 
ATOM     18  N   UNL A   1      39.913  28.568  29.735  1.00  0.00    -0.354 N 
ATOM     19  C   UNL A   1      38.885  30.961  33.181  1.00  0.00     0.074 A 
ATOM     20  C   UNL A   1      37.655  31.693  32.966  1.00  0.00     0.031 C 
ATOM     21  C   UNL A   1      39.676  27.774  27.655  1.00  0.00     0.029 A 
ATOM     22  C   UNL A   1      40.557  27.773  28.817  1.00  0.00     0.049 A 
ATOM     23  H   UNL A   1      40.255  28.733  30.643  1.00  0.00     0.167 HD
ATOM     24  C   UNL A   1      39.631  31.029  34.311  1.00  0.00     0.034 A 
ATOM     25  C   UNL A   1      41.737  27.130  28.889  1.00  0.00     0.034 A 
ATOM     26  C   UNL A   1      40.836  30.270  34.531  1.00  0.00     0.049 A 
ATOM     27  C   UNL A   1      42.531  27.209  30.160  1.00  0.00     0.074 A 
ATOM     28  C   UNL A   1      41.624  30.220  35.668  1.00  0.00     0.029 A 
ATOM     29  N   UNL A   1      41.433  29.438  33.596  1.00  0.00    -0.354 N 
ATOM     30  N   UNL A   1      42.239  27.829  31.277  1.00  0.00    -0.248 NA
ATOM     31  C   UNL A   1      43.804  26.477  30.192  1.00  0.00     0.031 C 
ATOM     32  C   UNL A   1      42.710  29.377  35.411  1.00  0.00     0.029 A 
ATOM     33  C   UNL A   1      42.585  28.880  34.123  1.00  0.00     0.049 A 
ATOM     34  H   UNL A   1      41.087  29.269  32.690  1.00  0.00     0.167 HD
ATOM     35  C   UNL A   1      43.277  27.542  32.154  1.00  0.00     0.074 A 
ATOM     36  C   UNL A   1      44.192  26.670  31.446  1.00  0.00     0.031 C 
ATOM     37  C   UNL A   1      43.463  27.976  33.425  1.00  0.00     0.034 A 
BRANCH  24  38
ATOM     38  C   UNL A   1      39.151  31.931  35.420  1.00  0.00     0.023 A 
ATOM     39  C   UNL A   1      38.206  31.449  36.349  1.00  0.00     0.012 A 
ATOM     40  C   UNL A   1      39.687  33.222  35.589  1.00  0.00     0.148 A 
ATOM     41  C   UNL A   1      37.779  32.250  37.409  1.00  0.00     0.002 A 
ATOM     42  C   UNL A   1      39.288  33.999  36.671  1.00  0.00     0.091 A 
ATOM     43  F   UNL A   1      40.571  33.671  34.686  1.00  0.00    -0.205 F 
ATOM     44  C   UNL A   1      38.328  33.518  37.576  1.00  0.00     0.022 A 
BRANCH  42  45
ATOM     45  S   UNL A   1      39.994  35.615  37.015  1.00  0.00     0.127 S 
ATOM     46  O   UNL A   1      39.335  35.963  38.273  1.00  0.00    -0.237 OA
ATOM     47  O   UNL A   1      41.420  35.310  37.140  1.00  0.00    -0.237 OA
ATOM     48  O   UNL A   1      39.652  36.453  35.874  1.00  0.00    -0.744 OA
ENDBRANCH  42  45
ENDBRANCH  24  38
BRANCH  25  49
ATOM     49  C   UNL A   1      42.206  26.322  27.729  1.00  0.00     0.023 A 
ATOM     50  C   UNL A   1      43.087  26.895  26.794  1.00  0.00     0.012 A 
ATOM     51  C   UNL A   1      41.824  24.973  27.579  1.00  0.00     0.148 A 
ATOM     52  C   UNL A   1      43.564  26.148  25.718  1.00  0.00     0.002 A 
ATOM     53  C   UNL A   1      42.350  24.217  26.540  1.00  0.00     0.091 A 
ATOM     54  F   UNL A   1      40.973  24.451  28.473  1.00  0.00    -0.205 F 
ATOM     55  C   UNL A   1      43.207  24.807  25.598  1.00  0.00     0.022 A 
BRANCH  53  56
ATOM     56  S   UNL A   1      42.059  22.451  26.396  1.00  0.00     0.127 S 
ATOM     57  O   UNL A   1      42.558  21.961  27.678  1.00  0.00    -0.237 OA
ATOM     58  O   UNL A   1      40.606  22.395  26.238  1.00  0.00    -0.237 OA
ATOM     59  O   UNL A   1      42.805  22.025  25.220  1.00  0.00    -0.744 OA
ENDBRANCH  53  56
ENDBRANCH  25  49
BRANCH  37  60
ATOM     60  C   UNL A   1      44.692  27.492  34.148  1.00  0.00     0.023 A 
ATOM     61  C   UNL A   1      45.876  28.255  34.103  1.00  0.00     0.012 A 
ATOM     62  C   UNL A   1      44.655  26.317  34.923  1.00  0.00     0.148 A 
ATOM     63  C   UNL A   1      47.014  27.837  34.791  1.00  0.00     0.002 A 
ATOM     64  C   UNL A   1      45.778  25.932  35.646  1.00  0.00     0.091 A 
ATOM     65  F   UNL A   1      43.525  25.594  34.936  1.00  0.00    -0.205 F 
ATOM     66  C   UNL A   1      46.962  26.683  35.571  1.00  0.00     0.022 A 
BRANCH  64  67
ATOM     67  S   UNL A   1      45.773  24.514  36.748  1.00  0.00     0.127 S 
ATOM     68  O   UNL A   1      45.635  23.405  35.805  1.00  0.00    -0.237 OA
ATOM     69  O   UNL A   1      47.086  24.612  37.387  1.00  0.00    -0.237 OA
ATOM     70  O   UNL A   1      44.646  24.713  37.650  1.00  0.00    -0.744 OA
ENDBRANCH  64  67
ENDBRANCH  37  60
ENDBRANCH  11  12
ENDBRANCH   4   6
ENDBRANCH   1   2
BRANCH   1  71
ATOM     71  C   UNL A   1      32.058  28.668  24.503  1.00  0.00     0.023 C 
BRANCH  71  72
ATOM     72  C   UNL A   1      32.626  27.467  23.756  1.00  0.00     0.023 C 
BRANCH  72  73
ATOM     73  C   UNL A   1      31.592  26.612  23.033  1.00  0.00     0.116 C 
BRANCH  73  74
ATOM     74  N   UNL A   1      31.919  26.387  21.634  1.00  0.00    -0.351 N 
ATOM     75  C   UNL A   1      32.679  25.384  21.065  1.00  0.00     0.271 C 
ATOM     76  H   UNL A   1      31.546  27.043  21.003  1.00  0.00     0.163 HD
ATOM     77  O   UNL A   1      32.956  25.461  19.868  1.00  0.00    -0.267 OA
BRANCH  75  78
ATOM     78  C   UNL A   1      33.115  24.273  21.920  1.00  0.00     0.152 A 
ATOM     79  C   UNL A   1      32.493  22.996  22.046  1.00  0.00     0.082 A 
ATOM     80  N   UNL A   1      34.193  24.362  22.730  1.00  0.00    -0.165 NA
ATOM     81  C   UNL A   1      33.126  22.393  23.093  1.00  0.00     0.126 A 
ATOM     82  N   UNL A   1      34.154  23.223  23.433  1.00  0.00    -0.237 N 
ATOM     83  N   UNL A   1      32.892  21.248  23.758  1.00  0.00    -0.363 N 
ATOM     84  C   UNL A   1      35.116  22.915  24.471  1.00  0.00     0.217 C 
ATOM     85  C   UNL A   1      33.770  20.769  24.820  1.00  0.00     0.113 C 
ATOM     86  H   UNL A   1      32.100  20.712  23.518  1.00  0.00     0.162 HD
ATOM     87  C   UNL A   1      35.178  21.385  24.661  1.00  0.00     0.066 C 
BRANCH  84  88
ATOM     88  C   UNL A   1      34.750  23.642  25.747  1.00  0.00     0.410 C 
ATOM     89  F   UNL A   1      35.353  24.862  25.764  1.00  0.00    -0.169 F 
ATOM     90  F   UNL A   1      33.426  23.872  25.868  1.00  0.00    -0.169 F 
ATOM     91  F   UNL A   1      35.161  23.002  26.864  1.00  0.00    -0.169 F 
ENDBRANCH  84  88
BRANCH  85  92
ATOM     92  C   UNL A   1      33.811  19.245  24.848  1.00  0.00    -0.022 A 
ATOM     93  C   UNL A   1      35.046  18.584  24.622  1.00  0.00     0.010 A 
ATOM     94  C   UNL A   1      32.674  18.463  25.135  1.00  0.00     0.056 A 
ATOM     95  C   UNL A   1      35.153  17.190  24.700  1.00  0.00     0.051 A 
ATOM     96  C   UNL A   1      32.817  17.096  25.234  1.00  0.00     0.166 A 
ATOM     97  C   UNL A   1      34.022  16.475  25.023  1.00  0.00     0.165 A 
ATOM     98  O   UNL A   1      31.828  16.220  25.558  1.00  0.00    -0.454 OA
ATOM     99  O   UNL A   1      33.945  15.127  25.180  1.00  0.00    -0.454 OA
ATOM    100  C   UNL A   1      32.561  14.979  25.562  1.00  0.00     0.468 C 
ENDBRANCH  85  92
ENDBRANCH  75  78
ENDBRANCH  73  74
ENDBRANCH  72  73
ENDBRANCH  71  72
ENDBRANCH   1  71
TORSDOF 16
ENDMDL
MODEL 2
REMARK VINA RESULT:     -13.6      2.567      3.197
REMARK SMILES O=C(NCCCCNC(=O)c1cc2n(n1)[C@@H](C(F)(F)F)C[C@H](c1ccc3c(c1)OCO3)N2)c1ccc(-c2c3nc(c(-c4cccc(S(=O)(=O)[O-])c4F)c4ccc([nH]4)c(-c4cccc(S(=O)(=O)[O-])c4F)c4nc(c(-c5cccc(S(=O)(=O)[O-])c5F)c5ccc2[nH]5)C=C4)C=C3)cc1
REMARK SMILES IDX 4 1 3 2 1 3 2 4 33 6 34 7 95 8 35 9 94 10 36 11 37 12 38 13
REMARK SMILES IDX 88 14 39 15 93 16 87 17 89 18 40 19 92 20 86 21 85 22 41 24
REMARK SMILES IDX 73 25 53 26 72 27 54 28 57 29 71 30 90 31 55 32 56 33 70 35
REMARK SMILES IDX 91 36 58 37 42 38 43 39 51 40 44 41 46 42 52 43 45 44 47 45
REMARK SMILES IDX 48 46 49 47 50 48 74 49 75 50 83 51 76 52 78 53 84 54 77 55
REMARK SMILES IDX 79 56 80 57 81 58 82 59 59 60 60 61 68 62 61 63 63 64 69 65
REMARK SMILES IDX 62 66 64 67 65 68 66 69 67 70 5 71 6 72 7 73 8 74 9 75 10 77
REMARK SMILES IDX 11 78 12 79 15 80 13 81 14 82 32 83 16 84 22 85 21 87 17 88
REMARK SMILES IDX 18 89 19 90 20 91 23 92 24 93 28 94 25 95 27 96 26 97 29 98
REMARK SMILES IDX 31 99 30 100
REMARK H PARENT 3 5 89 23 57 34 8 76 32 86
REMARK Flexibility Score: inf
ROOT
ATOM      1  C   UNL A   1      34.219  28.299  26.185  1.00  0.00     0.116 C 
ENDROOT
BRANCH   1   2
ATOM      2  N   UNL A   1      33.793  29.619  26.623  1.00  0.00    -0.352 N 
ATOM      3  O   UNL A   1      33.824  31.500  27.866  1.00  0.00    -0.269 OA
ATOM      4  C   UNL A   1      34.404  30.479  27.508  1.00  0.00     0.251 C 
ATOM      5  H   UNL A   1      32.950  29.944  26.231  1.00  0.00     0.163 HD
BRANCH   4   6
ATOM      6  C   UNL A   1      35.740  30.143  28.045  1.00  0.00     0.039 A 
ATOM      7  C   UNL A   1      36.890  30.382  27.286  1.00  0.00     0.014 A 
ATOM      8  C   UNL A   1      35.842  29.557  29.309  1.00  0.00     0.014 A 
ATOM      9  C   UNL A   1      38.115  29.886  27.717  1.00  0.00     0.010 A 
ATOM     10  C   UNL A   1      37.092  29.144  29.781  1.00  0.00     0.010 A 
ATOM     11  C   UNL A   1      38.232  29.269  28.973  1.00  0.00    -0.014 A 
BRANCH  11  12
ATOM     12  C   UNL A   1      39.569  28.824  29.443  1.00  0.00     0.031 A 
ATOM     13  C   UNL A   1      40.285  29.533  30.561  1.00  0.00     0.074 A 
ATOM     14  C   UNL A   1      40.140  27.761  28.843  1.00  0.00     0.049 A 
ATOM     15  N   UNL A   1      41.450  29.263  31.091  1.00  0.00    -0.248 NA
ATOM     16  C   UNL A   1      39.614  30.700  31.156  1.00  0.00     0.031 C 
ATOM     17  C   UNL A   1      39.561  27.017  27.721  1.00  0.00     0.029 A 
ATOM     18  N   UNL A   1      41.331  27.123  29.083  1.00  0.00    -0.354 N 
ATOM     19  C   UNL A   1      41.674  30.243  32.051  1.00  0.00     0.074 A 
ATOM     20  C   UNL A   1      40.524  31.122  32.026  1.00  0.00     0.031 C 
ATOM     21  C   UNL A   1      40.384  26.015  27.384  1.00  0.00     0.029 A 
ATOM     22  C   UNL A   1      41.573  26.077  28.226  1.00  0.00     0.049 A 
ATOM     23  H   UNL A   1      41.951  27.390  29.800  1.00  0.00     0.167 HD
ATOM     24  C   UNL A   1      42.732  30.388  32.885  1.00  0.00     0.034 A 
ATOM     25  C   UNL A   1      42.642  25.266  28.111  1.00  0.00     0.034 A 
ATOM     26  C   UNL A   1      43.857  29.488  32.927  1.00  0.00     0.049 A 
ATOM     27  C   UNL A   1      43.790  25.439  29.061  1.00  0.00     0.074 A 
ATOM     28  C   UNL A   1      44.945  29.513  33.782  1.00  0.00     0.029 A 
ATOM     29  N   UNL A   1      44.045  28.411  32.075  1.00  0.00    -0.354 N 
ATOM     30  N   UNL A   1      43.923  26.293  30.046  1.00  0.00    -0.248 NA
ATOM     31  C   UNL A   1      44.925  24.520  28.903  1.00  0.00     0.031 C 
ATOM     32  C   UNL A   1      45.802  28.465  33.431  1.00  0.00     0.029 A 
ATOM     33  C   UNL A   1      45.235  27.770  32.374  1.00  0.00     0.049 A 
ATOM     34  H   UNL A   1      43.422  28.141  31.362  1.00  0.00     0.167 HD
ATOM     35  C   UNL A   1      45.142  25.998  30.643  1.00  0.00     0.074 A 
ATOM     36  C   UNL A   1      45.696  24.869  29.924  1.00  0.00     0.031 C 
ATOM     37  C   UNL A   1      45.754  26.618  31.682  1.00  0.00     0.034 A 
BRANCH  24  38
ATOM     38  C   UNL A   1      42.716  31.545  33.852  1.00  0.00     0.023 A 
ATOM     39  C   UNL A   1      43.185  32.807  33.434  1.00  0.00     0.012 A 
ATOM     40  C   UNL A   1      42.171  31.405  35.143  1.00  0.00     0.148 A 
ATOM     41  C   UNL A   1      43.140  33.903  34.296  1.00  0.00     0.002 A 
ATOM     42  C   UNL A   1      42.092  32.510  35.982  1.00  0.00     0.091 A 
ATOM     43  F   UNL A   1      41.748  30.193  35.531  1.00  0.00    -0.205 F 
ATOM     44  C   UNL A   1      42.585  33.758  35.564  1.00  0.00     0.022 A 
BRANCH  42  45
ATOM     45  S   UNL A   1      41.324  32.441  37.606  1.00  0.00     0.127 S 
ATOM     46  O   UNL A   1      41.365  33.846  38.011  1.00  0.00    -0.237 OA
ATOM     47  O   UNL A   1      39.986  31.937  37.294  1.00  0.00    -0.237 OA
ATOM     48  O   UNL A   1      42.143  31.535  38.398  1.00  0.00    -0.744 OA
ENDBRANCH  42  45
ENDBRANCH  24  38
BRANCH  25  49
ATOM     49  C   UNL A   1      42.642  24.192  27.078  1.00  0.00     0.023 A 
ATOM     50  C   UNL A   1      43.345  24.386  25.876  1.00  0.00     0.012 A 
ATOM     51  C   UNL A   1      41.994  22.962  27.307  1.00  0.00     0.148 A 
ATOM     52  C   UNL A   1      43.386  23.382  24.908  1.00  0.00     0.002 A 
ATOM     53  C   UNL A   1      42.089  21.944  26.367  1.00  0.00     0.091 A 
ATOM     54  F   UNL A   1      41.317  22.804  28.454  1.00  0.00    -0.205 F 
ATOM     55  C   UNL A   1      42.770  22.158  25.159  1.00  0.00     0.022 A 
BRANCH  53  56
ATOM     56  S   UNL A   1      41.451  20.293  26.672  1.00  0.00     0.127 S 
ATOM     57  O   UNL A   1      42.145  19.929  27.904  1.00  0.00    -0.237 OA
ATOM     58  O   UNL A   1      40.018  20.546  26.822  1.00  0.00    -0.237 OA
ATOM     59  O   UNL A   1      41.801  19.515  25.492  1.00  0.00    -0.744 OA
ENDBRANCH  53  56
ENDBRANCH  25  49
BRANCH  37  60
ATOM     60  C   UNL A   1      47.085  26.073  32.126  1.00  0.00     0.023 A 
ATOM     61  C   UNL A   1      47.150  25.195  33.227  1.00  0.00     0.012 A 
ATOM     62  C   UNL A   1      48.262  26.378  31.413  1.00  0.00     0.148 A 
ATOM     63  C   UNL A   1      48.371  24.657  33.633  1.00  0.00     0.002 A 
ATOM     64  C   UNL A   1      49.467  25.799  31.794  1.00  0.00     0.091 A 
ATOM     65  F   UNL A   1      48.182  27.231  30.382  1.00  0.00    -0.205 F 
ATOM     66  C   UNL A   1      49.525  24.950  32.910  1.00  0.00     0.022 A 
BRANCH  64  67
ATOM     67  S   UNL A   1      50.986  26.045  30.867  1.00  0.00     0.127 S 
ATOM     68  O   UNL A   1      51.128  27.500  30.910  1.00  0.00    -0.237 OA
ATOM     69  O   UNL A   1      51.963  25.313  31.674  1.00  0.00    -0.237 OA
ATOM     70  O   UNL A   1      50.745  25.478  29.548  1.00  0.00    -0.744 OA
ENDBRANCH  64  67
ENDBRANCH  37  60
ENDBRANCH  11  12
ENDBRANCH   4   6
ENDBRANCH   1   2
BRANCH   1  71
ATOM     71  C   UNL A   1      33.105  27.503  25.517  1.00  0.00     0.023 C 
BRANCH  71  72
ATOM     72  C   UNL A   1      33.076  27.582  23.995  1.00  0.00     0.023 C 
BRANCH  72  73
ATOM     73  C   UNL A   1      31.949  26.798  23.332  1.00  0.00     0.116 C 
BRANCH  73  74
ATOM     74  N   UNL A   1      32.168  26.583  21.910  1.00  0.00    -0.351 N 
ATOM     75  C   UNL A   1      32.832  25.553  21.275  1.00  0.00     0.271 C 
ATOM     76  H   UNL A   1      31.789  27.271  21.317  1.00  0.00     0.163 HD
ATOM     77  O   UNL A   1      33.030  25.638  20.063  1.00  0.00    -0.267 OA
BRANCH  75  78
ATOM     78  C   UNL A   1      33.263  24.403  22.080  1.00  0.00     0.152 A 
ATOM     79  C   UNL A   1      32.594  23.150  22.209  1.00  0.00     0.082 A 
ATOM     80  N   UNL A   1      34.384  24.427  22.834  1.00  0.00    -0.165 NA
ATOM     81  C   UNL A   1      33.255  22.496  23.208  1.00  0.00     0.126 A 
ATOM     82  N   UNL A   1      34.333  23.274  23.512  1.00  0.00    -0.237 N 
ATOM     83  N   UNL A   1      33.007  21.345  23.857  1.00  0.00    -0.363 N 
ATOM     84  C   UNL A   1      35.334  22.900  24.490  1.00  0.00     0.217 C 
ATOM     85  C   UNL A   1      33.917  20.804  24.861  1.00  0.00     0.113 C 
ATOM     86  H   UNL A   1      32.181  20.849  23.648  1.00  0.00     0.162 HD
ATOM     87  C   UNL A   1      35.341  21.364  24.641  1.00  0.00     0.066 C 
BRANCH  84  88
ATOM     88  C   UNL A   1      35.067  23.609  25.799  1.00  0.00     0.410 C 
ATOM     89  F   UNL A   1      35.726  24.800  25.814  1.00  0.00    -0.169 F 
ATOM     90  F   UNL A   1      33.763  23.895  25.993  1.00  0.00    -0.169 F 
ATOM     91  F   UNL A   1      35.503  22.923  26.878  1.00  0.00    -0.169 F 
ENDBRANCH  84  88
BRANCH  85  92
ATOM     92  C   UNL A   1      33.894  19.279  24.852  1.00  0.00    -0.022 A 
ATOM     93  C   UNL A   1      35.083  18.574  24.534  1.00  0.00     0.010 A 
ATOM     94  C   UNL A   1      32.744  18.539  25.192  1.00  0.00     0.056 A 
ATOM     95  C   UNL A   1      35.135  17.175  24.574  1.00  0.00     0.051 A 
ATOM     96  C   UNL A   1      32.834  17.164  25.251  1.00  0.00     0.166 A 
ATOM     97  C   UNL A   1      33.997  16.500  24.952  1.00  0.00     0.165 A 
ATOM     98  O   UNL A   1      31.830  16.323  25.617  1.00  0.00    -0.454 OA
ATOM     99  O   UNL A   1      33.871  15.153  25.082  1.00  0.00    -0.454 OA
ATOM    100  C   UNL A   1      32.508  15.052  25.548  1.00  0.00     0.468 C 
ENDBRANCH  85  92
ENDBRANCH  75  78
ENDBRANCH  73  74
ENDBRANCH  72  73
ENDBRANCH  71  72
ENDBRANCH   1  71
TORSDOF 16
ENDMDL
MODEL 3
REMARK VINA RESULT:     -13.5      1.793      2.445
REMARK SMILES O=C(NCCCCNC(=O)c1cc2n(n1)[C@@H](C(F)(F)F)C[C@H](c1ccc3c(c1)OCO3)N2)c1ccc(-c2c3nc(c(-c4cccc(S(=O)(=O)[O-])c4F)c4ccc([nH]4)c(-c4cccc(S(=O)(=O)[O-])c4F)c4nc(c(-c5cccc(S(=O)(=O)[O-])c5F)c5ccc2[nH]5)C=C4)C=C3)cc1
REMARK SMILES IDX 4 1 3 2 1 3 2 4 33 6 34 7 95 8 35 9 94 10 36 11 37 12 38 13
REMARK SMILES IDX 88 14 39 15 93 16 87 17 89 18 40 19 92 20 86 21 85 22 41 24
REMARK SMILES IDX 73 25 53 26 72 27 54 28 57 29 71 30 90 31 55 32 56 33 70 35
REMARK SMILES IDX 91 36 58 37 42 38 43 39 51 40 44 41 46 42 52 43 45 44 47 45
REMARK SMILES IDX 48 46 49 47 50 48 74 49 75 50 83 51 76 52 78 53 84 54 77 55
REMARK SMILES IDX 79 56 80 57 81 58 82 59 59 60 60 61 68 62 61 63 63 64 69 65
REMARK SMILES IDX 62 66 64 67 65 68 66 69 67 70 5 71 6 72 7 73 8 74 9 75 10 77
REMARK SMILES IDX 11 78 12 79 15 80 13 81 14 82 32 83 16 84 22 85 21 87 17 88
REMARK SMILES IDX 18 89 19 90 20 91 23 92 24 93 28 94 25 95 27 96 26 97 29 98
REMARK SMILES IDX 31 99 30 100
REMARK H PARENT 3 5 89 23 57 34 8 76 32 86
REMARK Flexibility Score: inf
ROOT
ATOM      1  C   UNL A   1      33.862  28.730  26.157  1.00  0.00     0.116 C 
ENDROOT
BRANCH   1   2
ATOM      2  N   UNL A   1      33.744  30.109  26.608  1.00  0.00    -0.352 N 
ATOM      3  O   UNL A   1      34.216  31.931  27.849  1.00  0.00    -0.269 OA
ATOM      4  C   UNL A   1      34.551  30.812  27.474  1.00  0.00     0.251 C 
ATOM      5  H   UNL A   1      32.980  30.610  26.241  1.00  0.00     0.163 HD
BRANCH   4   6
ATOM      6  C   UNL A   1      35.799  30.192  27.972  1.00  0.00     0.039 A 
ATOM      7  C   UNL A   1      35.817  29.517  29.195  1.00  0.00     0.014 A 
ATOM      8  C   UNL A   1      36.969  30.312  27.218  1.00  0.00     0.014 A 
ATOM      9  C   UNL A   1      37.029  29.112  29.741  1.00  0.00     0.010 A 
ATOM     10  C   UNL A   1      38.174  29.818  27.728  1.00  0.00     0.010 A 
ATOM     11  C   UNL A   1      38.221  29.249  29.010  1.00  0.00    -0.014 A 
BRANCH  11  12
ATOM     12  C   UNL A   1      39.490  28.731  29.583  1.00  0.00     0.031 A 
ATOM     13  C   UNL A   1      40.097  29.334  30.821  1.00  0.00     0.074 A 
ATOM     14  C   UNL A   1      40.099  27.699  28.967  1.00  0.00     0.049 A 
ATOM     15  N   UNL A   1      41.192  28.991  31.449  1.00  0.00    -0.248 NA
ATOM     16  C   UNL A   1      39.391  30.474  31.430  1.00  0.00     0.031 C 
ATOM     17  C   UNL A   1      39.628  27.058  27.737  1.00  0.00     0.029 A 
ATOM     18  N   UNL A   1      41.243  27.010  29.282  1.00  0.00    -0.354 N 
ATOM     19  C   UNL A   1      41.333  29.891  32.499  1.00  0.00     0.074 A 
ATOM     20  C   UNL A   1      40.211  30.803  32.421  1.00  0.00     0.031 C 
ATOM     21  C   UNL A   1      40.461  26.060  27.412  1.00  0.00     0.029 A 
ATOM     22  C   UNL A   1      41.553  26.024  28.377  1.00  0.00     0.049 A 
ATOM     23  H   UNL A   1      41.788  27.205  30.077  1.00  0.00     0.167 HD
ATOM     24  C   UNL A   1      42.298  29.943  33.448  1.00  0.00     0.034 A 
ATOM     25  C   UNL A   1      42.611  25.192  28.313  1.00  0.00     0.034 A 
ATOM     26  C   UNL A   1      43.393  29.010  33.540  1.00  0.00     0.049 A 
ATOM     27  C   UNL A   1      43.654  25.261  29.389  1.00  0.00     0.074 A 
ATOM     28  C   UNL A   1      44.383  28.939  34.504  1.00  0.00     0.029 A 
ATOM     29  N   UNL A   1      43.648  27.993  32.632  1.00  0.00    -0.354 N 
ATOM     30  N   UNL A   1      43.698  26.036  30.445  1.00  0.00    -0.248 NA
ATOM     31  C   UNL A   1      44.779  24.323  29.282  1.00  0.00     0.031 C 
ATOM     32  C   UNL A   1      45.250  27.895  34.166  1.00  0.00     0.029 A 
ATOM     33  C   UNL A   1      44.785  27.298  33.005  1.00  0.00     0.049 A 
ATOM     34  H   UNL A   1      43.100  27.795  31.839  1.00  0.00     0.167 HD
ATOM     35  C   UNL A   1      44.840  25.662  31.142  1.00  0.00     0.074 A 
ATOM     36  C   UNL A   1      45.444  24.573  30.402  1.00  0.00     0.031 C 
ATOM     37  C   UNL A   1      45.350  26.185  32.285  1.00  0.00     0.034 A 
BRANCH  24  38
ATOM     38  C   UNL A   1      42.203  31.025  34.494  1.00  0.00     0.023 A 
ATOM     39  C   UNL A   1      41.564  30.753  35.721  1.00  0.00     0.012 A 
ATOM     40  C   UNL A   1      42.808  32.282  34.295  1.00  0.00     0.148 A 
ATOM     41  C   UNL A   1      41.502  31.724  36.721  1.00  0.00     0.002 A 
ATOM     42  C   UNL A   1      42.777  33.230  35.311  1.00  0.00     0.091 A 
ATOM     43  F   UNL A   1      43.394  32.530  33.115  1.00  0.00    -0.205 F 
ATOM     44  C   UNL A   1      42.117  32.957  36.520  1.00  0.00     0.022 A 
BRANCH  42  45
ATOM     45  S   UNL A   1      43.607  34.819  35.178  1.00  0.00     0.127 S 
ATOM     46  O   UNL A   1      44.998  34.411  34.991  1.00  0.00    -0.237 OA
ATOM     47  O   UNL A   1      42.978  35.397  33.989  1.00  0.00    -0.237 OA
ATOM     48  O   UNL A   1      43.320  35.526  36.417  1.00  0.00    -0.744 OA
ENDBRANCH  42  45
ENDBRANCH  24  38
BRANCH  25  49
ATOM     49  C   UNL A   1      42.698  24.198  27.207  1.00  0.00     0.023 A 
ATOM     50  C   UNL A   1      43.465  24.496  26.066  1.00  0.00     0.012 A 
ATOM     51  C   UNL A   1      42.070  22.941  27.306  1.00  0.00     0.148 A 
ATOM     52  C   UNL A   1      43.588  23.568  25.032  1.00  0.00     0.002 A 
ATOM     53  C   UNL A   1      42.246  21.998  26.302  1.00  0.00     0.091 A 
ATOM     54  F   UNL A   1      41.333  22.684  28.397  1.00  0.00    -0.205 F 
ATOM     55  C   UNL A   1      42.991  22.316  25.156  1.00  0.00     0.022 A 
BRANCH  53  56
ATOM     56  S   UNL A   1      41.635  20.316  26.447  1.00  0.00     0.127 S 
ATOM     57  O   UNL A   1      40.198  20.503  26.263  1.00  0.00    -0.237 OA
ATOM     58  O   UNL A   1      42.317  19.649  25.338  1.00  0.00    -0.237 OA
ATOM     59  O   UNL A   1      42.052  19.860  27.766  1.00  0.00    -0.744 OA
ENDBRANCH  53  56
ENDBRANCH  25  49
BRANCH  37  60
ATOM     60  C   UNL A   1      46.614  25.569  32.823  1.00  0.00     0.023 A 
ATOM     61  C   UNL A   1      47.865  26.102  32.453  1.00  0.00     0.012 A 
ATOM     62  C   UNL A   1      46.560  24.505  33.745  1.00  0.00     0.148 A 
ATOM     63  C   UNL A   1      49.044  25.563  32.966  1.00  0.00     0.002 A 
ATOM     64  C   UNL A   1      47.737  24.005  34.289  1.00  0.00     0.091 A 
ATOM     65  F   UNL A   1      45.361  23.999  34.068  1.00  0.00    -0.205 F 
ATOM     66  C   UNL A   1      48.980  24.523  33.892  1.00  0.00     0.022 A 
BRANCH  64  67
ATOM     67  S   UNL A   1      47.745  22.731  35.556  1.00  0.00     0.127 S 
ATOM     68  O   UNL A   1      49.177  22.530  35.767  1.00  0.00    -0.237 OA
ATOM     69  O   UNL A   1      47.052  23.392  36.664  1.00  0.00    -0.237 OA
ATOM     70  O   UNL A   1      47.029  21.597  34.988  1.00  0.00    -0.744 OA
ENDBRANCH  64  67
ENDBRANCH  37  60
ENDBRANCH  11  12
ENDBRANCH   4   6
ENDBRANCH   1   2
BRANCH   1  71
ATOM     71  C   UNL A   1      32.618  28.230  25.436  1.00  0.00     0.023 C 
BRANCH  71  72
ATOM     72  C   UNL A   1      32.802  27.947  23.950  1.00  0.00     0.023 C 
BRANCH  72  73
ATOM     73  C   UNL A   1      31.982  26.780  23.411  1.00  0.00     0.116 C 
BRANCH  73  74
ATOM     74  N   UNL A   1      32.167  26.567  21.984  1.00  0.00    -0.351 N 
ATOM     75  C   UNL A   1      32.806  25.532  21.331  1.00  0.00     0.271 C 
ATOM     76  H   UNL A   1      31.783  27.261  21.401  1.00  0.00     0.163 HD
ATOM     77  O   UNL A   1      32.978  25.619  20.115  1.00  0.00    -0.267 OA
BRANCH  75  78
ATOM     78  C   UNL A   1      33.243  24.376  22.123  1.00  0.00     0.152 A 
ATOM     79  C   UNL A   1      32.565  23.128  22.260  1.00  0.00     0.082 A 
ATOM     80  N   UNL A   1      34.378  24.386  22.855  1.00  0.00    -0.165 NA
ATOM     81  C   UNL A   1      33.239  22.463  23.243  1.00  0.00     0.126 A 
ATOM     82  N   UNL A   1      34.330  23.231  23.529  1.00  0.00    -0.237 N 
ATOM     83  N   UNL A   1      32.994  21.312  23.893  1.00  0.00    -0.363 N 
ATOM     84  C   UNL A   1      35.346  22.844  24.486  1.00  0.00     0.217 C 
ATOM     85  C   UNL A   1      33.919  20.759  24.876  1.00  0.00     0.113 C 
ATOM     86  H   UNL A   1      32.160  20.825  23.697  1.00  0.00     0.162 HD
ATOM     87  C   UNL A   1      35.342  21.308  24.631  1.00  0.00     0.066 C 
BRANCH  84  88
ATOM     88  C   UNL A   1      35.111  23.550  25.803  1.00  0.00     0.410 C 
ATOM     89  F   UNL A   1      35.636  24.804  25.747  1.00  0.00    -0.169 F 
ATOM     90  F   UNL A   1      33.803  23.700  26.101  1.00  0.00    -0.169 F 
ATOM     91  F   UNL A   1      35.704  22.939  26.852  1.00  0.00    -0.169 F 
ENDBRANCH  84  88
BRANCH  85  92
ATOM     92  C   UNL A   1      33.882  19.234  24.861  1.00  0.00    -0.022 A 
ATOM     93  C   UNL A   1      35.059  18.520  24.522  1.00  0.00     0.010 A 
ATOM     94  C   UNL A   1      32.731  18.502  25.216  1.00  0.00     0.056 A 
ATOM     95  C   UNL A   1      35.100  17.120  24.555  1.00  0.00     0.051 A 
ATOM     96  C   UNL A   1      32.809  17.127  25.269  1.00  0.00     0.166 A 
ATOM     97  C   UNL A   1      33.961  16.454  24.948  1.00  0.00     0.165 A 
ATOM     98  O   UNL A   1      31.804  16.293  25.647  1.00  0.00    -0.454 OA
ATOM     99  O   UNL A   1      33.826  15.107  25.075  1.00  0.00    -0.454 OA
ATOM    100  C   UNL A   1      32.469  15.017  25.562  1.00  0.00     0.468 C 
ENDBRANCH  85  92
ENDBRANCH  75  78
ENDBRANCH  73  74
ENDBRANCH  72  73
ENDBRANCH  71  72
ENDBRANCH   1  71
TORSDOF 16
ENDMDL
