MODEL 1
REMARK VINA RESULT:     -13.4      0.000      0.000
REMARK SMILES Cc1ccc([C@H](C)NC(=O)[C@H]2[C@@H]3CC[C@@H](C3)[C@@H]2C(=O)NCCCCNC(=O)c2ccc(-c3c4nc(c(-c5cccc(S(=O)(=O)[O-])c5F)c5ccc([nH]5)c(-c5cccc(S(=O)(=O)[O-])c5F)c5nc(c(-c6cccc(S(=O)(=O)[O-])c6F)c6ccc3[nH]6)C=C5)C=C4)cc2)cc1
REMARK SMILES IDX 22 1 21 2 20 3 18 4 19 5 17 7 11 8 12 9 13 10 16 11 15 12
REMARK SMILES IDX 14 13 9 14 8 15 10 17 6 18 7 19 5 20 1 21 2 22 3 23 92 24
REMARK SMILES IDX 4 25 91 26 23 27 24 28 25 29 26 30 27 32 28 33 29 34 90 35
REMARK SMILES IDX 30 36 89 37 31 38 32 39 33 40 83 41 34 42 88 43 82 44 84 45
REMARK SMILES IDX 35 46 87 47 81 48 80 49 36 51 68 52 48 53 67 54 49 55 52 56
REMARK SMILES IDX 66 57 85 58 50 59 51 60 65 62 86 63 53 64 37 65 38 66 46 67
REMARK SMILES IDX 39 68 41 69 47 70 40 71 42 72 43 73 44 74 45 75 69 76 70 77
REMARK SMILES IDX 78 78 71 79 73 80 79 81 72 82 74 83 75 84 76 85 77 86 54 87
REMARK SMILES IDX 55 88 63 89 56 90 58 91 64 92 57 93 59 94 60 95 61 96 62 97
REMARK H PARENT 20 6 8 16 25 31 84 50 52 61
REMARK Flexibility Score: inf
ROOT
ATOM      1  C   UNL A   1      36.409  22.694  23.726  1.00  0.00     0.023 C 
ENDROOT
BRANCH   1   2
ATOM      2  C   UNL A   1      35.499  23.786  24.314  1.00  0.00     0.116 C 
BRANCH   2   3
ATOM      3  N   UNL A   1      34.401  24.119  23.428  1.00  0.00    -0.356 N 
ATOM      4  C   UNL A   1      33.100  24.427  23.645  1.00  0.00     0.224 C 
ATOM      5  O   UNL A   1      32.388  24.537  22.640  1.00  0.00    -0.275 OA
ATOM      6  H   UNL A   1      34.651  24.121  22.476  1.00  0.00     0.163 HD
BRANCH   4   7
ATOM      7  C   UNL A   1      32.540  24.807  25.016  1.00  0.00     0.094 C 
ATOM      8  C   UNL A   1      31.153  24.353  25.466  1.00  0.00     0.094 C 
ATOM      9  C   UNL A   1      30.418  25.663  25.834  1.00  0.00     0.002 C 
ATOM     10  C   UNL A   1      30.115  26.425  24.523  1.00  0.00     0.005 C 
ATOM     11  C   UNL A   1      31.530  26.519  26.418  1.00  0.00     0.009 C 
ATOM     12  C   UNL A   1      32.427  26.357  25.186  1.00  0.00     0.002 C 
ATOM     13  C   UNL A   1      31.498  26.945  24.103  1.00  0.00     0.005 C 
BRANCH   8  14
ATOM     14  C   UNL A   1      31.037  23.267  26.538  1.00  0.00     0.224 C 
ATOM     15  N   UNL A   1      31.916  22.272  26.785  1.00  0.00    -0.349 N 
ATOM     16  H   UNL A   1      31.549  21.591  27.394  1.00  0.00     0.164 HD
ATOM     17  O   UNL A   1      30.039  23.288  27.274  1.00  0.00    -0.275 OA
BRANCH  15  18
ATOM     18  C   UNL A   1      33.280  21.964  26.365  1.00  0.00     0.109 C 
ATOM     19  C   UNL A   1      34.151  21.724  27.600  1.00  0.00     0.036 C 
BRANCH  18  20
ATOM     20  C   UNL A   1      33.348  20.788  25.406  1.00  0.00    -0.026 A 
ATOM     21  C   UNL A   1      33.473  17.158  23.050  1.00  0.00     0.044 C 
ATOM     22  C   UNL A   1      33.439  18.443  23.824  1.00  0.00    -0.051 A 
ATOM     23  C   UNL A   1      34.538  18.814  24.602  1.00  0.00     0.004 A 
ATOM     24  C   UNL A   1      32.315  19.274  23.803  1.00  0.00     0.004 A 
ATOM     25  C   UNL A   1      34.489  19.968  25.388  1.00  0.00     0.006 A 
ATOM     26  C   UNL A   1      32.271  20.439  24.579  1.00  0.00     0.006 A 
ENDBRANCH  18  20
ENDBRANCH  15  18
ENDBRANCH   8  14
ENDBRANCH   4   7
ENDBRANCH   2   3
ENDBRANCH   1   2
BRANCH   1  27
ATOM     27  C   UNL A   1      37.439  22.061  24.676  1.00  0.00     0.023 C 
BRANCH  27  28
ATOM     28  C   UNL A   1      37.595  22.742  26.022  1.00  0.00     0.116 C 
BRANCH  28  29
ATOM     29  N   UNL A   1      38.898  22.454  26.631  1.00  0.00    -0.352 N 
ATOM     30  C   UNL A   1      40.036  23.234  26.690  1.00  0.00     0.251 C 
ATOM     31  H   UNL A   1      38.973  21.571  27.061  1.00  0.00     0.163 HD
ATOM     32  O   UNL A   1      41.130  22.672  26.531  1.00  0.00    -0.269 OA
BRANCH  30  33
ATOM     33  C   UNL A   1      39.944  24.674  26.991  1.00  0.00     0.039 A 
ATOM     34  C   UNL A   1      40.510  25.675  26.196  1.00  0.00     0.014 A 
ATOM     35  C   UNL A   1      39.437  25.028  28.228  1.00  0.00     0.014 A 
ATOM     36  C   UNL A   1      40.686  26.945  26.754  1.00  0.00     0.010 A 
ATOM     37  C   UNL A   1      39.241  26.312  28.590  1.00  0.00     0.010 A 
ATOM     38  C   UNL A   1      40.101  27.204  27.990  1.00  0.00    -0.014 A 
BRANCH  38  39
ATOM     39  C   UNL A   1      40.358  28.306  28.888  1.00  0.00     0.031 A 
ATOM     40  C   UNL A   1      39.451  29.443  28.847  1.00  0.00     0.074 A 
ATOM     41  C   UNL A   1      41.182  28.040  29.933  1.00  0.00     0.049 A 
ATOM     42  N   UNL A   1      39.712  30.582  29.369  1.00  0.00    -0.248 NA
ATOM     43  C   UNL A   1      38.149  29.362  28.192  1.00  0.00     0.031 C 
ATOM     44  C   UNL A   1      41.211  28.640  31.258  1.00  0.00     0.029 A 
ATOM     45  N   UNL A   1      42.193  27.093  30.009  1.00  0.00    -0.354 N 
ATOM     46  C   UNL A   1      38.526  31.277  29.388  1.00  0.00     0.074 A 
ATOM     47  C   UNL A   1      37.616  30.532  28.548  1.00  0.00     0.031 C 
ATOM     48  C   UNL A   1      42.326  28.235  31.901  1.00  0.00     0.029 A 
ATOM     49  C   UNL A   1      43.137  27.487  30.951  1.00  0.00     0.049 A 
ATOM     50  H   UNL A   1      42.235  26.267  29.476  1.00  0.00     0.167 HD
ATOM     51  C   UNL A   1      38.377  32.289  30.283  1.00  0.00     0.034 A 
ATOM     52  C   UNL A   1      44.383  27.857  30.513  1.00  0.00     0.034 A 
ATOM     53  C   UNL A   1      39.587  32.415  31.115  1.00  0.00     0.049 A 
ATOM     54  C   UNL A   1      44.580  29.365  30.575  1.00  0.00     0.074 A 
ATOM     55  C   UNL A   1      39.924  31.873  32.348  1.00  0.00     0.029 A 
ATOM     56  N   UNL A   1      40.791  32.797  30.524  1.00  0.00    -0.354 N 
ATOM     57  N   UNL A   1      43.635  30.213  30.883  1.00  0.00    -0.248 NA
ATOM     58  C   UNL A   1      45.851  30.038  30.320  1.00  0.00     0.031 C 
ATOM     59  C   UNL A   1      41.345  31.821  32.434  1.00  0.00     0.029 A 
ATOM     60  C   UNL A   1      41.879  32.358  31.275  1.00  0.00     0.049 A 
ATOM     61  H   UNL A   1      40.864  33.310  29.687  1.00  0.00     0.167 HD
ATOM     62  C   UNL A   1      44.081  31.494  30.740  1.00  0.00     0.074 A 
ATOM     63  C   UNL A   1      45.501  31.328  30.470  1.00  0.00     0.031 C 
ATOM     64  C   UNL A   1      43.247  32.579  30.804  1.00  0.00     0.034 A 
BRANCH  51  65
ATOM     65  C   UNL A   1      37.010  32.832  30.636  1.00  0.00     0.023 A 
ATOM     66  C   UNL A   1      36.483  32.505  31.902  1.00  0.00     0.012 A 
ATOM     67  C   UNL A   1      36.178  33.596  29.782  1.00  0.00     0.148 A 
ATOM     68  C   UNL A   1      35.176  32.836  32.273  1.00  0.00     0.002 A 
ATOM     69  C   UNL A   1      34.848  33.863  30.123  1.00  0.00     0.091 A 
ATOM     70  F   UNL A   1      36.688  34.116  28.656  1.00  0.00    -0.205 F 
ATOM     71  C   UNL A   1      34.346  33.484  31.372  1.00  0.00     0.022 A 
BRANCH  69  72
ATOM     72  S   UNL A   1      33.676  34.592  28.963  1.00  0.00     0.127 S 
ATOM     73  O   UNL A   1      32.556  34.956  29.834  1.00  0.00    -0.237 OA
ATOM     74  O   UNL A   1      34.426  35.728  28.432  1.00  0.00    -0.237 OA
ATOM     75  O   UNL A   1      33.359  33.536  28.009  1.00  0.00    -0.744 OA
ENDBRANCH  69  72
ENDBRANCH  51  65
BRANCH  52  76
ATOM     76  C   UNL A   1      44.865  26.943  29.415  1.00  0.00     0.023 A 
ATOM     77  C   UNL A   1      44.883  25.559  29.732  1.00  0.00     0.012 A 
ATOM     78  C   UNL A   1      44.794  27.321  28.063  1.00  0.00     0.148 A 
ATOM     79  C   UNL A   1      44.589  24.599  28.760  1.00  0.00     0.002 A 
ATOM     80  C   UNL A   1      44.526  26.352  27.094  1.00  0.00     0.091 A 
ATOM     81  F   UNL A   1      44.925  28.616  27.746  1.00  0.00    -0.205 F 
ATOM     82  C   UNL A   1      44.356  25.004  27.450  1.00  0.00     0.022 A 
BRANCH  80  83
ATOM     83  S   UNL A   1      44.291  26.812  25.372  1.00  0.00     0.127 S 
ATOM     84  O   UNL A   1      43.597  25.639  24.846  1.00  0.00    -0.237 OA
ATOM     85  O   UNL A   1      43.461  28.013  25.462  1.00  0.00    -0.237 OA
ATOM     86  O   UNL A   1      45.632  27.050  24.860  1.00  0.00    -0.744 OA
ENDBRANCH  80  83
ENDBRANCH  52  76
BRANCH  64  87
ATOM     87  C   UNL A   1      43.677  33.978  30.432  1.00  0.00     0.023 A 
ATOM     88  C   UNL A   1      44.209  34.871  31.382  1.00  0.00     0.012 A 
ATOM     89  C   UNL A   1      43.683  34.395  29.078  1.00  0.00     0.148 A 
ATOM     90  C   UNL A   1      44.627  36.156  31.028  1.00  0.00     0.002 A 
ATOM     91  C   UNL A   1      44.223  35.623  28.715  1.00  0.00     0.091 A 
ATOM     92  F   UNL A   1      43.145  33.609  28.135  1.00  0.00    -0.205 F 
ATOM     93  C   UNL A   1      44.653  36.525  29.690  1.00  0.00     0.022 A 
BRANCH  91  94
ATOM     94  S   UNL A   1      44.527  36.034  26.993  1.00  0.00     0.127 S 
ATOM     95  O   UNL A   1      43.173  36.060  26.446  1.00  0.00    -0.237 OA
ATOM     96  O   UNL A   1      45.170  37.346  27.096  1.00  0.00    -0.237 OA
ATOM     97  O   UNL A   1      45.400  34.980  26.492  1.00  0.00    -0.744 OA
ENDBRANCH  91  94
ENDBRANCH  64  87
ENDBRANCH  38  39
ENDBRANCH  30  33
ENDBRANCH  28  29
ENDBRANCH  27  28
ENDBRANCH   1  27
TORSDOF 17
ENDMDL
MODEL 2
REMARK VINA RESULT:     -13.1      3.850      9.045
REMARK SMILES Cc1ccc([C@H](C)NC(=O)[C@H]2[C@@H]3CC[C@@H](C3)[C@@H]2C(=O)NCCCCNC(=O)c2ccc(-c3c4nc(c(-c5cccc(S(=O)(=O)[O-])c5F)c5ccc([nH]5)c(-c5cccc(S(=O)(=O)[O-])c5F)c5nc(c(-c6cccc(S(=O)(=O)[O-])c6F)c6ccc3[nH]6)C=C5)C=C4)cc2)cc1
REMARK SMILES IDX 22 1 21 2 20 3 18 4 19 5 17 7 11 8 12 9 13 10 16 11 15 12
REMARK SMILES IDX 14 13 9 14 8 15 10 17 6 18 7 19 5 20 1 21 2 22 3 23 92 24
REMARK SMILES IDX 4 25 91 26 23 27 24 28 25 29 26 30 27 32 28 33 29 34 90 35
REMARK SMILES IDX 30 36 89 37 31 38 32 39 33 40 83 41 34 42 88 43 82 44 84 45
REMARK SMILES IDX 35 46 87 47 81 48 80 49 36 51 68 52 48 53 67 54 49 55 52 56
REMARK SMILES IDX 66 57 85 58 50 59 51 60 65 62 86 63 53 64 37 65 38 66 46 67
REMARK SMILES IDX 39 68 41 69 47 70 40 71 42 72 43 73 44 74 45 75 69 76 70 77
REMARK SMILES IDX 78 78 71 79 73 80 79 81 72 82 74 83 75 84 76 85 77 86 54 87
REMARK SMILES IDX 55 88 63 89 56 90 58 91 64 92 57 93 59 94 60 95 61 96 62 97
REMARK H PARENT 20 6 8 16 25 31 84 50 52 61
REMARK Flexibility Score: inf
ROOT
ATOM      1  C   UNL A   1      31.726  29.295  27.195  1.00  0.00     0.023 C 
ENDROOT
BRANCH   1   2
ATOM      2  C   UNL A   1      32.263  27.855  27.255  1.00  0.00     0.116 C 
BRANCH   2   3
ATOM      3  N   UNL A   1      31.200  26.871  27.207  1.00  0.00    -0.356 N 
ATOM      4  C   UNL A   1      30.596  26.212  26.189  1.00  0.00     0.224 C 
ATOM      5  O   UNL A   1      29.616  25.519  26.489  1.00  0.00    -0.275 OA
ATOM      6  H   UNL A   1      30.843  26.635  28.093  1.00  0.00     0.163 HD
BRANCH   4   7
ATOM      7  C   UNL A   1      31.163  26.148  24.771  1.00  0.00     0.094 C 
ATOM      8  C   UNL A   1      31.881  27.340  24.142  1.00  0.00     0.094 C 
ATOM      9  C   UNL A   1      31.112  27.604  22.826  1.00  0.00     0.002 C 
ATOM     10  C   UNL A   1      29.731  28.195  23.190  1.00  0.00     0.005 C 
ATOM     11  C   UNL A   1      30.722  26.204  22.379  1.00  0.00     0.009 C 
ATOM     12  C   UNL A   1      30.047  25.867  23.713  1.00  0.00     0.002 C 
ATOM     13  C   UNL A   1      28.979  26.981  23.758  1.00  0.00     0.005 C 
BRANCH   8  14
ATOM     14  C   UNL A   1      33.400  27.284  23.960  1.00  0.00     0.224 C 
ATOM     15  N   UNL A   1      34.179  26.181  23.972  1.00  0.00    -0.349 N 
ATOM     16  H   UNL A   1      35.138  26.401  24.018  1.00  0.00     0.164 HD
ATOM     17  O   UNL A   1      33.997  28.355  23.775  1.00  0.00    -0.275 OA
BRANCH  15  18
ATOM     18  C   UNL A   1      33.941  24.741  23.934  1.00  0.00     0.109 C 
ATOM     19  C   UNL A   1      33.619  24.317  22.500  1.00  0.00     0.036 C 
BRANCH  18  20
ATOM     20  C   UNL A   1      35.100  23.940  24.499  1.00  0.00    -0.026 A 
ATOM     21  C   UNL A   1      38.668  21.840  25.766  1.00  0.00     0.044 C 
ATOM     22  C   UNL A   1      37.406  22.544  25.364  1.00  0.00    -0.051 A 
ATOM     23  C   UNL A   1      36.693  22.107  24.245  1.00  0.00     0.004 A 
ATOM     24  C   UNL A   1      36.934  23.651  26.076  1.00  0.00     0.004 A 
ATOM     25  C   UNL A   1      35.559  22.800  23.815  1.00  0.00     0.006 A 
ATOM     26  C   UNL A   1      35.788  24.337  25.654  1.00  0.00     0.006 A 
ENDBRANCH  18  20
ENDBRANCH  15  18
ENDBRANCH   8  14
ENDBRANCH   4   7
ENDBRANCH   2   3
ENDBRANCH   1   2
BRANCH   1  27
ATOM     27  C   UNL A   1      32.735  30.400  26.843  1.00  0.00     0.023 C 
BRANCH  27  28
ATOM     28  C   UNL A   1      34.194  29.987  26.867  1.00  0.00     0.116 C 
BRANCH  28  29
ATOM     29  N   UNL A   1      35.069  31.099  27.253  1.00  0.00    -0.352 N 
ATOM     30  C   UNL A   1      36.022  31.167  28.251  1.00  0.00     0.251 C 
ATOM     31  H   UNL A   1      34.960  31.921  26.722  1.00  0.00     0.163 HD
ATOM     32  O   UNL A   1      36.100  32.218  28.904  1.00  0.00    -0.269 OA
BRANCH  30  33
ATOM     33  C   UNL A   1      36.946  30.042  28.483  1.00  0.00     0.039 A 
ATOM     34  C   UNL A   1      36.997  29.306  29.671  1.00  0.00     0.014 A 
ATOM     35  C   UNL A   1      37.941  29.840  27.544  1.00  0.00     0.014 A 
ATOM     36  C   UNL A   1      38.133  28.530  29.922  1.00  0.00     0.010 A 
ATOM     37  C   UNL A   1      38.802  28.805  27.611  1.00  0.00     0.010 A 
ATOM     38  C   UNL A   1      39.054  28.365  28.892  1.00  0.00    -0.014 A 
BRANCH  38  39
ATOM     39  C   UNL A   1      40.406  27.862  28.973  1.00  0.00     0.031 A 
ATOM     40  C   UNL A   1      40.613  26.434  28.785  1.00  0.00     0.074 A 
ATOM     41  C   UNL A   1      41.391  28.787  28.848  1.00  0.00     0.049 A 
ATOM     42  N   UNL A   1      41.692  25.823  29.103  1.00  0.00    -0.248 NA
ATOM     43  C   UNL A   1      39.582  25.579  28.208  1.00  0.00     0.031 C 
ATOM     44  C   UNL A   1      42.739  28.631  28.323  1.00  0.00     0.029 A 
ATOM     45  N   UNL A   1      41.345  30.137  29.162  1.00  0.00    -0.354 N 
ATOM     46  C   UNL A   1      41.621  24.584  28.512  1.00  0.00     0.074 A 
ATOM     47  C   UNL A   1      40.254  24.435  28.069  1.00  0.00     0.031 C 
ATOM     48  C   UNL A   1      43.447  29.748  28.589  1.00  0.00     0.029 A 
ATOM     49  C   UNL A   1      42.627  30.601  29.436  1.00  0.00     0.049 A 
ATOM     50  H   UNL A   1      40.527  30.685  29.187  1.00  0.00     0.167 HD
ATOM     51  C   UNL A   1      42.776  23.909  28.271  1.00  0.00     0.034 A 
ATOM     52  C   UNL A   1      42.930  30.961  30.725  1.00  0.00     0.034 A 
ATOM     53  C   UNL A   1      43.935  24.714  28.696  1.00  0.00     0.049 A 
ATOM     54  C   UNL A   1      43.813  29.925  31.408  1.00  0.00     0.074 A 
ATOM     55  C   UNL A   1      44.747  25.604  28.008  1.00  0.00     0.029 A 
ATOM     56  N   UNL A   1      44.110  25.006  30.049  1.00  0.00    -0.354 N 
ATOM     57  N   UNL A   1      44.133  28.775  30.878  1.00  0.00    -0.248 NA
ATOM     58  C   UNL A   1      44.422  30.106  32.723  1.00  0.00     0.031 C 
ATOM     59  C   UNL A   1      45.312  26.508  28.952  1.00  0.00     0.029 A 
ATOM     60  C   UNL A   1      44.875  26.157  30.218  1.00  0.00     0.049 A 
ATOM     61  H   UNL A   1      43.742  24.469  30.788  1.00  0.00     0.167 HD
ATOM     62  C   UNL A   1      44.832  28.018  31.772  1.00  0.00     0.074 A 
ATOM     63  C   UNL A   1      45.061  28.933  32.881  1.00  0.00     0.031 C 
ATOM     64  C   UNL A   1      45.122  26.698  31.556  1.00  0.00     0.034 A 
BRANCH  51  65
ATOM     65  C   UNL A   1      42.822  22.753  27.296  1.00  0.00     0.023 A 
ATOM     66  C   UNL A   1      42.087  21.594  27.619  1.00  0.00     0.012 A 
ATOM     67  C   UNL A   1      43.590  22.706  26.107  1.00  0.00     0.148 A 
ATOM     68  C   UNL A   1      42.172  20.423  26.860  1.00  0.00     0.002 A 
ATOM     69  C   UNL A   1      43.733  21.512  25.391  1.00  0.00     0.091 A 
ATOM     70  F   UNL A   1      44.143  23.831  25.633  1.00  0.00    -0.205 F 
ATOM     71  C   UNL A   1      43.021  20.370  25.766  1.00  0.00     0.022 A 
BRANCH  69  72
ATOM     72  S   UNL A   1      44.906  21.331  24.033  1.00  0.00     0.127 S 
ATOM     73  O   UNL A   1      46.188  21.598  24.689  1.00  0.00    -0.237 OA
ATOM     74  O   UNL A   1      44.709  19.940  23.632  1.00  0.00    -0.237 OA
ATOM     75  O   UNL A   1      44.528  22.339  23.050  1.00  0.00    -0.744 OA
ENDBRANCH  69  72
ENDBRANCH  51  65
BRANCH  52  76
ATOM     76  C   UNL A   1      41.790  31.713  31.361  1.00  0.00     0.023 A 
ATOM     77  C   UNL A   1      41.240  32.766  30.583  1.00  0.00     0.012 A 
ATOM     78  C   UNL A   1      40.991  31.128  32.358  1.00  0.00     0.148 A 
ATOM     79  C   UNL A   1      39.873  33.050  30.628  1.00  0.00     0.002 A 
ATOM     80  C   UNL A   1      39.630  31.436  32.414  1.00  0.00     0.091 A 
ATOM     81  F   UNL A   1      41.546  30.239  33.192  1.00  0.00    -0.205 F 
ATOM     82  C   UNL A   1      39.058  32.344  31.507  1.00  0.00     0.022 A 
BRANCH  80  83
ATOM     83  S   UNL A   1      38.545  30.606  33.584  1.00  0.00     0.127 S 
ATOM     84  O   UNL A   1      37.259  31.235  33.289  1.00  0.00    -0.237 OA
ATOM     85  O   UNL A   1      38.637  29.204  33.180  1.00  0.00    -0.237 OA
ATOM     86  O   UNL A   1      39.116  30.890  34.891  1.00  0.00    -0.744 OA
ENDBRANCH  80  83
ENDBRANCH  52  76
BRANCH  64  87
ATOM     87  C   UNL A   1      45.697  25.789  32.617  1.00  0.00     0.023 A 
ATOM     88  C   UNL A   1      47.083  25.572  32.741  1.00  0.00     0.012 A 
ATOM     89  C   UNL A   1      44.863  25.229  33.615  1.00  0.00     0.148 A 
ATOM     90  C   UNL A   1      47.610  24.751  33.740  1.00  0.00     0.002 A 
ATOM     91  C   UNL A   1      45.406  24.522  34.681  1.00  0.00     0.091 A 
ATOM     92  F   UNL A   1      43.532  25.359  33.523  1.00  0.00    -0.205 F 
ATOM     93  C   UNL A   1      46.773  24.241  34.723  1.00  0.00     0.022 A 
BRANCH  91  94
ATOM     94  S   UNL A   1      44.409  24.078  36.108  1.00  0.00     0.127 S 
ATOM     95  O   UNL A   1      44.038  25.388  36.636  1.00  0.00    -0.237 OA
ATOM     96  O   UNL A   1      43.307  23.332  35.497  1.00  0.00    -0.237 OA
ATOM     97  O   UNL A   1      45.279  23.271  36.952  1.00  0.00    -0.744 OA
ENDBRANCH  91  94
ENDBRANCH  64  87
ENDBRANCH  38  39
ENDBRANCH  30  33
ENDBRANCH  28  29
ENDBRANCH  27  28
ENDBRANCH   1  27
TORSDOF 17
ENDMDL
MODEL 3
REMARK VINA RESULT:     -13.0      4.227      9.434
REMARK SMILES Cc1ccc([C@H](C)NC(=O)[C@H]2[C@@H]3CC[C@@H](C3)[C@@H]2C(=O)NCCCCNC(=O)c2ccc(-c3c4nc(c(-c5cccc(S(=O)(=O)[O-])c5F)c5ccc([nH]5)c(-c5cccc(S(=O)(=O)[O-])c5F)c5nc(c(-c6cccc(S(=O)(=O)[O-])c6F)c6ccc3[nH]6)C=C5)C=C4)cc2)cc1
REMARK SMILES IDX 22 1 21 2 20 3 18 4 19 5 17 7 11 8 12 9 13 10 16 11 15 12
REMARK SMILES IDX 14 13 9 14 8 15 10 17 6 18 7 19 5 20 1 21 2 22 3 23 92 24
REMARK SMILES IDX 4 25 91 26 23 27 24 28 25 29 26 30 27 32 28 33 29 34 90 35
REMARK SMILES IDX 30 36 89 37 31 38 32 39 33 40 83 41 34 42 88 43 82 44 84 45
REMARK SMILES IDX 35 46 87 47 81 48 80 49 36 51 68 52 48 53 67 54 49 55 52 56
REMARK SMILES IDX 66 57 85 58 50 59 51 60 65 62 86 63 53 64 37 65 38 66 46 67
REMARK SMILES IDX 39 68 41 69 47 70 40 71 42 72 43 73 44 74 45 75 69 76 70 77
REMARK SMILES IDX 78 78 71 79 73 80 79 81 72 82 74 83 75 84 76 85 77 86 54 87
REMARK SMILES IDX 55 88 63 89 56 90 58 91 64 92 57 93 59 94 60 95 61 96 62 97
REMARK H PARENT 20 6 8 16 25 31 84 50 52 61
REMARK Flexibility Score: inf
ROOT
ATOM      1  C   UNL A   1      32.304  30.280  26.299  1.00  0.00     0.023 C 
ENDROOT
BRANCH   1   2
ATOM      2  C   UNL A   1      32.985  29.577  25.114  1.00  0.00     0.116 C 
BRANCH   2   3
ATOM      3  N   UNL A   1      32.118  29.491  23.956  1.00  0.00    -0.356 N 
ATOM      4  C   UNL A   1      31.773  28.472  23.132  1.00  0.00     0.224 C 
ATOM      5  O   UNL A   1      31.095  28.772  22.142  1.00  0.00    -0.275 OA
ATOM      6  H   UNL A   1      31.693  30.348  23.719  1.00  0.00     0.163 HD
BRANCH   4   7
ATOM      7  C   UNL A   1      32.026  27.001  23.460  1.00  0.00     0.094 C 
ATOM      8  C   UNL A   1      31.647  25.888  22.484  1.00  0.00     0.094 C 
ATOM      9  C   UNL A   1      30.728  24.952  23.304  1.00  0.00     0.002 C 
ATOM     10  C   UNL A   1      29.381  25.680  23.525  1.00  0.00     0.005 C 
ATOM     11  C   UNL A   1      31.331  25.025  24.697  1.00  0.00     0.009 C 
ATOM     12  C   UNL A   1      31.260  26.555  24.748  1.00  0.00     0.002 C 
ATOM     13  C   UNL A   1      29.742  26.756  24.561  1.00  0.00     0.005 C 
BRANCH   8  14
ATOM     14  C   UNL A   1      32.756  25.148  21.732  1.00  0.00     0.224 C 
ATOM     15  N   UNL A   1      33.405  24.033  22.132  1.00  0.00    -0.349 N 
ATOM     16  H   UNL A   1      34.196  23.842  21.578  1.00  0.00     0.164 HD
ATOM     17  O   UNL A   1      33.105  25.601  20.632  1.00  0.00    -0.275 OA
BRANCH  15  18
ATOM     18  C   UNL A   1      33.214  23.044  23.189  1.00  0.00     0.109 C 
ATOM     19  C   UNL A   1      32.467  21.834  22.623  1.00  0.00     0.036 C 
BRANCH  18  20
ATOM     20  C   UNL A   1      34.518  22.629  23.846  1.00  0.00    -0.026 A 
ATOM     21  C   UNL A   1      38.283  21.130  25.371  1.00  0.00     0.044 C 
ATOM     22  C   UNL A   1      36.975  21.680  24.883  1.00  0.00    -0.051 A 
ATOM     23  C   UNL A   1      35.802  20.945  25.062  1.00  0.00     0.004 A 
ATOM     24  C   UNL A   1      36.907  22.913  24.227  1.00  0.00     0.004 A 
ATOM     25  C   UNL A   1      34.591  21.410  24.544  1.00  0.00     0.006 A 
ATOM     26  C   UNL A   1      35.690  23.388  23.721  1.00  0.00     0.006 A 
ENDBRANCH  18  20
ENDBRANCH  15  18
ENDBRANCH   8  14
ENDBRANCH   4   7
ENDBRANCH   2   3
ENDBRANCH   1   2
BRANCH   1  27
ATOM     27  C   UNL A   1      33.221  30.812  27.413  1.00  0.00     0.023 C 
BRANCH  27  28
ATOM     28  C   UNL A   1      34.553  30.100  27.561  1.00  0.00     0.116 C 
BRANCH  28  29
ATOM     29  N   UNL A   1      35.683  31.027  27.441  1.00  0.00    -0.352 N 
ATOM     30  C   UNL A   1      36.908  31.012  28.078  1.00  0.00     0.251 C 
ATOM     31  H   UNL A   1      35.547  31.773  26.813  1.00  0.00     0.163 HD
ATOM     32  O   UNL A   1      37.377  32.097  28.455  1.00  0.00    -0.269 OA
BRANCH  30  33
ATOM     33  C   UNL A   1      37.651  29.750  28.247  1.00  0.00     0.039 A 
ATOM     34  C   UNL A   1      37.347  28.789  29.217  1.00  0.00     0.014 A 
ATOM     35  C   UNL A   1      38.826  29.610  27.531  1.00  0.00     0.014 A 
ATOM     36  C   UNL A   1      38.317  27.833  29.530  1.00  0.00     0.010 A 
ATOM     37  C   UNL A   1      39.555  28.475  27.550  1.00  0.00     0.010 A 
ATOM     38  C   UNL A   1      39.447  27.756  28.720  1.00  0.00    -0.014 A 
BRANCH  38  39
ATOM     39  C   UNL A   1      40.691  27.070  28.982  1.00  0.00     0.031 A 
ATOM     40  C   UNL A   1      40.749  25.641  28.713  1.00  0.00     0.074 A 
ATOM     41  C   UNL A   1      41.789  27.858  29.099  1.00  0.00     0.049 A 
ATOM     42  N   UNL A   1      41.672  24.871  29.154  1.00  0.00    -0.248 NA
ATOM     43  C   UNL A   1      39.737  24.971  27.903  1.00  0.00     0.031 C 
ATOM     44  C   UNL A   1      43.178  27.552  28.794  1.00  0.00     0.029 A 
ATOM     45  N   UNL A   1      41.856  29.180  29.512  1.00  0.00    -0.354 N 
ATOM     46  C   UNL A   1      41.552  23.691  28.458  1.00  0.00     0.074 A 
ATOM     47  C   UNL A   1      40.276  23.756  27.783  1.00  0.00     0.031 C 
ATOM     48  C   UNL A   1      43.962  28.544  29.266  1.00  0.00     0.029 A 
ATOM     49  C   UNL A   1      43.117  29.448  30.033  1.00  0.00     0.049 A 
ATOM     50  H   UNL A   1      41.121  29.831  29.447  1.00  0.00     0.167 HD
ATOM     51  C   UNL A   1      42.639  22.881  28.357  1.00  0.00     0.034 A 
ATOM     52  C   UNL A   1      43.233  29.684  31.380  1.00  0.00     0.034 A 
ATOM     53  C   UNL A   1      43.796  23.494  29.034  1.00  0.00     0.049 A 
ATOM     54  C   UNL A   1      43.847  28.498  32.111  1.00  0.00     0.074 A 
ATOM     55  C   UNL A   1      44.821  24.305  28.566  1.00  0.00     0.029 A 
ATOM     56  N   UNL A   1      43.766  23.676  30.416  1.00  0.00    -0.354 N 
ATOM     57  N   UNL A   1      44.110  27.349  31.548  1.00  0.00    -0.248 NA
ATOM     58  C   UNL A   1      44.233  28.514  33.519  1.00  0.00     0.031 C 
ATOM     59  C   UNL A   1      45.319  25.065  29.662  1.00  0.00     0.029 A 
ATOM     60  C   UNL A   1      44.626  24.699  30.805  1.00  0.00     0.049 A 
ATOM     61  H   UNL A   1      43.210  23.150  31.036  1.00  0.00     0.167 HD
ATOM     62  C   UNL A   1      44.542  26.452  32.479  1.00  0.00     0.074 A 
ATOM     63  C   UNL A   1      44.685  27.257  33.683  1.00  0.00     0.031 C 
ATOM     64  C   UNL A   1      44.700  25.120  32.206  1.00  0.00     0.034 A 
BRANCH  51  65
ATOM     65  C   UNL A   1      42.712  21.791  27.310  1.00  0.00     0.023 A 
ATOM     66  C   UNL A   1      41.802  20.719  27.416  1.00  0.00     0.012 A 
ATOM     67  C   UNL A   1      43.657  21.718  26.258  1.00  0.00     0.148 A 
ATOM     68  C   UNL A   1      41.875  19.595  26.588  1.00  0.00     0.002 A 
ATOM     69  C   UNL A   1      43.778  20.562  25.478  1.00  0.00     0.091 A 
ATOM     70  F   UNL A   1      44.410  22.789  25.971  1.00  0.00    -0.205 F 
ATOM     71  C   UNL A   1      42.884  19.500  25.642  1.00  0.00     0.022 A 
BRANCH  69  72
ATOM     72  S   UNL A   1      45.132  20.314  24.314  1.00  0.00     0.127 S 
ATOM     73  O   UNL A   1      45.179  18.855  24.195  1.00  0.00    -0.237 OA
ATOM     74  O   UNL A   1      44.650  21.004  23.120  1.00  0.00    -0.237 OA
ATOM     75  O   UNL A   1      46.309  20.889  24.953  1.00  0.00    -0.744 OA
ENDBRANCH  69  72
ENDBRANCH  51  65
BRANCH  52  76
ATOM     76  C   UNL A   1      42.100  30.545  31.878  1.00  0.00     0.023 A 
ATOM     77  C   UNL A   1      41.902  31.764  31.178  1.00  0.00     0.012 A 
ATOM     78  C   UNL A   1      41.019  29.995  32.587  1.00  0.00     0.148 A 
ATOM     79  C   UNL A   1      40.617  32.278  30.986  1.00  0.00     0.002 A 
ATOM     80  C   UNL A   1      39.741  30.530  32.411  1.00  0.00     0.091 A 
ATOM     81  F   UNL A   1      41.232  28.928  33.368  1.00  0.00    -0.205 F 
ATOM     82  C   UNL A   1      39.530  31.627  31.558  1.00  0.00     0.022 A 
BRANCH  80  83
ATOM     83  S   UNL A   1      38.308  29.772  33.189  1.00  0.00     0.127 S 
ATOM     84  O   UNL A   1      37.209  30.402  32.461  1.00  0.00    -0.237 OA
ATOM     85  O   UNL A   1      38.489  28.351  32.897  1.00  0.00    -0.237 OA
ATOM     86  O   UNL A   1      38.425  30.111  34.599  1.00  0.00    -0.744 OA
ENDBRANCH  80  83
ENDBRANCH  52  76
BRANCH  64  87
ATOM     87  C   UNL A   1      44.963  24.079  33.268  1.00  0.00     0.023 A 
ATOM     88  C   UNL A   1      44.008  23.100  33.605  1.00  0.00     0.012 A 
ATOM     89  C   UNL A   1      46.241  23.970  33.870  1.00  0.00     0.148 A 
ATOM     90  C   UNL A   1      44.267  22.125  34.571  1.00  0.00     0.002 A 
ATOM     91  C   UNL A   1      46.534  22.919  34.730  1.00  0.00     0.091 A 
ATOM     92  F   UNL A   1      47.175  24.900  33.626  1.00  0.00    -0.205 F 
ATOM     93  C   UNL A   1      45.538  22.022  35.120  1.00  0.00     0.022 A 
BRANCH  91  94
ATOM     94  S   UNL A   1      48.221  22.585  35.251  1.00  0.00     0.127 S 
ATOM     95  O   UNL A   1      48.046  21.414  36.106  1.00  0.00    -0.237 OA
ATOM     96  O   UNL A   1      48.892  22.317  33.977  1.00  0.00    -0.237 OA
ATOM     97  O   UNL A   1      48.669  23.801  35.916  1.00  0.00    -0.744 OA
ENDBRANCH  91  94
ENDBRANCH  64  87
ENDBRANCH  38  39
ENDBRANCH  30  33
ENDBRANCH  28  29
ENDBRANCH  27  28
ENDBRANCH   1  27
TORSDOF 17
ENDMDL
