MODEL 1
REMARK VINA RESULT:     -12.5      0.000      0.000
REMARK SMILES CC(C)C[C@H](C(=O)NCCCCNC(=O)c1ccc(-c2c3nc(c(-c4cccc(S(=O)(=O)[O-])c4F)c4ccc([nH]4)c(-c4cccc(S(=O)(=O)[O-])c4F)c4nc(c(-c5cccc(S(=O)(=O)[O-])c5F)c5ccc2[nH]5)C=C4)C=C3)cc1)N1C(=O)/C(=C2\C(=O)Nc3ccc(Br)cc32)SC1=S
REMARK SMILES IDX 11 1 10 2 9 3 8 4 6 5 7 6 5 8 4 9 2 10 1 11 3 12 79 13 80 14
REMARK SMILES IDX 95 15 81 16 82 17 94 18 96 19 83 20 84 21 93 22 85 23 86 24
REMARK SMILES IDX 87 25 92 26 88 28 90 29 89 30 91 31 12 32 13 33 14 34 15 36
REMARK SMILES IDX 16 37 17 38 78 39 18 40 77 41 19 42 20 43 21 44 71 45 22 46
REMARK SMILES IDX 76 47 70 48 72 49 23 50 75 51 69 52 68 53 24 55 56 56 36 57
REMARK SMILES IDX 55 58 37 59 40 60 54 61 73 62 38 63 39 64 53 66 74 67 41 68
REMARK SMILES IDX 25 69 26 70 34 71 27 72 29 73 35 74 28 75 30 76 31 77 32 78
REMARK SMILES IDX 33 79 57 80 58 81 66 82 59 83 61 84 67 85 60 86 62 87 63 88
REMARK SMILES IDX 64 89 65 90 42 91 43 92 51 93 44 94 46 95 52 96 45 97 47 98
REMARK SMILES IDX 48 99 49 100 50 101
REMARK H PARENT 8 7 86 27 13 35 72 54 40 65
REMARK Flexibility Score: inf
ROOT
ATOM      1  C   UNL A   1      35.687  23.198  24.404  1.00  0.00     0.023 C 
ENDROOT
BRANCH   1   2
ATOM      2  C   UNL A   1      35.126  24.598  24.603  1.00  0.00     0.023 C 
BRANCH   2   3
ATOM      3  C   UNL A   1      34.123  25.103  23.569  1.00  0.00     0.116 C 
BRANCH   3   4
ATOM      4  N   UNL A   1      34.028  26.554  23.623  1.00  0.00    -0.354 N 
ATOM      5  C   UNL A   1      33.122  27.334  24.284  1.00  0.00     0.243 C 
ATOM      6  O   UNL A   1      32.888  28.435  23.775  1.00  0.00    -0.273 OA
ATOM      7  H   UNL A   1      34.713  27.041  23.112  1.00  0.00     0.163 HD
BRANCH   5   8
ATOM      8  C   UNL A   1      32.378  26.856  25.571  1.00  0.00     0.181 C 
BRANCH   8   9
ATOM      9  C   UNL A   1      31.564  28.051  26.152  1.00  0.00     0.038 C 
BRANCH   9  10
ATOM     10  C   UNL A   1      32.186  29.015  27.212  1.00  0.00    -0.015 C 
ATOM     11  C   UNL A   1      33.686  28.820  27.429  1.00  0.00     0.007 C 
ATOM     12  C   UNL A   1      31.971  30.476  26.784  1.00  0.00     0.007 C 
ENDBRANCH   9  10
ENDBRANCH   8   9
BRANCH   8  13
ATOM     13  N   UNL A   1      31.708  25.590  25.198  1.00  0.00    -0.280 N 
ATOM     14  C   UNL A   1      31.781  24.534  26.086  1.00  0.00     0.267 C 
ATOM     15  C   UNL A   1      30.741  25.292  24.297  1.00  0.00     0.149 C 
ATOM     16  O   UNL A   1      31.727  24.681  27.295  1.00  0.00    -0.268 OA
ATOM     17  C   UNL A   1      31.721  23.234  25.337  1.00  0.00     0.093 C 
ATOM     18  S   UNL A   1      30.993  23.616  23.804  1.00  0.00    -0.053 SA
ATOM     19  S   UNL A   1      29.312  26.099  24.000  1.00  0.00    -0.052 S 
ATOM     20  C   UNL A   1      32.195  22.039  25.729  1.00  0.00     0.069 C 
ATOM     21  C   UNL A   1      32.737  21.740  27.114  1.00  0.00     0.257 C 
ATOM     22  C   UNL A   1      32.387  20.792  24.948  1.00  0.00     0.013 A 
ATOM     23  O   UNL A   1      32.693  22.409  28.123  1.00  0.00    -0.269 OA
ATOM     24  N   UNL A   1      33.259  20.466  27.043  1.00  0.00    -0.321 N 
ATOM     25  C   UNL A   1      33.060  19.900  25.796  1.00  0.00     0.049 A 
ATOM     26  C   UNL A   1      32.107  20.396  23.650  1.00  0.00     0.026 A 
ATOM     27  H   UNL A   1      33.717  20.013  27.789  1.00  0.00     0.170 HD
ATOM     28  C   UNL A   1      33.460  18.634  25.416  1.00  0.00     0.028 A 
ATOM     29  C   UNL A   1      32.499  19.112  23.243  1.00  0.00     0.018 A 
ATOM     30  C   UNL A   1      33.171  18.236  24.111  1.00  0.00     0.018 A 
ATOM     31  Br  UNL A   1      32.116  18.546  21.477  1.00  0.00    -0.051 Br
ENDBRANCH   8  13
ENDBRANCH   5   8
ENDBRANCH   3   4
ENDBRANCH   2   3
ENDBRANCH   1   2
BRANCH   1  32
ATOM     32  C   UNL A   1      36.034  22.457  25.682  1.00  0.00     0.116 C 
BRANCH  32  33
ATOM     33  N   UNL A   1      37.032  21.411  25.497  1.00  0.00    -0.352 N 
ATOM     34  C   UNL A   1      38.379  21.406  25.778  1.00  0.00     0.251 C 
ATOM     35  H   UNL A   1      36.688  20.574  25.110  1.00  0.00     0.163 HD
ATOM     36  O   UNL A   1      39.064  20.434  25.466  1.00  0.00    -0.269 OA
BRANCH  34  37
ATOM     37  C   UNL A   1      39.017  22.582  26.412  1.00  0.00     0.039 A 
ATOM     38  C   UNL A   1      40.091  22.380  27.284  1.00  0.00     0.014 A 
ATOM     39  C   UNL A   1      38.585  23.877  26.129  1.00  0.00     0.014 A 
ATOM     40  C   UNL A   1      40.785  23.479  27.798  1.00  0.00     0.010 A 
ATOM     41  C   UNL A   1      39.342  24.964  26.548  1.00  0.00     0.010 A 
ATOM     42  C   UNL A   1      40.446  24.781  27.394  1.00  0.00    -0.014 A 
BRANCH  42  43
ATOM     43  C   UNL A   1      41.220  25.968  27.838  1.00  0.00     0.031 A 
ATOM     44  C   UNL A   1      40.541  27.050  28.636  1.00  0.00     0.074 A 
ATOM     45  C   UNL A   1      42.493  26.132  27.427  1.00  0.00     0.049 A 
ATOM     46  N   UNL A   1      41.006  28.211  29.015  1.00  0.00    -0.248 NA
ATOM     47  C   UNL A   1      39.138  26.815  29.021  1.00  0.00     0.031 C 
ATOM     48  C   UNL A   1      43.234  25.203  26.570  1.00  0.00     0.029 A 
ATOM     49  N   UNL A   1      43.381  27.154  27.649  1.00  0.00    -0.354 N 
ATOM     50  C   UNL A   1      39.943  28.863  29.630  1.00  0.00     0.074 A 
ATOM     51  C   UNL A   1      38.799  27.984  29.541  1.00  0.00     0.031 C 
ATOM     52  C   UNL A   1      44.465  25.694  26.347  1.00  0.00     0.029 A 
ATOM     53  C   UNL A   1      44.593  26.982  27.020  1.00  0.00     0.049 A 
ATOM     54  H   UNL A   1      43.171  27.939  28.206  1.00  0.00     0.167 HD
ATOM     55  C   UNL A   1      39.929  30.066  30.249  1.00  0.00     0.034 A 
ATOM     56  C   UNL A   1      45.684  27.773  26.990  1.00  0.00     0.034 A 
ATOM     57  C   UNL A   1      41.089  30.897  30.413  1.00  0.00     0.049 A 
ATOM     58  C   UNL A   1      45.671  29.063  27.765  1.00  0.00     0.074 A 
ATOM     59  C   UNL A   1      41.209  32.077  31.124  1.00  0.00     0.029 A 
ATOM     60  N   UNL A   1      42.335  30.628  29.868  1.00  0.00    -0.354 N 
ATOM     61  N   UNL A   1      44.704  29.583  28.482  1.00  0.00    -0.248 NA
ATOM     62  C   UNL A   1      46.907  29.858  27.756  1.00  0.00     0.031 C 
ATOM     63  C   UNL A   1      42.530  32.524  31.007  1.00  0.00     0.029 A 
ATOM     64  C   UNL A   1      43.232  31.618  30.227  1.00  0.00     0.049 A 
ATOM     65  H   UNL A   1      42.550  29.848  29.307  1.00  0.00     0.167 HD
ATOM     66  C   UNL A   1      45.224  30.748  29.035  1.00  0.00     0.074 A 
ATOM     67  C   UNL A   1      46.599  30.845  28.587  1.00  0.00     0.031 C 
ATOM     68  C   UNL A   1      44.613  31.666  29.824  1.00  0.00     0.034 A 
BRANCH  55  69
ATOM     69  C   UNL A   1      38.632  30.516  30.866  1.00  0.00     0.023 A 
ATOM     70  C   UNL A   1      38.368  30.211  32.217  1.00  0.00     0.012 A 
ATOM     71  C   UNL A   1      37.696  31.270  30.133  1.00  0.00     0.148 A 
ATOM     72  C   UNL A   1      37.179  30.617  32.820  1.00  0.00     0.002 A 
ATOM     73  C   UNL A   1      36.530  31.708  30.753  1.00  0.00     0.091 A 
ATOM     74  F   UNL A   1      37.950  31.529  28.842  1.00  0.00    -0.205 F 
ATOM     75  C   UNL A   1      36.265  31.373  32.091  1.00  0.00     0.022 A 
BRANCH  73  76
ATOM     76  S   UNL A   1      35.326  32.749  29.918  1.00  0.00     0.127 S 
ATOM     77  O   UNL A   1      36.151  33.886  29.514  1.00  0.00    -0.237 OA
ATOM     78  O   UNL A   1      34.887  31.892  28.815  1.00  0.00    -0.237 OA
ATOM     79  O   UNL A   1      34.297  33.036  30.907  1.00  0.00    -0.744 OA
ENDBRANCH  73  76
ENDBRANCH  55  69
BRANCH  56  80
ATOM     80  C   UNL A   1      46.913  27.316  26.278  1.00  0.00     0.023 A 
ATOM     81  C   UNL A   1      47.075  27.643  24.918  1.00  0.00     0.012 A 
ATOM     82  C   UNL A   1      47.932  26.606  26.939  1.00  0.00     0.148 A 
ATOM     83  C   UNL A   1      48.217  27.248  24.221  1.00  0.00     0.002 A 
ATOM     84  C   UNL A   1      49.093  26.262  26.254  1.00  0.00     0.091 A 
ATOM     85  F   UNL A   1      47.755  26.291  28.231  1.00  0.00    -0.205 F 
ATOM     86  C   UNL A   1      49.230  26.568  24.891  1.00  0.00     0.022 A 
BRANCH  84  87
ATOM     87  S   UNL A   1      50.504  25.512  27.074  1.00  0.00     0.127 S 
ATOM     88  O   UNL A   1      51.450  25.366  25.972  1.00  0.00    -0.237 OA
ATOM     89  O   UNL A   1      50.861  26.533  28.062  1.00  0.00    -0.237 OA
ATOM     90  O   UNL A   1      50.001  24.275  27.655  1.00  0.00    -0.744 OA
ENDBRANCH  84  87
ENDBRANCH  56  80
BRANCH  68  91
ATOM     91  C   UNL A   1      45.426  32.847  30.279  1.00  0.00     0.023 A 
ATOM     92  C   UNL A   1      46.177  32.755  31.467  1.00  0.00     0.012 A 
ATOM     93  C   UNL A   1      45.515  34.010  29.491  1.00  0.00     0.148 A 
ATOM     94  C   UNL A   1      46.987  33.812  31.877  1.00  0.00     0.002 A 
ATOM     95  C   UNL A   1      46.358  35.044  29.883  1.00  0.00     0.091 A 
ATOM     96  F   UNL A   1      44.776  34.087  28.374  1.00  0.00    -0.205 F 
ATOM     97  C   UNL A   1      47.088  34.951  31.079  1.00  0.00     0.022 A 
BRANCH  95  98
ATOM     98  S   UNL A   1      46.615  36.505  28.868  1.00  0.00     0.127 S 
ATOM     99  O   UNL A   1      47.805  37.088  29.483  1.00  0.00    -0.237 OA
ATOM    100  O   UNL A   1      46.834  35.930  27.540  1.00  0.00    -0.237 OA
ATOM    101  O   UNL A   1      45.394  37.290  28.989  1.00  0.00    -0.744 OA
ENDBRANCH  95  98
ENDBRANCH  68  91
ENDBRANCH  42  43
ENDBRANCH  34  37
ENDBRANCH  32  33
ENDBRANCH   1  32
TORSDOF 17
ENDMDL
MODEL 2
REMARK VINA RESULT:     -12.4      1.921      7.659
REMARK SMILES CC(C)C[C@H](C(=O)NCCCCNC(=O)c1ccc(-c2c3nc(c(-c4cccc(S(=O)(=O)[O-])c4F)c4ccc([nH]4)c(-c4cccc(S(=O)(=O)[O-])c4F)c4nc(c(-c5cccc(S(=O)(=O)[O-])c5F)c5ccc2[nH]5)C=C4)C=C3)cc1)N1C(=O)/C(=C2\C(=O)Nc3ccc(Br)cc32)SC1=S
REMARK SMILES IDX 11 1 10 2 9 3 8 4 6 5 7 6 5 8 4 9 2 10 1 11 3 12 79 13 80 14
REMARK SMILES IDX 95 15 81 16 82 17 94 18 96 19 83 20 84 21 93 22 85 23 86 24
REMARK SMILES IDX 87 25 92 26 88 28 90 29 89 30 91 31 12 32 13 33 14 34 15 36
REMARK SMILES IDX 16 37 17 38 78 39 18 40 77 41 19 42 20 43 21 44 71 45 22 46
REMARK SMILES IDX 76 47 70 48 72 49 23 50 75 51 69 52 68 53 24 55 56 56 36 57
REMARK SMILES IDX 55 58 37 59 40 60 54 61 73 62 38 63 39 64 53 66 74 67 41 68
REMARK SMILES IDX 25 69 26 70 34 71 27 72 29 73 35 74 28 75 30 76 31 77 32 78
REMARK SMILES IDX 33 79 57 80 58 81 66 82 59 83 61 84 67 85 60 86 62 87 63 88
REMARK SMILES IDX 64 89 65 90 42 91 43 92 51 93 44 94 46 95 52 96 45 97 47 98
REMARK SMILES IDX 48 99 49 100 50 101
REMARK H PARENT 8 7 86 27 13 35 72 54 40 65
REMARK Flexibility Score: inf
ROOT
ATOM      1  C   UNL A   1      36.184  23.688  24.837  1.00  0.00     0.023 C 
ENDROOT
BRANCH   1   2
ATOM      2  C   UNL A   1      35.187  24.830  24.974  1.00  0.00     0.023 C 
BRANCH   2   3
ATOM      3  C   UNL A   1      34.330  25.160  23.755  1.00  0.00     0.116 C 
BRANCH   3   4
ATOM      4  N   UNL A   1      34.086  26.592  23.681  1.00  0.00    -0.354 N 
ATOM      5  C   UNL A   1      33.074  27.324  24.234  1.00  0.00     0.243 C 
ATOM      6  O   UNL A   1      32.756  28.350  23.624  1.00  0.00    -0.273 OA
ATOM      7  H   UNL A   1      34.743  27.105  23.158  1.00  0.00     0.163 HD
BRANCH   5   8
ATOM      8  C   UNL A   1      32.319  26.876  25.525  1.00  0.00     0.181 C 
BRANCH   8   9
ATOM      9  C   UNL A   1      31.489  28.081  26.063  1.00  0.00     0.038 C 
BRANCH   9  10
ATOM     10  C   UNL A   1      32.060  29.032  27.162  1.00  0.00    -0.015 C 
ATOM     11  C   UNL A   1      33.548  28.832  27.449  1.00  0.00     0.007 C 
ATOM     12  C   UNL A   1      31.868  30.497  26.742  1.00  0.00     0.007 C 
ENDBRANCH   9  10
ENDBRANCH   8   9
BRANCH   8  13
ATOM     13  N   UNL A   1      31.663  25.595  25.181  1.00  0.00    -0.280 N 
ATOM     14  C   UNL A   1      31.761  24.555  26.085  1.00  0.00     0.267 C 
ATOM     15  C   UNL A   1      30.690  25.269  24.296  1.00  0.00     0.149 C 
ATOM     16  O   UNL A   1      31.719  24.721  27.292  1.00  0.00    -0.268 OA
ATOM     17  C   UNL A   1      31.712  23.243  25.357  1.00  0.00     0.093 C 
ATOM     18  S   UNL A   1      30.961  23.589  23.827  1.00  0.00    -0.053 SA
ATOM     19  S   UNL A   1      29.247  26.050  24.002  1.00  0.00    -0.052 S 
ATOM     20  C   UNL A   1      32.208  22.061  25.763  1.00  0.00     0.069 C 
ATOM     21  C   UNL A   1      32.769  21.793  27.146  1.00  0.00     0.257 C 
ATOM     22  C   UNL A   1      32.409  20.804  24.999  1.00  0.00     0.013 A 
ATOM     23  O   UNL A   1      32.728  22.476  28.145  1.00  0.00    -0.269 OA
ATOM     24  N   UNL A   1      33.310  20.524  27.089  1.00  0.00    -0.321 N 
ATOM     25  C   UNL A   1      33.104  19.936  25.854  1.00  0.00     0.049 A 
ATOM     26  C   UNL A   1      32.120  20.383  23.712  1.00  0.00     0.026 A 
ATOM     27  H   UNL A   1      33.783  20.090  27.837  1.00  0.00     0.170 HD
ATOM     28  C   UNL A   1      33.518  18.670  25.489  1.00  0.00     0.028 A 
ATOM     29  C   UNL A   1      32.526  19.099  23.321  1.00  0.00     0.018 A 
ATOM     30  C   UNL A   1      33.220  18.247  24.195  1.00  0.00     0.018 A 
ATOM     31  Br  UNL A   1      32.132  18.499  21.569  1.00  0.00    -0.051 Br
ENDBRANCH   8  13
ENDBRANCH   5   8
ENDBRANCH   3   4
ENDBRANCH   2   3
ENDBRANCH   1   2
BRANCH   1  32
ATOM     32  C   UNL A   1      36.590  23.030  26.142  1.00  0.00     0.116 C 
BRANCH  32  33
ATOM     33  N   UNL A   1      37.863  22.324  26.068  1.00  0.00    -0.352 N 
ATOM     34  C   UNL A   1      39.139  22.756  26.345  1.00  0.00     0.251 C 
ATOM     35  H   UNL A   1      37.799  21.387  25.772  1.00  0.00     0.163 HD
ATOM     36  O   UNL A   1      40.095  22.013  26.137  1.00  0.00    -0.269 OA
BRANCH  34  37
ATOM     37  C   UNL A   1      39.372  24.129  26.849  1.00  0.00     0.039 A 
ATOM     38  C   UNL A   1      39.121  24.406  28.196  1.00  0.00     0.014 A 
ATOM     39  C   UNL A   1      39.863  25.131  26.012  1.00  0.00     0.014 A 
ATOM     40  C   UNL A   1      39.448  25.659  28.721  1.00  0.00     0.010 A 
ATOM     41  C   UNL A   1      40.291  26.336  26.557  1.00  0.00     0.010 A 
ATOM     42  C   UNL A   1      40.082  26.619  27.915  1.00  0.00    -0.014 A 
BRANCH  42  43
ATOM     43  C   UNL A   1      40.536  27.926  28.457  1.00  0.00     0.031 A 
ATOM     44  C   UNL A   1      42.008  28.197  28.625  1.00  0.00     0.074 A 
ATOM     45  C   UNL A   1      39.630  28.817  28.907  1.00  0.00     0.049 A 
ATOM     46  N   UNL A   1      42.600  29.220  29.184  1.00  0.00    -0.248 NA
ATOM     47  C   UNL A   1      42.937  27.162  28.138  1.00  0.00     0.031 C 
ATOM     48  C   UNL A   1      38.177  28.632  28.891  1.00  0.00     0.029 A 
ATOM     49  N   UNL A   1      39.799  30.045  29.495  1.00  0.00    -0.354 N 
ATOM     50  C   UNL A   1      43.958  28.926  29.168  1.00  0.00     0.074 A 
ATOM     51  C   UNL A   1      44.102  27.614  28.577  1.00  0.00     0.031 C 
ATOM     52  C   UNL A   1      37.588  29.710  29.434  1.00  0.00     0.029 A 
ATOM     53  C   UNL A   1      38.619  30.650  29.862  1.00  0.00     0.049 A 
ATOM     54  H   UNL A   1      40.682  30.455  29.642  1.00  0.00     0.167 HD
ATOM     55  C   UNL A   1      44.998  29.694  29.570  1.00  0.00     0.034 A 
ATOM     56  C   UNL A   1      38.393  31.830  30.474  1.00  0.00     0.034 A 
ATOM     57  C   UNL A   1      44.857  31.032  30.074  1.00  0.00     0.049 A 
ATOM     58  C   UNL A   1      39.566  32.704  30.827  1.00  0.00     0.074 A 
ATOM     59  C   UNL A   1      45.851  31.937  30.400  1.00  0.00     0.029 A 
ATOM     60  N   UNL A   1      43.646  31.661  30.316  1.00  0.00    -0.354 N 
ATOM     61  N   UNL A   1      40.845  32.478  30.649  1.00  0.00    -0.248 NA
ATOM     62  C   UNL A   1      39.265  34.009  31.432  1.00  0.00     0.031 C 
ATOM     63  C   UNL A   1      45.238  33.116  30.840  1.00  0.00     0.029 A 
ATOM     64  C   UNL A   1      43.865  32.944  30.784  1.00  0.00     0.049 A 
ATOM     65  H   UNL A   1      42.760  31.254  30.175  1.00  0.00     0.167 HD
ATOM     66  C   UNL A   1      41.500  33.622  31.089  1.00  0.00     0.074 A 
ATOM     67  C   UNL A   1      40.474  34.550  31.521  1.00  0.00     0.031 C 
ATOM     68  C   UNL A   1      42.830  33.876  31.150  1.00  0.00     0.034 A 
BRANCH  55  69
ATOM     69  C   UNL A   1      46.384  29.132  29.403  1.00  0.00     0.023 A 
ATOM     70  C   UNL A   1      46.938  28.344  30.432  1.00  0.00     0.012 A 
ATOM     71  C   UNL A   1      47.121  29.343  28.222  1.00  0.00     0.148 A 
ATOM     72  C   UNL A   1      48.217  27.806  30.307  1.00  0.00     0.002 A 
ATOM     73  C   UNL A   1      48.380  28.768  28.086  1.00  0.00     0.091 A 
ATOM     74  F   UNL A   1      46.590  30.117  27.263  1.00  0.00    -0.205 F 
ATOM     75  C   UNL A   1      48.934  28.008  29.130  1.00  0.00     0.022 A 
BRANCH  73  76
ATOM     76  S   UNL A   1      49.349  28.912  26.579  1.00  0.00     0.127 S 
ATOM     77  O   UNL A   1      50.476  28.028  26.869  1.00  0.00    -0.237 OA
ATOM     78  O   UNL A   1      48.422  28.406  25.565  1.00  0.00    -0.237 OA
ATOM     79  O   UNL A   1      49.673  30.326  26.450  1.00  0.00    -0.744 OA
ENDBRANCH  73  76
ENDBRANCH  55  69
BRANCH  56  80
ATOM     80  C   UNL A   1      36.993  32.292  30.702  1.00  0.00     0.023 A 
ATOM     81  C   UNL A   1      36.435  32.172  31.989  1.00  0.00     0.012 A 
ATOM     82  C   UNL A   1      36.232  32.884  29.678  1.00  0.00     0.148 A 
ATOM     83  C   UNL A   1      35.135  32.606  32.246  1.00  0.00     0.002 A 
ATOM     84  C   UNL A   1      34.956  33.366  29.953  1.00  0.00     0.091 A 
ATOM     85  F   UNL A   1      36.773  32.978  28.454  1.00  0.00    -0.205 F 
ATOM     86  C   UNL A   1      34.400  33.213  31.232  1.00  0.00     0.022 A 
BRANCH  84  87
ATOM     87  S   UNL A   1      33.997  34.286  28.744  1.00  0.00     0.127 S 
ATOM     88  O   UNL A   1      33.769  33.280  27.712  1.00  0.00    -0.237 OA
ATOM     89  O   UNL A   1      32.810  34.659  29.516  1.00  0.00    -0.237 OA
ATOM     90  O   UNL A   1      34.836  35.415  28.364  1.00  0.00    -0.744 OA
ENDBRANCH  84  87
ENDBRANCH  56  80
BRANCH  68  91
ATOM     91  C   UNL A   1      43.262  35.215  31.681  1.00  0.00     0.023 A 
ATOM     92  C   UNL A   1      43.484  35.374  33.063  1.00  0.00     0.012 A 
ATOM     93  C   UNL A   1      43.531  36.286  30.808  1.00  0.00     0.148 A 
ATOM     94  C   UNL A   1      43.945  36.587  33.571  1.00  0.00     0.002 A 
ATOM     95  C   UNL A   1      44.031  37.480  31.316  1.00  0.00     0.091 A 
ATOM     96  F   UNL A   1      43.293  36.122  29.498  1.00  0.00    -0.205 F 
ATOM     97  C   UNL A   1      44.231  37.635  32.697  1.00  0.00     0.022 A 
BRANCH  95  98
ATOM     98  S   UNL A   1      44.511  38.846  30.252  1.00  0.00     0.127 S 
ATOM     99  O   UNL A   1      45.351  38.172  29.264  1.00  0.00    -0.237 OA
ATOM    100  O   UNL A   1      43.222  39.314  29.740  1.00  0.00    -0.237 OA
ATOM    101  O   UNL A   1      45.195  39.799  31.116  1.00  0.00    -0.744 OA
ENDBRANCH  95  98
ENDBRANCH  68  91
ENDBRANCH  42  43
ENDBRANCH  34  37
ENDBRANCH  32  33
ENDBRANCH   1  32
TORSDOF 17
ENDMDL
MODEL 3
REMARK VINA RESULT:     -12.4      4.451      6.907
REMARK SMILES CC(C)C[C@H](C(=O)NCCCCNC(=O)c1ccc(-c2c3nc(c(-c4cccc(S(=O)(=O)[O-])c4F)c4ccc([nH]4)c(-c4cccc(S(=O)(=O)[O-])c4F)c4nc(c(-c5cccc(S(=O)(=O)[O-])c5F)c5ccc2[nH]5)C=C4)C=C3)cc1)N1C(=O)/C(=C2\C(=O)Nc3ccc(Br)cc32)SC1=S
REMARK SMILES IDX 11 1 10 2 9 3 8 4 6 5 7 6 5 8 4 9 2 10 1 11 3 12 79 13 80 14
REMARK SMILES IDX 95 15 81 16 82 17 94 18 96 19 83 20 84 21 93 22 85 23 86 24
REMARK SMILES IDX 87 25 92 26 88 28 90 29 89 30 91 31 12 32 13 33 14 34 15 36
REMARK SMILES IDX 16 37 17 38 78 39 18 40 77 41 19 42 20 43 21 44 71 45 22 46
REMARK SMILES IDX 76 47 70 48 72 49 23 50 75 51 69 52 68 53 24 55 56 56 36 57
REMARK SMILES IDX 55 58 37 59 40 60 54 61 73 62 38 63 39 64 53 66 74 67 41 68
REMARK SMILES IDX 25 69 26 70 34 71 27 72 29 73 35 74 28 75 30 76 31 77 32 78
REMARK SMILES IDX 33 79 57 80 58 81 66 82 59 83 61 84 67 85 60 86 62 87 63 88
REMARK SMILES IDX 64 89 65 90 42 91 43 92 51 93 44 94 46 95 52 96 45 97 47 98
REMARK SMILES IDX 48 99 49 100 50 101
REMARK H PARENT 8 7 86 27 13 35 72 54 40 65
REMARK Flexibility Score: inf
ROOT
ATOM      1  C   UNL A   1      31.864  29.405  25.330  1.00  0.00     0.023 C 
ENDROOT
BRANCH   1   2
ATOM      2  C   UNL A   1      33.012  29.290  24.338  1.00  0.00     0.023 C 
BRANCH   2   3
ATOM      3  C   UNL A   1      33.885  28.040  24.421  1.00  0.00     0.116 C 
BRANCH   3   4
ATOM      4  N   UNL A   1      33.568  27.129  23.332  1.00  0.00    -0.354 N 
ATOM      5  C   UNL A   1      32.823  25.985  23.356  1.00  0.00     0.243 C 
ATOM      6  O   UNL A   1      33.131  25.126  22.523  1.00  0.00    -0.273 OA
ATOM      7  H   UNL A   1      33.943  27.373  22.456  1.00  0.00     0.163 HD
BRANCH   5   8
ATOM      8  C   UNL A   1      31.689  25.738  24.400  1.00  0.00     0.181 C 
BRANCH   8   9
ATOM      9  C   UNL A   1      30.311  25.929  23.697  1.00  0.00     0.038 C 
BRANCH   9  10
ATOM     10  C   UNL A   1      29.586  27.312  23.697  1.00  0.00    -0.015 C 
ATOM     11  C   UNL A   1      29.909  28.188  22.487  1.00  0.00     0.007 C 
ATOM     12  C   UNL A   1      28.063  27.108  23.721  1.00  0.00     0.007 C 
ENDBRANCH   9  10
ENDBRANCH   8   9
BRANCH   8  13
ATOM     13  N   UNL A   1      32.030  24.463  25.068  1.00  0.00    -0.280 N 
ATOM     14  C   UNL A   1      33.310  24.319  25.570  1.00  0.00     0.267 C 
ATOM     15  C   UNL A   1      31.275  23.472  25.600  1.00  0.00     0.149 C 
ATOM     16  O   UNL A   1      33.918  25.231  26.102  1.00  0.00    -0.268 OA
ATOM     17  C   UNL A   1      33.706  22.871  25.544  1.00  0.00     0.093 C 
ATOM     18  S   UNL A   1      32.212  21.982  25.474  1.00  0.00    -0.053 SA
ATOM     19  S   UNL A   1      29.943  23.601  26.596  1.00  0.00    -0.052 S 
ATOM     20  C   UNL A   1      34.949  22.362  25.506  1.00  0.00     0.069 C 
ATOM     21  C   UNL A   1      36.218  23.177  25.664  1.00  0.00     0.257 C 
ATOM     22  C   UNL A   1      35.399  20.974  25.232  1.00  0.00     0.013 A 
ATOM     23  O   UNL A   1      36.360  24.330  26.007  1.00  0.00    -0.269 OA
ATOM     24  N   UNL A   1      37.256  22.307  25.402  1.00  0.00    -0.321 N 
ATOM     25  C   UNL A   1      36.798  21.025  25.155  1.00  0.00     0.049 A 
ATOM     26  C   UNL A   1      34.761  19.765  25.005  1.00  0.00     0.026 A 
ATOM     27  H   UNL A   1      38.207  22.566  25.392  1.00  0.00     0.170 HD
ATOM     28  C   UNL A   1      37.591  19.930  24.870  1.00  0.00     0.028 A 
ATOM     29  C   UNL A   1      35.546  18.638  24.718  1.00  0.00     0.018 A 
ATOM     30  C   UNL A   1      36.947  18.714  24.648  1.00  0.00     0.018 A 
ATOM     31  Br  UNL A   1      34.696  16.974  24.415  1.00  0.00    -0.051 Br
ENDBRANCH   8  13
ENDBRANCH   5   8
ENDBRANCH   3   4
ENDBRANCH   2   3
ENDBRANCH   1   2
BRANCH   1  32
ATOM     32  C   UNL A   1      32.256  29.890  26.713  1.00  0.00     0.116 C 
BRANCH  32  33
ATOM     33  N   UNL A   1      32.299  31.342  26.832  1.00  0.00    -0.352 N 
ATOM     34  C   UNL A   1      33.270  32.165  27.354  1.00  0.00     0.251 C 
ATOM     35  H   UNL A   1      31.508  31.809  26.480  1.00  0.00     0.163 HD
ATOM     36  O   UNL A   1      33.070  33.375  27.430  1.00  0.00    -0.269 OA
BRANCH  34  37
ATOM     37  C   UNL A   1      34.536  31.596  27.870  1.00  0.00     0.039 A 
ATOM     38  C   UNL A   1      35.645  32.436  28.015  1.00  0.00     0.014 A 
ATOM     39  C   UNL A   1      34.627  30.254  28.239  1.00  0.00     0.014 A 
ATOM     40  C   UNL A   1      36.811  31.950  28.612  1.00  0.00     0.010 A 
ATOM     41  C   UNL A   1      35.744  29.803  28.932  1.00  0.00     0.010 A 
ATOM     42  C   UNL A   1      36.853  30.642  29.121  1.00  0.00    -0.014 A 
BRANCH  42  43
ATOM     43  C   UNL A   1      38.037  30.119  29.850  1.00  0.00     0.031 A 
ATOM     44  C   UNL A   1      38.309  30.573  31.260  1.00  0.00     0.074 A 
ATOM     45  C   UNL A   1      38.926  29.333  29.211  1.00  0.00     0.049 A 
ATOM     46  N   UNL A   1      39.343  30.327  32.021  1.00  0.00    -0.248 NA
ATOM     47  C   UNL A   1      37.307  31.457  31.882  1.00  0.00     0.031 C 
ATOM     48  C   UNL A   1      38.827  28.901  27.814  1.00  0.00     0.029 A 
ATOM     49  N   UNL A   1      40.107  28.783  29.643  1.00  0.00    -0.354 N 
ATOM     50  C   UNL A   1      39.144  31.066  33.181  1.00  0.00     0.074 A 
ATOM     51  C   UNL A   1      37.910  31.799  33.010  1.00  0.00     0.031 C 
ATOM     52  C   UNL A   1      39.896  28.148  27.508  1.00  0.00     0.029 A 
ATOM     53  C   UNL A   1      40.770  28.064  28.674  1.00  0.00     0.049 A 
ATOM     54  H   UNL A   1      40.449  28.894  30.559  1.00  0.00     0.167 HD
ATOM     55  C   UNL A   1      39.898  31.103  34.304  1.00  0.00     0.034 A 
ATOM     56  C   UNL A   1      41.948  27.411  28.721  1.00  0.00     0.034 A 
ATOM     57  C   UNL A   1      41.076  30.306  34.505  1.00  0.00     0.049 A 
ATOM     58  C   UNL A   1      42.720  27.392  30.013  1.00  0.00     0.074 A 
ATOM     59  C   UNL A   1      41.846  30.180  35.647  1.00  0.00     0.029 A 
ATOM     60  N   UNL A   1      41.650  29.490  33.542  1.00  0.00    -0.354 N 
ATOM     61  N   UNL A   1      42.427  27.965  31.156  1.00  0.00    -0.248 NA
ATOM     62  C   UNL A   1      43.965  26.611  30.033  1.00  0.00     0.031 C 
ATOM     63  C   UNL A   1      42.888  29.287  35.373  1.00  0.00     0.029 A 
ATOM     64  C   UNL A   1      42.763  28.855  34.063  1.00  0.00     0.049 A 
ATOM     65  H   UNL A   1      41.315  29.379  32.623  1.00  0.00     0.167 HD
ATOM     66  C   UNL A   1      43.432  27.588  32.040  1.00  0.00     0.074 A 
ATOM     67  C   UNL A   1      44.330  26.720  31.304  1.00  0.00     0.031 C 
ATOM     68  C   UNL A   1      43.609  27.945  33.335  1.00  0.00     0.034 A 
BRANCH  55  69
ATOM     69  C   UNL A   1      39.422  31.975  35.435  1.00  0.00     0.023 A 
ATOM     70  C   UNL A   1      38.519  31.448  36.380  1.00  0.00     0.012 A 
ATOM     71  C   UNL A   1      39.892  33.294  35.589  1.00  0.00     0.148 A 
ATOM     72  C   UNL A   1      38.062  32.228  37.440  1.00  0.00     0.002 A 
ATOM     73  C   UNL A   1      39.464  34.052  36.673  1.00  0.00     0.091 A 
ATOM     74  F   UNL A   1      40.730  33.789  34.667  1.00  0.00    -0.205 F 
ATOM     75  C   UNL A   1      38.542  33.526  37.593  1.00  0.00     0.022 A 
BRANCH  73  76
ATOM     76  S   UNL A   1      40.083  35.709  36.995  1.00  0.00     0.127 S 
ATOM     77  O   UNL A   1      41.523  35.474  37.083  1.00  0.00    -0.237 OA
ATOM     78  O   UNL A   1      39.656  36.437  35.799  1.00  0.00    -0.237 OA
ATOM     79  O   UNL A   1      39.438  36.141  38.227  1.00  0.00    -0.744 OA
ENDBRANCH  73  76
ENDBRANCH  55  69
BRANCH  56  80
ATOM     80  C   UNL A   1      42.418  26.641  27.534  1.00  0.00     0.023 A 
ATOM     81  C   UNL A   1      43.216  27.288  26.572  1.00  0.00     0.012 A 
ATOM     82  C   UNL A   1      42.121  25.275  27.371  1.00  0.00     0.148 A 
ATOM     83  C   UNL A   1      43.688  26.598  25.455  1.00  0.00     0.002 A 
ATOM     84  C   UNL A   1      42.639  24.578  26.284  1.00  0.00     0.091 A 
ATOM     85  F   UNL A   1      41.347  24.677  28.289  1.00  0.00    -0.205 F 
ATOM     86  C   UNL A   1      43.409  25.241  25.317  1.00  0.00     0.022 A 
BRANCH  84  87
ATOM     87  S   UNL A   1      42.448  22.801  26.105  1.00  0.00     0.127 S 
ATOM     88  O   UNL A   1      41.008  22.634  26.281  1.00  0.00    -0.237 OA
ATOM     89  O   UNL A   1      42.933  22.577  24.742  1.00  0.00    -0.237 OA
ATOM     90  O   UNL A   1      43.291  22.215  27.139  1.00  0.00    -0.744 OA
ENDBRANCH  84  87
ENDBRANCH  56  80
BRANCH  68  91
ATOM     91  C   UNL A   1      44.802  27.383  34.058  1.00  0.00     0.023 A 
ATOM     92  C   UNL A   1      46.002  28.118  34.090  1.00  0.00     0.012 A 
ATOM     93  C   UNL A   1      44.710  26.174  34.774  1.00  0.00     0.148 A 
ATOM     94  C   UNL A   1      47.102  27.648  34.806  1.00  0.00     0.002 A 
ATOM     95  C   UNL A   1      45.797  25.732  35.521  1.00  0.00     0.091 A 
ATOM     96  F   UNL A   1      43.566  25.477  34.714  1.00  0.00    -0.205 F 
ATOM     97  C   UNL A   1      46.995  26.463  35.531  1.00  0.00     0.022 A 
BRANCH  95  98
ATOM     98  S   UNL A   1      45.713  24.265  36.555  1.00  0.00     0.127 S 
ATOM     99  O   UNL A   1      45.513  23.212  35.563  1.00  0.00    -0.237 OA
ATOM    100  O   UNL A   1      47.027  24.258  37.198  1.00  0.00    -0.237 OA
ATOM    101  O   UNL A   1      44.599  24.489  37.469  1.00  0.00    -0.744 OA
ENDBRANCH  95  98
ENDBRANCH  68  91
ENDBRANCH  42  43
ENDBRANCH  34  37
ENDBRANCH  32  33
ENDBRANCH   1  32
TORSDOF 17
ENDMDL
