MODEL 1
REMARK VINA RESULT:     -11.4      0.000      0.000
REMARK SMILES O=C(NCCCCNC(=O)[C@@H]1C[NH2+]CCN1C(=O)N[C@@H]1CCOC1)c1ccc(-c2c3nc(c(-c4cccc(S(=O)(=O)[O-])c4F)c4ccc([nH]4)c(-c4cccc(S(=O)(=O)[O-])c4F)c4nc(c(-c5cccc(S(=O)(=O)[O-])c5F)c5ccc2[nH]5)C=C4)C=C3)cc1
REMARK SMILES IDX 5 1 4 2 3 3 1 4 2 5 25 7 26 8 87 9 27 10 86 11 28 12 29 13
REMARK SMILES IDX 30 14 80 15 31 16 85 17 79 18 81 19 32 20 84 21 78 22 77 23
REMARK SMILES IDX 33 25 65 26 45 27 64 28 46 29 49 30 63 31 82 32 47 33 48 34
REMARK SMILES IDX 62 36 83 37 50 38 34 39 35 40 43 41 36 42 38 43 44 44 37 45
REMARK SMILES IDX 39 46 40 47 41 48 42 49 66 50 67 51 75 52 68 53 70 54 76 55
REMARK SMILES IDX 69 56 71 57 72 58 73 59 74 60 51 61 52 62 60 63 53 64 55 65
REMARK SMILES IDX 61 66 54 67 56 68 57 69 58 70 59 71 6 72 7 73 8 74 9 75
REMARK SMILES IDX 10 77 11 78 12 79 16 80 13 81 15 82 14 83 17 86 18 87 19 88
REMARK SMILES IDX 20 90 21 91 24 92 22 93 23 94
REMARK H PARENT 3 6 81 24 49 35 8 76 13 84 13 85 19 89
REMARK Flexibility Score: inf
ROOT
ATOM      1  C   UNL A   1      34.750  22.179  25.178  1.00  0.00     0.023 C 
ENDROOT
BRANCH   1   2
ATOM      2  C   UNL A   1      35.973  22.243  26.086  1.00  0.00     0.116 C 
BRANCH   2   3
ATOM      3  N   UNL A   1      36.910  21.160  25.826  1.00  0.00    -0.352 N 
ATOM      4  O   UNL A   1      38.896  20.214  25.343  1.00  0.00    -0.269 OA
ATOM      5  C   UNL A   1      38.287  21.178  25.801  1.00  0.00     0.251 C 
ATOM      6  H   UNL A   1      36.500  20.285  25.640  1.00  0.00     0.163 HD
BRANCH   5   7
ATOM      7  C   UNL A   1      39.025  22.361  26.302  1.00  0.00     0.039 A 
ATOM      8  C   UNL A   1      38.676  23.641  25.871  1.00  0.00     0.014 A 
ATOM      9  C   UNL A   1      40.063  22.196  27.224  1.00  0.00     0.014 A 
ATOM     10  C   UNL A   1      39.465  24.729  26.225  1.00  0.00     0.010 A 
ATOM     11  C   UNL A   1      40.793  23.310  27.662  1.00  0.00     0.010 A 
ATOM     12  C   UNL A   1      40.520  24.583  27.141  1.00  0.00    -0.014 A 
BRANCH  12  13
ATOM     13  C   UNL A   1      41.239  25.803  27.594  1.00  0.00     0.031 A 
ATOM     14  C   UNL A   1      42.672  26.070  27.221  1.00  0.00     0.074 A 
ATOM     15  C   UNL A   1      40.553  26.708  28.323  1.00  0.00     0.049 A 
ATOM     16  N   UNL A   1      43.396  27.133  27.465  1.00  0.00    -0.248 NA
ATOM     17  C   UNL A   1      43.392  25.014  26.494  1.00  0.00     0.031 C 
ATOM     18  C   UNL A   1      39.178  26.531  28.799  1.00  0.00     0.029 A 
ATOM     19  N   UNL A   1      40.901  27.953  28.779  1.00  0.00    -0.354 N 
ATOM     20  C   UNL A   1      44.659  26.869  26.948  1.00  0.00     0.074 A 
ATOM     21  C   UNL A   1      44.609  25.535  26.387  1.00  0.00     0.031 C 
ATOM     22  C   UNL A   1      38.785  27.641  29.436  1.00  0.00     0.029 A 
ATOM     23  C   UNL A   1      39.892  28.588  29.464  1.00  0.00     0.049 A 
ATOM     24  H   UNL A   1      41.788  28.355  28.629  1.00  0.00     0.167 HD
ATOM     25  C   UNL A   1      45.751  27.671  26.923  1.00  0.00     0.034 A 
ATOM     26  C   UNL A   1      39.858  29.796  30.058  1.00  0.00     0.034 A 
ATOM     27  C   UNL A   1      45.785  29.010  27.456  1.00  0.00     0.049 A 
ATOM     28  C   UNL A   1      41.068  30.678  29.971  1.00  0.00     0.074 A 
ATOM     29  C   UNL A   1      46.834  29.915  27.441  1.00  0.00     0.029 A 
ATOM     30  N   UNL A   1      44.729  29.638  28.098  1.00  0.00    -0.354 N 
ATOM     31  N   UNL A   1      42.209  30.454  29.365  1.00  0.00    -0.248 NA
ATOM     32  C   UNL A   1      40.977  31.992  30.622  1.00  0.00     0.031 C 
ATOM     33  C   UNL A   1      46.413  31.085  28.085  1.00  0.00     0.029 A 
ATOM     34  C   UNL A   1      45.098  30.915  28.485  1.00  0.00     0.049 A 
ATOM     35  H   UNL A   1      43.845  29.234  28.257  1.00  0.00     0.167 HD
ATOM     36  C   UNL A   1      42.969  31.601  29.554  1.00  0.00     0.074 A 
ATOM     37  C   UNL A   1      42.140  32.535  30.287  1.00  0.00     0.031 C 
ATOM     38  C   UNL A   1      44.249  31.847  29.181  1.00  0.00     0.034 A 
BRANCH  25  39
ATOM     39  C   UNL A   1      46.995  27.154  26.247  1.00  0.00     0.023 A 
ATOM     40  C   UNL A   1      47.205  27.434  24.882  1.00  0.00     0.012 A 
ATOM     41  C   UNL A   1      47.997  26.480  26.976  1.00  0.00     0.148 A 
ATOM     42  C   UNL A   1      48.382  27.039  24.247  1.00  0.00     0.002 A 
ATOM     43  C   UNL A   1      49.183  26.121  26.344  1.00  0.00     0.091 A 
ATOM     44  F   UNL A   1      47.773  26.208  28.269  1.00  0.00    -0.205 F 
ATOM     45  C   UNL A   1      49.374  26.393  24.979  1.00  0.00     0.022 A 
BRANCH  43  46
ATOM     46  S   UNL A   1      50.555  25.350  27.213  1.00  0.00     0.127 S 
ATOM     47  O   UNL A   1      51.461  25.034  26.111  1.00  0.00    -0.237 OA
ATOM     48  O   UNL A   1      51.013  26.430  28.088  1.00  0.00    -0.237 OA
ATOM     49  O   UNL A   1      49.996  24.199  27.909  1.00  0.00    -0.744 OA
ENDBRANCH  43  46
ENDBRANCH  25  39
BRANCH  26  50
ATOM     50  C   UNL A   1      38.618  30.245  30.751  1.00  0.00     0.023 A 
ATOM     51  C   UNL A   1      38.468  30.020  32.133  1.00  0.00     0.012 A 
ATOM     52  C   UNL A   1      37.607  30.935  30.055  1.00  0.00     0.148 A 
ATOM     53  C   UNL A   1      37.320  30.450  32.801  1.00  0.00     0.002 A 
ATOM     54  C   UNL A   1      36.499  31.419  30.739  1.00  0.00     0.091 A 
ATOM     55  F   UNL A   1      37.755  31.122  28.734  1.00  0.00    -0.205 F 
ATOM     56  C   UNL A   1      36.344  31.162  32.108  1.00  0.00     0.022 A 
BRANCH  54  57
ATOM     57  S   UNL A   1      35.290  32.479  29.939  1.00  0.00     0.127 S 
ATOM     58  O   UNL A   1      34.793  31.618  28.872  1.00  0.00    -0.237 OA
ATOM     59  O   UNL A   1      34.337  32.735  31.020  1.00  0.00    -0.237 OA
ATOM     60  O   UNL A   1      36.039  33.658  29.519  1.00  0.00    -0.744 OA
ENDBRANCH  54  57
ENDBRANCH  26  50
BRANCH  38  61
ATOM     61  C   UNL A   1      44.825  33.184  29.563  1.00  0.00     0.023 A 
ATOM     62  C   UNL A   1      45.504  33.320  30.792  1.00  0.00     0.012 A 
ATOM     63  C   UNL A   1      44.726  34.293  28.702  1.00  0.00     0.148 A 
ATOM     64  C   UNL A   1      46.038  34.549  31.176  1.00  0.00     0.002 A 
ATOM     65  C   UNL A   1      45.301  35.503  29.072  1.00  0.00     0.091 A 
ATOM     66  F   UNL A   1      44.058  34.151  27.548  1.00  0.00    -0.205 F 
ATOM     67  C   UNL A   1      45.945  35.637  30.312  1.00  0.00     0.022 A 
BRANCH  65  68
ATOM     68  S   UNL A   1      45.300  36.933  27.982  1.00  0.00     0.127 S 
ATOM     69  O   UNL A   1      46.002  37.927  28.793  1.00  0.00    -0.237 OA
ATOM     70  O   UNL A   1      46.054  36.446  26.826  1.00  0.00    -0.237 OA
ATOM     71  O   UNL A   1      43.898  37.219  27.707  1.00  0.00    -0.744 OA
ENDBRANCH  65  68
ENDBRANCH  38  61
ENDBRANCH  12  13
ENDBRANCH   5   7
ENDBRANCH   2   3
ENDBRANCH   1   2
BRANCH   1  72
ATOM     72  C   UNL A   1      33.905  23.452  25.161  1.00  0.00     0.023 C 
BRANCH  72  73
ATOM     73  C   UNL A   1      34.636  24.700  24.672  1.00  0.00     0.116 C 
BRANCH  73  74
ATOM     74  N   UNL A   1      34.428  24.979  23.258  1.00  0.00    -0.354 N 
ATOM     75  C   UNL A   1      33.412  25.720  22.689  1.00  0.00     0.248 C 
ATOM     76  H   UNL A   1      35.089  24.597  22.636  1.00  0.00     0.163 HD
ATOM     77  O   UNL A   1      33.442  25.940  21.480  1.00  0.00    -0.272 OA
BRANCH  75  78
ATOM     78  C   UNL A   1      32.258  26.167  23.609  1.00  0.00     0.231 C 
ATOM     79  C   UNL A   1      31.112  25.208  23.121  1.00  0.00     0.296 C 
ATOM     80  N   UNL A   1      31.772  27.569  23.608  1.00  0.00    -0.302 N 
ATOM     81  N   UNL A   1      29.808  25.369  23.791  1.00  0.00    -0.343 N 
ATOM     82  C   UNL A   1      30.442  27.732  24.218  1.00  0.00     0.183 C 
ATOM     83  C   UNL A   1      29.394  26.773  23.647  1.00  0.00     0.282 C 
ATOM     84  H   UNL A   1      29.895  25.133  24.780  1.00  0.00     0.346 HD
ATOM     85  H   UNL A   1      29.114  24.750  23.370  1.00  0.00     0.346 HD
BRANCH  80  86
ATOM     86  C   UNL A   1      32.405  28.724  23.273  1.00  0.00     0.318 C 
ATOM     87  O   UNL A   1      32.239  29.242  22.163  1.00  0.00    -0.249 OA
ATOM     88  N   UNL A   1      33.195  29.424  24.096  1.00  0.00    -0.333 N 
ATOM     89  H   UNL A   1      33.815  30.011  23.605  1.00  0.00     0.165 HD
BRANCH  88  90
ATOM     90  C   UNL A   1      33.359  29.528  25.533  1.00  0.00     0.112 C 
ATOM     91  C   UNL A   1      33.600  28.194  26.218  1.00  0.00     0.056 C 
ATOM     92  C   UNL A   1      32.123  30.094  26.230  1.00  0.00     0.185 C 
ATOM     93  C   UNL A   1      32.543  28.121  27.303  1.00  0.00     0.162 C 
ATOM     94  O   UNL A   1      32.083  29.459  27.511  1.00  0.00    -0.379 OA
ENDBRANCH  88  90
ENDBRANCH  80  86
ENDBRANCH  75  78
ENDBRANCH  73  74
ENDBRANCH  72  73
ENDBRANCH   1  72
TORSDOF 16
ENDMDL
MODEL 2
REMARK VINA RESULT:     -11.4      1.740      2.619
REMARK SMILES O=C(NCCCCNC(=O)[C@@H]1C[NH2+]CCN1C(=O)N[C@@H]1CCOC1)c1ccc(-c2c3nc(c(-c4cccc(S(=O)(=O)[O-])c4F)c4ccc([nH]4)c(-c4cccc(S(=O)(=O)[O-])c4F)c4nc(c(-c5cccc(S(=O)(=O)[O-])c5F)c5ccc2[nH]5)C=C4)C=C3)cc1
REMARK SMILES IDX 5 1 4 2 3 3 1 4 2 5 25 7 26 8 87 9 27 10 86 11 28 12 29 13
REMARK SMILES IDX 30 14 80 15 31 16 85 17 79 18 81 19 32 20 84 21 78 22 77 23
REMARK SMILES IDX 33 25 65 26 45 27 64 28 46 29 49 30 63 31 82 32 47 33 48 34
REMARK SMILES IDX 62 36 83 37 50 38 34 39 35 40 43 41 36 42 38 43 44 44 37 45
REMARK SMILES IDX 39 46 40 47 41 48 42 49 66 50 67 51 75 52 68 53 70 54 76 55
REMARK SMILES IDX 69 56 71 57 72 58 73 59 74 60 51 61 52 62 60 63 53 64 55 65
REMARK SMILES IDX 61 66 54 67 56 68 57 69 58 70 59 71 6 72 7 73 8 74 9 75
REMARK SMILES IDX 10 77 11 78 12 79 16 80 13 81 15 82 14 83 17 86 18 87 19 88
REMARK SMILES IDX 20 90 21 91 24 92 22 93 23 94
REMARK H PARENT 3 6 81 24 49 35 8 76 13 84 13 85 19 89
REMARK Flexibility Score: inf
ROOT
ATOM      1  C   UNL A   1      34.681  22.223  26.656  1.00  0.00     0.023 C 
ENDROOT
BRANCH   1   2
ATOM      2  C   UNL A   1      35.955  22.572  25.893  1.00  0.00     0.116 C 
BRANCH   2   3
ATOM      3  N   UNL A   1      36.855  21.433  25.773  1.00  0.00    -0.352 N 
ATOM      4  O   UNL A   1      38.822  20.371  25.507  1.00  0.00    -0.269 OA
ATOM      5  C   UNL A   1      38.229  21.389  25.856  1.00  0.00     0.251 C 
ATOM      6  H   UNL A   1      36.416  20.567  25.609  1.00  0.00     0.163 HD
BRANCH   5   7
ATOM      7  C   UNL A   1      38.984  22.567  26.340  1.00  0.00     0.039 A 
ATOM      8  C   UNL A   1      38.660  23.845  25.885  1.00  0.00     0.014 A 
ATOM      9  C   UNL A   1      40.014  22.401  27.271  1.00  0.00     0.014 A 
ATOM     10  C   UNL A   1      39.465  24.925  26.224  1.00  0.00     0.010 A 
ATOM     11  C   UNL A   1      40.760  23.509  27.694  1.00  0.00     0.010 A 
ATOM     12  C   UNL A   1      40.512  24.778  27.149  1.00  0.00    -0.014 A 
BRANCH  12  13
ATOM     13  C   UNL A   1      41.250  25.993  27.585  1.00  0.00     0.031 A 
ATOM     14  C   UNL A   1      42.661  26.271  27.145  1.00  0.00     0.074 A 
ATOM     15  C   UNL A   1      40.600  26.883  28.364  1.00  0.00     0.049 A 
ATOM     16  N   UNL A   1      43.394  27.333  27.368  1.00  0.00    -0.248 NA
ATOM     17  C   UNL A   1      43.347  25.230  26.364  1.00  0.00     0.031 C 
ATOM     18  C   UNL A   1      39.251  26.693  28.906  1.00  0.00     0.029 A 
ATOM     19  N   UNL A   1      40.967  28.122  28.821  1.00  0.00    -0.354 N 
ATOM     20  C   UNL A   1      44.629  27.082  26.783  1.00  0.00     0.074 A 
ATOM     21  C   UNL A   1      44.554  25.758  26.203  1.00  0.00     0.031 C 
ATOM     22  C   UNL A   1      38.888  27.791  29.581  1.00  0.00     0.029 A 
ATOM     23  C   UNL A   1      39.992  28.741  29.568  1.00  0.00     0.049 A 
ATOM     24  H   UNL A   1      41.843  28.529  28.633  1.00  0.00     0.167 HD
ATOM     25  C   UNL A   1      45.716  27.889  26.716  1.00  0.00     0.034 A 
ATOM     26  C   UNL A   1      39.985  29.939  30.183  1.00  0.00     0.034 A 
ATOM     27  C   UNL A   1      45.773  29.219  27.269  1.00  0.00     0.049 A 
ATOM     28  C   UNL A   1      41.186  30.827  30.049  1.00  0.00     0.074 A 
ATOM     29  C   UNL A   1      46.817  30.128  27.215  1.00  0.00     0.029 A 
ATOM     30  N   UNL A   1      44.749  29.832  27.974  1.00  0.00    -0.354 N 
ATOM     31  N   UNL A   1      42.295  30.617  29.382  1.00  0.00    -0.248 NA
ATOM     32  C   UNL A   1      41.124  32.130  30.725  1.00  0.00     0.031 C 
ATOM     33  C   UNL A   1      46.427  31.286  27.900  1.00  0.00     0.029 A 
ATOM     34  C   UNL A   1      45.134  31.104  28.363  1.00  0.00     0.049 A 
ATOM     35  H   UNL A   1      43.876  29.422  28.171  1.00  0.00     0.167 HD
ATOM     36  C   UNL A   1      43.060  31.764  29.550  1.00  0.00     0.074 A 
ATOM     37  C   UNL A   1      42.267  32.683  30.341  1.00  0.00     0.031 C 
ATOM     38  C   UNL A   1      44.319  32.022  29.117  1.00  0.00     0.034 A 
BRANCH  25  39
ATOM     39  C   UNL A   1      46.926  27.388  25.969  1.00  0.00     0.023 A 
ATOM     40  C   UNL A   1      47.772  26.443  26.583  1.00  0.00     0.012 A 
ATOM     41  C   UNL A   1      47.174  27.773  24.635  1.00  0.00     0.148 A 
ATOM     42  C   UNL A   1      48.854  25.901  25.890  1.00  0.00     0.002 A 
ATOM     43  C   UNL A   1      48.233  27.200  23.939  1.00  0.00     0.091 A 
ATOM     44  F   UNL A   1      46.368  28.685  24.073  1.00  0.00    -0.205 F 
ATOM     45  C   UNL A   1      49.078  26.270  24.567  1.00  0.00     0.022 A 
BRANCH  43  46
ATOM     46  S   UNL A   1      48.566  27.552  22.208  1.00  0.00     0.127 S 
ATOM     47  O   UNL A   1      49.713  28.453  22.306  1.00  0.00    -0.237 OA
ATOM     48  O   UNL A   1      48.877  26.225  21.677  1.00  0.00    -0.237 OA
ATOM     49  O   UNL A   1      47.348  28.150  21.677  1.00  0.00    -0.744 OA
ENDBRANCH  43  46
ENDBRANCH  25  39
BRANCH  26  50
ATOM     50  C   UNL A   1      38.780  30.371  30.945  1.00  0.00     0.023 A 
ATOM     51  C   UNL A   1      38.738  30.200  32.342  1.00  0.00     0.012 A 
ATOM     52  C   UNL A   1      37.697  30.995  30.298  1.00  0.00     0.148 A 
ATOM     53  C   UNL A   1      37.624  30.616  33.074  1.00  0.00     0.002 A 
ATOM     54  C   UNL A   1      36.622  31.466  31.041  1.00  0.00     0.091 A 
ATOM     55  F   UNL A   1      37.742  31.130  28.964  1.00  0.00    -0.205 F 
ATOM     56  C   UNL A   1      36.574  31.262  32.427  1.00  0.00     0.022 A 
BRANCH  54  57
ATOM     57  S   UNL A   1      35.318  32.448  30.289  1.00  0.00     0.127 S 
ATOM     58  O   UNL A   1      34.402  32.641  31.409  1.00  0.00    -0.237 OA
ATOM     59  O   UNL A   1      36.039  33.650  29.867  1.00  0.00    -0.237 OA
ATOM     60  O   UNL A   1      34.822  31.637  29.185  1.00  0.00    -0.744 OA
ENDBRANCH  54  57
ENDBRANCH  26  50
BRANCH  38  61
ATOM     61  C   UNL A   1      44.910  33.354  29.492  1.00  0.00     0.023 A 
ATOM     62  C   UNL A   1      45.660  33.469  30.680  1.00  0.00     0.012 A 
ATOM     63  C   UNL A   1      44.754  34.479  28.661  1.00  0.00     0.148 A 
ATOM     64  C   UNL A   1      46.210  34.694  31.057  1.00  0.00     0.002 A 
ATOM     65  C   UNL A   1      45.343  35.686  29.020  1.00  0.00     0.091 A 
ATOM     66  F   UNL A   1      44.018  34.357  27.546  1.00  0.00    -0.205 F 
ATOM     67  C   UNL A   1      46.059  35.799  30.222  1.00  0.00     0.022 A 
BRANCH  65  68
ATOM     68  S   UNL A   1      45.269  37.137  27.962  1.00  0.00     0.127 S 
ATOM     69  O   UNL A   1      45.890  36.643  26.734  1.00  0.00    -0.237 OA
ATOM     70  O   UNL A   1      43.828  37.379  27.863  1.00  0.00    -0.237 OA
ATOM     71  O   UNL A   1      46.004  38.178  28.667  1.00  0.00    -0.744 OA
ENDBRANCH  65  68
ENDBRANCH  38  61
ENDBRANCH  12  13
ENDBRANCH   5   7
ENDBRANCH   2   3
ENDBRANCH   1   2
BRANCH   1  72
ATOM     72  C   UNL A   1      33.388  22.599  25.935  1.00  0.00     0.023 C 
BRANCH  72  73
ATOM     73  C   UNL A   1      33.226  24.089  25.645  1.00  0.00     0.116 C 
BRANCH  73  74
ATOM     74  N   UNL A   1      31.979  24.648  26.148  1.00  0.00    -0.354 N 
ATOM     75  C   UNL A   1      31.699  25.974  26.412  1.00  0.00     0.248 C 
ATOM     76  H   UNL A   1      31.251  24.007  26.318  1.00  0.00     0.163 HD
ATOM     77  O   UNL A   1      30.556  26.286  26.741  1.00  0.00    -0.272 OA
BRANCH  75  78
ATOM     78  C   UNL A   1      32.871  26.975  26.344  1.00  0.00     0.231 C 
ATOM     79  C   UNL A   1      32.474  27.962  27.500  1.00  0.00     0.296 C 
ATOM     80  N   UNL A   1      33.158  27.741  25.106  1.00  0.00    -0.302 N 
ATOM     81  N   UNL A   1      33.390  29.097  27.721  1.00  0.00    -0.343 N 
ATOM     82  C   UNL A   1      34.020  28.914  25.326  1.00  0.00     0.183 C 
ATOM     83  C   UNL A   1      33.524  29.826  26.451  1.00  0.00     0.282 C 
ATOM     84  H   UNL A   1      34.302  28.752  28.021  1.00  0.00     0.346 HD
ATOM     85  H   UNL A   1      33.023  29.713  28.447  1.00  0.00     0.346 HD
BRANCH  80  86
ATOM     86  C   UNL A   1      32.877  27.459  23.807  1.00  0.00     0.318 C 
ATOM     87  O   UNL A   1      33.575  26.668  23.162  1.00  0.00    -0.249 OA
ATOM     88  N   UNL A   1      31.824  27.940  23.135  1.00  0.00    -0.333 N 
ATOM     89  H   UNL A   1      31.962  27.914  22.160  1.00  0.00     0.165 HD
BRANCH  88  90
ATOM     90  C   UNL A   1      30.530  28.489  23.494  1.00  0.00     0.112 C 
ATOM     91  C   UNL A   1      29.639  28.783  22.299  1.00  0.00     0.056 C 
ATOM     92  C   UNL A   1      30.637  29.826  24.224  1.00  0.00     0.185 C 
ATOM     93  C   UNL A   1      29.237  30.235  22.466  1.00  0.00     0.162 C 
ATOM     94  O   UNL A   1      29.477  30.567  23.835  1.00  0.00    -0.379 OA
ENDBRANCH  88  90
ENDBRANCH  80  86
ENDBRANCH  75  78
ENDBRANCH  73  74
ENDBRANCH  72  73
ENDBRANCH   1  72
TORSDOF 16
ENDMDL
MODEL 3
REMARK VINA RESULT:     -11.4      5.349     10.254
REMARK SMILES O=C(NCCCCNC(=O)[C@@H]1C[NH2+]CCN1C(=O)N[C@@H]1CCOC1)c1ccc(-c2c3nc(c(-c4cccc(S(=O)(=O)[O-])c4F)c4ccc([nH]4)c(-c4cccc(S(=O)(=O)[O-])c4F)c4nc(c(-c5cccc(S(=O)(=O)[O-])c5F)c5ccc2[nH]5)C=C4)C=C3)cc1
REMARK SMILES IDX 5 1 4 2 3 3 1 4 2 5 25 7 26 8 87 9 27 10 86 11 28 12 29 13
REMARK SMILES IDX 30 14 80 15 31 16 85 17 79 18 81 19 32 20 84 21 78 22 77 23
REMARK SMILES IDX 33 25 65 26 45 27 64 28 46 29 49 30 63 31 82 32 47 33 48 34
REMARK SMILES IDX 62 36 83 37 50 38 34 39 35 40 43 41 36 42 38 43 44 44 37 45
REMARK SMILES IDX 39 46 40 47 41 48 42 49 66 50 67 51 75 52 68 53 70 54 76 55
REMARK SMILES IDX 69 56 71 57 72 58 73 59 74 60 51 61 52 62 60 63 53 64 55 65
REMARK SMILES IDX 61 66 54 67 56 68 57 69 58 70 59 71 6 72 7 73 8 74 9 75
REMARK SMILES IDX 10 77 11 78 12 79 16 80 13 81 15 82 14 83 17 86 18 87 19 88
REMARK SMILES IDX 20 90 21 91 24 92 22 93 23 94
REMARK H PARENT 3 6 81 24 49 35 8 76 13 84 13 85 19 89
REMARK Flexibility Score: inf
ROOT
ATOM      1  C   UNL A   1      31.343  31.893  26.561  1.00  0.00     0.023 C 
ENDROOT
BRANCH   1   2
ATOM      2  C   UNL A   1      32.670  32.435  27.082  1.00  0.00     0.116 C 
BRANCH   2   3
ATOM      3  N   UNL A   1      32.541  33.780  27.625  1.00  0.00    -0.352 N 
ATOM      4  O   UNL A   1      32.853  35.453  29.100  1.00  0.00    -0.269 OA
ATOM      5  C   UNL A   1      33.256  34.391  28.632  1.00  0.00     0.251 C 
ATOM      6  H   UNL A   1      31.840  34.334  27.213  1.00  0.00     0.163 HD
BRANCH   5   7
ATOM      7  C   UNL A   1      34.488  33.760  29.159  1.00  0.00     0.039 A 
ATOM      8  C   UNL A   1      34.403  32.700  30.062  1.00  0.00     0.014 A 
ATOM      9  C   UNL A   1      35.741  34.217  28.737  1.00  0.00     0.014 A 
ATOM     10  C   UNL A   1      35.556  32.213  30.667  1.00  0.00     0.010 A 
ATOM     11  C   UNL A   1      36.907  33.652  29.272  1.00  0.00     0.010 A 
ATOM     12  C   UNL A   1      36.824  32.666  30.266  1.00  0.00    -0.014 A 
BRANCH  12  13
ATOM     13  C   UNL A   1      38.027  32.010  30.844  1.00  0.00     0.031 A 
ATOM     14  C   UNL A   1      38.536  32.345  32.219  1.00  0.00     0.074 A 
ATOM     15  C   UNL A   1      38.639  31.055  30.113  1.00  0.00     0.049 A 
ATOM     16  N   UNL A   1      39.514  31.787  32.888  1.00  0.00    -0.248 NA
ATOM     17  C   UNL A   1      37.878  33.448  32.937  1.00  0.00     0.031 C 
ATOM     18  C   UNL A   1      38.274  30.688  28.741  1.00  0.00     0.029 A 
ATOM     19  N   UNL A   1      39.676  30.212  30.414  1.00  0.00    -0.354 N 
ATOM     20  C   UNL A   1      39.608  32.481  34.087  1.00  0.00     0.074 A 
ATOM     21  C   UNL A   1      38.595  33.515  34.052  1.00  0.00     0.031 C 
ATOM     22  C   UNL A   1      39.041  29.667  28.339  1.00  0.00     0.029 A 
ATOM     23  C   UNL A   1      39.987  29.340  29.397  1.00  0.00     0.049 A 
ATOM     24  H   UNL A   1      40.152  30.228  31.276  1.00  0.00     0.167 HD
ATOM     25  C   UNL A   1      40.446  32.263  35.130  1.00  0.00     0.034 A 
ATOM     26  C   UNL A   1      40.933  28.385  29.317  1.00  0.00     0.034 A 
ATOM     27  C   UNL A   1      41.433  31.213  35.171  1.00  0.00     0.049 A 
ATOM     28  C   UNL A   1      41.814  28.138  30.507  1.00  0.00     0.074 A 
ATOM     29  C   UNL A   1      42.300  30.888  36.201  1.00  0.00     0.029 A 
ATOM     30  N   UNL A   1      41.684  30.318  34.143  1.00  0.00    -0.354 N 
ATOM     31  N   UNL A   1      41.798  28.726  31.679  1.00  0.00    -0.248 NA
ATOM     32  C   UNL A   1      42.820  27.077  30.376  1.00  0.00     0.031 C 
ATOM     33  C   UNL A   1      43.085  29.804  35.789  1.00  0.00     0.029 A 
ATOM     34  C   UNL A   1      42.693  29.443  34.511  1.00  0.00     0.049 A 
ATOM     35  H   UNL A   1      41.216  30.306  33.277  1.00  0.00     0.167 HD
ATOM     36  C   UNL A   1      42.785  28.101  32.429  1.00  0.00     0.074 A 
ATOM     37  C   UNL A   1      43.345  27.057  31.594  1.00  0.00     0.031 C 
ATOM     38  C   UNL A   1      43.213  28.384  33.683  1.00  0.00     0.034 A 
BRANCH  25  39
ATOM     39  C   UNL A   1      40.305  33.140  36.349  1.00  0.00     0.023 A 
ATOM     40  C   UNL A   1      40.947  34.394  36.374  1.00  0.00     0.012 A 
ATOM     41  C   UNL A   1      39.466  32.772  37.421  1.00  0.00     0.148 A 
ATOM     42  C   UNL A   1      40.771  35.261  37.451  1.00  0.00     0.002 A 
ATOM     43  C   UNL A   1      39.268  33.657  38.475  1.00  0.00     0.091 A 
ATOM     44  F   UNL A   1      38.876  31.568  37.387  1.00  0.00    -0.205 F 
ATOM     45  C   UNL A   1      39.925  34.899  38.495  1.00  0.00     0.022 A 
BRANCH  43  46
ATOM     46  S   UNL A   1      38.140  33.319  39.834  1.00  0.00     0.127 S 
ATOM     47  O   UNL A   1      36.887  33.076  39.123  1.00  0.00    -0.237 OA
ATOM     48  O   UNL A   1      38.738  32.129  40.441  1.00  0.00    -0.237 OA
ATOM     49  O   UNL A   1      38.158  34.506  40.677  1.00  0.00    -0.744 OA
ENDBRANCH  43  46
ENDBRANCH  25  39
BRANCH  26  50
ATOM     50  C   UNL A   1      41.062  27.574  28.074  1.00  0.00     0.023 A 
ATOM     51  C   UNL A   1      41.698  28.122  26.944  1.00  0.00     0.012 A 
ATOM     52  C   UNL A   1      40.599  26.245  28.024  1.00  0.00     0.148 A 
ATOM     53  C   UNL A   1      41.843  27.369  25.777  1.00  0.00     0.002 A 
ATOM     54  C   UNL A   1      40.807  25.481  26.883  1.00  0.00     0.091 A 
ATOM     55  F   UNL A   1      39.976  25.745  29.102  1.00  0.00    -0.205 F 
ATOM     56  C   UNL A   1      41.411  26.045  25.752  1.00  0.00     0.022 A 
BRANCH  54  57
ATOM     57  S   UNL A   1      40.422  23.726  26.845  1.00  0.00     0.127 S 
ATOM     58  O   UNL A   1      38.998  23.737  26.523  1.00  0.00    -0.237 OA
ATOM     59  O   UNL A   1      41.293  23.240  25.774  1.00  0.00    -0.237 OA
ATOM     60  O   UNL A   1      40.778  23.231  28.169  1.00  0.00    -0.744 OA
ENDBRANCH  54  57
ENDBRANCH  26  50
BRANCH  38  61
ATOM     61  C   UNL A   1      44.341  27.548  34.225  1.00  0.00     0.023 A 
ATOM     62  C   UNL A   1      45.673  27.932  33.966  1.00  0.00     0.012 A 
ATOM     63  C   UNL A   1      44.091  26.409  35.012  1.00  0.00     0.148 A 
ATOM     64  C   UNL A   1      46.737  27.171  34.446  1.00  0.00     0.002 A 
ATOM     65  C   UNL A   1      45.157  25.680  35.525  1.00  0.00     0.091 A 
ATOM     66  F   UNL A   1      42.818  26.046  35.229  1.00  0.00    -0.205 F 
ATOM     67  C   UNL A   1      46.479  26.051  35.233  1.00  0.00     0.022 A 
BRANCH  65  68
ATOM     68  S   UNL A   1      44.915  24.273  36.617  1.00  0.00     0.127 S 
ATOM     69  O   UNL A   1      44.188  23.345  35.751  1.00  0.00    -0.237 OA
ATOM     70  O   UNL A   1      46.290  23.874  36.922  1.00  0.00    -0.237 OA
ATOM     71  O   UNL A   1      44.171  24.784  37.760  1.00  0.00    -0.744 OA
ENDBRANCH  65  68
ENDBRANCH  38  61
ENDBRANCH  12  13
ENDBRANCH   5   7
ENDBRANCH   2   3
ENDBRANCH   1   2
BRANCH   1  72
ATOM     72  C   UNL A   1      31.458  30.598  25.760  1.00  0.00     0.023 C 
BRANCH  72  73
ATOM     73  C   UNL A   1      32.656  29.724  26.123  1.00  0.00     0.116 C 
BRANCH  73  74
ATOM     74  N   UNL A   1      33.569  29.498  25.011  1.00  0.00    -0.354 N 
ATOM     75  C   UNL A   1      33.612  28.405  24.170  1.00  0.00     0.248 C 
ATOM     76  H   UNL A   1      34.230  30.207  24.838  1.00  0.00     0.163 HD
ATOM     77  O   UNL A   1      34.387  28.420  23.215  1.00  0.00    -0.272 OA
BRANCH  75  78
ATOM     78  C   UNL A   1      32.727  27.195  24.530  1.00  0.00     0.231 C 
ATOM     79  C   UNL A   1      33.782  26.263  25.229  1.00  0.00     0.296 C 
ATOM     80  N   UNL A   1      32.000  26.434  23.484  1.00  0.00    -0.302 N 
ATOM     81  N   UNL A   1      33.276  24.962  25.706  1.00  0.00    -0.343 N 
ATOM     82  C   UNL A   1      31.546  25.106  23.930  1.00  0.00     0.183 C 
ATOM     83  C   UNL A   1      32.660  24.269  24.564  1.00  0.00     0.282 C 
ATOM     84  H   UNL A   1      32.582  25.107  26.439  1.00  0.00     0.346 HD
ATOM     85  H   UNL A   1      34.039  24.403  26.089  1.00  0.00     0.346 HD
BRANCH  80  86
ATOM     86  C   UNL A   1      31.570  26.814  22.252  1.00  0.00     0.318 C 
ATOM     87  O   UNL A   1      31.760  26.098  21.262  1.00  0.00    -0.249 OA
ATOM     88  N   UNL A   1      30.872  27.928  22.002  1.00  0.00    -0.333 N 
ATOM     89  H   UNL A   1      30.944  28.208  21.060  1.00  0.00     0.165 HD
BRANCH  88  90
ATOM     90  C   UNL A   1      30.036  28.823  22.779  1.00  0.00     0.112 C 
ATOM     91  C   UNL A   1      28.729  28.195  23.234  1.00  0.00     0.056 C 
ATOM     92  C   UNL A   1      29.608  30.063  21.997  1.00  0.00     0.185 C 
ATOM     93  C   UNL A   1      27.655  29.151  22.753  1.00  0.00     0.162 C 
ATOM     94  O   UNL A   1      28.307  30.395  22.490  1.00  0.00    -0.379 OA
ENDBRANCH  88  90
ENDBRANCH  80  86
ENDBRANCH  75  78
ENDBRANCH  73  74
ENDBRANCH  72  73
ENDBRANCH   1  72
TORSDOF 16
ENDMDL
