MODEL 1
REMARK VINA RESULT:     -12.5      0.000      0.000
REMARK SMILES CCc1cc(S(F)(F)(F)(F)F)cc2c1O[C@@H](C(F)(F)F)C(C(=O)NCCCCNC(=O)c1ccc(-c3c4nc(c(-c5cccc(S(=O)(=O)[O-])c5F)c5ccc([nH]5)c(-c5cccc(S(=O)(=O)[O-])c5F)c5nc(c(-c6cccc(S(=O)(=O)[O-])c6F)c6ccc3[nH]6)C=C5)C=C4)cc1)=C2
REMARK SMILES IDX 27 1 26 2 25 3 24 4 22 5 23 6 21 8 3 9 4 10 14 11 5 12 13 13
REMARK SMILES IDX 15 14 12 15 95 16 16 17 2 18 1 19 6 20 7 21 8 22 9 23 10 24
REMARK SMILES IDX 11 25 17 26 18 27 19 28 20 29 28 30 29 31 30 32 31 34 32 35
REMARK SMILES IDX 33 36 94 37 34 38 93 39 35 40 36 41 37 42 87 43 38 44 92 45
REMARK SMILES IDX 86 46 88 47 39 48 91 49 85 50 84 51 40 53 72 54 52 55 71 56
REMARK SMILES IDX 53 57 56 58 70 59 89 60 54 61 55 62 69 64 90 65 57 66 41 67
REMARK SMILES IDX 42 68 50 69 43 70 45 71 51 72 44 73 46 74 47 75 48 76 49 77
REMARK SMILES IDX 73 78 74 79 82 80 75 81 77 82 83 83 76 84 78 85 79 86 80 87
REMARK SMILES IDX 81 88 58 89 59 90 67 91 60 92 62 93 68 94 61 95 63 96 64 97
REMARK SMILES IDX 65 98 66 99
REMARK H PARENT 24 7 29 33 88 52 56 63
REMARK Flexibility Score: inf
ROOT
ATOM      1  C   UNL A   1      32.894  27.803  26.733  1.00  0.00     0.023 C 
ENDROOT
BRANCH   1   2
ATOM      2  C   UNL A   1      31.645  28.499  26.217  1.00  0.00     0.023 C 
BRANCH   2   3
ATOM      3  C   UNL A   1      30.661  27.459  25.705  1.00  0.00     0.116 C 
BRANCH   3   4
ATOM      4  N   UNL A   1      30.261  27.797  24.332  1.00  0.00    -0.352 N 
ATOM      5  C   UNL A   1      30.836  27.062  23.196  1.00  0.00     0.251 C 
ATOM      6  O   UNL A   1      30.489  27.355  22.009  1.00  0.00    -0.270 OA
ATOM      7  H   UNL A   1      29.607  28.517  24.173  1.00  0.00     0.163 HD
BRANCH   5   8
ATOM      8  C   UNL A   1      31.845  25.952  23.441  1.00  0.00     0.067 C 
ATOM      9  C   UNL A   1      34.725  22.932  23.613  1.00  0.00    -0.004 A 
ATOM     10  C   UNL A   1      34.344  21.629  23.878  1.00  0.00     0.032 A 
ATOM     11  C   UNL A   1      33.751  23.896  23.509  1.00  0.00     0.131 A 
ATOM     12  C   UNL A   1      33.023  21.298  24.031  1.00  0.00     0.108 A 
ATOM     13  C   UNL A   1      32.410  23.603  23.676  1.00  0.00     0.019 A 
ATOM     14  O   UNL A   1      34.135  25.160  23.134  1.00  0.00    -0.475 OA
ATOM     15  C   UNL A   1      32.061  22.282  23.937  1.00  0.00     0.036 A 
ATOM     16  C   UNL A   1      31.455  24.685  23.508  1.00  0.00     0.025 C 
ATOM     17  C   UNL A   1      33.323  26.269  23.615  1.00  0.00     0.314 C 
BRANCH   9  18
ATOM     18  C   UNL A   1      36.201  23.199  23.372  1.00  0.00     0.036 C 
ATOM     19  C   UNL A   1      36.886  23.491  24.698  1.00  0.00     0.009 C 
ENDBRANCH   9  18
BRANCH  12  20
ATOM     20  S   UNL A   1      32.544  19.584  24.355  1.00  0.00     0.310 S 
ATOM     21  F   UNL A   1      33.995  18.971  24.168  1.00  0.00    -0.094 F 
ATOM     22  F   UNL A   1      32.367  19.460  22.794  1.00  0.00    -0.094 F 
ATOM     23  F   UNL A   1      32.025  18.132  24.557  1.00  0.00    -0.094 F 
ATOM     24  F   UNL A   1      32.861  19.676  25.899  1.00  0.00    -0.094 F 
ATOM     25  F   UNL A   1      33.179  21.017  24.153  1.00  0.00    -0.094 F 
ENDBRANCH  12  20
BRANCH  17  26
ATOM     26  C   UNL A   1      33.661  27.514  22.812  1.00  0.00     0.429 C 
ATOM     27  F   UNL A   1      32.881  28.518  23.200  1.00  0.00    -0.167 F 
ATOM     28  F   UNL A   1      34.935  27.840  23.013  1.00  0.00    -0.167 F 
ATOM     29  F   UNL A   1      33.464  27.275  21.518  1.00  0.00    -0.167 F 
ENDBRANCH  17  26
ENDBRANCH   5   8
ENDBRANCH   3   4
ENDBRANCH   2   3
ENDBRANCH   1   2
BRANCH   1  30
ATOM     30  C   UNL A   1      34.112  28.666  26.441  1.00  0.00     0.116 C 
BRANCH  30  31
ATOM     31  N   UNL A   1      33.782  30.077  26.685  1.00  0.00    -0.352 N 
ATOM     32  C   UNL A   1      34.682  30.912  27.493  1.00  0.00     0.251 C 
ATOM     33  H   UNL A   1      32.960  30.463  26.307  1.00  0.00     0.163 HD
ATOM     34  O   UNL A   1      34.398  32.133  27.704  1.00  0.00    -0.269 OA
BRANCH  32  35
ATOM     35  C   UNL A   1      35.952  30.316  28.077  1.00  0.00     0.039 A 
ATOM     36  C   UNL A   1      35.890  29.626  29.276  1.00  0.00     0.014 A 
ATOM     37  C   UNL A   1      37.101  30.469  27.429  1.00  0.00     0.014 A 
ATOM     38  C   UNL A   1      37.154  29.379  29.862  1.00  0.00     0.010 A 
ATOM     39  C   UNL A   1      38.287  30.079  28.006  1.00  0.00     0.010 A 
ATOM     40  C   UNL A   1      38.304  29.445  29.218  1.00  0.00    -0.014 A 
BRANCH  40  41
ATOM     41  C   UNL A   1      39.580  28.849  29.791  1.00  0.00     0.031 A 
ATOM     42  C   UNL A   1      40.156  27.769  29.121  1.00  0.00     0.074 A 
ATOM     43  C   UNL A   1      40.099  29.411  30.944  1.00  0.00     0.049 A 
ATOM     44  N   UNL A   1      41.283  27.126  29.431  1.00  0.00    -0.248 NA
ATOM     45  C   UNL A   1      39.588  27.147  27.915  1.00  0.00     0.031 C 
ATOM     46  C   UNL A   1      39.527  30.506  31.621  1.00  0.00     0.029 A 
ATOM     47  N   UNL A   1      41.228  29.032  31.635  1.00  0.00    -0.354 N 
ATOM     48  C   UNL A   1      41.522  26.159  28.544  1.00  0.00     0.074 A 
ATOM     49  C   UNL A   1      40.431  26.155  27.559  1.00  0.00     0.031 C 
ATOM     50  C   UNL A   1      40.294  30.775  32.710  1.00  0.00     0.029 A 
ATOM     51  C   UNL A   1      41.358  29.854  32.732  1.00  0.00     0.049 A 
ATOM     52  H   UNL A   1      41.837  28.299  31.388  1.00  0.00     0.167 HD
ATOM     53  C   UNL A   1      42.607  25.281  28.517  1.00  0.00     0.034 A 
ATOM     54  C   UNL A   1      42.341  29.817  33.709  1.00  0.00     0.034 A 
ATOM     55  C   UNL A   1      43.613  25.272  29.470  1.00  0.00     0.049 A 
ATOM     56  C   UNL A   1      43.396  28.901  33.713  1.00  0.00     0.074 A 
ATOM     57  C   UNL A   1      44.718  24.399  29.452  1.00  0.00     0.029 A 
ATOM     58  N   UNL A   1      43.730  26.078  30.580  1.00  0.00    -0.354 N 
ATOM     59  N   UNL A   1      43.655  27.959  32.805  1.00  0.00    -0.248 NA
ATOM     60  C   UNL A   1      44.424  28.831  34.760  1.00  0.00     0.031 C 
ATOM     61  C   UNL A   1      45.485  24.669  30.542  1.00  0.00     0.029 A 
ATOM     62  C   UNL A   1      44.872  25.714  31.258  1.00  0.00     0.049 A 
ATOM     63  H   UNL A   1      43.105  26.792  30.844  1.00  0.00     0.167 HD
ATOM     64  C   UNL A   1      44.760  27.290  33.139  1.00  0.00     0.074 A 
ATOM     65  C   UNL A   1      45.267  27.837  34.405  1.00  0.00     0.031 C 
ATOM     66  C   UNL A   1      45.369  26.248  32.437  1.00  0.00     0.034 A 
BRANCH  53  67
ATOM     67  C   UNL A   1      42.689  24.277  27.378  1.00  0.00     0.023 A 
ATOM     68  C   UNL A   1      43.469  24.569  26.271  1.00  0.00     0.012 A 
ATOM     69  C   UNL A   1      42.012  23.138  27.462  1.00  0.00     0.148 A 
ATOM     70  C   UNL A   1      43.241  23.714  25.167  1.00  0.00     0.002 A 
ATOM     71  C   UNL A   1      41.943  22.284  26.388  1.00  0.00     0.091 A 
ATOM     72  F   UNL A   1      41.395  22.821  28.597  1.00  0.00    -0.205 F 
ATOM     73  C   UNL A   1      42.641  22.540  25.240  1.00  0.00     0.022 A 
BRANCH  71  74
ATOM     74  S   UNL A   1      40.913  20.800  26.494  1.00  0.00     0.127 S 
ATOM     75  O   UNL A   1      40.862  20.315  27.945  1.00  0.00    -0.237 OA
ATOM     76  O   UNL A   1      39.496  21.126  26.016  1.00  0.00    -0.237 OA
ATOM     77  O   UNL A   1      41.580  19.572  25.507  1.00  0.00    -0.744 OA
ENDBRANCH  71  74
ENDBRANCH  53  67
BRANCH  54  78
ATOM     78  C   UNL A   1      42.268  30.831  34.838  1.00  0.00     0.023 A 
ATOM     79  C   UNL A   1      41.545  30.528  35.980  1.00  0.00     0.012 A 
ATOM     80  C   UNL A   1      42.900  31.993  34.711  1.00  0.00     0.148 A 
ATOM     81  C   UNL A   1      41.307  31.640  36.821  1.00  0.00     0.002 A 
ATOM     82  C   UNL A   1      42.727  32.988  35.643  1.00  0.00     0.091 A 
ATOM     83  F   UNL A   1      43.706  32.195  33.674  1.00  0.00    -0.205 F 
ATOM     84  C   UNL A   1      41.977  32.777  36.767  1.00  0.00     0.022 A 
BRANCH  82  85
ATOM     85  S   UNL A   1      43.504  34.601  35.380  1.00  0.00     0.127 S 
ATOM     86  O   UNL A   1      45.026  34.443  35.399  1.00  0.00    -0.237 OA
ATOM     87  O   UNL A   1      43.066  35.164  34.027  1.00  0.00    -0.237 OA
ATOM     88  O   UNL A   1      43.027  35.673  36.624  1.00  0.00    -0.744 OA
ENDBRANCH  82  85
ENDBRANCH  54  78
BRANCH  66  89
ATOM     89  C   UNL A   1      46.654  25.664  33.000  1.00  0.00     0.023 A 
ATOM     90  C   UNL A   1      47.869  26.222  32.639  1.00  0.00     0.012 A 
ATOM     91  C   UNL A   1      46.591  24.627  33.826  1.00  0.00     0.148 A 
ATOM     92  C   UNL A   1      48.989  25.427  32.979  1.00  0.00     0.002 A 
ATOM     93  C   UNL A   1      47.735  23.981  34.227  1.00  0.00     0.091 A 
ATOM     94  F   UNL A   1      45.409  24.211  34.272  1.00  0.00    -0.205 F 
ATOM     95  C   UNL A   1      48.969  24.442  33.859  1.00  0.00     0.022 A 
BRANCH  93  96
ATOM     96  S   UNL A   1      47.608  22.497  35.255  1.00  0.00     0.127 S 
ATOM     97  O   UNL A   1      46.911  22.846  36.572  1.00  0.00    -0.237 OA
ATOM     98  O   UNL A   1      46.797  21.431  34.515  1.00  0.00    -0.237 OA
ATOM     99  O   UNL A   1      49.175  21.894  35.582  1.00  0.00    -0.744 OA
ENDBRANCH  93  96
ENDBRANCH  66  89
ENDBRANCH  40  41
ENDBRANCH  32  35
ENDBRANCH  30  31
ENDBRANCH   1  30
TORSDOF 17
ENDMDL
MODEL 2
REMARK VINA RESULT:     -12.4      4.532      9.583
REMARK SMILES CCc1cc(S(F)(F)(F)(F)F)cc2c1O[C@@H](C(F)(F)F)C(C(=O)NCCCCNC(=O)c1ccc(-c3c4nc(c(-c5cccc(S(=O)(=O)[O-])c5F)c5ccc([nH]5)c(-c5cccc(S(=O)(=O)[O-])c5F)c5nc(c(-c6cccc(S(=O)(=O)[O-])c6F)c6ccc3[nH]6)C=C5)C=C4)cc1)=C2
REMARK SMILES IDX 27 1 26 2 25 3 24 4 22 5 23 6 21 8 3 9 4 10 14 11 5 12 13 13
REMARK SMILES IDX 15 14 12 15 95 16 16 17 2 18 1 19 6 20 7 21 8 22 9 23 10 24
REMARK SMILES IDX 11 25 17 26 18 27 19 28 20 29 28 30 29 31 30 32 31 34 32 35
REMARK SMILES IDX 33 36 94 37 34 38 93 39 35 40 36 41 37 42 87 43 38 44 92 45
REMARK SMILES IDX 86 46 88 47 39 48 91 49 85 50 84 51 40 53 72 54 52 55 71 56
REMARK SMILES IDX 53 57 56 58 70 59 89 60 54 61 55 62 69 64 90 65 57 66 41 67
REMARK SMILES IDX 42 68 50 69 43 70 45 71 51 72 44 73 46 74 47 75 48 76 49 77
REMARK SMILES IDX 73 78 74 79 82 80 75 81 77 82 83 83 76 84 78 85 79 86 80 87
REMARK SMILES IDX 81 88 58 89 59 90 67 91 60 92 62 93 68 94 61 95 63 96 64 97
REMARK SMILES IDX 65 98 66 99
REMARK H PARENT 24 7 29 33 88 52 56 63
REMARK Flexibility Score: inf
ROOT
ATOM      1  C   UNL A   1      36.327  23.510  24.702  1.00  0.00     0.023 C 
ENDROOT
BRANCH   1   2
ATOM      2  C   UNL A   1      35.906  22.121  24.254  1.00  0.00     0.023 C 
BRANCH   2   3
ATOM      3  C   UNL A   1      34.639  22.220  23.419  1.00  0.00     0.116 C 
BRANCH   3   4
ATOM      4  N   UNL A   1      33.646  21.258  23.918  1.00  0.00    -0.352 N 
ATOM      5  C   UNL A   1      32.472  21.734  24.663  1.00  0.00     0.251 C 
ATOM      6  O   UNL A   1      31.614  20.901  25.095  1.00  0.00    -0.270 OA
ATOM      7  H   UNL A   1      33.768  20.295  23.753  1.00  0.00     0.163 HD
BRANCH   5   8
ATOM      8  C   UNL A   1      32.284  23.220  24.919  1.00  0.00     0.067 C 
ATOM      9  C   UNL A   1      31.432  27.168  25.985  1.00  0.00    -0.004 A 
ATOM     10  C   UNL A   1      30.768  27.994  25.097  1.00  0.00     0.032 A 
ATOM     11  C   UNL A   1      31.652  25.859  25.629  1.00  0.00     0.131 A 
ATOM     12  C   UNL A   1      30.329  27.523  23.887  1.00  0.00     0.108 A 
ATOM     13  C   UNL A   1      31.241  25.352  24.410  1.00  0.00     0.019 A 
ATOM     14  O   UNL A   1      32.212  25.023  26.565  1.00  0.00    -0.475 OA
ATOM     15  C   UNL A   1      30.572  26.209  23.543  1.00  0.00     0.036 A 
ATOM     16  C   UNL A   1      31.487  23.945  24.144  1.00  0.00     0.025 C 
ATOM     17  C   UNL A   1      33.006  23.910  26.068  1.00  0.00     0.314 C 
BRANCH   9  18
ATOM     18  C   UNL A   1      31.809  27.746  27.339  1.00  0.00     0.036 C 
ATOM     19  C   UNL A   1      31.834  29.264  27.253  1.00  0.00     0.009 C 
ENDBRANCH   9  18
BRANCH  12  20
ATOM     20  S   UNL A   1      29.441  28.614  22.750  1.00  0.00     0.310 S 
ATOM     21  F   UNL A   1      29.407  29.868  23.722  1.00  0.00    -0.094 F 
ATOM     22  F   UNL A   1      28.134  28.109  23.470  1.00  0.00    -0.094 F 
ATOM     23  F   UNL A   1      28.599  29.449  21.745  1.00  0.00    -0.094 F 
ATOM     24  F   UNL A   1      30.762  29.220  22.133  1.00  0.00    -0.094 F 
ATOM     25  F   UNL A   1      30.310  27.862  23.836  1.00  0.00    -0.094 F 
ENDBRANCH  12  20
BRANCH  17  26
ATOM     26  C   UNL A   1      33.216  22.910  27.194  1.00  0.00     0.429 C 
ATOM     27  F   UNL A   1      33.952  23.467  28.150  1.00  0.00    -0.167 F 
ATOM     28  F   UNL A   1      32.036  22.551  27.694  1.00  0.00    -0.167 F 
ATOM     29  F   UNL A   1      33.842  21.835  26.721  1.00  0.00    -0.167 F 
ENDBRANCH  17  26
ENDBRANCH   5   8
ENDBRANCH   3   4
ENDBRANCH   2   3
ENDBRANCH   1   2
BRANCH   1  30
ATOM     30  C   UNL A   1      36.998  23.422  26.064  1.00  0.00     0.116 C 
BRANCH  30  31
ATOM     31  N   UNL A   1      37.942  22.295  26.072  1.00  0.00    -0.352 N 
ATOM     32  C   UNL A   1      39.326  22.500  26.524  1.00  0.00     0.251 C 
ATOM     33  H   UNL A   1      37.648  21.405  25.776  1.00  0.00     0.163 HD
ATOM     34  O   UNL A   1      40.142  21.526  26.532  1.00  0.00    -0.269 OA
BRANCH  32  35
ATOM     35  C   UNL A   1      39.780  23.876  26.981  1.00  0.00     0.039 A 
ATOM     36  C   UNL A   1      39.944  24.123  28.334  1.00  0.00     0.014 A 
ATOM     37  C   UNL A   1      40.010  24.820  26.076  1.00  0.00     0.014 A 
ATOM     38  C   UNL A   1      40.077  25.495  28.655  1.00  0.00     0.010 A 
ATOM     39  C   UNL A   1      40.269  26.114  26.464  1.00  0.00     0.010 A 
ATOM     40  C   UNL A   1      40.385  26.441  27.787  1.00  0.00    -0.014 A 
BRANCH  40  41
ATOM     41  C   UNL A   1      40.845  27.819  28.233  1.00  0.00     0.031 A 
ATOM     42  C   UNL A   1      39.878  28.717  28.688  1.00  0.00     0.074 A 
ATOM     43  C   UNL A   1      42.197  28.107  28.164  1.00  0.00     0.049 A 
ATOM     44  N   UNL A   1      40.069  29.952  29.154  1.00  0.00    -0.248 NA
ATOM     45  C   UNL A   1      38.437  28.426  28.730  1.00  0.00     0.031 C 
ATOM     46  C   UNL A   1      43.179  27.203  27.713  1.00  0.00     0.029 A 
ATOM     47  N   UNL A   1      42.830  29.282  28.506  1.00  0.00    -0.354 N 
ATOM     48  C   UNL A   1      38.905  30.495  29.514  1.00  0.00     0.074 A 
ATOM     49  C   UNL A   1      37.837  29.523  29.240  1.00  0.00     0.031 C 
ATOM     50  C   UNL A   1      44.385  27.828  27.771  1.00  0.00     0.029 A 
ATOM     51  C   UNL A   1      44.177  29.132  28.260  1.00  0.00     0.049 A 
ATOM     52  H   UNL A   1      42.395  30.089  28.863  1.00  0.00     0.167 HD
ATOM     53  C   UNL A   1      38.692  31.761  30.060  1.00  0.00     0.034 A 
ATOM     54  C   UNL A   1      45.182  30.069  28.443  1.00  0.00     0.034 A 
ATOM     55  C   UNL A   1      39.702  32.683  30.283  1.00  0.00     0.049 A 
ATOM     56  C   UNL A   1      44.961  31.358  28.936  1.00  0.00     0.074 A 
ATOM     57  C   UNL A   1      39.506  33.961  30.841  1.00  0.00     0.029 A 
ATOM     58  N   UNL A   1      41.046  32.542  30.015  1.00  0.00    -0.354 N 
ATOM     59  N   UNL A   1      43.802  31.886  29.331  1.00  0.00    -0.248 NA
ATOM     60  C   UNL A   1      46.013  32.368  29.103  1.00  0.00     0.031 C 
ATOM     61  C   UNL A   1      40.712  34.586  30.899  1.00  0.00     0.029 A 
ATOM     62  C   UNL A   1      41.682  33.709  30.378  1.00  0.00     0.049 A 
ATOM     63  H   UNL A   1      41.478  31.745  29.629  1.00  0.00     0.167 HD
ATOM     64  C   UNL A   1      43.989  33.136  29.759  1.00  0.00     0.074 A 
ATOM     65  C   UNL A   1      45.412  33.467  29.612  1.00  0.00     0.031 C 
ATOM     66  C   UNL A   1      43.030  34.013  30.269  1.00  0.00     0.034 A 
BRANCH  53  67
ATOM     67  C   UNL A   1      37.270  32.153  30.430  1.00  0.00     0.023 A 
ATOM     68  C   UNL A   1      36.833  31.972  31.732  1.00  0.00     0.012 A 
ATOM     69  C   UNL A   1      36.470  32.661  29.499  1.00  0.00     0.148 A 
ATOM     70  C   UNL A   1      35.432  32.092  31.889  1.00  0.00     0.002 A 
ATOM     71  C   UNL A   1      35.140  32.880  29.764  1.00  0.00     0.091 A 
ATOM     72  F   UNL A   1      36.962  32.962  28.301  1.00  0.00    -0.205 F 
ATOM     73  C   UNL A   1      34.627  32.666  31.013  1.00  0.00     0.022 A 
BRANCH  71  74
ATOM     74  S   UNL A   1      34.051  33.458  28.439  1.00  0.00     0.127 S 
ATOM     75  O   UNL A   1      33.564  32.261  27.618  1.00  0.00    -0.237 OA
ATOM     76  O   UNL A   1      32.847  34.182  29.047  1.00  0.00    -0.237 OA
ATOM     77  O   UNL A   1      34.910  34.533  27.424  1.00  0.00    -0.744 OA
ENDBRANCH  71  74
ENDBRANCH  53  67
BRANCH  54  78
ATOM     78  C   UNL A   1      46.606  29.671  28.089  1.00  0.00     0.023 A 
ATOM     79  C   UNL A   1      47.063  29.862  26.795  1.00  0.00     0.012 A 
ATOM     80  C   UNL A   1      47.387  29.147  29.027  1.00  0.00     0.148 A 
ATOM     81  C   UNL A   1      48.280  29.196  26.514  1.00  0.00     0.002 A 
ATOM     82  C   UNL A   1      48.621  28.638  28.702  1.00  0.00     0.091 A 
ATOM     83  F   UNL A   1      46.972  29.116  30.289  1.00  0.00    -0.205 F 
ATOM     84  C   UNL A   1      49.113  28.738  27.431  1.00  0.00     0.022 A 
BRANCH  82  85
ATOM     85  S   UNL A   1      49.612  27.822  29.979  1.00  0.00     0.127 S 
ATOM     86  O   UNL A   1      48.842  26.620  30.531  1.00  0.00    -0.237 OA
ATOM     87  O   UNL A   1      50.933  27.345  29.373  1.00  0.00    -0.237 OA
ATOM     88  O   UNL A   1      49.931  28.925  31.246  1.00  0.00    -0.744 OA
ENDBRANCH  82  85
ENDBRANCH  54  78
BRANCH  66  89
ATOM     89  C   UNL A   1      43.493  35.384  30.733  1.00  0.00     0.023 A 
ATOM     90  C   UNL A   1      43.921  35.551  32.039  1.00  0.00     0.012 A 
ATOM     91  C   UNL A   1      43.476  36.401  29.878  1.00  0.00     0.148 A 
ATOM     92  C   UNL A   1      44.043  36.904  32.434  1.00  0.00     0.002 A 
ATOM     93  C   UNL A   1      43.737  37.679  30.307  1.00  0.00     0.091 A 
ATOM     94  F   UNL A   1      43.204  36.178  28.595  1.00  0.00    -0.205 F 
ATOM     95  C   UNL A   1      44.110  37.925  31.599  1.00  0.00     0.022 A 
BRANCH  93  96
ATOM     96  S   UNL A   1      43.587  39.058  29.144  1.00  0.00     0.127 S 
ATOM     97  O   UNL A   1      44.618  38.898  28.026  1.00  0.00    -0.237 OA
ATOM     98  O   UNL A   1      42.179  39.068  28.543  1.00  0.00    -0.237 OA
ATOM     99  O   UNL A   1      43.864  40.531  29.968  1.00  0.00    -0.744 OA
ENDBRANCH  93  96
ENDBRANCH  66  89
ENDBRANCH  40  41
ENDBRANCH  32  35
ENDBRANCH  30  31
ENDBRANCH   1  30
TORSDOF 17
ENDMDL
MODEL 3
REMARK VINA RESULT:     -12.4      3.354      8.147
REMARK SMILES CCc1cc(S(F)(F)(F)(F)F)cc2c1O[C@@H](C(F)(F)F)C(C(=O)NCCCCNC(=O)c1ccc(-c3c4nc(c(-c5cccc(S(=O)(=O)[O-])c5F)c5ccc([nH]5)c(-c5cccc(S(=O)(=O)[O-])c5F)c5nc(c(-c6cccc(S(=O)(=O)[O-])c6F)c6ccc3[nH]6)C=C5)C=C4)cc1)=C2
REMARK SMILES IDX 27 1 26 2 25 3 24 4 22 5 23 6 21 8 3 9 4 10 14 11 5 12 13 13
REMARK SMILES IDX 15 14 12 15 95 16 16 17 2 18 1 19 6 20 7 21 8 22 9 23 10 24
REMARK SMILES IDX 11 25 17 26 18 27 19 28 20 29 28 30 29 31 30 32 31 34 32 35
REMARK SMILES IDX 33 36 94 37 34 38 93 39 35 40 36 41 37 42 87 43 38 44 92 45
REMARK SMILES IDX 86 46 88 47 39 48 91 49 85 50 84 51 40 53 72 54 52 55 71 56
REMARK SMILES IDX 53 57 56 58 70 59 89 60 54 61 55 62 69 64 90 65 57 66 41 67
REMARK SMILES IDX 42 68 50 69 43 70 45 71 51 72 44 73 46 74 47 75 48 76 49 77
REMARK SMILES IDX 73 78 74 79 82 80 75 81 77 82 83 83 76 84 78 85 79 86 80 87
REMARK SMILES IDX 81 88 58 89 59 90 67 91 60 92 62 93 68 94 61 95 63 96 64 97
REMARK SMILES IDX 65 98 66 99
REMARK H PARENT 24 7 29 33 88 52 56 63
REMARK Flexibility Score: inf
ROOT
ATOM      1  C   UNL A   1      33.268  32.384  27.708  1.00  0.00     0.023 C 
ENDROOT
BRANCH   1   2
ATOM      2  C   UNL A   1      34.478  31.468  27.634  1.00  0.00     0.023 C 
BRANCH   2   3
ATOM      3  C   UNL A   1      34.056  30.116  27.079  1.00  0.00     0.116 C 
BRANCH   3   4
ATOM      4  N   UNL A   1      32.842  29.660  27.770  1.00  0.00    -0.352 N 
ATOM      5  C   UNL A   1      32.144  28.452  27.310  1.00  0.00     0.251 C 
ATOM      6  O   UNL A   1      31.094  28.058  27.908  1.00  0.00    -0.270 OA
ATOM      7  H   UNL A   1      32.495  30.166  28.542  1.00  0.00     0.163 HD
BRANCH   5   8
ATOM      8  C   UNL A   1      32.678  27.672  26.119  1.00  0.00     0.067 C 
ATOM      9  C   UNL A   1      33.675  25.325  22.812  1.00  0.00    -0.004 A 
ATOM     10  C   UNL A   1      34.574  24.284  22.950  1.00  0.00     0.032 A 
ATOM     11  C   UNL A   1      33.324  26.047  23.927  1.00  0.00     0.131 A 
ATOM     12  C   UNL A   1      35.104  23.968  24.174  1.00  0.00     0.108 A 
ATOM     13  C   UNL A   1      33.853  25.770  25.174  1.00  0.00     0.019 A 
ATOM     14  O   UNL A   1      32.348  27.003  23.794  1.00  0.00    -0.475 OA
ATOM     15  C   UNL A   1      34.751  24.713  25.280  1.00  0.00     0.036 A 
ATOM     16  C   UNL A   1      33.389  26.566  26.298  1.00  0.00     0.025 C 
ATOM     17  C   UNL A   1      32.408  28.143  24.697  1.00  0.00     0.314 C 
BRANCH   9  18
ATOM     18  C   UNL A   1      33.068  25.555  21.437  1.00  0.00     0.036 C 
ATOM     19  C   UNL A   1      33.013  24.236  20.681  1.00  0.00     0.009 C 
ENDBRANCH   9  18
BRANCH  12  20
ATOM     20  S   UNL A   1      36.261  22.586  24.338  1.00  0.00     0.310 S 
ATOM     21  F   UNL A   1      36.692  22.553  22.811  1.00  0.00    -0.094 F 
ATOM     22  F   UNL A   1      35.042  21.670  23.941  1.00  0.00    -0.094 F 
ATOM     23  F   UNL A   1      37.164  21.339  24.555  1.00  0.00    -0.094 F 
ATOM     24  F   UNL A   1      37.507  23.522  24.594  1.00  0.00    -0.094 F 
ATOM     25  F   UNL A   1      35.388  23.862  24.010  1.00  0.00    -0.094 F 
ENDBRANCH  12  20
BRANCH  17  26
ATOM     26  C   UNL A   1      31.076  28.875  24.661  1.00  0.00     0.429 C 
ATOM     27  F   UNL A   1      31.138  29.947  25.445  1.00  0.00    -0.167 F 
ATOM     28  F   UNL A   1      30.811  29.253  23.413  1.00  0.00    -0.167 F 
ATOM     29  F   UNL A   1      30.113  28.065  25.093  1.00  0.00    -0.167 F 
ENDBRANCH  17  26
ENDBRANCH   5   8
ENDBRANCH   3   4
ENDBRANCH   2   3
ENDBRANCH   1   2
BRANCH   1  30
ATOM     30  C   UNL A   1      33.708  33.822  27.482  1.00  0.00     0.116 C 
BRANCH  30  31
ATOM     31  N   UNL A   1      32.926  34.715  28.350  1.00  0.00    -0.352 N 
ATOM     32  C   UNL A   1      33.330  34.919  29.748  1.00  0.00     0.251 C 
ATOM     33  H   UNL A   1      32.133  35.177  27.994  1.00  0.00     0.163 HD
ATOM     34  O   UNL A   1      32.654  35.692  30.498  1.00  0.00    -0.269 OA
BRANCH  32  35
ATOM     35  C   UNL A   1      34.554  34.207  30.297  1.00  0.00     0.039 A 
ATOM     36  C   UNL A   1      35.811  34.561  29.834  1.00  0.00     0.014 A 
ATOM     37  C   UNL A   1      34.400  33.254  31.209  1.00  0.00     0.014 A 
ATOM     38  C   UNL A   1      36.831  33.646  30.186  1.00  0.00     0.010 A 
ATOM     39  C   UNL A   1      35.469  32.487  31.607  1.00  0.00     0.010 A 
ATOM     40  C   UNL A   1      36.730  32.743  31.144  1.00  0.00    -0.014 A 
BRANCH  40  41
ATOM     41  C   UNL A   1      37.949  32.027  31.703  1.00  0.00     0.031 A 
ATOM     42  C   UNL A   1      38.480  32.484  32.910  1.00  0.00     0.074 A 
ATOM     43  C   UNL A   1      38.463  30.962  30.984  1.00  0.00     0.049 A 
ATOM     44  N   UNL A   1      39.515  31.981  33.585  1.00  0.00    -0.248 NA
ATOM     45  C   UNL A   1      37.957  33.637  33.658  1.00  0.00     0.031 C 
ATOM     46  C   UNL A   1      37.927  30.490  29.770  1.00  0.00     0.029 A 
ATOM     47  N   UNL A   1      39.554  30.180  31.295  1.00  0.00    -0.354 N 
ATOM     48  C   UNL A   1      39.714  32.675  34.708  1.00  0.00     0.074 A 
ATOM     49  C   UNL A   1      38.718  33.754  34.767  1.00  0.00     0.031 C 
ATOM     50  C   UNL A   1      38.691  29.448  29.349  1.00  0.00     0.029 A 
ATOM     51  C   UNL A   1      39.715  29.249  30.293  1.00  0.00     0.049 A 
ATOM     52  H   UNL A   1      40.120  30.272  32.095  1.00  0.00     0.167 HD
ATOM     53  C   UNL A   1      40.685  32.449  35.684  1.00  0.00     0.034 A 
ATOM     54  C   UNL A   1      40.697  28.277  30.190  1.00  0.00     0.034 A 
ATOM     55  C   UNL A   1      41.640  31.448  35.602  1.00  0.00     0.049 A 
ATOM     56  C   UNL A   1      41.705  28.087  31.139  1.00  0.00     0.074 A 
ATOM     57  C   UNL A   1      42.622  31.201  36.582  1.00  0.00     0.029 A 
ATOM     58  N   UNL A   1      41.817  30.533  34.588  1.00  0.00    -0.354 N 
ATOM     59  N   UNL A   1      41.880  28.756  32.279  1.00  0.00    -0.248 NA
ATOM     60  C   UNL A   1      42.768  27.081  31.024  1.00  0.00     0.031 C 
ATOM     61  C   UNL A   1      43.385  30.159  36.160  1.00  0.00     0.029 A 
ATOM     62  C   UNL A   1      42.895  29.737  34.910  1.00  0.00     0.049 A 
ATOM     63  H   UNL A   1      41.269  30.460  33.774  1.00  0.00     0.167 HD
ATOM     64  C   UNL A   1      42.940  28.278  32.935  1.00  0.00     0.074 A 
ATOM     65  C   UNL A   1      43.531  27.199  32.133  1.00  0.00     0.031 C 
ATOM     66  C   UNL A   1      43.436  28.697  34.170  1.00  0.00     0.034 A 
BRANCH  53  67
ATOM     67  C   UNL A   1      40.697  33.352  36.907  1.00  0.00     0.023 A 
ATOM     68  C   UNL A   1      41.543  34.449  36.932  1.00  0.00     0.012 A 
ATOM     69  C   UNL A   1      39.898  33.075  37.931  1.00  0.00     0.148 A 
ATOM     70  C   UNL A   1      41.684  35.035  38.213  1.00  0.00     0.002 A 
ATOM     71  C   UNL A   1      39.997  33.779  39.107  1.00  0.00     0.091 A 
ATOM     72  F   UNL A   1      38.993  32.108  37.816  1.00  0.00    -0.205 F 
ATOM     73  C   UNL A   1      40.855  34.838  39.222  1.00  0.00     0.022 A 
BRANCH  71  74
ATOM     74  S   UNL A   1      38.979  33.298  40.523  1.00  0.00     0.127 S 
ATOM     75  O   UNL A   1      39.244  34.252  41.691  1.00  0.00    -0.237 OA
ATOM     76  O   UNL A   1      37.500  33.367  40.136  1.00  0.00    -0.237 OA
ATOM     77  O   UNL A   1      39.372  31.701  40.991  1.00  0.00    -0.744 OA
ENDBRANCH  71  74
ENDBRANCH  53  67
BRANCH  54  78
ATOM     78  C   UNL A   1      40.675  27.362  28.975  1.00  0.00     0.023 A 
ATOM     79  C   UNL A   1      39.814  26.278  28.956  1.00  0.00     0.012 A 
ATOM     80  C   UNL A   1      41.483  27.619  27.952  1.00  0.00     0.148 A 
ATOM     81  C   UNL A   1      40.085  25.348  27.924  1.00  0.00     0.002 A 
ATOM     82  C   UNL A   1      41.597  26.729  26.912  1.00  0.00     0.091 A 
ATOM     83  F   UNL A   1      42.187  28.747  27.936  1.00  0.00    -0.205 F 
ATOM     84  C   UNL A   1      40.819  25.607  26.857  1.00  0.00     0.022 A 
BRANCH  82  85
ATOM     85  S   UNL A   1      42.795  27.048  25.593  1.00  0.00     0.127 S 
ATOM     86  O   UNL A   1      42.273  28.167  24.690  1.00  0.00    -0.237 OA
ATOM     87  O   UNL A   1      44.131  27.470  26.208  1.00  0.00    -0.237 OA
ATOM     88  O   UNL A   1      43.017  25.627  24.669  1.00  0.00    -0.744 OA
ENDBRANCH  82  85
ENDBRANCH  54  78
BRANCH  66  89
ATOM     89  C   UNL A   1      44.643  27.969  34.738  1.00  0.00     0.023 A 
ATOM     90  C   UNL A   1      45.914  28.452  34.473  1.00  0.00     0.012 A 
ATOM     91  C   UNL A   1      44.459  26.882  35.477  1.00  0.00     0.148 A 
ATOM     92  C   UNL A   1      46.950  27.544  34.796  1.00  0.00     0.002 A 
ATOM     93  C   UNL A   1      45.529  26.116  35.872  1.00  0.00     0.091 A 
ATOM     94  F   UNL A   1      43.228  26.531  35.839  1.00  0.00    -0.205 F 
ATOM     95  C   UNL A   1      46.811  26.501  35.594  1.00  0.00     0.022 A 
BRANCH  93  96
ATOM     96  S   UNL A   1      45.238  24.574  36.774  1.00  0.00     0.127 S 
ATOM     97  O   UNL A   1      44.567  24.885  38.114  1.00  0.00    -0.237 OA
ATOM     98  O   UNL A   1      44.327  23.663  35.947  1.00  0.00    -0.237 OA
ATOM     99  O   UNL A   1      46.730  23.786  37.053  1.00  0.00    -0.744 OA
ENDBRANCH  93  96
ENDBRANCH  66  89
ENDBRANCH  40  41
ENDBRANCH  32  35
ENDBRANCH  30  31
ENDBRANCH   1  30
TORSDOF 17
ENDMDL
