MODEL 1
REMARK VINA RESULT:     -10.9      0.000      0.000
REMARK SMILES O=C(NCCCCNC(=O)[C@H](O)Cc1ccc(O)cc1)c1ccc(-c2c3nc(c(-c4cccc(S(=O)(=O)[O-])c4F)c4ccc([nH]4)c(-c4cccc(S(=O)(=O)[O-])c4F)c4nc(c(-c5cccc(S(=O)(=O)[O-])c5F)c5ccc2[nH]5)C=C4)C=C3)cc1
REMARK SMILES IDX 5 1 4 2 3 3 1 4 2 5 21 7 22 8 83 9 23 10 82 11 24 12 25 13
REMARK SMILES IDX 26 14 76 15 27 16 81 17 75 18 77 19 28 20 80 21 74 22 73 23
REMARK SMILES IDX 29 25 61 26 41 27 60 28 42 29 45 30 59 31 78 32 43 33 44 34
REMARK SMILES IDX 58 36 79 37 46 38 30 39 31 40 39 41 32 42 34 43 40 44 33 45
REMARK SMILES IDX 35 46 36 47 37 48 38 49 62 50 63 51 71 52 64 53 66 54 72 55
REMARK SMILES IDX 65 56 67 57 68 58 69 59 70 60 47 61 48 62 56 63 49 64 51 65
REMARK SMILES IDX 57 66 50 67 52 68 53 69 54 70 55 71 6 72 7 73 8 74 9 75
REMARK SMILES IDX 10 77 11 78 13 79 14 80 15 81 20 82 16 83 19 84 17 85 18 86
REMARK SMILES IDX 12 88
REMARK H PARENT 3 6 77 24 45 35 8 76 18 87 12 89
REMARK Flexibility Score: inf
ROOT
ATOM      1  C   UNL A   1      34.595  34.509  27.919  1.00  0.00     0.023 C 
ENDROOT
BRANCH   1   2
ATOM      2  C   UNL A   1      35.139  33.128  28.266  1.00  0.00     0.116 C 
BRANCH   2   3
ATOM      3  N   UNL A   1      34.271  32.058  27.805  1.00  0.00    -0.352 N 
ATOM      4  O   UNL A   1      33.725  30.005  27.071  1.00  0.00    -0.269 OA
ATOM      5  C   UNL A   1      34.540  30.719  27.651  1.00  0.00     0.251 C 
ATOM      6  H   UNL A   1      33.356  32.331  27.570  1.00  0.00     0.163 HD
BRANCH   5   7
ATOM      7  C   UNL A   1      35.810  30.151  28.154  1.00  0.00     0.039 A 
ATOM      8  C   UNL A   1      35.896  29.604  29.437  1.00  0.00     0.014 A 
ATOM      9  C   UNL A   1      36.928  30.154  27.317  1.00  0.00     0.014 A 
ATOM     10  C   UNL A   1      37.128  29.183  29.933  1.00  0.00     0.010 A 
ATOM     11  C   UNL A   1      38.146  29.661  27.790  1.00  0.00     0.010 A 
ATOM     12  C   UNL A   1      38.264  29.202  29.112  1.00  0.00    -0.014 A 
BRANCH  12  13
ATOM     13  C   UNL A   1      39.565  28.691  29.613  1.00  0.00     0.031 A 
ATOM     14  C   UNL A   1      40.302  29.409  30.708  1.00  0.00     0.074 A 
ATOM     15  C   UNL A   1      40.113  27.609  29.028  1.00  0.00     0.049 A 
ATOM     16  N   UNL A   1      41.490  29.167  31.198  1.00  0.00    -0.248 NA
ATOM     17  C   UNL A   1      39.620  30.557  31.326  1.00  0.00     0.031 C 
ATOM     18  C   UNL A   1      39.506  26.848  27.934  1.00  0.00     0.029 A 
ATOM     19  N   UNL A   1      41.317  26.986  29.241  1.00  0.00    -0.354 N 
ATOM     20  C   UNL A   1      41.722  30.159  32.143  1.00  0.00     0.074 A 
ATOM     21  C   UNL A   1      40.550  31.008  32.157  1.00  0.00     0.031 C 
ATOM     22  C   UNL A   1      40.346  25.874  27.558  1.00  0.00     0.029 A 
ATOM     23  C   UNL A   1      41.572  25.976  28.344  1.00  0.00     0.049 A 
ATOM     24  H   UNL A   1      41.935  27.236  29.965  1.00  0.00     0.167 HD
ATOM     25  C   UNL A   1      42.810  30.341  32.931  1.00  0.00     0.034 A 
ATOM     26  C   UNL A   1      42.682  25.240  28.141  1.00  0.00     0.034 A 
ATOM     27  C   UNL A   1      43.962  29.478  32.924  1.00  0.00     0.049 A 
ATOM     28  C   UNL A   1      43.875  25.457  29.026  1.00  0.00     0.074 A 
ATOM     29  C   UNL A   1      45.082  29.532  33.735  1.00  0.00     0.029 A 
ATOM     30  N   UNL A   1      44.155  28.420  32.049  1.00  0.00    -0.354 N 
ATOM     31  N   UNL A   1      44.028  26.318  30.000  1.00  0.00    -0.248 NA
ATOM     32  C   UNL A   1      45.036  24.581  28.807  1.00  0.00     0.031 C 
ATOM     33  C   UNL A   1      45.967  28.530  33.326  1.00  0.00     0.029 A 
ATOM     34  C   UNL A   1      45.380  27.823  32.288  1.00  0.00     0.049 A 
ATOM     35  H   UNL A   1      43.513  28.134  31.359  1.00  0.00     0.167 HD
ATOM     36  C   UNL A   1      45.285  26.067  30.538  1.00  0.00     0.074 A 
ATOM     37  C   UNL A   1      45.850  24.967  29.781  1.00  0.00     0.031 C 
ATOM     38  C   UNL A   1      45.911  26.695  31.564  1.00  0.00     0.034 A 
BRANCH  25  39
ATOM     39  C   UNL A   1      42.801  31.515  33.877  1.00  0.00     0.023 A 
ATOM     40  C   UNL A   1      43.349  32.751  33.471  1.00  0.00     0.012 A 
ATOM     41  C   UNL A   1      42.217  31.408  35.154  1.00  0.00     0.148 A 
ATOM     42  C   UNL A   1      43.358  33.843  34.337  1.00  0.00     0.002 A 
ATOM     43  C   UNL A   1      42.188  32.515  35.995  1.00  0.00     0.091 A 
ATOM     44  F   UNL A   1      41.718  30.223  35.534  1.00  0.00    -0.205 F 
ATOM     45  C   UNL A   1      42.771  33.728  35.595  1.00  0.00     0.022 A 
BRANCH  43  46
ATOM     46  S   UNL A   1      41.381  32.482  37.599  1.00  0.00     0.127 S 
ATOM     47  O   UNL A   1      40.032  32.048  37.242  1.00  0.00    -0.237 OA
ATOM     48  O   UNL A   1      42.169  31.484  38.324  1.00  0.00    -0.237 OA
ATOM     49  O   UNL A   1      41.491  33.835  38.127  1.00  0.00    -0.744 OA
ENDBRANCH  43  46
ENDBRANCH  25  39
BRANCH  26  50
ATOM     50  C   UNL A   1      42.682  24.217  27.060  1.00  0.00     0.023 A 
ATOM     51  C   UNL A   1      43.380  24.468  25.865  1.00  0.00     0.012 A 
ATOM     52  C   UNL A   1      42.070  22.962  27.253  1.00  0.00     0.148 A 
ATOM     53  C   UNL A   1      43.458  23.490  24.873  1.00  0.00     0.002 A 
ATOM     54  C   UNL A   1      42.201  21.974  26.287  1.00  0.00     0.091 A 
ATOM     55  F   UNL A   1      41.409  22.750  28.400  1.00  0.00    -0.205 F 
ATOM     56  C   UNL A   1      42.882  22.241  25.089  1.00  0.00     0.022 A 
BRANCH  54  57
ATOM     57  S   UNL A   1      41.618  20.293  26.535  1.00  0.00     0.127 S 
ATOM     58  O   UNL A   1      40.169  20.476  26.534  1.00  0.00    -0.237 OA
ATOM     59  O   UNL A   1      42.156  19.614  25.355  1.00  0.00    -0.237 OA
ATOM     60  O   UNL A   1      42.195  19.855  27.799  1.00  0.00    -0.744 OA
ENDBRANCH  54  57
ENDBRANCH  26  50
BRANCH  38  61
ATOM     61  C   UNL A   1      47.264  26.184  31.983  1.00  0.00     0.023 A 
ATOM     62  C   UNL A   1      48.432  26.711  31.402  1.00  0.00     0.012 A 
ATOM     63  C   UNL A   1      47.372  25.262  33.044  1.00  0.00     0.148 A 
ATOM     64  C   UNL A   1      49.690  26.317  31.859  1.00  0.00     0.002 A 
ATOM     65  C   UNL A   1      48.626  24.911  33.527  1.00  0.00     0.091 A 
ATOM     66  F   UNL A   1      46.245  24.758  33.568  1.00  0.00    -0.205 F 
ATOM     67  C   UNL A   1      49.786  25.430  32.930  1.00  0.00     0.022 A 
BRANCH  65  68
ATOM     68  S   UNL A   1      48.845  23.859  34.966  1.00  0.00     0.127 S 
ATOM     69  O   UNL A   1      48.234  22.608  34.516  1.00  0.00    -0.237 OA
ATOM     70  O   UNL A   1      50.302  23.814  35.097  1.00  0.00    -0.237 OA
ATOM     71  O   UNL A   1      48.158  24.524  36.065  1.00  0.00    -0.744 OA
ENDBRANCH  65  68
ENDBRANCH  38  61
ENDBRANCH  12  13
ENDBRANCH   5   7
ENDBRANCH   2   3
ENDBRANCH   1   2
BRANCH   1  72
ATOM     72  C   UNL A   1      34.429  35.465  29.104  1.00  0.00     0.023 C 
BRANCH  72  73
ATOM     73  C   UNL A   1      33.169  36.327  29.073  1.00  0.00     0.116 C 
BRANCH  73  74
ATOM     74  N   UNL A   1      33.176  37.349  30.102  1.00  0.00    -0.354 N 
ATOM     75  C   UNL A   1      33.164  37.208  31.461  1.00  0.00     0.249 C 
ATOM     76  H   UNL A   1      33.192  38.278  29.776  1.00  0.00     0.163 HD
ATOM     77  O   UNL A   1      33.121  38.228  32.151  1.00  0.00    -0.272 OA
BRANCH  75  78
ATOM     78  C   UNL A   1      33.152  35.798  32.081  1.00  0.00     0.207 C 
BRANCH  78  79
ATOM     79  C   UNL A   1      34.257  35.690  33.145  1.00  0.00     0.077 C 
BRANCH  79  80
ATOM     80  C   UNL A   1      34.947  34.342  33.123  1.00  0.00    -0.045 A 
ATOM     81  C   UNL A   1      34.698  33.418  32.098  1.00  0.00     0.007 A 
ATOM     82  C   UNL A   1      35.843  33.998  34.146  1.00  0.00     0.007 A 
ATOM     83  C   UNL A   1      35.338  32.174  32.099  1.00  0.00     0.046 A 
ATOM     84  C   UNL A   1      36.471  32.755  34.153  1.00  0.00     0.046 A 
ATOM     85  C   UNL A   1      36.219  31.855  33.127  1.00  0.00     0.115 A 
BRANCH  85  86
ATOM     86  O   UNL A   1      36.868  30.656  33.162  1.00  0.00    -0.508 OA
ATOM     87  H   UNL A   1      36.386  29.859  33.062  1.00  0.00     0.293 HD
ENDBRANCH  85  86
ENDBRANCH  79  80
ENDBRANCH  78  79
BRANCH  78  88
ATOM     88  O   UNL A   1      31.887  35.512  32.687  1.00  0.00    -0.383 OA
ATOM     89  H   UNL A   1      31.203  35.469  32.001  1.00  0.00     0.211 HD
ENDBRANCH  78  88
ENDBRANCH  75  78
ENDBRANCH  73  74
ENDBRANCH  72  73
ENDBRANCH   1  72
TORSDOF 18
ENDMDL
MODEL 2
REMARK VINA RESULT:     -10.6      3.219      6.023
REMARK SMILES O=C(NCCCCNC(=O)[C@H](O)Cc1ccc(O)cc1)c1ccc(-c2c3nc(c(-c4cccc(S(=O)(=O)[O-])c4F)c4ccc([nH]4)c(-c4cccc(S(=O)(=O)[O-])c4F)c4nc(c(-c5cccc(S(=O)(=O)[O-])c5F)c5ccc2[nH]5)C=C4)C=C3)cc1
REMARK SMILES IDX 5 1 4 2 3 3 1 4 2 5 21 7 22 8 83 9 23 10 82 11 24 12 25 13
REMARK SMILES IDX 26 14 76 15 27 16 81 17 75 18 77 19 28 20 80 21 74 22 73 23
REMARK SMILES IDX 29 25 61 26 41 27 60 28 42 29 45 30 59 31 78 32 43 33 44 34
REMARK SMILES IDX 58 36 79 37 46 38 30 39 31 40 39 41 32 42 34 43 40 44 33 45
REMARK SMILES IDX 35 46 36 47 37 48 38 49 62 50 63 51 71 52 64 53 66 54 72 55
REMARK SMILES IDX 65 56 67 57 68 58 69 59 70 60 47 61 48 62 56 63 49 64 51 65
REMARK SMILES IDX 57 66 50 67 52 68 53 69 54 70 55 71 6 72 7 73 8 74 9 75
REMARK SMILES IDX 10 77 11 78 13 79 14 80 15 81 20 82 16 83 19 84 17 85 18 86
REMARK SMILES IDX 12 88
REMARK H PARENT 3 6 77 24 45 35 8 76 18 87 12 89
REMARK Flexibility Score: inf
ROOT
ATOM      1  C   UNL A   1      32.615  27.893  26.145  1.00  0.00     0.023 C 
ENDROOT
BRANCH   1   2
ATOM      2  C   UNL A   1      33.928  28.666  26.084  1.00  0.00     0.116 C 
BRANCH   2   3
ATOM      3  N   UNL A   1      33.766  30.065  26.443  1.00  0.00    -0.352 N 
ATOM      4  O   UNL A   1      34.074  31.947  27.630  1.00  0.00    -0.269 OA
ATOM      5  C   UNL A   1      34.485  30.829  27.329  1.00  0.00     0.251 C 
ATOM      6  H   UNL A   1      33.034  30.534  25.982  1.00  0.00     0.163 HD
BRANCH   5   7
ATOM      7  C   UNL A   1      35.726  30.299  27.934  1.00  0.00     0.039 A 
ATOM      8  C   UNL A   1      36.942  30.349  27.246  1.00  0.00     0.014 A 
ATOM      9  C   UNL A   1      35.671  29.757  29.220  1.00  0.00     0.014 A 
ATOM     10  C   UNL A   1      38.072  29.739  27.784  1.00  0.00     0.010 A 
ATOM     11  C   UNL A   1      36.825  29.212  29.790  1.00  0.00     0.010 A 
ATOM     12  C   UNL A   1      38.026  29.170  29.065  1.00  0.00    -0.014 A 
BRANCH  12  13
ATOM     13  C   UNL A   1      39.245  28.579  29.671  1.00  0.00     0.031 A 
ATOM     14  C   UNL A   1      39.879  29.200  30.885  1.00  0.00     0.074 A 
ATOM     15  C   UNL A   1      39.820  27.514  29.082  1.00  0.00     0.049 A 
ATOM     16  N   UNL A   1      40.996  28.883  31.486  1.00  0.00    -0.248 NA
ATOM     17  C   UNL A   1      39.169  30.336  31.497  1.00  0.00     0.031 C 
ATOM     18  C   UNL A   1      39.315  26.845  27.881  1.00  0.00     0.029 A 
ATOM     19  N   UNL A   1      40.972  26.832  29.385  1.00  0.00    -0.354 N 
ATOM     20  C   UNL A   1      41.153  29.806  32.512  1.00  0.00     0.074 A 
ATOM     21  C   UNL A   1      40.014  30.699  32.452  1.00  0.00     0.031 C 
ATOM     22  C   UNL A   1      40.160  25.863  27.538  1.00  0.00     0.029 A 
ATOM     23  C   UNL A   1      41.293  25.869  28.458  1.00  0.00     0.049 A 
ATOM     24  H   UNL A   1      41.513  27.014  30.187  1.00  0.00     0.167 HD
ATOM     25  C   UNL A   1      42.151  29.898  33.424  1.00  0.00     0.034 A 
ATOM     26  C   UNL A   1      42.395  25.104  28.331  1.00  0.00     0.034 A 
ATOM     27  C   UNL A   1      43.268  28.992  33.488  1.00  0.00     0.049 A 
ATOM     28  C   UNL A   1      43.488  25.220  29.353  1.00  0.00     0.074 A 
ATOM     29  C   UNL A   1      44.291  28.953  34.419  1.00  0.00     0.029 A 
ATOM     30  N   UNL A   1      43.523  27.982  32.573  1.00  0.00    -0.354 N 
ATOM     31  N   UNL A   1      43.559  26.015  30.392  1.00  0.00    -0.248 NA
ATOM     32  C   UNL A   1      44.636  24.315  29.207  1.00  0.00     0.031 C 
ATOM     33  C   UNL A   1      45.184  27.944  34.045  1.00  0.00     0.029 A 
ATOM     34  C   UNL A   1      44.694  27.324  32.906  1.00  0.00     0.049 A 
ATOM     35  H   UNL A   1      42.954  27.764  31.800  1.00  0.00     0.167 HD
ATOM     36  C   UNL A   1      44.739  25.682  31.047  1.00  0.00     0.074 A 
ATOM     37  C   UNL A   1      45.348  24.609  30.287  1.00  0.00     0.031 C 
ATOM     38  C   UNL A   1      45.266  26.222  32.173  1.00  0.00     0.034 A 
BRANCH  25  39
ATOM     39  C   UNL A   1      42.074  31.012  34.437  1.00  0.00     0.023 A 
ATOM     40  C   UNL A   1      41.490  30.778  35.699  1.00  0.00     0.012 A 
ATOM     41  C   UNL A   1      42.614  32.283  34.154  1.00  0.00     0.148 A 
ATOM     42  C   UNL A   1      41.401  31.801  36.643  1.00  0.00     0.002 A 
ATOM     43  C   UNL A   1      42.564  33.284  35.116  1.00  0.00     0.091 A 
ATOM     44  F   UNL A   1      43.148  32.497  32.943  1.00  0.00    -0.205 F 
ATOM     45  C   UNL A   1      41.945  33.051  36.355  1.00  0.00     0.022 A 
BRANCH  43  46
ATOM     46  S   UNL A   1      43.310  34.898  34.864  1.00  0.00     0.127 S 
ATOM     47  O   UNL A   1      44.702  34.541  34.593  1.00  0.00    -0.237 OA
ATOM     48  O   UNL A   1      42.575  35.404  33.704  1.00  0.00    -0.237 OA
ATOM     49  O   UNL A   1      43.077  35.641  36.095  1.00  0.00    -0.744 OA
ENDBRANCH  43  46
ENDBRANCH  25  39
BRANCH  26  50
ATOM     50  C   UNL A   1      42.482  24.149  27.193  1.00  0.00     0.023 A 
ATOM     51  C   UNL A   1      43.230  24.493  26.052  1.00  0.00     0.012 A 
ATOM     52  C   UNL A   1      41.903  22.867  27.279  1.00  0.00     0.148 A 
ATOM     53  C   UNL A   1      43.390  23.580  25.009  1.00  0.00     0.002 A 
ATOM     54  C   UNL A   1      42.115  21.943  26.265  1.00  0.00     0.091 A 
ATOM     55  F   UNL A   1      41.194  22.565  28.376  1.00  0.00    -0.205 F 
ATOM     56  C   UNL A   1      42.845  22.303  25.121  1.00  0.00     0.022 A 
BRANCH  54  57
ATOM     57  S   UNL A   1      41.578  20.234  26.383  1.00  0.00     0.127 S 
ATOM     58  O   UNL A   1      40.141  20.355  26.147  1.00  0.00    -0.237 OA
ATOM     59  O   UNL A   1      42.331  19.608  25.296  1.00  0.00    -0.237 OA
ATOM     60  O   UNL A   1      41.959  19.789  27.717  1.00  0.00    -0.744 OA
ENDBRANCH  54  57
ENDBRANCH  26  50
BRANCH  38  61
ATOM     61  C   UNL A   1      46.546  25.634  32.705  1.00  0.00     0.023 A 
ATOM     62  C   UNL A   1      47.787  26.187  32.336  1.00  0.00     0.012 A 
ATOM     63  C   UNL A   1      46.504  24.604  33.666  1.00  0.00     0.148 A 
ATOM     64  C   UNL A   1      48.969  25.714  32.905  1.00  0.00     0.002 A 
ATOM     65  C   UNL A   1      47.681  24.172  34.265  1.00  0.00     0.091 A 
ATOM     66  F   UNL A   1      45.312  24.080  33.987  1.00  0.00    -0.205 F 
ATOM     67  C   UNL A   1      48.914  24.719  33.879  1.00  0.00     0.022 A 
BRANCH  65  68
ATOM     68  S   UNL A   1      47.697  22.970  35.601  1.00  0.00     0.127 S 
ATOM     69  O   UNL A   1      47.669  21.707  34.864  1.00  0.00    -0.237 OA
ATOM     70  O   UNL A   1      48.969  23.263  36.262  1.00  0.00    -0.237 OA
ATOM     71  O   UNL A   1      46.516  23.244  36.408  1.00  0.00    -0.744 OA
ENDBRANCH  65  68
ENDBRANCH  38  61
ENDBRANCH  12  13
ENDBRANCH   5   7
ENDBRANCH   2   3
ENDBRANCH   1   2
BRANCH   1  72
ATOM     72  C   UNL A   1      32.754  26.376  26.290  1.00  0.00     0.023 C 
BRANCH  72  73
ATOM     73  C   UNL A   1      31.691  25.552  25.565  1.00  0.00     0.116 C 
BRANCH  73  74
ATOM     74  N   UNL A   1      30.850  24.808  26.484  1.00  0.00    -0.354 N 
ATOM     75  C   UNL A   1      30.893  23.484  26.817  1.00  0.00     0.249 C 
ATOM     76  H   UNL A   1      30.146  25.332  26.931  1.00  0.00     0.163 HD
ATOM     77  O   UNL A   1      30.038  23.052  27.590  1.00  0.00    -0.272 OA
BRANCH  75  78
ATOM     78  C   UNL A   1      31.964  22.574  26.186  1.00  0.00     0.207 C 
BRANCH  78  79
ATOM     79  C   UNL A   1      33.069  22.284  27.215  1.00  0.00     0.077 C 
BRANCH  79  80
ATOM     80  C   UNL A   1      34.451  22.307  26.596  1.00  0.00    -0.045 A 
ATOM     81  C   UNL A   1      35.208  23.486  26.559  1.00  0.00     0.007 A 
ATOM     82  C   UNL A   1      34.986  21.137  26.036  1.00  0.00     0.007 A 
ATOM     83  C   UNL A   1      36.479  23.491  25.975  1.00  0.00     0.046 A 
ATOM     84  C   UNL A   1      36.247  21.144  25.445  1.00  0.00     0.046 A 
ATOM     85  C   UNL A   1      36.988  22.318  25.424  1.00  0.00     0.115 A 
BRANCH  85  86
ATOM     86  O   UNL A   1      38.224  22.278  24.852  1.00  0.00    -0.508 OA
ATOM     87  H   UNL A   1      38.617  21.454  24.641  1.00  0.00     0.293 HD
ENDBRANCH  85  86
ENDBRANCH  79  80
ENDBRANCH  78  79
BRANCH  78  88
ATOM     88  O   UNL A   1      31.394  21.336  25.747  1.00  0.00    -0.383 OA
ATOM     89  H   UNL A   1      30.789  21.504  25.007  1.00  0.00     0.211 HD
ENDBRANCH  78  88
ENDBRANCH  75  78
ENDBRANCH  73  74
ENDBRANCH  72  73
ENDBRANCH   1  72
TORSDOF 18
ENDMDL
MODEL 3
REMARK VINA RESULT:     -10.6      3.302      5.943
REMARK SMILES O=C(NCCCCNC(=O)[C@H](O)Cc1ccc(O)cc1)c1ccc(-c2c3nc(c(-c4cccc(S(=O)(=O)[O-])c4F)c4ccc([nH]4)c(-c4cccc(S(=O)(=O)[O-])c4F)c4nc(c(-c5cccc(S(=O)(=O)[O-])c5F)c5ccc2[nH]5)C=C4)C=C3)cc1
REMARK SMILES IDX 5 1 4 2 3 3 1 4 2 5 21 7 22 8 83 9 23 10 82 11 24 12 25 13
REMARK SMILES IDX 26 14 76 15 27 16 81 17 75 18 77 19 28 20 80 21 74 22 73 23
REMARK SMILES IDX 29 25 61 26 41 27 60 28 42 29 45 30 59 31 78 32 43 33 44 34
REMARK SMILES IDX 58 36 79 37 46 38 30 39 31 40 39 41 32 42 34 43 40 44 33 45
REMARK SMILES IDX 35 46 36 47 37 48 38 49 62 50 63 51 71 52 64 53 66 54 72 55
REMARK SMILES IDX 65 56 67 57 68 58 69 59 70 60 47 61 48 62 56 63 49 64 51 65
REMARK SMILES IDX 57 66 50 67 52 68 53 69 54 70 55 71 6 72 7 73 8 74 9 75
REMARK SMILES IDX 10 77 11 78 13 79 14 80 15 81 20 82 16 83 19 84 17 85 18 86
REMARK SMILES IDX 12 88
REMARK H PARENT 3 6 77 24 45 35 8 76 18 87 12 89
REMARK Flexibility Score: inf
ROOT
ATOM      1  C   UNL A   1      32.871  27.728  26.798  1.00  0.00     0.023 C 
ENDROOT
BRANCH   1   2
ATOM      2  C   UNL A   1      34.003  28.633  26.324  1.00  0.00     0.116 C 
BRANCH   2   3
ATOM      3  N   UNL A   1      33.803  30.019  26.708  1.00  0.00    -0.352 N 
ATOM      4  O   UNL A   1      34.097  31.902  27.900  1.00  0.00    -0.269 OA
ATOM      5  C   UNL A   1      34.538  30.805  27.563  1.00  0.00     0.251 C 
ATOM      6  H   UNL A   1      33.027  30.462  26.295  1.00  0.00     0.163 HD
BRANCH   5   7
ATOM      7  C   UNL A   1      35.831  30.321  28.091  1.00  0.00     0.039 A 
ATOM      8  C   UNL A   1      37.004  30.431  27.338  1.00  0.00     0.014 A 
ATOM      9  C   UNL A   1      35.871  29.764  29.372  1.00  0.00     0.014 A 
ATOM     10  C   UNL A   1      38.187  29.863  27.806  1.00  0.00     0.010 A 
ATOM     11  C   UNL A   1      37.076  29.263  29.870  1.00  0.00     0.010 A 
ATOM     12  C   UNL A   1      38.236  29.280  29.080  1.00  0.00    -0.014 A 
BRANCH  12  13
ATOM     13  C   UNL A   1      39.511  28.735  29.611  1.00  0.00     0.031 A 
ATOM     14  C   UNL A   1      40.245  29.438  30.718  1.00  0.00     0.074 A 
ATOM     15  C   UNL A   1      40.040  27.635  29.043  1.00  0.00     0.049 A 
ATOM     16  N   UNL A   1      41.415  29.165  31.234  1.00  0.00    -0.248 NA
ATOM     17  C   UNL A   1      39.583  30.609  31.315  1.00  0.00     0.031 C 
ATOM     18  C   UNL A   1      39.435  26.885  27.940  1.00  0.00     0.029 A 
ATOM     19  N   UNL A   1      41.221  26.979  29.285  1.00  0.00    -0.354 N 
ATOM     20  C   UNL A   1      41.655  30.155  32.179  1.00  0.00     0.074 A 
ATOM     21  C   UNL A   1      40.507  31.038  32.163  1.00  0.00     0.031 C 
ATOM     22  C   UNL A   1      40.255  25.886  27.588  1.00  0.00     0.029 A 
ATOM     23  C   UNL A   1      41.466  25.957  28.399  1.00  0.00     0.049 A 
ATOM     24  H   UNL A   1      41.831  27.216  30.021  1.00  0.00     0.167 HD
ATOM     25  C   UNL A   1      42.731  30.311  32.989  1.00  0.00     0.034 A 
ATOM     26  C   UNL A   1      42.559  25.189  28.222  1.00  0.00     0.034 A 
ATOM     27  C   UNL A   1      43.858  29.416  33.010  1.00  0.00     0.049 A 
ATOM     28  C   UNL A   1      43.739  25.377  29.131  1.00  0.00     0.074 A 
ATOM     29  C   UNL A   1      44.961  29.442  33.845  1.00  0.00     0.029 A 
ATOM     30  N   UNL A   1      44.038  28.347  32.145  1.00  0.00    -0.354 N 
ATOM     31  N   UNL A   1      43.896  26.239  30.104  1.00  0.00    -0.248 NA
ATOM     32  C   UNL A   1      44.878  24.468  28.941  1.00  0.00     0.031 C 
ATOM     33  C   UNL A   1      45.826  28.413  33.459  1.00  0.00     0.029 A 
ATOM     34  C   UNL A   1      45.241  27.718  32.413  1.00  0.00     0.049 A 
ATOM     35  H   UNL A   1      43.404  28.077  31.442  1.00  0.00     0.167 HD
ATOM     36  C   UNL A   1      45.133  25.956  30.670  1.00  0.00     0.074 A 
ATOM     37  C   UNL A   1      45.682  24.836  29.931  1.00  0.00     0.031 C 
ATOM     38  C   UNL A   1      45.755  26.571  31.705  1.00  0.00     0.034 A 
BRANCH  25  39
ATOM     39  C   UNL A   1      42.735  31.490  33.928  1.00  0.00     0.023 A 
ATOM     40  C   UNL A   1      43.242  32.734  33.495  1.00  0.00     0.012 A 
ATOM     41  C   UNL A   1      42.203  31.379  35.228  1.00  0.00     0.148 A 
ATOM     42  C   UNL A   1      43.264  33.831  34.355  1.00  0.00     0.002 A 
ATOM     43  C   UNL A   1      42.186  32.490  36.063  1.00  0.00     0.091 A 
ATOM     44  F   UNL A   1      41.743  30.187  35.633  1.00  0.00    -0.205 F 
ATOM     45  C   UNL A   1      42.728  33.712  35.635  1.00  0.00     0.022 A 
BRANCH  43  46
ATOM     46  S   UNL A   1      41.442  32.451  37.698  1.00  0.00     0.127 S 
ATOM     47  O   UNL A   1      41.579  33.844  38.118  1.00  0.00    -0.237 OA
ATOM     48  O   UNL A   1      40.069  32.036  37.407  1.00  0.00    -0.237 OA
ATOM     49  O   UNL A   1      42.214  31.482  38.463  1.00  0.00    -0.744 OA
ENDBRANCH  43  46
ENDBRANCH  25  39
BRANCH  26  50
ATOM     50  C   UNL A   1      42.552  24.160  27.147  1.00  0.00     0.023 A 
ATOM     51  C   UNL A   1      43.217  24.418  25.934  1.00  0.00     0.012 A 
ATOM     52  C   UNL A   1      41.968  22.895  27.360  1.00  0.00     0.148 A 
ATOM     53  C   UNL A   1      43.290  23.436  24.945  1.00  0.00     0.002 A 
ATOM     54  C   UNL A   1      42.095  21.904  26.396  1.00  0.00     0.091 A 
ATOM     55  F   UNL A   1      41.339  22.677  28.524  1.00  0.00    -0.205 F 
ATOM     56  C   UNL A   1      42.742  22.178  25.181  1.00  0.00     0.022 A 
BRANCH  54  57
ATOM     57  S   UNL A   1      41.550  20.214  26.667  1.00  0.00     0.127 S 
ATOM     58  O   UNL A   1      42.315  19.840  27.854  1.00  0.00    -0.237 OA
ATOM     59  O   UNL A   1      40.116  20.396  26.889  1.00  0.00    -0.237 OA
ATOM     60  O   UNL A   1      41.887  19.489  25.449  1.00  0.00    -0.744 OA
ENDBRANCH  54  57
ENDBRANCH  26  50
BRANCH  38  61
ATOM     61  C   UNL A   1      47.083  26.024  32.156  1.00  0.00     0.023 A 
ATOM     62  C   UNL A   1      48.277  26.500  31.582  1.00  0.00     0.012 A 
ATOM     63  C   UNL A   1      47.145  25.121  33.237  1.00  0.00     0.148 A 
ATOM     64  C   UNL A   1      49.514  26.074  32.067  1.00  0.00     0.002 A 
ATOM     65  C   UNL A   1      48.380  24.739  33.746  1.00  0.00     0.091 A 
ATOM     66  F   UNL A   1      45.994  24.666  33.754  1.00  0.00    -0.205 F 
ATOM     67  C   UNL A   1      49.565  25.207  33.157  1.00  0.00     0.022 A 
BRANCH  65  68
ATOM     68  S   UNL A   1      48.542  23.710  35.210  1.00  0.00     0.127 S 
ATOM     69  O   UNL A   1      47.958  22.449  34.753  1.00  0.00    -0.237 OA
ATOM     70  O   UNL A   1      49.991  23.678  35.404  1.00  0.00    -0.237 OA
ATOM     71  O   UNL A   1      47.803  24.388  36.267  1.00  0.00    -0.744 OA
ENDBRANCH  65  68
ENDBRANCH  38  61
ENDBRANCH  12  13
ENDBRANCH   5   7
ENDBRANCH   2   3
ENDBRANCH   1   2
BRANCH   1  72
ATOM     72  C   UNL A   1      31.943  27.207  25.697  1.00  0.00     0.023 C 
BRANCH  72  73
ATOM     73  C   UNL A   1      30.960  26.122  26.132  1.00  0.00     0.116 C 
BRANCH  73  74
ATOM     74  N   UNL A   1      31.586  25.116  26.970  1.00  0.00    -0.354 N 
ATOM     75  C   UNL A   1      31.533  23.754  26.870  1.00  0.00     0.249 C 
ATOM     76  H   UNL A   1      32.125  25.463  27.717  1.00  0.00     0.163 HD
ATOM     77  O   UNL A   1      32.106  23.087  27.732  1.00  0.00    -0.272 OA
BRANCH  75  78
ATOM     78  C   UNL A   1      30.728  23.103  25.729  1.00  0.00     0.207 C 
BRANCH  78  79
ATOM     79  C   UNL A   1      31.686  22.632  24.623  1.00  0.00     0.077 C 
BRANCH  79  80
ATOM     80  C   UNL A   1      32.194  23.779  23.774  1.00  0.00    -0.045 A 
ATOM     81  C   UNL A   1      33.538  24.174  23.820  1.00  0.00     0.007 A 
ATOM     82  C   UNL A   1      31.309  24.472  22.934  1.00  0.00     0.007 A 
ATOM     83  C   UNL A   1      33.987  25.242  23.036  1.00  0.00     0.046 A 
ATOM     84  C   UNL A   1      31.754  25.543  22.162  1.00  0.00     0.046 A 
ATOM     85  C   UNL A   1      33.090  25.916  22.213  1.00  0.00     0.115 A 
BRANCH  85  86
ATOM     86  O   UNL A   1      33.488  26.957  21.428  1.00  0.00    -0.508 OA
ATOM     87  H   UNL A   1      32.939  27.253  20.729  1.00  0.00     0.293 HD
ENDBRANCH  85  86
ENDBRANCH  79  80
ENDBRANCH  78  79
BRANCH  78  88
ATOM     88  O   UNL A   1      29.973  21.984  26.206  1.00  0.00    -0.383 OA
ATOM     89  H   UNL A   1      30.507  21.179  26.130  1.00  0.00     0.211 HD
ENDBRANCH  78  88
ENDBRANCH  75  78
ENDBRANCH  73  74
ENDBRANCH  72  73
ENDBRANCH   1  72
TORSDOF 18
ENDMDL
