MODEL 1
REMARK VINA RESULT:     -11.5      0.000      0.000
REMARK SMILES O=C(CC1CCN(S(=O)(=O)c2cc[nH]c2)CC1)NCCCCNC(=O)c1ccc(-c2c3nc(c(-c4cccc(S(=O)(=O)[O-])c4F)c4ccc([nH]4)c(-c4cccc(S(=O)(=O)[O-])c4F)c4nc(c(-c5cccc(S(=O)(=O)[O-])c5F)c5ccc2[nH]5)C=C4)C=C3)cc1
REMARK SMILES IDX 20 1 19 2 18 3 1 4 2 5 3 7 4 8 5 9 17 10 6 11 16 12 7 13
REMARK SMILES IDX 8 14 9 15 10 16 11 17 12 18 15 19 13 20 14 21 21 23 22 24
REMARK SMILES IDX 23 25 24 26 25 28 26 29 27 30 88 31 28 32 87 33 29 34 30 35
REMARK SMILES IDX 31 36 81 37 32 38 86 39 80 40 82 41 33 42 85 43 79 44 78 45
REMARK SMILES IDX 34 47 66 48 46 49 65 50 47 51 50 52 64 53 83 54 48 55 49 56
REMARK SMILES IDX 63 58 84 59 51 60 35 61 36 62 44 63 37 64 39 65 45 66 38 67
REMARK SMILES IDX 40 68 41 69 42 70 43 71 67 72 68 73 76 74 69 75 71 76 77 77
REMARK SMILES IDX 70 78 72 79 73 80 74 81 75 82 52 83 53 84 61 85 54 86 56 87
REMARK SMILES IDX 62 88 55 89 57 90 58 91 59 92 60 93
REMARK H PARENT 18 6 14 22 23 27 82 46 50 57
REMARK Flexibility Score: inf
ROOT
ATOM      1  C   UNL A   1      36.677  21.591  24.850  1.00  0.00     0.023 C 
ENDROOT
BRANCH   1   2
ATOM      2  C   UNL A   1      35.222  21.105  24.676  1.00  0.00     0.116 C 
BRANCH   2   3
ATOM      3  N   UNL A   1      34.142  22.012  25.067  1.00  0.00    -0.356 N 
ATOM      4  O   UNL A   1      33.725  22.688  22.906  1.00  0.00    -0.275 OA
ATOM      5  C   UNL A   1      33.427  22.715  24.100  1.00  0.00     0.220 C 
ATOM      6  H   UNL A   1      33.920  22.128  26.020  1.00  0.00     0.163 HD
BRANCH   5   7
ATOM      7  C   UNL A   1      32.259  23.585  24.582  1.00  0.00     0.103 C 
BRANCH   7   8
ATOM      8  C   UNL A   1      32.440  24.538  25.799  1.00  0.00     0.001 C 
ATOM      9  C   UNL A   1      31.161  25.327  26.120  1.00  0.00     0.021 C 
ATOM     10  C   UNL A   1      33.559  25.563  25.720  1.00  0.00     0.021 C 
ATOM     11  C   UNL A   1      30.781  26.240  24.972  1.00  0.00     0.103 C 
ATOM     12  C   UNL A   1      33.297  26.614  24.675  1.00  0.00     0.103 C 
ATOM     13  N   UNL A   1      31.890  27.117  24.576  1.00  0.00    -0.198 NA
BRANCH  13  14
ATOM     14  S   UNL A   1      31.579  27.875  23.073  1.00  0.00     0.244 S 
ATOM     15  O   UNL A   1      32.755  28.696  22.789  1.00  0.00    -0.207 OA
ATOM     16  O   UNL A   1      31.090  26.939  22.110  1.00  0.00    -0.207 OA
BRANCH  14  17
ATOM     17  C   UNL A   1      30.337  29.007  23.396  1.00  0.00     0.100 A 
ATOM     18  C   UNL A   1      29.157  29.185  22.633  1.00  0.00     0.041 A 
ATOM     19  C   UNL A   1      30.511  30.146  24.130  1.00  0.00     0.104 A 
ATOM     20  C   UNL A   1      28.576  30.368  22.991  1.00  0.00     0.083 A 
ATOM     21  N   UNL A   1      29.454  30.971  23.843  1.00  0.00    -0.366 N 
ATOM     22  H   UNL A   1      29.345  31.880  24.205  1.00  0.00     0.165 HD
ENDBRANCH  14  17
ENDBRANCH  13  14
ENDBRANCH   7   8
ENDBRANCH   5   7
ENDBRANCH   2   3
ENDBRANCH   1   2
BRANCH   1  23
ATOM     23  C   UNL A   1      37.042  23.092  24.788  1.00  0.00     0.023 C 
BRANCH  23  24
ATOM     24  C   UNL A   1      37.669  23.748  26.043  1.00  0.00     0.116 C 
BRANCH  24  25
ATOM     25  N   UNL A   1      39.095  23.487  26.253  1.00  0.00    -0.352 N 
ATOM     26  C   UNL A   1      40.081  24.167  26.964  1.00  0.00     0.251 C 
ATOM     27  H   UNL A   1      39.420  22.673  25.803  1.00  0.00     0.163 HD
ATOM     28  O   UNL A   1      41.157  23.582  27.120  1.00  0.00    -0.269 OA
BRANCH  26  29
ATOM     29  C   UNL A   1      39.921  25.524  27.584  1.00  0.00     0.039 A 
ATOM     30  C   UNL A   1      40.255  26.696  26.878  1.00  0.00     0.014 A 
ATOM     31  C   UNL A   1      39.328  25.723  28.805  1.00  0.00     0.014 A 
ATOM     32  C   UNL A   1      40.253  27.986  27.498  1.00  0.00     0.010 A 
ATOM     33  C   UNL A   1      39.294  27.010  29.377  1.00  0.00     0.010 A 
ATOM     34  C   UNL A   1      39.914  28.160  28.846  1.00  0.00    -0.014 A 
BRANCH  34  35
ATOM     35  C   UNL A   1      40.098  29.512  29.636  1.00  0.00     0.031 A 
ATOM     36  C   UNL A   1      38.933  30.558  29.382  1.00  0.00     0.074 A 
ATOM     37  C   UNL A   1      41.177  29.720  30.502  1.00  0.00     0.049 A 
ATOM     38  N   UNL A   1      38.896  31.749  28.845  1.00  0.00    -0.248 NA
ATOM     39  C   UNL A   1      37.544  30.110  29.578  1.00  0.00     0.031 C 
ATOM     40  C   UNL A   1      42.135  28.680  30.969  1.00  0.00     0.029 A 
ATOM     41  N   UNL A   1      41.690  30.819  31.214  1.00  0.00    -0.354 N 
ATOM     42  C   UNL A   1      37.513  32.146  28.837  1.00  0.00     0.074 A 
ATOM     43  C   UNL A   1      36.761  30.955  28.917  1.00  0.00     0.031 C 
ATOM     44  C   UNL A   1      43.150  29.202  31.709  1.00  0.00     0.029 A 
ATOM     45  C   UNL A   1      42.973  30.637  31.865  1.00  0.00     0.049 A 
ATOM     46  H   UNL A   1      41.201  31.672  31.268  1.00  0.00     0.167 HD
ATOM     47  C   UNL A   1      37.012  33.363  29.232  1.00  0.00     0.034 A 
ATOM     48  C   UNL A   1      43.822  31.569  32.452  1.00  0.00     0.034 A 
ATOM     49  C   UNL A   1      38.089  34.115  29.776  1.00  0.00     0.049 A 
ATOM     50  C   UNL A   1      42.997  32.766  32.564  1.00  0.00     0.074 A 
ATOM     51  C   UNL A   1      39.255  34.545  29.205  1.00  0.00     0.029 A 
ATOM     52  N   UNL A   1      38.220  34.036  31.149  1.00  0.00    -0.354 N 
ATOM     53  N   UNL A   1      42.113  32.949  33.494  1.00  0.00    -0.248 NA
ATOM     54  C   UNL A   1      43.150  33.822  31.560  1.00  0.00     0.031 C 
ATOM     55  C   UNL A   1      40.185  34.158  30.179  1.00  0.00     0.029 A 
ATOM     56  C   UNL A   1      39.555  33.980  31.419  1.00  0.00     0.049 A 
ATOM     57  H   UNL A   1      37.488  34.021  31.808  1.00  0.00     0.167 HD
ATOM     58  C   UNL A   1      41.344  33.929  32.926  1.00  0.00     0.074 A 
ATOM     59  C   UNL A   1      42.203  34.645  32.002  1.00  0.00     0.031 C 
ATOM     60  C   UNL A   1      40.026  33.652  32.737  1.00  0.00     0.034 A 
BRANCH  47  61
ATOM     61  C   UNL A   1      35.628  33.900  29.569  1.00  0.00     0.023 A 
ATOM     62  C   UNL A   1      34.928  34.427  28.445  1.00  0.00     0.012 A 
ATOM     63  C   UNL A   1      35.089  34.184  30.840  1.00  0.00     0.148 A 
ATOM     64  C   UNL A   1      33.833  35.282  28.568  1.00  0.00     0.002 A 
ATOM     65  C   UNL A   1      33.947  34.988  30.956  1.00  0.00     0.091 A 
ATOM     66  F   UNL A   1      35.717  33.766  31.941  1.00  0.00    -0.205 F 
ATOM     67  C   UNL A   1      33.347  35.569  29.829  1.00  0.00     0.022 A 
BRANCH  65  68
ATOM     68  S   UNL A   1      33.160  35.365  32.530  1.00  0.00     0.127 S 
ATOM     69  O   UNL A   1      32.876  34.030  33.052  1.00  0.00    -0.237 OA
ATOM     70  O   UNL A   1      34.231  36.075  33.233  1.00  0.00    -0.237 OA
ATOM     71  O   UNL A   1      32.006  36.190  32.209  1.00  0.00    -0.744 OA
ENDBRANCH  65  68
ENDBRANCH  47  61
BRANCH  48  72
ATOM     72  C   UNL A   1      45.247  31.814  33.017  1.00  0.00     0.023 A 
ATOM     73  C   UNL A   1      46.418  31.958  32.266  1.00  0.00     0.012 A 
ATOM     74  C   UNL A   1      45.442  31.981  34.448  1.00  0.00     0.148 A 
ATOM     75  C   UNL A   1      47.648  32.335  32.881  1.00  0.00     0.002 A 
ATOM     76  C   UNL A   1      46.608  32.479  35.028  1.00  0.00     0.091 A 
ATOM     77  F   UNL A   1      44.497  31.592  35.306  1.00  0.00    -0.205 F 
ATOM     78  C   UNL A   1      47.733  32.646  34.243  1.00  0.00     0.022 A 
BRANCH  76  79
ATOM     79  S   UNL A   1      46.662  33.034  36.757  1.00  0.00     0.127 S 
ATOM     80  O   UNL A   1      47.999  33.616  36.866  1.00  0.00    -0.237 OA
ATOM     81  O   UNL A   1      45.570  34.006  36.783  1.00  0.00    -0.237 OA
ATOM     82  O   UNL A   1      46.444  31.853  37.583  1.00  0.00    -0.744 OA
ENDBRANCH  76  79
ENDBRANCH  48  72
BRANCH  60  83
ATOM     83  C   UNL A   1      39.403  32.796  33.833  1.00  0.00     0.023 A 
ATOM     84  C   UNL A   1      39.090  31.460  33.474  1.00  0.00     0.012 A 
ATOM     85  C   UNL A   1      38.968  33.228  35.102  1.00  0.00     0.148 A 
ATOM     86  C   UNL A   1      38.372  30.597  34.306  1.00  0.00     0.002 A 
ATOM     87  C   UNL A   1      38.244  32.347  35.936  1.00  0.00     0.091 A 
ATOM     88  F   UNL A   1      39.228  34.489  35.476  1.00  0.00    -0.205 F 
ATOM     89  C   UNL A   1      37.951  31.039  35.545  1.00  0.00     0.022 A 
BRANCH  87  90
ATOM     90  S   UNL A   1      37.528  32.831  37.503  1.00  0.00     0.127 S 
ATOM     91  O   UNL A   1      36.230  33.396  37.138  1.00  0.00    -0.237 OA
ATOM     92  O   UNL A   1      37.459  31.575  38.240  1.00  0.00    -0.237 OA
ATOM     93  O   UNL A   1      38.474  33.811  38.004  1.00  0.00    -0.744 OA
ENDBRANCH  87  90
ENDBRANCH  60  83
ENDBRANCH  34  35
ENDBRANCH  26  29
ENDBRANCH  24  25
ENDBRANCH  23  24
ENDBRANCH   1  23
TORSDOF 17
ENDMDL
MODEL 2
REMARK VINA RESULT:     -11.4      3.542      8.133
REMARK SMILES O=C(CC1CCN(S(=O)(=O)c2cc[nH]c2)CC1)NCCCCNC(=O)c1ccc(-c2c3nc(c(-c4cccc(S(=O)(=O)[O-])c4F)c4ccc([nH]4)c(-c4cccc(S(=O)(=O)[O-])c4F)c4nc(c(-c5cccc(S(=O)(=O)[O-])c5F)c5ccc2[nH]5)C=C4)C=C3)cc1
REMARK SMILES IDX 20 1 19 2 18 3 1 4 2 5 3 7 4 8 5 9 17 10 6 11 16 12 7 13
REMARK SMILES IDX 8 14 9 15 10 16 11 17 12 18 15 19 13 20 14 21 21 23 22 24
REMARK SMILES IDX 23 25 24 26 25 28 26 29 27 30 88 31 28 32 87 33 29 34 30 35
REMARK SMILES IDX 31 36 81 37 32 38 86 39 80 40 82 41 33 42 85 43 79 44 78 45
REMARK SMILES IDX 34 47 66 48 46 49 65 50 47 51 50 52 64 53 83 54 48 55 49 56
REMARK SMILES IDX 63 58 84 59 51 60 35 61 36 62 44 63 37 64 39 65 45 66 38 67
REMARK SMILES IDX 40 68 41 69 42 70 43 71 67 72 68 73 76 74 69 75 71 76 77 77
REMARK SMILES IDX 70 78 72 79 73 80 74 81 75 82 52 83 53 84 61 85 54 86 56 87
REMARK SMILES IDX 62 88 55 89 57 90 58 91 59 92 60 93
REMARK H PARENT 18 6 14 22 23 27 82 46 50 57
REMARK Flexibility Score: inf
ROOT
ATOM      1  C   UNL A   1      34.358  31.169  27.827  1.00  0.00     0.023 C 
ENDROOT
BRANCH   1   2
ATOM      2  C   UNL A   1      34.701  29.795  27.211  1.00  0.00     0.116 C 
BRANCH   2   3
ATOM      3  N   UNL A   1      33.635  28.797  27.119  1.00  0.00    -0.356 N 
ATOM      4  O   UNL A   1      33.099  29.347  24.949  1.00  0.00    -0.275 OA
ATOM      5  C   UNL A   1      32.934  28.621  25.928  1.00  0.00     0.220 C 
ATOM      6  H   UNL A   1      33.411  28.245  27.904  1.00  0.00     0.163 HD
BRANCH   5   7
ATOM      7  C   UNL A   1      31.886  27.501  25.887  1.00  0.00     0.103 C 
BRANCH   7   8
ATOM      8  C   UNL A   1      31.357  26.971  24.523  1.00  0.00     0.001 C 
ATOM      9  C   UNL A   1      29.925  26.423  24.623  1.00  0.00     0.021 C 
ATOM     10  C   UNL A   1      32.173  25.892  23.831  1.00  0.00     0.021 C 
ATOM     11  C   UNL A   1      29.863  25.226  25.549  1.00  0.00     0.103 C 
ATOM     12  C   UNL A   1      32.147  24.587  24.582  1.00  0.00     0.103 C 
ATOM     13  N   UNL A   1      30.830  24.187  25.172  1.00  0.00    -0.198 NA
BRANCH  13  14
ATOM     14  S   UNL A   1      31.005  23.019  26.410  1.00  0.00     0.244 S 
ATOM     15  O   UNL A   1      31.575  23.731  27.553  1.00  0.00    -0.207 OA
ATOM     16  O   UNL A   1      29.821  22.231  26.554  1.00  0.00    -0.207 OA
BRANCH  14  17
ATOM     17  C   UNL A   1      32.268  21.993  25.877  1.00  0.00     0.100 A 
ATOM     18  C   UNL A   1      32.150  20.966  24.908  1.00  0.00     0.041 A 
ATOM     19  C   UNL A   1      33.398  21.731  26.597  1.00  0.00     0.104 A 
ATOM     20  C   UNL A   1      33.253  20.166  24.978  1.00  0.00     0.083 A 
ATOM     21  N   UNL A   1      33.960  20.601  26.062  1.00  0.00    -0.366 N 
ATOM     22  H   UNL A   1      34.767  20.161  26.413  1.00  0.00     0.165 HD
ENDBRANCH  14  17
ENDBRANCH  13  14
ENDBRANCH   7   8
ENDBRANCH   5   7
ENDBRANCH   2   3
ENDBRANCH   1   2
BRANCH   1  23
ATOM     23  C   UNL A   1      32.919  31.732  27.798  1.00  0.00     0.023 C 
BRANCH  23  24
ATOM     24  C   UNL A   1      32.635  32.982  26.928  1.00  0.00     0.116 C 
BRANCH  24  25
ATOM     25  N   UNL A   1      32.308  34.207  27.662  1.00  0.00    -0.352 N 
ATOM     26  C   UNL A   1      32.981  34.916  28.654  1.00  0.00     0.251 C 
ATOM     27  H   UNL A   1      31.446  34.606  27.405  1.00  0.00     0.163 HD
ATOM     28  O   UNL A   1      32.540  36.035  28.934  1.00  0.00    -0.269 OA
BRANCH  26  29
ATOM     29  C   UNL A   1      34.214  34.447  29.369  1.00  0.00     0.039 A 
ATOM     30  C   UNL A   1      35.494  34.595  28.799  1.00  0.00     0.014 A 
ATOM     31  C   UNL A   1      34.197  33.972  30.656  1.00  0.00     0.014 A 
ATOM     32  C   UNL A   1      36.663  34.023  29.391  1.00  0.00     0.010 A 
ATOM     33  C   UNL A   1      35.371  33.455  31.239  1.00  0.00     0.010 A 
ATOM     34  C   UNL A   1      36.606  33.282  30.579  1.00  0.00    -0.014 A 
BRANCH  34  35
ATOM     35  C   UNL A   1      37.814  32.454  31.163  1.00  0.00     0.031 A 
ATOM     36  C   UNL A   1      38.097  31.106  30.375  1.00  0.00     0.074 A 
ATOM     37  C   UNL A   1      38.569  32.913  32.246  1.00  0.00     0.049 A 
ATOM     38  N   UNL A   1      38.047  29.843  30.709  1.00  0.00    -0.248 NA
ATOM     39  C   UNL A   1      38.267  31.178  28.914  1.00  0.00     0.031 C 
ATOM     40  C   UNL A   1      38.508  34.280  32.837  1.00  0.00     0.029 A 
ATOM     41  N   UNL A   1      39.575  32.371  33.066  1.00  0.00    -0.354 N 
ATOM     42  C   UNL A   1      38.341  29.097  29.514  1.00  0.00     0.074 A 
ATOM     43  C   UNL A   1      38.057  29.959  28.432  1.00  0.00     0.031 C 
ATOM     44  C   UNL A   1      39.270  34.398  33.957  1.00  0.00     0.029 A 
ATOM     45  C   UNL A   1      39.964  33.149  34.226  1.00  0.00     0.049 A 
ATOM     46  H   UNL A   1      39.995  31.505  32.861  1.00  0.00     0.167 HD
ATOM     47  C   UNL A   1      39.212  28.040  29.407  1.00  0.00     0.034 A 
ATOM     48  C   UNL A   1      40.756  32.800  35.316  1.00  0.00     0.034 A 
ATOM     49  C   UNL A   1      39.871  27.898  30.658  1.00  0.00     0.049 A 
ATOM     50  C   UNL A   1      41.394  31.558  34.896  1.00  0.00     0.074 A 
ATOM     51  C   UNL A   1      39.373  27.633  31.905  1.00  0.00     0.029 A 
ATOM     52  N   UNL A   1      41.093  28.535  30.749  1.00  0.00    -0.354 N 
ATOM     53  N   UNL A   1      42.418  31.504  34.104  1.00  0.00    -0.248 NA
ATOM     54  C   UNL A   1      40.842  30.287  35.373  1.00  0.00     0.031 C 
ATOM     55  C   UNL A   1      40.024  28.614  32.663  1.00  0.00     0.029 A 
ATOM     56  C   UNL A   1      41.172  29.069  32.000  1.00  0.00     0.049 A 
ATOM     57  H   UNL A   1      41.777  28.594  30.043  1.00  0.00     0.167 HD
ATOM     58  C   UNL A   1      42.344  30.207  33.677  1.00  0.00     0.074 A 
ATOM     59  C   UNL A   1      41.660  29.466  34.720  1.00  0.00     0.031 C 
ATOM     60  C   UNL A   1      42.214  30.000  32.339  1.00  0.00     0.034 A 
BRANCH  47  61
ATOM     61  C   UNL A   1      39.876  27.304  28.251  1.00  0.00     0.023 A 
ATOM     62  C   UNL A   1      39.553  25.917  28.194  1.00  0.00     0.012 A 
ATOM     63  C   UNL A   1      40.939  27.741  27.437  1.00  0.00     0.148 A 
ATOM     64  C   UNL A   1      40.308  24.995  27.470  1.00  0.00     0.002 A 
ATOM     65  C   UNL A   1      41.653  26.820  26.658  1.00  0.00     0.091 A 
ATOM     66  F   UNL A   1      41.331  29.016  27.475  1.00  0.00    -0.205 F 
ATOM     67  C   UNL A   1      41.366  25.448  26.707  1.00  0.00     0.022 A 
BRANCH  65  68
ATOM     68  S   UNL A   1      42.993  27.290  25.552  1.00  0.00     0.127 S 
ATOM     69  O   UNL A   1      43.369  26.004  24.971  1.00  0.00    -0.237 OA
ATOM     70  O   UNL A   1      42.307  28.197  24.627  1.00  0.00    -0.237 OA
ATOM     71  O   UNL A   1      43.992  27.935  26.391  1.00  0.00    -0.744 OA
ENDBRANCH  65  68
ENDBRANCH  47  61
BRANCH  48  72
ATOM     72  C   UNL A   1      41.208  33.210  36.743  1.00  0.00     0.023 A 
ATOM     73  C   UNL A   1      42.387  33.887  37.071  1.00  0.00     0.012 A 
ATOM     74  C   UNL A   1      40.343  32.953  37.882  1.00  0.00     0.148 A 
ATOM     75  C   UNL A   1      42.628  34.352  38.398  1.00  0.00     0.002 A 
ATOM     76  C   UNL A   1      40.514  33.521  39.143  1.00  0.00     0.091 A 
ATOM     77  F   UNL A   1      39.341  32.077  37.781  1.00  0.00    -0.205 F 
ATOM     78  C   UNL A   1      41.677  34.217  39.416  1.00  0.00     0.022 A 
BRANCH  76  79
ATOM     79  S   UNL A   1      39.206  33.483  40.403  1.00  0.00     0.127 S 
ATOM     80  O   UNL A   1      39.220  32.087  40.839  1.00  0.00    -0.237 OA
ATOM     81  O   UNL A   1      39.724  34.434  41.387  1.00  0.00    -0.237 OA
ATOM     82  O   UNL A   1      37.976  33.902  39.743  1.00  0.00    -0.744 OA
ENDBRANCH  76  79
ENDBRANCH  48  72
BRANCH  60  83
ATOM     83  C   UNL A   1      42.977  30.997  31.475  1.00  0.00     0.023 A 
ATOM     84  C   UNL A   1      44.388  30.856  31.465  1.00  0.00     0.012 A 
ATOM     85  C   UNL A   1      42.450  32.125  30.816  1.00  0.00     0.148 A 
ATOM     86  C   UNL A   1      45.241  31.781  30.856  1.00  0.00     0.002 A 
ATOM     87  C   UNL A   1      43.321  33.055  30.203  1.00  0.00     0.091 A 
ATOM     88  F   UNL A   1      41.121  32.308  30.815  1.00  0.00    -0.205 F 
ATOM     89  C   UNL A   1      44.706  32.883  30.219  1.00  0.00     0.022 A 
BRANCH  87  90
ATOM     90  S   UNL A   1      42.771  34.587  29.460  1.00  0.00     0.127 S 
ATOM     91  O   UNL A   1      42.345  34.194  28.117  1.00  0.00    -0.237 OA
ATOM     92  O   UNL A   1      41.689  35.014  30.340  1.00  0.00    -0.237 OA
ATOM     93  O   UNL A   1      43.968  35.406  29.480  1.00  0.00    -0.744 OA
ENDBRANCH  87  90
ENDBRANCH  60  83
ENDBRANCH  34  35
ENDBRANCH  26  29
ENDBRANCH  24  25
ENDBRANCH  23  24
ENDBRANCH   1  23
TORSDOF 17
ENDMDL
MODEL 3
REMARK VINA RESULT:     -11.3      4.935      6.989
REMARK SMILES O=C(CC1CCN(S(=O)(=O)c2cc[nH]c2)CC1)NCCCCNC(=O)c1ccc(-c2c3nc(c(-c4cccc(S(=O)(=O)[O-])c4F)c4ccc([nH]4)c(-c4cccc(S(=O)(=O)[O-])c4F)c4nc(c(-c5cccc(S(=O)(=O)[O-])c5F)c5ccc2[nH]5)C=C4)C=C3)cc1
REMARK SMILES IDX 20 1 19 2 18 3 1 4 2 5 3 7 4 8 5 9 17 10 6 11 16 12 7 13
REMARK SMILES IDX 8 14 9 15 10 16 11 17 12 18 15 19 13 20 14 21 21 23 22 24
REMARK SMILES IDX 23 25 24 26 25 28 26 29 27 30 88 31 28 32 87 33 29 34 30 35
REMARK SMILES IDX 31 36 81 37 32 38 86 39 80 40 82 41 33 42 85 43 79 44 78 45
REMARK SMILES IDX 34 47 66 48 46 49 65 50 47 51 50 52 64 53 83 54 48 55 49 56
REMARK SMILES IDX 63 58 84 59 51 60 35 61 36 62 44 63 37 64 39 65 45 66 38 67
REMARK SMILES IDX 40 68 41 69 42 70 43 71 67 72 68 73 76 74 69 75 71 76 77 77
REMARK SMILES IDX 70 78 72 79 73 80 74 81 75 82 52 83 53 84 61 85 54 86 56 87
REMARK SMILES IDX 62 88 55 89 57 90 58 91 59 92 60 93
REMARK H PARENT 18 6 14 22 23 27 82 46 50 57
REMARK Flexibility Score: inf
ROOT
ATOM      1  C   UNL A   1      37.004  20.762  24.955  1.00  0.00     0.023 C 
ENDROOT
BRANCH   1   2
ATOM      2  C   UNL A   1      35.628  20.064  25.023  1.00  0.00     0.116 C 
BRANCH   2   3
ATOM      3  N   UNL A   1      34.509  20.804  25.606  1.00  0.00    -0.356 N 
ATOM      4  O   UNL A   1      33.808  21.639  23.578  1.00  0.00    -0.275 OA
ATOM      5  C   UNL A   1      33.632  21.515  24.790  1.00  0.00     0.220 C 
ATOM      6  H   UNL A   1      34.374  20.801  26.582  1.00  0.00     0.163 HD
BRANCH   5   7
ATOM      7  C   UNL A   1      32.438  22.200  25.467  1.00  0.00     0.103 C 
BRANCH   7   8
ATOM      8  C   UNL A   1      32.671  23.328  26.513  1.00  0.00     0.001 C 
ATOM      9  C   UNL A   1      31.375  24.077  26.865  1.00  0.00     0.021 C 
ATOM     10  C   UNL A   1      33.695  24.397  26.170  1.00  0.00     0.021 C 
ATOM     11  C   UNL A   1      30.812  24.789  25.652  1.00  0.00     0.103 C 
ATOM     12  C   UNL A   1      33.248  25.267  25.025  1.00  0.00     0.103 C 
ATOM     13  N   UNL A   1      31.805  25.665  25.017  1.00  0.00    -0.198 NA
BRANCH  13  14
ATOM     14  S   UNL A   1      31.285  26.176  23.468  1.00  0.00     0.244 S 
ATOM     15  O   UNL A   1      31.726  25.140  22.536  1.00  0.00    -0.207 OA
ATOM     16  O   UNL A   1      29.923  26.608  23.493  1.00  0.00    -0.207 OA
BRANCH  14  17
ATOM     17  C   UNL A   1      32.267  27.528  23.095  1.00  0.00     0.100 A 
ATOM     18  C   UNL A   1      33.521  27.487  22.436  1.00  0.00     0.041 A 
ATOM     19  C   UNL A   1      32.200  28.726  23.747  1.00  0.00     0.104 A 
ATOM     20  C   UNL A   1      34.144  28.690  22.602  1.00  0.00     0.083 A 
ATOM     21  N   UNL A   1      33.361  29.399  23.466  1.00  0.00    -0.366 N 
ATOM     22  H   UNL A   1      33.599  30.279  23.840  1.00  0.00     0.165 HD
ENDBRANCH  14  17
ENDBRANCH  13  14
ENDBRANCH   7   8
ENDBRANCH   5   7
ENDBRANCH   2   3
ENDBRANCH   1   2
BRANCH   1  23
ATOM     23  C   UNL A   1      38.310  19.960  24.752  1.00  0.00     0.023 C 
BRANCH  23  24
ATOM     24  C   UNL A   1      39.174  19.636  25.995  1.00  0.00     0.116 C 
BRANCH  24  25
ATOM     25  N   UNL A   1      40.371  18.828  25.745  1.00  0.00    -0.352 N 
ATOM     26  C   UNL A   1      41.727  19.066  25.957  1.00  0.00     0.251 C 
ATOM     27  H   UNL A   1      40.179  17.947  25.351  1.00  0.00     0.163 HD
ATOM     28  O   UNL A   1      42.487  18.102  25.830  1.00  0.00    -0.269 OA
BRANCH  26  29
ATOM     29  C   UNL A   1      42.322  20.382  26.365  1.00  0.00     0.039 A 
ATOM     30  C   UNL A   1      42.227  20.850  27.690  1.00  0.00     0.014 A 
ATOM     31  C   UNL A   1      43.097  21.143  25.528  1.00  0.00     0.014 A 
ATOM     32  C   UNL A   1      42.652  22.163  28.067  1.00  0.00     0.010 A 
ATOM     33  C   UNL A   1      43.547  22.415  25.936  1.00  0.00     0.010 A 
ATOM     34  C   UNL A   1      43.194  23.062  27.139  1.00  0.00    -0.014 A 
BRANCH  34  35
ATOM     35  C   UNL A   1      43.481  24.582  27.446  1.00  0.00     0.031 A 
ATOM     36  C   UNL A   1      42.166  25.457  27.593  1.00  0.00     0.074 A 
ATOM     37  C   UNL A   1      44.782  25.069  27.607  1.00  0.00     0.049 A 
ATOM     38  N   UNL A   1      41.676  26.463  26.917  1.00  0.00    -0.248 NA
ATOM     39  C   UNL A   1      41.129  24.999  28.533  1.00  0.00     0.031 C 
ATOM     40  C   UNL A   1      46.014  24.243  27.741  1.00  0.00     0.029 A 
ATOM     41  N   UNL A   1      45.363  26.343  27.737  1.00  0.00    -0.354 N 
ATOM     42  C   UNL A   1      40.401  26.766  27.511  1.00  0.00     0.074 A 
ATOM     43  C   UNL A   1      39.994  25.596  28.188  1.00  0.00     0.031 C 
ATOM     44  C   UNL A   1      47.146  24.996  27.763  1.00  0.00     0.029 A 
ATOM     45  C   UNL A   1      46.811  26.409  27.694  1.00  0.00     0.049 A 
ATOM     46  H   UNL A   1      44.813  27.151  27.852  1.00  0.00     0.167 HD
ATOM     47  C   UNL A   1      39.934  28.013  27.847  1.00  0.00     0.034 A 
ATOM     48  C   UNL A   1      47.656  27.509  27.586  1.00  0.00     0.034 A 
ATOM     49  C   UNL A   1      40.989  28.940  27.627  1.00  0.00     0.049 A 
ATOM     50  C   UNL A   1      46.781  28.645  27.846  1.00  0.00     0.074 A 
ATOM     51  C   UNL A   1      41.662  29.271  26.483  1.00  0.00     0.029 A 
ATOM     52  N   UNL A   1      41.752  29.230  28.741  1.00  0.00    -0.354 N 
ATOM     53  N   UNL A   1      46.410  29.015  29.031  1.00  0.00    -0.248 NA
ATOM     54  C   UNL A   1      46.263  29.410  26.708  1.00  0.00     0.031 C 
ATOM     55  C   UNL A   1      42.988  29.205  26.929  1.00  0.00     0.029 A 
ATOM     56  C   UNL A   1      43.046  29.322  28.325  1.00  0.00     0.049 A 
ATOM     57  H   UNL A   1      41.423  29.348  29.662  1.00  0.00     0.167 HD
ATOM     58  C   UNL A   1      45.307  29.768  28.732  1.00  0.00     0.074 A 
ATOM     59  C   UNL A   1      45.499  30.265  27.382  1.00  0.00     0.031 C 
ATOM     60  C   UNL A   1      44.123  29.378  29.275  1.00  0.00     0.034 A 
BRANCH  47  61
ATOM     61  C   UNL A   1      38.792  28.541  28.705  1.00  0.00     0.023 A 
ATOM     62  C   UNL A   1      37.803  29.254  27.968  1.00  0.00     0.012 A 
ATOM     63  C   UNL A   1      38.736  28.650  30.109  1.00  0.00     0.148 A 
ATOM     64  C   UNL A   1      36.888  30.118  28.569  1.00  0.00     0.002 A 
ATOM     65  C   UNL A   1      37.770  29.466  30.713  1.00  0.00     0.091 A 
ATOM     66  F   UNL A   1      39.659  28.050  30.864  1.00  0.00    -0.205 F 
ATOM     67  C   UNL A   1      36.878  30.229  29.946  1.00  0.00     0.022 A 
BRANCH  65  68
ATOM     68  S   UNL A   1      37.590  29.629  32.497  1.00  0.00     0.127 S 
ATOM     69  O   UNL A   1      38.851  30.265  32.870  1.00  0.00    -0.237 OA
ATOM     70  O   UNL A   1      36.418  30.501  32.596  1.00  0.00    -0.237 OA
ATOM     71  O   UNL A   1      37.376  28.280  32.998  1.00  0.00    -0.744 OA
ENDBRANCH  65  68
ENDBRANCH  47  61
BRANCH  48  72
ATOM     72  C   UNL A   1      49.113  27.973  27.315  1.00  0.00     0.023 A 
ATOM     73  C   UNL A   1      50.075  28.275  28.283  1.00  0.00     0.012 A 
ATOM     74  C   UNL A   1      49.605  28.060  25.950  1.00  0.00     0.148 A 
ATOM     75  C   UNL A   1      51.429  28.541  27.922  1.00  0.00     0.002 A 
ATOM     76  C   UNL A   1      50.950  28.186  25.607  1.00  0.00     0.091 A 
ATOM     77  F   UNL A   1      48.749  28.086  24.926  1.00  0.00    -0.205 F 
ATOM     78  C   UNL A   1      51.877  28.446  26.600  1.00  0.00     0.022 A 
BRANCH  76  79
ATOM     79  S   UNL A   1      51.544  27.898  23.915  1.00  0.00     0.127 S 
ATOM     80  O   UNL A   1      52.997  27.881  24.082  1.00  0.00    -0.237 OA
ATOM     81  O   UNL A   1      50.950  26.595  23.618  1.00  0.00    -0.237 OA
ATOM     82  O   UNL A   1      51.039  28.996  23.100  1.00  0.00    -0.744 OA
ENDBRANCH  76  79
ENDBRANCH  48  72
BRANCH  60  83
ATOM     83  C   UNL A   1      44.239  28.804  30.682  1.00  0.00     0.023 A 
ATOM     84  C   UNL A   1      44.014  27.409  30.805  1.00  0.00     0.012 A 
ATOM     85  C   UNL A   1      44.393  29.527  31.882  1.00  0.00     0.148 A 
ATOM     86  C   UNL A   1      43.925  26.758  32.038  1.00  0.00     0.002 A 
ATOM     87  C   UNL A   1      44.302  28.859  33.124  1.00  0.00     0.091 A 
ATOM     88  F   UNL A   1      44.591  30.852  31.815  1.00  0.00    -0.205 F 
ATOM     89  C   UNL A   1      44.075  27.483  33.203  1.00  0.00     0.022 A 
BRANCH  87  90
ATOM     90  S   UNL A   1      44.345  29.696  34.705  1.00  0.00     0.127 S 
ATOM     91  O   UNL A   1      44.166  28.620  35.679  1.00  0.00    -0.237 OA
ATOM     92  O   UNL A   1      45.665  30.315  34.719  1.00  0.00    -0.237 OA
ATOM     93  O   UNL A   1      43.217  30.605  34.622  1.00  0.00    -0.744 OA
ENDBRANCH  87  90
ENDBRANCH  60  83
ENDBRANCH  34  35
ENDBRANCH  26  29
ENDBRANCH  24  25
ENDBRANCH  23  24
ENDBRANCH   1  23
TORSDOF 17
ENDMDL
