MODEL 1
REMARK VINA RESULT:     -11.8      0.000      0.000
REMARK SMILES [NH3+][C@@H](CCS[C@@H]1CCO[C@@]2(CCOC2)C1)C(=O)NCCCCNC(=O)c1ccc(-c2c3nc(c(-c4cccc(S(=O)(=O)[O-])c4F)c4ccc([nH]4)c(-c4cccc(S(=O)(=O)[O-])c4F)c4nc(c(-c5cccc(S(=O)(=O)[O-])c5F)c5ccc2[nH]5)C=C4)C=C3)cc1
REMARK SMILES IDX 20 1 19 2 18 3 16 4 17 5 2 7 1 8 3 12 4 13 5 14 6 15 7 16
REMARK SMILES IDX 15 17 8 18 10 19 9 20 11 21 14 22 12 23 13 24 21 25 22 26
REMARK SMILES IDX 23 27 24 28 25 30 26 31 27 32 88 33 28 34 87 35 29 36 30 37
REMARK SMILES IDX 31 38 81 39 32 40 86 41 80 42 82 43 33 44 85 45 79 46 78 47
REMARK SMILES IDX 34 49 66 50 46 51 65 52 47 53 50 54 64 55 83 56 48 57 49 58
REMARK SMILES IDX 63 60 84 61 51 62 35 63 36 64 44 65 37 66 39 67 45 68 38 69
REMARK SMILES IDX 40 70 41 71 42 72 43 73 67 74 68 75 76 76 69 77 71 78 77 79
REMARK SMILES IDX 70 80 72 81 73 82 74 83 75 84 52 85 53 86 61 87 54 88 56 89
REMARK SMILES IDX 62 90 55 91 57 92 58 93 59 94 60 95
REMARK H PARENT 18 6 1 9 1 10 1 11 23 29 82 48 50 59
REMARK Flexibility Score: inf
ROOT
ATOM      1  C   UNL A   1      35.332  23.378  26.109  1.00  0.00     0.023 C 
ENDROOT
BRANCH   1   2
ATOM      2  C   UNL A   1      34.496  24.473  25.420  1.00  0.00     0.116 C 
BRANCH   2   3
ATOM      3  N   UNL A   1      33.280  24.849  26.124  1.00  0.00    -0.351 N 
ATOM      4  C   UNL A   1      32.405  25.888  25.960  1.00  0.00     0.278 C 
ATOM      5  O   UNL A   1      31.673  26.259  26.872  1.00  0.00    -0.268 OA
ATOM      6  H   UNL A   1      33.042  24.239  26.859  1.00  0.00     0.163 HD
BRANCH   4   7
ATOM      7  C   UNL A   1      32.274  26.515  24.605  1.00  0.00     0.271 C 
BRANCH   7   8
ATOM      8  N   UNL A   1      33.585  27.048  24.186  1.00  0.00    -0.347 N 
ATOM      9  H   UNL A   1      34.323  26.600  24.729  1.00  0.00     0.345 HD
ATOM     10  H   UNL A   1      33.608  28.056  24.347  1.00  0.00     0.345 HD
ATOM     11  H   UNL A   1      33.728  26.858  23.195  1.00  0.00     0.345 HD
ENDBRANCH   7   8
BRANCH   7  12
ATOM     12  C   UNL A   1      31.542  25.536  23.681  1.00  0.00     0.086 C 
BRANCH  12  13
ATOM     13  C   UNL A   1      32.248  25.035  22.359  1.00  0.00     0.076 C 
BRANCH  13  14
ATOM     14  S   UNL A   1      33.120  23.394  22.107  1.00  0.00    -0.158 SA
BRANCH  14  15
ATOM     15  C   UNL A   1      32.392  21.748  22.967  1.00  0.00     0.052 C 
ATOM     16  C   UNL A   1      31.849  22.096  24.364  1.00  0.00     0.043 C 
ATOM     17  C   UNL A   1      32.527  20.187  22.778  1.00  0.00     0.052 C 
ATOM     18  C   UNL A   1      32.219  21.093  25.446  1.00  0.00     0.162 C 
ATOM     19  C   UNL A   1      32.650  19.244  24.043  1.00  0.00     0.095 C 
ATOM     20  O   UNL A   1      31.819  19.779  25.072  1.00  0.00    -0.372 OA
ATOM     21  C   UNL A   1      32.174  17.815  23.723  1.00  0.00     0.066 C 
ATOM     22  C   UNL A   1      34.027  18.830  24.621  1.00  0.00     0.195 C 
ATOM     23  C   UNL A   1      33.412  17.102  23.217  1.00  0.00     0.163 C 
ATOM     24  O   UNL A   1      34.524  17.707  23.882  1.00  0.00    -0.378 OA
ENDBRANCH  14  15
ENDBRANCH  13  14
ENDBRANCH  12  13
ENDBRANCH   7  12
ENDBRANCH   4   7
ENDBRANCH   2   3
ENDBRANCH   1   2
BRANCH   1  25
ATOM     25  C   UNL A   1      35.438  21.983  25.465  1.00  0.00     0.023 C 
BRANCH  25  26
ATOM     26  C   UNL A   1      36.641  21.757  24.562  1.00  0.00     0.116 C 
BRANCH  26  27
ATOM     27  N   UNL A   1      37.535  20.763  25.132  1.00  0.00    -0.352 N 
ATOM     28  C   UNL A   1      38.762  20.805  25.745  1.00  0.00     0.251 C 
ATOM     29  H   UNL A   1      37.179  19.849  25.062  1.00  0.00     0.163 HD
ATOM     30  O   UNL A   1      39.367  19.732  25.813  1.00  0.00    -0.269 OA
BRANCH  28  31
ATOM     31  C   UNL A   1      39.395  22.019  26.340  1.00  0.00     0.039 A 
ATOM     32  C   UNL A   1      38.846  23.270  25.999  1.00  0.00     0.014 A 
ATOM     33  C   UNL A   1      40.565  22.008  27.094  1.00  0.00     0.014 A 
ATOM     34  C   UNL A   1      39.471  24.470  26.378  1.00  0.00     0.010 A 
ATOM     35  C   UNL A   1      41.131  23.203  27.560  1.00  0.00     0.010 A 
ATOM     36  C   UNL A   1      40.626  24.452  27.168  1.00  0.00    -0.014 A 
BRANCH  36  37
ATOM     37  C   UNL A   1      41.370  25.697  27.527  1.00  0.00     0.031 A 
ATOM     38  C   UNL A   1      40.686  26.776  28.340  1.00  0.00     0.074 A 
ATOM     39  C   UNL A   1      42.619  25.914  27.065  1.00  0.00     0.049 A 
ATOM     40  N   UNL A   1      41.094  27.987  28.628  1.00  0.00    -0.248 NA
ATOM     41  C   UNL A   1      39.343  26.467  28.862  1.00  0.00     0.031 C 
ATOM     42  C   UNL A   1      43.385  24.991  26.227  1.00  0.00     0.029 A 
ATOM     43  N   UNL A   1      43.455  26.996  27.211  1.00  0.00    -0.354 N 
ATOM     44  C   UNL A   1      40.035  28.602  29.291  1.00  0.00     0.074 A 
ATOM     45  C   UNL A   1      38.956  27.640  29.337  1.00  0.00     0.031 C 
ATOM     46  C   UNL A   1      44.574  25.542  25.935  1.00  0.00     0.029 A 
ATOM     47  C   UNL A   1      44.646  26.872  26.532  1.00  0.00     0.049 A 
ATOM     48  H   UNL A   1      43.223  27.786  27.752  1.00  0.00     0.167 HD
ATOM     49  C   UNL A   1      39.970  29.840  29.841  1.00  0.00     0.034 A 
ATOM     50  C   UNL A   1      45.674  27.734  26.393  1.00  0.00     0.034 A 
ATOM     51  C   UNL A   1      41.075  30.758  29.881  1.00  0.00     0.049 A 
ATOM     52  C   UNL A   1      45.607  29.075  27.075  1.00  0.00     0.074 A 
ATOM     53  C   UNL A   1      41.150  31.987  30.514  1.00  0.00     0.029 A 
ATOM     54  N   UNL A   1      42.301  30.548  29.270  1.00  0.00    -0.354 N 
ATOM     55  N   UNL A   1      44.648  29.581  27.810  1.00  0.00    -0.248 NA
ATOM     56  C   UNL A   1      46.781  29.951  26.937  1.00  0.00     0.031 C 
ATOM     57  C   UNL A   1      42.416  32.528  30.269  1.00  0.00     0.029 A 
ATOM     58  C   UNL A   1      43.138  31.624  29.507  1.00  0.00     0.049 A 
ATOM     59  H   UNL A   1      42.541  29.750  28.746  1.00  0.00     0.167 HD
ATOM     60  C   UNL A   1      45.115  30.813  28.254  1.00  0.00     0.074 A 
ATOM     61  C   UNL A   1      46.452  30.969  27.720  1.00  0.00     0.031 C 
ATOM     62  C   UNL A   1      44.489  31.740  29.022  1.00  0.00     0.034 A 
BRANCH  49  63
ATOM     63  C   UNL A   1      38.676  30.256  30.498  1.00  0.00     0.023 A 
ATOM     64  C   UNL A   1      38.475  30.008  31.872  1.00  0.00     0.012 A 
ATOM     65  C   UNL A   1      37.682  30.942  29.772  1.00  0.00     0.148 A 
ATOM     66  C   UNL A   1      37.290  30.390  32.500  1.00  0.00     0.002 A 
ATOM     67  C   UNL A   1      36.524  31.366  30.416  1.00  0.00     0.091 A 
ATOM     68  F   UNL A   1      37.879  31.159  28.464  1.00  0.00    -0.205 F 
ATOM     69  C   UNL A   1      36.320  31.077  31.776  1.00  0.00     0.022 A 
BRANCH  67  70
ATOM     70  S   UNL A   1      35.252  32.333  29.596  1.00  0.00     0.127 S 
ATOM     71  O   UNL A   1      34.401  32.717  30.721  1.00  0.00    -0.237 OA
ATOM     72  O   UNL A   1      36.026  33.430  29.015  1.00  0.00    -0.237 OA
ATOM     73  O   UNL A   1      34.634  31.443  28.622  1.00  0.00    -0.744 OA
ENDBRANCH  67  70
ENDBRANCH  49  63
BRANCH  50  74
ATOM     74  C   UNL A   1      46.891  27.328  25.631  1.00  0.00     0.023 A 
ATOM     75  C   UNL A   1      47.846  26.499  26.251  1.00  0.00     0.012 A 
ATOM     76  C   UNL A   1      47.098  27.735  24.299  1.00  0.00     0.148 A 
ATOM     77  C   UNL A   1      49.000  26.108  25.571  1.00  0.00     0.002 A 
ATOM     78  C   UNL A   1      48.223  27.295  23.607  1.00  0.00     0.091 A 
ATOM     79  F   UNL A   1      46.185  28.534  23.729  1.00  0.00    -0.205 F 
ATOM     80  C   UNL A   1      49.183  26.497  24.247  1.00  0.00     0.022 A 
BRANCH  78  81
ATOM     81  S   UNL A   1      48.477  27.637  21.863  1.00  0.00     0.127 S 
ATOM     82  O   UNL A   1      48.754  26.304  21.333  1.00  0.00    -0.237 OA
ATOM     83  O   UNL A   1      47.183  28.199  21.474  1.00  0.00    -0.237 OA
ATOM     84  O   UNL A   1      49.583  28.583  21.806  1.00  0.00    -0.744 OA
ENDBRANCH  78  81
ENDBRANCH  50  74
BRANCH  62  85
ATOM     85  C   UNL A   1      45.252  32.989  29.379  1.00  0.00     0.023 A 
ATOM     86  C   UNL A   1      46.071  33.011  30.524  1.00  0.00     0.012 A 
ATOM     87  C   UNL A   1      45.218  34.113  28.529  1.00  0.00     0.148 A 
ATOM     88  C   UNL A   1      46.821  34.145  30.836  1.00  0.00     0.002 A 
ATOM     89  C   UNL A   1      46.008  35.220  28.820  1.00  0.00     0.091 A 
ATOM     90  F   UNL A   1      44.419  34.079  27.453  1.00  0.00    -0.205 F 
ATOM     91  C   UNL A   1      46.799  35.242  29.979  1.00  0.00     0.022 A 
BRANCH  89  92
ATOM     92  S   UNL A   1      46.117  36.632  27.714  1.00  0.00     0.127 S 
ATOM     93  O   UNL A   1      44.748  37.157  27.769  1.00  0.00    -0.237 OA
ATOM     94  O   UNL A   1      47.112  37.476  28.391  1.00  0.00    -0.237 OA
ATOM     95  O   UNL A   1      46.538  36.113  26.432  1.00  0.00    -0.744 OA
ENDBRANCH  89  92
ENDBRANCH  62  85
ENDBRANCH  36  37
ENDBRANCH  28  31
ENDBRANCH  26  27
ENDBRANCH  25  26
ENDBRANCH   1  25
TORSDOF 19
ENDMDL
MODEL 2
REMARK VINA RESULT:     -11.5      1.957      8.490
REMARK SMILES [NH3+][C@@H](CCS[C@@H]1CCO[C@@]2(CCOC2)C1)C(=O)NCCCCNC(=O)c1ccc(-c2c3nc(c(-c4cccc(S(=O)(=O)[O-])c4F)c4ccc([nH]4)c(-c4cccc(S(=O)(=O)[O-])c4F)c4nc(c(-c5cccc(S(=O)(=O)[O-])c5F)c5ccc2[nH]5)C=C4)C=C3)cc1
REMARK SMILES IDX 20 1 19 2 18 3 16 4 17 5 2 7 1 8 3 12 4 13 5 14 6 15 7 16
REMARK SMILES IDX 15 17 8 18 10 19 9 20 11 21 14 22 12 23 13 24 21 25 22 26
REMARK SMILES IDX 23 27 24 28 25 30 26 31 27 32 88 33 28 34 87 35 29 36 30 37
REMARK SMILES IDX 31 38 81 39 32 40 86 41 80 42 82 43 33 44 85 45 79 46 78 47
REMARK SMILES IDX 34 49 66 50 46 51 65 52 47 53 50 54 64 55 83 56 48 57 49 58
REMARK SMILES IDX 63 60 84 61 51 62 35 63 36 64 44 65 37 66 39 67 45 68 38 69
REMARK SMILES IDX 40 70 41 71 42 72 43 73 67 74 68 75 76 76 69 77 71 78 77 79
REMARK SMILES IDX 70 80 72 81 73 82 74 83 75 84 52 85 53 86 61 87 54 88 56 89
REMARK SMILES IDX 62 90 55 91 57 92 58 93 59 94 60 95
REMARK H PARENT 18 6 1 9 1 10 1 11 23 29 82 48 50 59
REMARK Flexibility Score: inf
ROOT
ATOM      1  C   UNL A   1      36.409  23.292  23.648  1.00  0.00     0.023 C 
ENDROOT
BRANCH   1   2
ATOM      2  C   UNL A   1      35.059  23.823  24.166  1.00  0.00     0.116 C 
BRANCH   2   3
ATOM      3  N   UNL A   1      34.353  24.700  23.246  1.00  0.00    -0.351 N 
ATOM      4  C   UNL A   1      33.258  24.507  22.448  1.00  0.00     0.278 C 
ATOM      5  O   UNL A   1      33.047  25.215  21.468  1.00  0.00    -0.268 OA
ATOM      6  H   UNL A   1      34.736  25.605  23.185  1.00  0.00     0.163 HD
BRANCH   4   7
ATOM      7  C   UNL A   1      32.250  23.472  22.844  1.00  0.00     0.271 C 
BRANCH   7   8
ATOM      8  N   UNL A   1      32.461  22.253  22.039  1.00  0.00    -0.347 N 
ATOM      9  H   UNL A   1      32.233  22.447  21.063  1.00  0.00     0.345 HD
ATOM     10  H   UNL A   1      31.857  21.508  22.387  1.00  0.00     0.345 HD
ATOM     11  H   UNL A   1      33.436  21.963  22.110  1.00  0.00     0.345 HD
ENDBRANCH   7   8
BRANCH   7  12
ATOM     12  C   UNL A   1      32.237  23.360  24.372  1.00  0.00     0.086 C 
BRANCH  12  13
ATOM     13  C   UNL A   1      30.952  23.807  25.176  1.00  0.00     0.076 C 
BRANCH  13  14
ATOM     14  S   UNL A   1      30.371  25.565  25.471  1.00  0.00    -0.158 SA
BRANCH  14  15
ATOM     15  C   UNL A   1      30.539  26.917  24.013  1.00  0.00     0.052 C 
ATOM     16  C   UNL A   1      31.975  27.467  23.987  1.00  0.00     0.043 C 
ATOM     17  C   UNL A   1      29.569  27.807  23.143  1.00  0.00     0.052 C 
ATOM     18  C   UNL A   1      32.063  28.976  23.810  1.00  0.00     0.162 C 
ATOM     19  C   UNL A   1      29.940  29.313  22.834  1.00  0.00     0.095 C 
ATOM     20  O   UNL A   1      31.353  29.388  22.648  1.00  0.00    -0.372 OA
ATOM     21  C   UNL A   1      29.251  29.807  21.548  1.00  0.00     0.066 C 
ATOM     22  C   UNL A   1      29.452  30.476  23.735  1.00  0.00     0.195 C 
ATOM     23  C   UNL A   1      27.917  30.355  22.015  1.00  0.00     0.163 C 
ATOM     24  O   UNL A   1      28.126  30.846  23.341  1.00  0.00    -0.378 OA
ENDBRANCH  14  15
ENDBRANCH  13  14
ENDBRANCH  12  13
ENDBRANCH   7  12
ENDBRANCH   4   7
ENDBRANCH   2   3
ENDBRANCH   1   2
BRANCH   1  25
ATOM     25  C   UNL A   1      36.814  21.833  23.935  1.00  0.00     0.023 C 
BRANCH  25  26
ATOM     26  C   UNL A   1      36.750  21.400  25.391  1.00  0.00     0.116 C 
BRANCH  26  27
ATOM     27  N   UNL A   1      37.925  20.624  25.752  1.00  0.00    -0.352 N 
ATOM     28  C   UNL A   1      39.205  20.932  26.136  1.00  0.00     0.251 C 
ATOM     29  H   UNL A   1      37.766  19.654  25.710  1.00  0.00     0.163 HD
ATOM     30  O   UNL A   1      40.028  20.016  26.053  1.00  0.00    -0.269 OA
BRANCH  28  31
ATOM     31  C   UNL A   1      39.662  22.254  26.657  1.00  0.00     0.039 A 
ATOM     32  C   UNL A   1      39.019  23.404  26.161  1.00  0.00     0.014 A 
ATOM     33  C   UNL A   1      40.764  22.435  27.489  1.00  0.00     0.014 A 
ATOM     34  C   UNL A   1      39.486  24.693  26.467  1.00  0.00     0.010 A 
ATOM     35  C   UNL A   1      41.167  23.720  27.878  1.00  0.00     0.010 A 
ATOM     36  C   UNL A   1      40.571  24.868  27.334  1.00  0.00    -0.014 A 
BRANCH  36  37
ATOM     37  C   UNL A   1      41.154  26.213  27.624  1.00  0.00     0.031 A 
ATOM     38  C   UNL A   1      42.561  26.540  27.168  1.00  0.00     0.074 A 
ATOM     39  C   UNL A   1      40.476  27.116  28.363  1.00  0.00     0.049 A 
ATOM     40  N   UNL A   1      43.306  27.580  27.446  1.00  0.00    -0.248 NA
ATOM     41  C   UNL A   1      43.236  25.540  26.322  1.00  0.00     0.031 C 
ATOM     42  C   UNL A   1      39.135  26.923  28.917  1.00  0.00     0.029 A 
ATOM     43  N   UNL A   1      40.835  28.369  28.801  1.00  0.00    -0.354 N 
ATOM     44  C   UNL A   1      44.551  27.324  26.878  1.00  0.00     0.074 A 
ATOM     45  C   UNL A   1      44.470  26.017  26.264  1.00  0.00     0.031 C 
ATOM     46  C   UNL A   1      38.785  28.014  29.617  1.00  0.00     0.029 A 
ATOM     47  C   UNL A   1      39.887  28.971  29.596  1.00  0.00     0.049 A 
ATOM     48  H   UNL A   1      41.692  28.795  28.568  1.00  0.00     0.167 HD
ATOM     49  C   UNL A   1      45.655  28.112  26.838  1.00  0.00     0.034 A 
ATOM     50  C   UNL A   1      39.903  30.153  30.245  1.00  0.00     0.034 A 
ATOM     51  C   UNL A   1      45.704  29.449  27.362  1.00  0.00     0.049 A 
ATOM     52  C   UNL A   1      41.114  31.041  30.126  1.00  0.00     0.074 A 
ATOM     53  C   UNL A   1      46.732  30.372  27.270  1.00  0.00     0.029 A 
ATOM     54  N   UNL A   1      44.681  30.061  28.068  1.00  0.00    -0.354 N 
ATOM     55  N   UNL A   1      42.229  30.833  29.470  1.00  0.00    -0.248 NA
ATOM     56  C   UNL A   1      41.054  32.344  30.808  1.00  0.00     0.031 C 
ATOM     57  C   UNL A   1      46.337  31.534  27.939  1.00  0.00     0.029 A 
ATOM     58  C   UNL A   1      45.053  31.345  28.423  1.00  0.00     0.049 A 
ATOM     59  H   UNL A   1      43.816  29.642  28.285  1.00  0.00     0.167 HD
ATOM     60  C   UNL A   1      42.986  31.990  29.625  1.00  0.00     0.074 A 
ATOM     61  C   UNL A   1      42.193  32.903  30.423  1.00  0.00     0.031 C 
ATOM     62  C   UNL A   1      44.230  32.267  29.164  1.00  0.00     0.034 A 
BRANCH  49  63
ATOM     63  C   UNL A   1      46.887  27.570  26.155  1.00  0.00     0.023 A 
ATOM     64  C   UNL A   1      47.759  26.711  26.856  1.00  0.00     0.012 A 
ATOM     65  C   UNL A   1      47.155  27.864  24.802  1.00  0.00     0.148 A 
ATOM     66  C   UNL A   1      48.900  26.194  26.242  1.00  0.00     0.002 A 
ATOM     67  C   UNL A   1      48.267  27.304  24.180  1.00  0.00     0.091 A 
ATOM     68  F   UNL A   1      46.326  28.693  24.151  1.00  0.00    -0.205 F 
ATOM     69  C   UNL A   1      49.147  26.482  24.903  1.00  0.00     0.022 A 
BRANCH  67  70
ATOM     70  S   UNL A   1      48.629  27.542  22.437  1.00  0.00     0.127 S 
ATOM     71  O   UNL A   1      48.680  26.163  21.955  1.00  0.00    -0.237 OA
ATOM     72  O   UNL A   1      47.465  28.303  21.982  1.00  0.00    -0.237 OA
ATOM     73  O   UNL A   1      49.890  28.269  22.383  1.00  0.00    -0.744 OA
ENDBRANCH  67  70
ENDBRANCH  49  63
BRANCH  50  74
ATOM     74  C   UNL A   1      38.705  30.601  31.013  1.00  0.00     0.023 A 
ATOM     75  C   UNL A   1      38.652  30.370  32.402  1.00  0.00     0.012 A 
ATOM     76  C   UNL A   1      37.635  31.271  30.389  1.00  0.00     0.148 A 
ATOM     77  C   UNL A   1      37.543  30.767  33.150  1.00  0.00     0.002 A 
ATOM     78  C   UNL A   1      36.558  31.715  31.149  1.00  0.00     0.091 A 
ATOM     79  F   UNL A   1      37.697  31.472  29.065  1.00  0.00    -0.205 F 
ATOM     80  C   UNL A   1      36.502  31.448  32.526  1.00  0.00     0.022 A 
BRANCH  78  81
ATOM     81  S   UNL A   1      35.235  32.713  30.458  1.00  0.00     0.127 S 
ATOM     82  O   UNL A   1      35.944  33.934  30.084  1.00  0.00    -0.237 OA
ATOM     83  O   UNL A   1      34.792  31.888  29.333  1.00  0.00    -0.237 OA
ATOM     84  O   UNL A   1      34.252  32.854  31.523  1.00  0.00    -0.744 OA
ENDBRANCH  78  81
ENDBRANCH  50  74
BRANCH  62  85
ATOM     85  C   UNL A   1      44.804  33.628  29.461  1.00  0.00     0.023 A 
ATOM     86  C   UNL A   1      45.499  33.851  30.665  1.00  0.00     0.012 A 
ATOM     87  C   UNL A   1      44.725  34.660  28.505  1.00  0.00     0.148 A 
ATOM     88  C   UNL A   1      46.078  35.093  30.928  1.00  0.00     0.002 A 
ATOM     89  C   UNL A   1      45.349  35.877  28.753  1.00  0.00     0.091 A 
ATOM     90  F   UNL A   1      44.045  34.433  27.372  1.00  0.00    -0.205 F 
ATOM     91  C   UNL A   1      46.014  36.099  29.968  1.00  0.00     0.022 A 
BRANCH  89  92
ATOM     92  S   UNL A   1      45.403  37.191  27.526  1.00  0.00     0.127 S 
ATOM     93  O   UNL A   1      46.047  36.512  26.396  1.00  0.00    -0.237 OA
ATOM     94  O   UNL A   1      43.976  37.477  27.321  1.00  0.00    -0.237 OA
ATOM     95  O   UNL A   1      46.156  38.271  28.120  1.00  0.00    -0.744 OA
ENDBRANCH  89  92
ENDBRANCH  62  85
ENDBRANCH  36  37
ENDBRANCH  28  31
ENDBRANCH  26  27
ENDBRANCH  25  26
ENDBRANCH   1  25
TORSDOF 19
ENDMDL
MODEL 3
REMARK VINA RESULT:     -11.5      2.172      4.001
REMARK SMILES [NH3+][C@@H](CCS[C@@H]1CCO[C@@]2(CCOC2)C1)C(=O)NCCCCNC(=O)c1ccc(-c2c3nc(c(-c4cccc(S(=O)(=O)[O-])c4F)c4ccc([nH]4)c(-c4cccc(S(=O)(=O)[O-])c4F)c4nc(c(-c5cccc(S(=O)(=O)[O-])c5F)c5ccc2[nH]5)C=C4)C=C3)cc1
REMARK SMILES IDX 20 1 19 2 18 3 16 4 17 5 2 7 1 8 3 12 4 13 5 14 6 15 7 16
REMARK SMILES IDX 15 17 8 18 10 19 9 20 11 21 14 22 12 23 13 24 21 25 22 26
REMARK SMILES IDX 23 27 24 28 25 30 26 31 27 32 88 33 28 34 87 35 29 36 30 37
REMARK SMILES IDX 31 38 81 39 32 40 86 41 80 42 82 43 33 44 85 45 79 46 78 47
REMARK SMILES IDX 34 49 66 50 46 51 65 52 47 53 50 54 64 55 83 56 48 57 49 58
REMARK SMILES IDX 63 60 84 61 51 62 35 63 36 64 44 65 37 66 39 67 45 68 38 69
REMARK SMILES IDX 40 70 41 71 42 72 43 73 67 74 68 75 76 76 69 77 71 78 77 79
REMARK SMILES IDX 70 80 72 81 73 82 74 83 75 84 52 85 53 86 61 87 54 88 56 89
REMARK SMILES IDX 62 90 55 91 57 92 58 93 59 94 60 95
REMARK H PARENT 18 6 1 9 1 10 1 11 23 29 82 48 50 59
REMARK Flexibility Score: inf
ROOT
ATOM      1  C   UNL A   1      34.061  20.266  25.306  1.00  0.00     0.023 C 
ENDROOT
BRANCH   1   2
ATOM      2  C   UNL A   1      32.548  20.553  25.251  1.00  0.00     0.116 C 
BRANCH   2   3
ATOM      3  N   UNL A   1      32.171  21.683  24.417  1.00  0.00    -0.351 N 
ATOM      4  C   UNL A   1      31.301  22.721  24.613  1.00  0.00     0.278 C 
ATOM      5  O   UNL A   1      30.827  23.346  23.669  1.00  0.00    -0.268 OA
ATOM      6  H   UNL A   1      32.629  21.706  23.546  1.00  0.00     0.163 HD
BRANCH   4   7
ATOM      7  C   UNL A   1      31.004  23.161  26.015  1.00  0.00     0.271 C 
BRANCH   7   8
ATOM      8  N   UNL A   1      29.969  22.283  26.592  1.00  0.00    -0.347 N 
ATOM      9  H   UNL A   1      29.225  22.140  25.908  1.00  0.00     0.345 HD
ATOM     10  H   UNL A   1      29.581  22.720  27.429  1.00  0.00     0.345 HD
ATOM     11  H   UNL A   1      30.382  21.384  26.838  1.00  0.00     0.345 HD
ENDBRANCH   7   8
BRANCH   7  12
ATOM     12  C   UNL A   1      32.330  23.337  26.763  1.00  0.00     0.086 C 
BRANCH  12  13
ATOM     13  C   UNL A   1      33.233  24.599  26.464  1.00  0.00     0.076 C 
BRANCH  13  14
ATOM     14  S   UNL A   1      32.639  26.339  26.099  1.00  0.00    -0.158 SA
BRANCH  14  15
ATOM     15  C   UNL A   1      31.393  26.657  24.573  1.00  0.00     0.052 C 
ATOM     16  C   UNL A   1      32.143  26.442  23.246  1.00  0.00     0.043 C 
ATOM     17  C   UNL A   1      30.011  27.381  24.339  1.00  0.00     0.052 C 
ATOM     18  C   UNL A   1      31.852  27.494  22.187  1.00  0.00     0.162 C 
ATOM     19  C   UNL A   1      29.781  28.247  23.035  1.00  0.00     0.095 C 
ATOM     20  O   UNL A   1      30.452  27.601  21.954  1.00  0.00    -0.372 OA
ATOM     21  C   UNL A   1      28.284  28.352  22.690  1.00  0.00     0.066 C 
ATOM     22  C   UNL A   1      30.060  29.772  23.009  1.00  0.00     0.195 C 
ATOM     23  C   UNL A   1      27.801  29.574  23.445  1.00  0.00     0.163 C 
ATOM     24  O   UNL A   1      28.918  30.463  23.528  1.00  0.00    -0.378 OA
ENDBRANCH  14  15
ENDBRANCH  13  14
ENDBRANCH  12  13
ENDBRANCH   7  12
ENDBRANCH   4   7
ENDBRANCH   2   3
ENDBRANCH   1   2
BRANCH   1  25
ATOM     25  C   UNL A   1      35.048  21.256  24.660  1.00  0.00     0.023 C 
BRANCH  25  26
ATOM     26  C   UNL A   1      36.104  21.842  25.585  1.00  0.00     0.116 C 
BRANCH  26  27
ATOM     27  N   UNL A   1      37.247  20.951  25.693  1.00  0.00    -0.352 N 
ATOM     28  C   UNL A   1      38.586  21.123  25.937  1.00  0.00     0.251 C 
ATOM     29  H   UNL A   1      37.006  20.007  25.560  1.00  0.00     0.163 HD
ATOM     30  O   UNL A   1      39.315  20.173  25.638  1.00  0.00    -0.269 OA
BRANCH  28  31
ATOM     31  C   UNL A   1      39.210  22.337  26.542  1.00  0.00     0.039 A 
ATOM     32  C   UNL A   1      38.767  23.591  26.083  1.00  0.00     0.014 A 
ATOM     33  C   UNL A   1      40.288  22.312  27.424  1.00  0.00     0.014 A 
ATOM     34  C   UNL A   1      39.407  24.780  26.473  1.00  0.00     0.010 A 
ATOM     35  C   UNL A   1      40.860  23.503  27.894  1.00  0.00     0.010 A 
ATOM     36  C   UNL A   1      40.465  24.751  27.388  1.00  0.00    -0.014 A 
BRANCH  36  37
ATOM     37  C   UNL A   1      41.228  25.978  27.770  1.00  0.00     0.031 A 
ATOM     38  C   UNL A   1      40.554  27.060  28.588  1.00  0.00     0.074 A 
ATOM     39  C   UNL A   1      42.485  26.178  27.324  1.00  0.00     0.049 A 
ATOM     40  N   UNL A   1      40.981  28.260  28.895  1.00  0.00    -0.248 NA
ATOM     41  C   UNL A   1      39.201  26.769  29.093  1.00  0.00     0.031 C 
ATOM     42  C   UNL A   1      43.243  25.251  26.482  1.00  0.00     0.029 A 
ATOM     43  N   UNL A   1      43.339  27.243  27.492  1.00  0.00    -0.354 N 
ATOM     44  C   UNL A   1      39.926  28.886  29.554  1.00  0.00     0.074 A 
ATOM     45  C   UNL A   1      38.829  27.943  29.578  1.00  0.00     0.031 C 
ATOM     46  C   UNL A   1      44.445  25.785  26.210  1.00  0.00     0.029 A 
ATOM     47  C   UNL A   1      44.534  27.106  26.824  1.00  0.00     0.049 A 
ATOM     48  H   UNL A   1      43.115  28.031  28.039  1.00  0.00     0.167 HD
ATOM     49  C   UNL A   1      39.877  30.118  30.119  1.00  0.00     0.034 A 
ATOM     50  C   UNL A   1      45.579  27.950  26.706  1.00  0.00     0.034 A 
ATOM     51  C   UNL A   1      40.998  31.016  30.181  1.00  0.00     0.049 A 
ATOM     52  C   UNL A   1      45.529  29.285  27.402  1.00  0.00     0.074 A 
ATOM     53  C   UNL A   1      41.088  32.235  30.830  1.00  0.00     0.029 A 
ATOM     54  N   UNL A   1      42.226  30.791  29.581  1.00  0.00    -0.354 N 
ATOM     55  N   UNL A   1      44.571  29.799  28.134  1.00  0.00    -0.248 NA
ATOM     56  C   UNL A   1      46.720  30.141  27.288  1.00  0.00     0.031 C 
ATOM     57  C   UNL A   1      42.366  32.757  30.604  1.00  0.00     0.029 A 
ATOM     58  C   UNL A   1      43.080  31.849  29.839  1.00  0.00     0.049 A 
ATOM     59  H   UNL A   1      42.458  29.995  29.049  1.00  0.00     0.167 HD
ATOM     60  C   UNL A   1      45.055  31.017  28.597  1.00  0.00     0.074 A 
ATOM     61  C   UNL A   1      46.401  31.155  28.080  1.00  0.00     0.031 C 
ATOM     62  C   UNL A   1      44.438  31.946  29.370  1.00  0.00     0.034 A 
BRANCH  49  63
ATOM     63  C   UNL A   1      38.584  30.549  30.767  1.00  0.00     0.023 A 
ATOM     64  C   UNL A   1      38.356  30.273  32.132  1.00  0.00     0.012 A 
ATOM     65  C   UNL A   1      37.617  31.277  30.044  1.00  0.00     0.148 A 
ATOM     66  C   UNL A   1      37.171  30.669  32.752  1.00  0.00     0.002 A 
ATOM     67  C   UNL A   1      36.460  31.714  30.682  1.00  0.00     0.091 A 
ATOM     68  F   UNL A   1      37.840  31.521  28.745  1.00  0.00    -0.205 F 
ATOM     69  C   UNL A   1      36.230  31.397  32.031  1.00  0.00     0.022 A 
BRANCH  67  70
ATOM     70  S   UNL A   1      35.225  32.731  29.868  1.00  0.00     0.127 S 
ATOM     71  O   UNL A   1      36.024  33.876  29.435  1.00  0.00    -0.237 OA
ATOM     72  O   UNL A   1      34.774  31.858  28.783  1.00  0.00    -0.237 OA
ATOM     73  O   UNL A   1      34.213  33.021  30.874  1.00  0.00    -0.744 OA
ENDBRANCH  67  70
ENDBRANCH  49  63
BRANCH  50  74
ATOM     74  C   UNL A   1      46.796  27.533  25.952  1.00  0.00     0.023 A 
ATOM     75  C   UNL A   1      46.900  27.848  24.582  1.00  0.00     0.012 A 
ATOM     76  C   UNL A   1      47.857  26.851  26.579  1.00  0.00     0.148 A 
ATOM     77  C   UNL A   1      48.020  27.465  23.844  1.00  0.00     0.002 A 
ATOM     78  C   UNL A   1      48.996  26.522  25.851  1.00  0.00     0.091 A 
ATOM     79  F   UNL A   1      47.737  26.549  27.880  1.00  0.00    -0.205 F 
ATOM     80  C   UNL A   1      49.072  26.812  24.480  1.00  0.00     0.022 A 
BRANCH  78  81
ATOM     81  S   UNL A   1      50.453  25.798  26.612  1.00  0.00     0.127 S 
ATOM     82  O   UNL A   1      51.344  25.640  25.466  1.00  0.00    -0.237 OA
ATOM     83  O   UNL A   1      50.846  26.841  27.561  1.00  0.00    -0.237 OA
ATOM     84  O   UNL A   1      49.997  24.562  27.235  1.00  0.00    -0.744 OA
ENDBRANCH  78  81
ENDBRANCH  50  74
BRANCH  62  85
ATOM     85  C   UNL A   1      45.219  33.177  29.750  1.00  0.00     0.023 A 
ATOM     86  C   UNL A   1      46.022  33.172  30.906  1.00  0.00     0.012 A 
ATOM     87  C   UNL A   1      45.218  34.310  28.911  1.00  0.00     0.148 A 
ATOM     88  C   UNL A   1      46.789  34.289  31.240  1.00  0.00     0.002 A 
ATOM     89  C   UNL A   1      46.025  35.398  29.223  1.00  0.00     0.091 A 
ATOM     90  F   UNL A   1      44.434  34.301  27.823  1.00  0.00    -0.205 F 
ATOM     91  C   UNL A   1      46.800  35.394  30.393  1.00  0.00     0.022 A 
BRANCH  89  92
ATOM     92  S   UNL A   1      46.177  36.819  28.133  1.00  0.00     0.127 S 
ATOM     93  O   UNL A   1      47.124  37.659  28.874  1.00  0.00    -0.237 OA
ATOM     94  O   UNL A   1      46.735  36.213  26.916  1.00  0.00    -0.237 OA
ATOM     95  O   UNL A   1      44.845  37.359  27.982  1.00  0.00    -0.744 OA
ENDBRANCH  89  92
ENDBRANCH  62  85
ENDBRANCH  36  37
ENDBRANCH  28  31
ENDBRANCH  26  27
ENDBRANCH  25  26
ENDBRANCH   1  25
TORSDOF 19
ENDMDL
