MODEL 1
REMARK VINA RESULT:     -12.1      0.000      0.000
REMARK SMILES C[C@@H](C(=O)NCCCCNC(=O)c1ccc(-c2c3nc(c(-c4cccc(S(=O)(=O)[O-])c4F)c4ccc([nH]4)c(-c4cccc(S(=O)(=O)[O-])c4F)c4nc(c(-c5cccc(S(=O)(=O)[O-])c5F)c5ccc2[nH]5)C=C4)C=C3)cc1)c1ccc(-c2cccc(OC(=O)NC3CC3)c2)c(F)c1
REMARK SMILES IDX 6 1 5 2 3 3 4 4 2 6 1 7 76 8 77 9 95 10 78 11 93 12 79 13
REMARK SMILES IDX 94 14 80 15 81 16 92 17 82 18 84 19 83 20 85 21 86 22 87 23
REMARK SMILES IDX 88 24 89 26 90 27 91 28 7 29 8 30 9 31 10 32 11 33 12 35
REMARK SMILES IDX 13 36 14 37 75 38 15 39 74 40 16 41 17 42 18 43 68 44 19 45
REMARK SMILES IDX 73 46 67 47 69 48 20 49 72 50 66 51 65 52 21 54 53 55 33 56
REMARK SMILES IDX 52 57 34 58 37 59 51 60 70 61 35 62 36 63 50 65 71 66 38 67
REMARK SMILES IDX 22 68 23 69 31 70 24 71 26 72 32 73 25 74 27 75 28 76 29 77
REMARK SMILES IDX 30 78 54 79 55 80 63 81 56 82 58 83 64 84 57 85 59 86 60 87
REMARK SMILES IDX 61 88 62 89 39 90 40 91 48 92 41 93 43 94 49 95 42 96 44 97
REMARK SMILES IDX 45 98 46 99 47 100
REMARK H PARENT 5 5 88 25 10 34 69 53 37 64
REMARK Flexibility Score: inf
ROOT
ATOM      1  C   UNL A   1      32.122  29.755  26.107  1.00  0.00     0.116 C 
ENDROOT
BRANCH   1   2
ATOM      2  N   UNL A   1      31.317  28.589  25.815  1.00  0.00    -0.356 N 
ATOM      3  C   UNL A   1      31.448  27.675  24.809  1.00  0.00     0.227 C 
ATOM      4  O   UNL A   1      30.520  26.879  24.655  1.00  0.00    -0.274 OA
ATOM      5  H   UNL A   1      30.567  28.431  26.431  1.00  0.00     0.163 HD
BRANCH   3   6
ATOM      6  C   UNL A   1      32.743  27.632  23.975  1.00  0.00     0.105 C 
ATOM      7  C   UNL A   1      32.470  28.005  22.511  1.00  0.00     0.023 C 
BRANCH   6   8
ATOM      8  C   UNL A   1      33.470  26.292  24.114  1.00  0.00    -0.033 A 
ATOM      9  C   UNL A   1      33.672  25.481  22.981  1.00  0.00     0.005 A 
ATOM     10  C   UNL A   1      33.943  25.823  25.346  1.00  0.00     0.044 A 
ATOM     11  C   UNL A   1      34.337  24.253  23.078  1.00  0.00     0.012 A 
ATOM     12  C   UNL A   1      34.587  24.598  25.439  1.00  0.00     0.131 A 
ATOM     13  C   UNL A   1      34.790  23.788  24.317  1.00  0.00     0.018 A 
ATOM     14  F   UNL A   1      34.994  24.193  26.652  1.00  0.00    -0.206 F 
BRANCH  13  15
ATOM     15  C   UNL A   1      35.373  22.456  24.469  1.00  0.00    -0.012 A 
ATOM     16  C   UNL A   1      36.755  22.246  24.559  1.00  0.00     0.009 A 
ATOM     17  C   UNL A   1      34.510  21.353  24.549  1.00  0.00     0.056 A 
ATOM     18  C   UNL A   1      37.260  20.956  24.742  1.00  0.00     0.004 A 
ATOM     19  C   UNL A   1      35.011  20.075  24.736  1.00  0.00     0.133 A 
ATOM     20  C   UNL A   1      36.388  19.870  24.833  1.00  0.00     0.047 A 
BRANCH  19  21
ATOM     21  O   UNL A   1      34.200  18.919  24.837  1.00  0.00    -0.410 OA
BRANCH  21  22
ATOM     22  C   UNL A   1      32.871  18.888  25.253  1.00  0.00     0.412 C 
ATOM     23  O   UNL A   1      32.078  19.825  25.251  1.00  0.00    -0.224 OA
ATOM     24  N   UNL A   1      32.462  17.666  25.717  1.00  0.00    -0.318 N 
ATOM     25  H   UNL A   1      31.535  17.632  26.048  1.00  0.00     0.167 HD
BRANCH  24  26
ATOM     26  C   UNL A   1      33.177  16.439  25.790  1.00  0.00     0.085 C 
ATOM     27  C   UNL A   1      32.641  15.066  25.502  1.00  0.00     0.027 C 
ATOM     28  C   UNL A   1      33.526  15.740  24.500  1.00  0.00     0.027 C 
ENDBRANCH  24  26
ENDBRANCH  21  22
ENDBRANCH  19  21
ENDBRANCH  13  15
ENDBRANCH   6   8
ENDBRANCH   3   6
ENDBRANCH   1   2
BRANCH   1  29
ATOM     29  C   UNL A   1      31.352  31.035  25.768  1.00  0.00     0.023 C 
BRANCH  29  30
ATOM     30  C   UNL A   1      31.341  32.074  26.886  1.00  0.00     0.023 C 
BRANCH  30  31
ATOM     31  C   UNL A   1      32.601  32.917  26.971  1.00  0.00     0.116 C 
BRANCH  31  32
ATOM     32  N   UNL A   1      32.406  34.144  27.734  1.00  0.00    -0.352 N 
ATOM     33  C   UNL A   1      33.154  34.605  28.792  1.00  0.00     0.251 C 
ATOM     34  H   UNL A   1      31.649  34.710  27.460  1.00  0.00     0.163 HD
ATOM     35  O   UNL A   1      32.797  35.583  29.439  1.00  0.00    -0.269 OA
BRANCH  33  36
ATOM     36  C   UNL A   1      34.380  33.867  29.146  1.00  0.00     0.039 A 
ATOM     37  C   UNL A   1      35.621  34.376  28.756  1.00  0.00     0.014 A 
ATOM     38  C   UNL A   1      34.292  32.738  29.963  1.00  0.00     0.014 A 
ATOM     39  C   UNL A   1      36.785  33.788  29.252  1.00  0.00     0.010 A 
ATOM     40  C   UNL A   1      35.448  32.215  30.524  1.00  0.00     0.010 A 
ATOM     41  C   UNL A   1      36.706  32.732  30.172  1.00  0.00    -0.014 A 
BRANCH  41  42
ATOM     42  C   UNL A   1      37.914  32.140  30.799  1.00  0.00     0.031 A 
ATOM     43  C   UNL A   1      38.656  31.046  30.088  1.00  0.00     0.074 A 
ATOM     44  C   UNL A   1      38.255  32.483  32.057  1.00  0.00     0.049 A 
ATOM     45  N   UNL A   1      39.627  30.287  30.523  1.00  0.00    -0.248 NA
ATOM     46  C   UNL A   1      38.219  30.736  28.716  1.00  0.00     0.031 C 
ATOM     47  C   UNL A   1      37.565  33.476  32.881  1.00  0.00     0.029 A 
ATOM     48  N   UNL A   1      39.238  31.992  32.881  1.00  0.00    -0.354 N 
ATOM     49  C   UNL A   1      39.877  29.376  29.506  1.00  0.00     0.074 A 
ATOM     50  C   UNL A   1      38.935  29.658  28.443  1.00  0.00     0.031 C 
ATOM     51  C   UNL A   1      38.132  33.508  34.096  1.00  0.00     0.029 A 
ATOM     52  C   UNL A   1      39.194  32.508  34.154  1.00  0.00     0.049 A 
ATOM     53  H   UNL A   1      39.910  31.334  32.587  1.00  0.00     0.167 HD
ATOM     54  C   UNL A   1      40.815  28.402  29.451  1.00  0.00     0.034 A 
ATOM     55  C   UNL A   1      39.903  32.190  35.257  1.00  0.00     0.034 A 
ATOM     56  C   UNL A   1      41.766  28.149  30.497  1.00  0.00     0.049 A 
ATOM     57  C   UNL A   1      40.967  31.132  35.167  1.00  0.00     0.074 A 
ATOM     58  C   UNL A   1      42.827  27.261  30.499  1.00  0.00     0.029 A 
ATOM     59  N   UNL A   1      41.760  28.766  31.739  1.00  0.00    -0.354 N 
ATOM     60  N   UNL A   1      41.297  30.383  34.142  1.00  0.00    -0.248 NA
ATOM     61  C   UNL A   1      41.778  30.895  36.369  1.00  0.00     0.031 C 
ATOM     62  C   UNL A   1      43.432  27.307  31.758  1.00  0.00     0.029 A 
ATOM     63  C   UNL A   1      42.784  28.264  32.523  1.00  0.00     0.049 A 
ATOM     64  H   UNL A   1      41.121  29.461  32.021  1.00  0.00     0.167 HD
ATOM     65  C   UNL A   1      42.376  29.615  34.562  1.00  0.00     0.074 A 
ATOM     66  C   UNL A   1      42.649  29.993  35.934  1.00  0.00     0.031 C 
ATOM     67  C   UNL A   1      43.075  28.681  33.872  1.00  0.00     0.034 A 
BRANCH  54  68
ATOM     68  C   UNL A   1      40.860  27.549  28.209  1.00  0.00     0.023 A 
ATOM     69  C   UNL A   1      41.548  28.004  27.064  1.00  0.00     0.012 A 
ATOM     70  C   UNL A   1      40.233  26.288  28.181  1.00  0.00     0.148 A 
ATOM     71  C   UNL A   1      41.559  27.245  25.895  1.00  0.00     0.002 A 
ATOM     72  C   UNL A   1      40.297  25.514  27.030  1.00  0.00     0.091 A 
ATOM     73  F   UNL A   1      39.566  25.880  29.270  1.00  0.00    -0.205 F 
ATOM     74  C   UNL A   1      40.942  25.998  25.880  1.00  0.00     0.022 A 
BRANCH  72  75
ATOM     75  S   UNL A   1      39.609  23.857  26.945  1.00  0.00     0.127 S 
ATOM     76  O   UNL A   1      38.179  24.124  27.086  1.00  0.00    -0.237 OA
ATOM     77  O   UNL A   1      40.019  23.422  25.609  1.00  0.00    -0.237 OA
ATOM     78  O   UNL A   1      40.221  23.114  28.037  1.00  0.00    -0.744 OA
ENDBRANCH  72  75
ENDBRANCH  54  68
BRANCH  55  79
ATOM     79  C   UNL A   1      39.637  32.917  36.529  1.00  0.00     0.023 A 
ATOM     80  C   UNL A   1      40.256  34.158  36.766  1.00  0.00     0.012 A 
ATOM     81  C   UNL A   1      38.717  32.414  37.469  1.00  0.00     0.148 A 
ATOM     82  C   UNL A   1      39.978  34.880  37.928  1.00  0.00     0.002 A 
ATOM     83  C   UNL A   1      38.400  33.164  38.596  1.00  0.00     0.091 A 
ATOM     84  F   UNL A   1      38.142  31.229  37.222  1.00  0.00    -0.205 F 
ATOM     85  C   UNL A   1      39.041  34.389  38.835  1.00  0.00     0.022 A 
BRANCH  83  86
ATOM     86  S   UNL A   1      37.107  32.682  39.745  1.00  0.00     0.127 S 
ATOM     87  O   UNL A   1      35.927  32.679  38.884  1.00  0.00    -0.237 OA
ATOM     88  O   UNL A   1      37.566  31.358  40.168  1.00  0.00    -0.237 OA
ATOM     89  O   UNL A   1      37.115  33.690  40.796  1.00  0.00    -0.744 OA
ENDBRANCH  83  86
ENDBRANCH  55  79
BRANCH  67  90
ATOM     90  C   UNL A   1      44.250  28.027  34.553  1.00  0.00     0.023 A 
ATOM     91  C   UNL A   1      45.505  28.664  34.576  1.00  0.00     0.012 A 
ATOM     92  C   UNL A   1      44.070  26.825  35.269  1.00  0.00     0.148 A 
ATOM     93  C   UNL A   1      46.569  28.106  35.284  1.00  0.00     0.002 A 
ATOM     94  C   UNL A   1      45.118  26.303  36.015  1.00  0.00     0.091 A 
ATOM     95  F   UNL A   1      42.871  26.226  35.218  1.00  0.00    -0.205 F 
ATOM     96  C   UNL A   1      46.372  26.936  36.014  1.00  0.00     0.022 A 
BRANCH  94  97
ATOM     97  S   UNL A   1      44.927  24.861  37.069  1.00  0.00     0.127 S 
ATOM     98  O   UNL A   1      46.278  24.703  37.605  1.00  0.00    -0.237 OA
ATOM     99  O   UNL A   1      43.934  25.319  38.040  1.00  0.00    -0.237 OA
ATOM    100  O   UNL A   1      44.474  23.782  36.202  1.00  0.00    -0.744 OA
ENDBRANCH  94  97
ENDBRANCH  67  90
ENDBRANCH  41  42
ENDBRANCH  33  36
ENDBRANCH  31  32
ENDBRANCH  30  31
ENDBRANCH  29  30
ENDBRANCH   1  29
TORSDOF 19
ENDMDL
MODEL 2
REMARK VINA RESULT:     -12.0      1.528      1.921
REMARK SMILES C[C@@H](C(=O)NCCCCNC(=O)c1ccc(-c2c3nc(c(-c4cccc(S(=O)(=O)[O-])c4F)c4ccc([nH]4)c(-c4cccc(S(=O)(=O)[O-])c4F)c4nc(c(-c5cccc(S(=O)(=O)[O-])c5F)c5ccc2[nH]5)C=C4)C=C3)cc1)c1ccc(-c2cccc(OC(=O)NC3CC3)c2)c(F)c1
REMARK SMILES IDX 6 1 5 2 3 3 4 4 2 6 1 7 76 8 77 9 95 10 78 11 93 12 79 13
REMARK SMILES IDX 94 14 80 15 81 16 92 17 82 18 84 19 83 20 85 21 86 22 87 23
REMARK SMILES IDX 88 24 89 26 90 27 91 28 7 29 8 30 9 31 10 32 11 33 12 35
REMARK SMILES IDX 13 36 14 37 75 38 15 39 74 40 16 41 17 42 18 43 68 44 19 45
REMARK SMILES IDX 73 46 67 47 69 48 20 49 72 50 66 51 65 52 21 54 53 55 33 56
REMARK SMILES IDX 52 57 34 58 37 59 51 60 70 61 35 62 36 63 50 65 71 66 38 67
REMARK SMILES IDX 22 68 23 69 31 70 24 71 26 72 32 73 25 74 27 75 28 76 29 77
REMARK SMILES IDX 30 78 54 79 55 80 63 81 56 82 58 83 64 84 57 85 59 86 60 87
REMARK SMILES IDX 61 88 62 89 39 90 40 91 48 92 41 93 43 94 49 95 42 96 44 97
REMARK SMILES IDX 45 98 46 99 47 100
REMARK H PARENT 5 5 88 25 10 34 69 53 37 64
REMARK Flexibility Score: inf
ROOT
ATOM      1  C   UNL A   1      33.407  28.917  26.442  1.00  0.00     0.116 C 
ENDROOT
BRANCH   1   2
ATOM      2  N   UNL A   1      33.521  29.435  25.096  1.00  0.00    -0.356 N 
ATOM      3  C   UNL A   1      33.148  28.867  23.912  1.00  0.00     0.227 C 
ATOM      4  O   UNL A   1      33.530  29.423  22.882  1.00  0.00    -0.274 OA
ATOM      5  H   UNL A   1      33.928  30.329  25.023  1.00  0.00     0.163 HD
BRANCH   3   6
ATOM      6  C   UNL A   1      32.233  27.627  23.912  1.00  0.00     0.105 C 
ATOM      7  C   UNL A   1      31.085  27.787  24.919  1.00  0.00     0.023 C 
BRANCH   6   8
ATOM      8  C   UNL A   1      33.021  26.332  24.120  1.00  0.00    -0.033 A 
ATOM      9  C   UNL A   1      33.636  25.699  23.024  1.00  0.00     0.005 A 
ATOM     10  C   UNL A   1      33.149  25.730  25.378  1.00  0.00     0.044 A 
ATOM     11  C   UNL A   1      34.366  24.516  23.186  1.00  0.00     0.012 A 
ATOM     12  C   UNL A   1      33.860  24.548  25.530  1.00  0.00     0.131 A 
ATOM     13  C   UNL A   1      34.474  23.916  24.444  1.00  0.00     0.018 A 
ATOM     14  F   UNL A   1      33.925  24.007  26.757  1.00  0.00    -0.206 F 
BRANCH  13  15
ATOM     15  C   UNL A   1      35.120  22.616  24.621  1.00  0.00    -0.012 A 
ATOM     16  C   UNL A   1      36.489  22.488  24.889  1.00  0.00     0.009 A 
ATOM     17  C   UNL A   1      34.331  21.459  24.539  1.00  0.00     0.056 A 
ATOM     18  C   UNL A   1      37.051  21.224  25.088  1.00  0.00     0.004 A 
ATOM     19  C   UNL A   1      34.888  20.207  24.741  1.00  0.00     0.133 A 
ATOM     20  C   UNL A   1      36.250  20.083  25.016  1.00  0.00     0.047 A 
BRANCH  19  21
ATOM     21  O   UNL A   1      34.151  19.000  24.685  1.00  0.00    -0.410 OA
BRANCH  21  22
ATOM     22  C   UNL A   1      32.774  18.875  24.856  1.00  0.00     0.412 C 
ATOM     23  O   UNL A   1      31.968  19.786  25.019  1.00  0.00    -0.224 OA
ATOM     24  N   UNL A   1      32.328  17.580  24.849  1.00  0.00    -0.318 N 
ATOM     25  H   UNL A   1      31.362  17.468  25.003  1.00  0.00     0.167 HD
BRANCH  24  26
ATOM     26  C   UNL A   1      33.053  16.373  24.650  1.00  0.00     0.085 C 
ATOM     27  C   UNL A   1      33.892  15.649  25.663  1.00  0.00     0.027 C 
ATOM     28  C   UNL A   1      32.539  15.117  25.307  1.00  0.00     0.027 C 
ENDBRANCH  24  26
ENDBRANCH  21  22
ENDBRANCH  19  21
ENDBRANCH  13  15
ENDBRANCH   6   8
ENDBRANCH   3   6
ENDBRANCH   1   2
BRANCH   1  29
ATOM     29  C   UNL A   1      32.435  29.770  27.263  1.00  0.00     0.023 C 
BRANCH  29  30
ATOM     30  C   UNL A   1      32.347  31.226  26.814  1.00  0.00     0.023 C 
BRANCH  30  31
ATOM     31  C   UNL A   1      33.352  32.149  27.479  1.00  0.00     0.116 C 
BRANCH  31  32
ATOM     32  N   UNL A   1      32.838  33.502  27.662  1.00  0.00    -0.352 N 
ATOM     33  C   UNL A   1      33.237  34.436  28.589  1.00  0.00     0.251 C 
ATOM     34  H   UNL A   1      32.118  33.779  27.050  1.00  0.00     0.163 HD
ATOM     35  O   UNL A   1      32.624  35.487  28.730  1.00  0.00    -0.269 OA
BRANCH  33  36
ATOM     36  C   UNL A   1      34.405  34.120  29.431  1.00  0.00     0.039 A 
ATOM     37  C   UNL A   1      34.228  33.359  30.588  1.00  0.00     0.014 A 
ATOM     38  C   UNL A   1      35.683  34.484  28.999  1.00  0.00     0.014 A 
ATOM     39  C   UNL A   1      35.349  32.896  31.278  1.00  0.00     0.010 A 
ATOM     40  C   UNL A   1      36.792  33.947  29.636  1.00  0.00     0.010 A 
ATOM     41  C   UNL A   1      36.637  33.151  30.783  1.00  0.00    -0.014 A 
BRANCH  41  42
ATOM     42  C   UNL A   1      37.854  32.599  31.429  1.00  0.00     0.031 A 
ATOM     43  C   UNL A   1      38.579  31.453  30.783  1.00  0.00     0.074 A 
ATOM     44  C   UNL A   1      38.219  33.027  32.653  1.00  0.00     0.049 A 
ATOM     45  N   UNL A   1      39.555  30.722  31.254  1.00  0.00    -0.248 NA
ATOM     46  C   UNL A   1      38.117  31.051  29.444  1.00  0.00     0.031 C 
ATOM     47  C   UNL A   1      37.547  34.079  33.418  1.00  0.00     0.029 A 
ATOM     48  N   UNL A   1      39.214  32.590  33.492  1.00  0.00    -0.354 N 
ATOM     49  C   UNL A   1      39.783  29.740  30.299  1.00  0.00     0.074 A 
ATOM     50  C   UNL A   1      38.825  29.952  29.236  1.00  0.00     0.031 C 
ATOM     51  C   UNL A   1      38.136  34.193  34.618  1.00  0.00     0.029 A 
ATOM     52  C   UNL A   1      39.195  33.195  34.727  1.00  0.00     0.049 A 
ATOM     53  H   UNL A   1      39.878  31.910  33.234  1.00  0.00     0.167 HD
ATOM     54  C   UNL A   1      40.717  28.760  30.297  1.00  0.00     0.034 A 
ATOM     55  C   UNL A   1      39.922  32.951  35.837  1.00  0.00     0.034 A 
ATOM     56  C   UNL A   1      41.686  28.577  31.342  1.00  0.00     0.049 A 
ATOM     57  C   UNL A   1      40.980  31.884  35.803  1.00  0.00     0.074 A 
ATOM     58  C   UNL A   1      42.743  27.686  31.387  1.00  0.00     0.029 A 
ATOM     59  N   UNL A   1      41.703  29.280  32.537  1.00  0.00    -0.354 N 
ATOM     60  N   UNL A   1      41.289  31.064  34.828  1.00  0.00    -0.248 NA
ATOM     61  C   UNL A   1      41.811  31.728  37.005  1.00  0.00     0.031 C 
ATOM     62  C   UNL A   1      43.370  27.817  32.629  1.00  0.00     0.029 A 
ATOM     63  C   UNL A   1      42.739  28.829  33.337  1.00  0.00     0.049 A 
ATOM     64  H   UNL A   1      41.072  29.995  32.780  1.00  0.00     0.167 HD
ATOM     65  C   UNL A   1      42.373  30.321  35.282  1.00  0.00     0.074 A 
ATOM     66  C   UNL A   1      42.671  30.794  36.619  1.00  0.00     0.031 C 
ATOM     67  C   UNL A   1      43.056  29.338  34.648  1.00  0.00     0.034 A 
BRANCH  54  68
ATOM     68  C   UNL A   1      40.737  27.822  29.117  1.00  0.00     0.023 A 
ATOM     69  C   UNL A   1      39.853  26.723  29.074  1.00  0.00     0.012 A 
ATOM     70  C   UNL A   1      41.620  28.039  28.042  1.00  0.00     0.148 A 
ATOM     71  C   UNL A   1      39.891  25.823  28.009  1.00  0.00     0.002 A 
ATOM     72  C   UNL A   1      41.613  27.168  26.960  1.00  0.00     0.091 A 
ATOM     73  F   UNL A   1      42.469  29.075  28.109  1.00  0.00    -0.205 F 
ATOM     74  C   UNL A   1      40.764  26.050  26.950  1.00  0.00     0.022 A 
BRANCH  72  75
ATOM     75  S   UNL A   1      42.638  27.429  25.508  1.00  0.00     0.127 S 
ATOM     76  O   UNL A   1      42.061  28.653  24.957  1.00  0.00    -0.237 OA
ATOM     77  O   UNL A   1      43.968  27.593  26.096  1.00  0.00    -0.237 OA
ATOM     78  O   UNL A   1      42.483  26.236  24.689  1.00  0.00    -0.744 OA
ENDBRANCH  72  75
ENDBRANCH  54  68
BRANCH  55  79
ATOM     79  C   UNL A   1      39.681  33.767  37.059  1.00  0.00     0.023 A 
ATOM     80  C   UNL A   1      40.100  35.110  37.096  1.00  0.00     0.012 A 
ATOM     81  C   UNL A   1      38.974  33.235  38.155  1.00  0.00     0.148 A 
ATOM     82  C   UNL A   1      39.836  35.906  38.212  1.00  0.00     0.002 A 
ATOM     83  C   UNL A   1      38.663  34.048  39.238  1.00  0.00     0.091 A 
ATOM     84  F   UNL A   1      38.588  31.953  38.097  1.00  0.00    -0.205 F 
ATOM     85  C   UNL A   1      39.106  35.379  39.276  1.00  0.00     0.022 A 
BRANCH  83  86
ATOM     86  S   UNL A   1      37.612  33.501  40.587  1.00  0.00     0.127 S 
ATOM     87  O   UNL A   1      38.398  32.409  41.155  1.00  0.00    -0.237 OA
ATOM     88  O   UNL A   1      37.541  34.706  41.414  1.00  0.00    -0.237 OA
ATOM     89  O   UNL A   1      36.349  33.113  39.974  1.00  0.00    -0.744 OA
ENDBRANCH  83  86
ENDBRANCH  55  79
BRANCH  67  90
ATOM     90  C   UNL A   1      44.239  28.728  35.352  1.00  0.00     0.023 A 
ATOM     91  C   UNL A   1      45.523  29.288  35.204  1.00  0.00     0.012 A 
ATOM     92  C   UNL A   1      44.050  27.659  36.253  1.00  0.00     0.148 A 
ATOM     93  C   UNL A   1      46.603  28.782  35.928  1.00  0.00     0.002 A 
ATOM     94  C   UNL A   1      45.118  27.196  37.009  1.00  0.00     0.091 A 
ATOM     95  F   UNL A   1      42.823  27.129  36.364  1.00  0.00    -0.205 F 
ATOM     96  C   UNL A   1      46.398  27.748  36.839  1.00  0.00     0.022 A 
BRANCH  94  97
ATOM     97  S   UNL A   1      44.928  25.942  38.282  1.00  0.00     0.127 S 
ATOM     98  O   UNL A   1      44.177  26.668  39.305  1.00  0.00    -0.237 OA
ATOM     99  O   UNL A   1      44.164  24.908  37.583  1.00  0.00    -0.237 OA
ATOM    100  O   UNL A   1      46.275  25.546  38.665  1.00  0.00    -0.744 OA
ENDBRANCH  94  97
ENDBRANCH  67  90
ENDBRANCH  41  42
ENDBRANCH  33  36
ENDBRANCH  31  32
ENDBRANCH  30  31
ENDBRANCH  29  30
ENDBRANCH   1  29
TORSDOF 19
ENDMDL
MODEL 3
REMARK VINA RESULT:     -11.4      2.313      2.710
REMARK SMILES C[C@@H](C(=O)NCCCCNC(=O)c1ccc(-c2c3nc(c(-c4cccc(S(=O)(=O)[O-])c4F)c4ccc([nH]4)c(-c4cccc(S(=O)(=O)[O-])c4F)c4nc(c(-c5cccc(S(=O)(=O)[O-])c5F)c5ccc2[nH]5)C=C4)C=C3)cc1)c1ccc(-c2cccc(OC(=O)NC3CC3)c2)c(F)c1
REMARK SMILES IDX 6 1 5 2 3 3 4 4 2 6 1 7 76 8 77 9 95 10 78 11 93 12 79 13
REMARK SMILES IDX 94 14 80 15 81 16 92 17 82 18 84 19 83 20 85 21 86 22 87 23
REMARK SMILES IDX 88 24 89 26 90 27 91 28 7 29 8 30 9 31 10 32 11 33 12 35
REMARK SMILES IDX 13 36 14 37 75 38 15 39 74 40 16 41 17 42 18 43 68 44 19 45
REMARK SMILES IDX 73 46 67 47 69 48 20 49 72 50 66 51 65 52 21 54 53 55 33 56
REMARK SMILES IDX 52 57 34 58 37 59 51 60 70 61 35 62 36 63 50 65 71 66 38 67
REMARK SMILES IDX 22 68 23 69 31 70 24 71 26 72 32 73 25 74 27 75 28 76 29 77
REMARK SMILES IDX 30 78 54 79 55 80 63 81 56 82 58 83 64 84 57 85 59 86 60 87
REMARK SMILES IDX 61 88 62 89 39 90 40 91 48 92 41 93 43 94 49 95 42 96 44 97
REMARK SMILES IDX 45 98 46 99 47 100
REMARK H PARENT 5 5 88 25 10 34 69 53 37 64
REMARK Flexibility Score: inf
ROOT
ATOM      1  C   UNL A   1      33.820  28.803  26.367  1.00  0.00     0.116 C 
ENDROOT
BRANCH   1   2
ATOM      2  N   UNL A   1      33.713  29.337  25.027  1.00  0.00    -0.356 N 
ATOM      3  C   UNL A   1      33.133  28.789  23.919  1.00  0.00     0.227 C 
ATOM      4  O   UNL A   1      33.343  29.353  22.844  1.00  0.00    -0.274 OA
ATOM      5  H   UNL A   1      34.116  30.225  24.895  1.00  0.00     0.163 HD
BRANCH   3   6
ATOM      6  C   UNL A   1      32.210  27.564  24.062  1.00  0.00     0.105 C 
ATOM      7  C   UNL A   1      31.177  27.777  25.178  1.00  0.00     0.023 C 
BRANCH   6   8
ATOM      8  C   UNL A   1      33.003  26.266  24.235  1.00  0.00    -0.033 A 
ATOM      9  C   UNL A   1      33.570  25.633  23.113  1.00  0.00     0.005 A 
ATOM     10  C   UNL A   1      33.180  25.661  25.486  1.00  0.00     0.044 A 
ATOM     11  C   UNL A   1      34.302  24.447  23.242  1.00  0.00     0.012 A 
ATOM     12  C   UNL A   1      33.893  24.477  25.605  1.00  0.00     0.131 A 
ATOM     13  C   UNL A   1      34.460  23.844  24.494  1.00  0.00     0.018 A 
ATOM     14  F   UNL A   1      34.007  23.934  26.828  1.00  0.00    -0.206 F 
BRANCH  13  15
ATOM     15  C   UNL A   1      35.109  22.543  24.642  1.00  0.00    -0.012 A 
ATOM     16  C   UNL A   1      36.479  22.411  24.897  1.00  0.00     0.009 A 
ATOM     17  C   UNL A   1      34.320  21.387  24.544  1.00  0.00     0.056 A 
ATOM     18  C   UNL A   1      37.045  21.145  25.068  1.00  0.00     0.004 A 
ATOM     19  C   UNL A   1      34.880  20.131  24.719  1.00  0.00     0.133 A 
ATOM     20  C   UNL A   1      36.244  20.004  24.981  1.00  0.00     0.047 A 
BRANCH  19  21
ATOM     21  O   UNL A   1      34.144  18.924  24.646  1.00  0.00    -0.410 OA
BRANCH  21  22
ATOM     22  C   UNL A   1      32.777  18.787  24.874  1.00  0.00     0.412 C 
ATOM     23  O   UNL A   1      31.976  19.688  25.107  1.00  0.00    -0.224 OA
ATOM     24  N   UNL A   1      32.334  17.492  24.836  1.00  0.00    -0.318 N 
ATOM     25  H   UNL A   1      31.376  17.370  25.029  1.00  0.00     0.167 HD
BRANCH  24  26
ATOM     26  C   UNL A   1      33.053  16.296  24.559  1.00  0.00     0.085 C 
ATOM     27  C   UNL A   1      34.152  15.694  25.387  1.00  0.00     0.027 C 
ATOM     28  C   UNL A   1      32.783  15.087  25.420  1.00  0.00     0.027 C 
ENDBRANCH  24  26
ENDBRANCH  21  22
ENDBRANCH  19  21
ENDBRANCH  13  15
ENDBRANCH   6   8
ENDBRANCH   3   6
ENDBRANCH   1   2
BRANCH   1  29
ATOM     29  C   UNL A   1      32.761  29.430  27.279  1.00  0.00     0.023 C 
BRANCH  29  30
ATOM     30  C   UNL A   1      32.457  30.893  26.972  1.00  0.00     0.023 C 
BRANCH  30  31
ATOM     31  C   UNL A   1      33.525  31.867  27.438  1.00  0.00     0.116 C 
BRANCH  31  32
ATOM     32  N   UNL A   1      32.999  33.205  27.680  1.00  0.00    -0.352 N 
ATOM     33  C   UNL A   1      33.382  34.097  28.654  1.00  0.00     0.251 C 
ATOM     34  H   UNL A   1      32.284  33.506  27.074  1.00  0.00     0.163 HD
ATOM     35  O   UNL A   1      32.760  35.136  28.839  1.00  0.00    -0.269 OA
BRANCH  33  36
ATOM     36  C   UNL A   1      34.543  33.748  29.493  1.00  0.00     0.039 A 
ATOM     37  C   UNL A   1      34.379  32.853  30.552  1.00  0.00     0.014 A 
ATOM     38  C   UNL A   1      35.810  34.225  29.145  1.00  0.00     0.014 A 
ATOM     39  C   UNL A   1      35.505  32.375  31.222  1.00  0.00     0.010 A 
ATOM     40  C   UNL A   1      36.930  33.678  29.754  1.00  0.00     0.010 A 
ATOM     41  C   UNL A   1      36.790  32.750  30.799  1.00  0.00    -0.014 A 
BRANCH  41  42
ATOM     42  C   UNL A   1      38.018  32.192  31.419  1.00  0.00     0.031 A 
ATOM     43  C   UNL A   1      38.749  31.074  30.733  1.00  0.00     0.074 A 
ATOM     44  C   UNL A   1      38.389  32.589  32.651  1.00  0.00     0.049 A 
ATOM     45  N   UNL A   1      39.737  30.340  31.174  1.00  0.00    -0.248 NA
ATOM     46  C   UNL A   1      38.279  30.705  29.388  1.00  0.00     0.031 C 
ATOM     47  C   UNL A   1      37.713  33.611  33.452  1.00  0.00     0.029 A 
ATOM     48  N   UNL A   1      39.397  32.138  33.469  1.00  0.00    -0.354 N 
ATOM     49  C   UNL A   1      39.966  29.388  30.189  1.00  0.00     0.074 A 
ATOM     50  C   UNL A   1      38.996  29.621  29.141  1.00  0.00     0.031 C 
ATOM     51  C   UNL A   1      38.312  33.697  34.649  1.00  0.00     0.029 A 
ATOM     52  C   UNL A   1      39.383  32.707  34.721  1.00  0.00     0.049 A 
ATOM     53  H   UNL A   1      40.066  31.473  33.185  1.00  0.00     0.167 HD
ATOM     54  C   UNL A   1      40.910  28.419  30.151  1.00  0.00     0.034 A 
ATOM     55  C   UNL A   1      40.122  32.439  35.816  1.00  0.00     0.034 A 
ATOM     56  C   UNL A   1      41.890  28.215  31.181  1.00  0.00     0.049 A 
ATOM     57  C   UNL A   1      41.191  31.385  35.742  1.00  0.00     0.074 A 
ATOM     58  C   UNL A   1      42.957  27.335  31.191  1.00  0.00     0.029 A 
ATOM     59  N   UNL A   1      41.911  28.884  32.396  1.00  0.00    -0.354 N 
ATOM     60  N   UNL A   1      41.499  30.596  34.741  1.00  0.00    -0.248 NA
ATOM     61  C   UNL A   1      42.034  31.203  36.932  1.00  0.00     0.031 C 
ATOM     62  C   UNL A   1      43.594  27.437  32.431  1.00  0.00     0.029 A 
ATOM     63  C   UNL A   1      42.959  28.421  33.173  1.00  0.00     0.049 A 
ATOM     64  H   UNL A   1      41.275  29.585  32.665  1.00  0.00     0.167 HD
ATOM     65  C   UNL A   1      42.595  29.853  35.164  1.00  0.00     0.074 A 
ATOM     66  C   UNL A   1      42.900  30.289  36.512  1.00  0.00     0.031 C 
ATOM     67  C   UNL A   1      43.282  28.895  34.496  1.00  0.00     0.034 A 
BRANCH  54  68
ATOM     68  C   UNL A   1      40.929  27.515  28.944  1.00  0.00     0.023 A 
ATOM     69  C   UNL A   1      40.004  26.455  28.841  1.00  0.00     0.012 A 
ATOM     70  C   UNL A   1      41.853  27.727  27.903  1.00  0.00     0.148 A 
ATOM     71  C   UNL A   1      40.039  25.586  27.752  1.00  0.00     0.002 A 
ATOM     72  C   UNL A   1      41.845  26.889  26.795  1.00  0.00     0.091 A 
ATOM     73  F   UNL A   1      42.739  28.725  28.026  1.00  0.00    -0.205 F 
ATOM     74  C   UNL A   1      40.952  25.807  26.726  1.00  0.00     0.022 A 
BRANCH  72  75
ATOM     75  S   UNL A   1      42.923  27.150  25.383  1.00  0.00     0.127 S 
ATOM     76  O   UNL A   1      42.242  28.242  24.690  1.00  0.00    -0.237 OA
ATOM     77  O   UNL A   1      44.184  27.527  26.024  1.00  0.00    -0.237 OA
ATOM     78  O   UNL A   1      42.964  25.881  24.670  1.00  0.00    -0.744 OA
ENDBRANCH  72  75
ENDBRANCH  54  68
BRANCH  55  79
ATOM     79  C   UNL A   1      39.884  33.217  37.064  1.00  0.00     0.023 A 
ATOM     80  C   UNL A   1      38.847  32.837  37.936  1.00  0.00     0.012 A 
ATOM     81  C   UNL A   1      40.729  34.285  37.421  1.00  0.00     0.148 A 
ATOM     82  C   UNL A   1      38.642  33.521  39.136  1.00  0.00     0.002 A 
ATOM     83  C   UNL A   1      40.558  34.924  38.643  1.00  0.00     0.091 A 
ATOM     84  F   UNL A   1      41.708  34.630  36.573  1.00  0.00    -0.205 F 
ATOM     85  C   UNL A   1      39.505  34.554  39.495  1.00  0.00     0.022 A 
BRANCH  83  86
ATOM     86  S   UNL A   1      41.700  36.168  39.253  1.00  0.00     0.127 S 
ATOM     87  O   UNL A   1      41.564  37.218  38.247  1.00  0.00    -0.237 OA
ATOM     88  O   UNL A   1      41.121  36.486  40.559  1.00  0.00    -0.237 OA
ATOM     89  O   UNL A   1      43.001  35.518  39.310  1.00  0.00    -0.744 OA
ENDBRANCH  83  86
ENDBRANCH  55  79
BRANCH  67  90
ATOM     90  C   UNL A   1      44.478  28.277  35.172  1.00  0.00     0.023 A 
ATOM     91  C   UNL A   1      44.345  27.082  35.903  1.00  0.00     0.012 A 
ATOM     92  C   UNL A   1      45.761  28.833  34.981  1.00  0.00     0.148 A 
ATOM     93  C   UNL A   1      45.466  26.459  36.452  1.00  0.00     0.002 A 
ATOM     94  C   UNL A   1      46.877  28.180  35.484  1.00  0.00     0.091 A 
ATOM     95  F   UNL A   1      45.862  29.981  34.297  1.00  0.00    -0.205 F 
ATOM     96  C   UNL A   1      46.731  26.999  36.230  1.00  0.00     0.022 A 
BRANCH  94  97
ATOM     97  S   UNL A   1      48.552  28.742  35.159  1.00  0.00     0.127 S 
ATOM     98  O   UNL A   1      48.557  30.052  35.808  1.00  0.00    -0.237 OA
ATOM     99  O   UNL A   1      49.356  27.724  35.834  1.00  0.00    -0.237 OA
ATOM    100  O   UNL A   1      48.697  28.767  33.710  1.00  0.00    -0.744 OA
ENDBRANCH  94  97
ENDBRANCH  67  90
ENDBRANCH  41  42
ENDBRANCH  33  36
ENDBRANCH  31  32
ENDBRANCH  30  31
ENDBRANCH  29  30
ENDBRANCH   1  29
TORSDOF 19
ENDMDL
