MODEL 1
REMARK VINA RESULT:     -12.4      0.000      0.000
REMARK SMILES CCOc1cc(C(=O)N2CCC(C(=O)NCCCCNC(=O)c3ccc(-c4c5nc(c(-c6cccc(S(=O)(=O)[O-])c6F)c6ccc([nH]6)c(-c6cccc(S(=O)(=O)[O-])c6F)c6nc(c(-c7cccc(S(=O)(=O)[O-])c7F)c7ccc4[nH]7)C=C6)C=C5)cc3)(c3ccccc3)CC2)ccc1OC
REMARK SMILES IDX 17 1 16 2 15 3 13 4 14 5 12 7 7 8 8 9 9 10 10 11 93 12 11 13
REMARK SMILES IDX 92 14 6 15 4 16 5 17 96 18 95 19 94 20 3 21 2 22 1 23 97 24
REMARK SMILES IDX 98 25 86 26 87 27 91 28 88 29 90 30 89 31 18 32 19 33 20 34
REMARK SMILES IDX 21 35 22 37 23 38 24 39 85 40 25 41 84 42 26 43 27 44 28 45
REMARK SMILES IDX 78 46 29 47 83 48 77 49 79 50 30 51 82 52 76 53 75 54 31 56
REMARK SMILES IDX 63 57 43 58 62 59 44 60 47 61 61 62 80 63 45 64 46 65 60 67
REMARK SMILES IDX 81 68 48 69 32 70 33 71 41 72 34 73 36 74 42 75 35 76 37 77
REMARK SMILES IDX 38 78 39 79 40 80 64 81 65 82 73 83 66 84 68 85 74 86 67 87
REMARK SMILES IDX 69 88 70 89 71 90 72 91 49 92 50 93 58 94 51 95 53 96 59 97
REMARK SMILES IDX 52 98 54 99 55 100 56 101 57 102
REMARK H PARENT 15 6 20 36 79 55 47 66
REMARK Flexibility Score: inf
ROOT
ATOM      1  C   UNL A   1      30.811  30.473  25.668  1.00  0.00     0.023 C 
ENDROOT
BRANCH   1   2
ATOM      2  C   UNL A   1      32.046  29.590  25.829  1.00  0.00     0.116 C 
BRANCH   2   3
ATOM      3  N   UNL A   1      32.938  29.696  24.686  1.00  0.00    -0.355 N 
ATOM      4  C   UNL A   1      33.155  28.905  23.593  1.00  0.00     0.230 C 
ATOM      5  O   UNL A   1      34.035  29.341  22.849  1.00  0.00    -0.274 OA
ATOM      6  H   UNL A   1      33.502  30.503  24.703  1.00  0.00     0.163 HD
BRANCH   4   7
ATOM      7  C   UNL A   1      32.328  27.589  23.328  1.00  0.00     0.077 C 
ATOM      8  C   UNL A   1      33.903  23.543  22.700  1.00  0.00     0.253 C 
ATOM      9  O   UNL A   1      34.694  23.355  21.777  1.00  0.00    -0.269 OA
ATOM     10  N   UNL A   1      33.285  24.789  22.940  1.00  0.00    -0.339 N 
ATOM     11  C   UNL A   1      32.906  25.556  21.762  1.00  0.00     0.121 C 
ATOM     12  C   UNL A   1      32.680  25.156  24.218  1.00  0.00     0.121 C 
ATOM     13  C   UNL A   1      32.790  27.064  21.939  1.00  0.00     0.043 C 
ATOM     14  C   UNL A   1      32.672  26.647  24.520  1.00  0.00     0.043 C 
BRANCH   8  15
ATOM     15  C   UNL A   1      33.491  22.359  23.512  1.00  0.00     0.043 A 
ATOM     16  C   UNL A   1      33.536  21.036  25.557  1.00  0.00     0.161 A 
ATOM     17  C   UNL A   1      33.937  22.176  24.829  1.00  0.00     0.064 A 
ATOM     18  C   UNL A   1      32.642  20.116  24.993  1.00  0.00     0.160 A 
ATOM     19  C   UNL A   1      32.292  20.264  23.649  1.00  0.00     0.051 A 
ATOM     20  C   UNL A   1      32.747  21.345  22.904  1.00  0.00     0.018 A 
BRANCH  16  21
ATOM     21  O   UNL A   1      33.978  20.884  26.845  1.00  0.00    -0.490 OA
BRANCH  21  22
ATOM     22  C   UNL A   1      34.246  22.133  27.497  1.00  0.00     0.226 C 
ATOM     23  C   UNL A   1      32.948  22.668  28.087  1.00  0.00     0.049 C 
ENDBRANCH  21  22
ENDBRANCH  16  21
BRANCH  18  24
ATOM     24  O   UNL A   1      32.046  19.024  25.553  1.00  0.00    -0.493 OA
ATOM     25  C   UNL A   1      32.454  17.724  25.166  1.00  0.00     0.278 C 
ENDBRANCH  18  24
ENDBRANCH   8  15
BRANCH   7  26
ATOM     26  C   UNL A   1      30.761  27.748  23.285  1.00  0.00    -0.032 A 
ATOM     27  C   UNL A   1      29.850  26.833  23.842  1.00  0.00     0.005 A 
ATOM     28  C   UNL A   1      30.177  28.865  22.645  1.00  0.00     0.005 A 
ATOM     29  C   UNL A   1      28.461  27.011  23.758  1.00  0.00     0.000 A 
ATOM     30  C   UNL A   1      28.791  29.043  22.548  1.00  0.00     0.000 A 
ATOM     31  C   UNL A   1      27.929  28.112  23.105  1.00  0.00     0.000 A 
ENDBRANCH   7  26
ENDBRANCH   4   7
ENDBRANCH   2   3
ENDBRANCH   1   2
BRANCH   1  32
ATOM     32  C   UNL A   1      31.052  31.964  25.907  1.00  0.00     0.023 C 
BRANCH  32  33
ATOM     33  C   UNL A   1      32.164  32.290  26.896  1.00  0.00     0.116 C 
BRANCH  33  34
ATOM     34  N   UNL A   1      32.132  33.674  27.348  1.00  0.00    -0.352 N 
ATOM     35  C   UNL A   1      32.976  34.321  28.223  1.00  0.00     0.251 C 
ATOM     36  H   UNL A   1      31.404  34.223  26.977  1.00  0.00     0.163 HD
ATOM     37  O   UNL A   1      32.725  35.454  28.596  1.00  0.00    -0.269 OA
BRANCH  35  38
ATOM     38  C   UNL A   1      34.174  33.612  28.723  1.00  0.00     0.039 A 
ATOM     39  C   UNL A   1      35.435  34.133  28.428  1.00  0.00     0.014 A 
ATOM     40  C   UNL A   1      34.048  32.462  29.506  1.00  0.00     0.014 A 
ATOM     41  C   UNL A   1      36.572  33.538  28.980  1.00  0.00     0.010 A 
ATOM     42  C   UNL A   1      35.173  31.920  30.117  1.00  0.00     0.010 A 
ATOM     43  C   UNL A   1      36.447  32.450  29.859  1.00  0.00    -0.014 A 
BRANCH  43  44
ATOM     44  C   UNL A   1      37.631  31.861  30.535  1.00  0.00     0.031 A 
ATOM     45  C   UNL A   1      38.447  30.802  29.843  1.00  0.00     0.074 A 
ATOM     46  C   UNL A   1      37.910  32.203  31.809  1.00  0.00     0.049 A 
ATOM     47  N   UNL A   1      39.463  30.117  30.299  1.00  0.00    -0.248 NA
ATOM     48  C   UNL A   1      38.051  30.446  28.470  1.00  0.00     0.031 C 
ATOM     49  C   UNL A   1      37.143  33.154  32.617  1.00  0.00     0.029 A 
ATOM     50  N   UNL A   1      38.894  31.766  32.659  1.00  0.00    -0.354 N 
ATOM     51  C   UNL A   1      39.800  29.222  29.290  1.00  0.00     0.074 A 
ATOM     52  C   UNL A   1      38.862  29.430  28.209  1.00  0.00     0.031 C 
ATOM     53  C   UNL A   1      37.684  33.226  33.844  1.00  0.00     0.029 A 
ATOM     54  C   UNL A   1      38.814  32.306  33.922  1.00  0.00     0.049 A 
ATOM     55  H   UNL A   1      39.593  31.125  32.391  1.00  0.00     0.167 HD
ATOM     56  C   UNL A   1      40.815  28.327  29.255  1.00  0.00     0.034 A 
ATOM     57  C   UNL A   1      39.557  32.077  35.023  1.00  0.00     0.034 A 
ATOM     58  C   UNL A   1      41.776  28.158  30.312  1.00  0.00     0.049 A 
ATOM     59  C   UNL A   1      40.709  31.112  34.940  1.00  0.00     0.074 A 
ATOM     60  C   UNL A   1      42.901  27.353  30.329  1.00  0.00     0.029 A 
ATOM     61  N   UNL A   1      41.720  28.795  31.541  1.00  0.00    -0.354 N 
ATOM     62  N   UNL A   1      41.117  30.401  33.917  1.00  0.00    -0.248 NA
ATOM     63  C   UNL A   1      41.525  30.944  36.151  1.00  0.00     0.031 C 
ATOM     64  C   UNL A   1      43.511  27.482  31.581  1.00  0.00     0.029 A 
ATOM     65  C   UNL A   1      42.783  28.392  32.331  1.00  0.00     0.049 A 
ATOM     66  H   UNL A   1      41.027  29.440  31.813  1.00  0.00     0.167 HD
ATOM     67  C   UNL A   1      42.255  29.730  34.348  1.00  0.00     0.074 A 
ATOM     68  C   UNL A   1      42.485  30.136  35.720  1.00  0.00     0.031 C 
ATOM     69  C   UNL A   1      43.033  28.846  33.675  1.00  0.00     0.034 A 
BRANCH  56  70
ATOM     70  C   UNL A   1      40.973  27.492  28.011  1.00  0.00     0.023 A 
ATOM     71  C   UNL A   1      41.589  28.051  26.871  1.00  0.00     0.012 A 
ATOM     72  C   UNL A   1      40.575  26.141  27.989  1.00  0.00     0.148 A 
ATOM     73  C   UNL A   1      41.772  27.289  25.718  1.00  0.00     0.002 A 
ATOM     74  C   UNL A   1      40.804  25.376  26.852  1.00  0.00     0.091 A 
ATOM     75  F   UNL A   1      39.974  25.634  29.075  1.00  0.00    -0.205 F 
ATOM     76  C   UNL A   1      41.391  25.950  25.713  1.00  0.00     0.022 A 
BRANCH  74  77
ATOM     77  S   UNL A   1      40.425  23.622  26.773  1.00  0.00     0.127 S 
ATOM     78  O   UNL A   1      39.040  23.641  26.302  1.00  0.00    -0.237 OA
ATOM     79  O   UNL A   1      41.396  23.142  25.789  1.00  0.00    -0.237 OA
ATOM     80  O   UNL A   1      40.619  23.106  28.120  1.00  0.00    -0.744 OA
ENDBRANCH  74  77
ENDBRANCH  56  70
BRANCH  57  81
ATOM     81  C   UNL A   1      39.272  32.821  36.283  1.00  0.00     0.023 A 
ATOM     82  C   UNL A   1      39.824  34.102  36.472  1.00  0.00     0.012 A 
ATOM     83  C   UNL A   1      38.441  32.278  37.282  1.00  0.00     0.148 A 
ATOM     84  C   UNL A   1      39.584  34.816  37.647  1.00  0.00     0.002 A 
ATOM     85  C   UNL A   1      38.159  33.017  38.426  1.00  0.00     0.091 A 
ATOM     86  F   UNL A   1      37.933  31.052  37.090  1.00  0.00    -0.205 F 
ATOM     87  C   UNL A   1      38.745  34.278  38.618  1.00  0.00     0.022 A 
BRANCH  85  88
ATOM     88  S   UNL A   1      36.987  32.461  39.668  1.00  0.00     0.127 S 
ATOM     89  O   UNL A   1      35.742  32.414  38.904  1.00  0.00    -0.237 OA
ATOM     90  O   UNL A   1      37.535  31.156  40.038  1.00  0.00    -0.237 OA
ATOM     91  O   UNL A   1      37.041  33.457  40.730  1.00  0.00    -0.744 OA
ENDBRANCH  85  88
ENDBRANCH  57  81
BRANCH  69  92
ATOM     92  C   UNL A   1      44.234  28.282  34.388  1.00  0.00     0.023 A 
ATOM     93  C   UNL A   1      45.450  28.992  34.384  1.00  0.00     0.012 A 
ATOM     94  C   UNL A   1      44.130  27.090  35.132  1.00  0.00     0.148 A 
ATOM     95  C   UNL A   1      46.554  28.507  35.085  1.00  0.00     0.002 A 
ATOM     96  C   UNL A   1      45.218  26.640  35.869  1.00  0.00     0.091 A 
ATOM     97  F   UNL A   1      42.968  26.420  35.107  1.00  0.00    -0.205 F 
ATOM     98  C   UNL A   1      46.435  27.341  35.837  1.00  0.00     0.022 A 
BRANCH  96  99
ATOM     99  S   UNL A   1      45.127  25.203  36.943  1.00  0.00     0.127 S 
ATOM    100  O   UNL A   1      46.516  24.751  36.954  1.00  0.00    -0.237 OA
ATOM    101  O   UNL A   1      44.665  25.788  38.202  1.00  0.00    -0.237 OA
ATOM    102  O   UNL A   1      44.178  24.292  36.317  1.00  0.00    -0.744 OA
ENDBRANCH  96  99
ENDBRANCH  69  92
ENDBRANCH  43  44
ENDBRANCH  35  38
ENDBRANCH  33  34
ENDBRANCH  32  33
ENDBRANCH   1  32
TORSDOF 19
ENDMDL
MODEL 2
REMARK VINA RESULT:     -12.3      6.142     11.534
REMARK SMILES CCOc1cc(C(=O)N2CCC(C(=O)NCCCCNC(=O)c3ccc(-c4c5nc(c(-c6cccc(S(=O)(=O)[O-])c6F)c6ccc([nH]6)c(-c6cccc(S(=O)(=O)[O-])c6F)c6nc(c(-c7cccc(S(=O)(=O)[O-])c7F)c7ccc4[nH]7)C=C6)C=C5)cc3)(c3ccccc3)CC2)ccc1OC
REMARK SMILES IDX 17 1 16 2 15 3 13 4 14 5 12 7 7 8 8 9 9 10 10 11 93 12 11 13
REMARK SMILES IDX 92 14 6 15 4 16 5 17 96 18 95 19 94 20 3 21 2 22 1 23 97 24
REMARK SMILES IDX 98 25 86 26 87 27 91 28 88 29 90 30 89 31 18 32 19 33 20 34
REMARK SMILES IDX 21 35 22 37 23 38 24 39 85 40 25 41 84 42 26 43 27 44 28 45
REMARK SMILES IDX 78 46 29 47 83 48 77 49 79 50 30 51 82 52 76 53 75 54 31 56
REMARK SMILES IDX 63 57 43 58 62 59 44 60 47 61 61 62 80 63 45 64 46 65 60 67
REMARK SMILES IDX 81 68 48 69 32 70 33 71 41 72 34 73 36 74 42 75 35 76 37 77
REMARK SMILES IDX 38 78 39 79 40 80 64 81 65 82 73 83 66 84 68 85 74 86 67 87
REMARK SMILES IDX 69 88 70 89 71 90 72 91 49 92 50 93 58 94 51 95 53 96 59 97
REMARK SMILES IDX 52 98 54 99 55 100 56 101 57 102
REMARK H PARENT 15 6 20 36 79 55 47 66
REMARK Flexibility Score: inf
ROOT
ATOM      1  C   UNL A   1      37.352  21.304  24.684  1.00  0.00     0.023 C 
ENDROOT
BRANCH   1   2
ATOM      2  C   UNL A   1      35.840  21.091  24.661  1.00  0.00     0.116 C 
BRANCH   2   3
ATOM      3  N   UNL A   1      35.263  21.174  25.993  1.00  0.00    -0.355 N 
ATOM      4  C   UNL A   1      34.039  21.566  26.459  1.00  0.00     0.230 C 
ATOM      5  O   UNL A   1      33.952  21.513  27.687  1.00  0.00    -0.274 OA
ATOM      6  H   UNL A   1      35.880  20.891  26.705  1.00  0.00     0.163 HD
BRANCH   4   7
ATOM      7  C   UNL A   1      32.873  22.009  25.495  1.00  0.00     0.077 C 
ATOM      8  C   UNL A   1      30.382  25.605  25.817  1.00  0.00     0.253 C 
ATOM      9  O   UNL A   1      29.737  25.785  26.848  1.00  0.00    -0.269 OA
ATOM     10  N   UNL A   1      31.155  24.447  25.586  1.00  0.00    -0.339 N 
ATOM     11  C   UNL A   1      30.599  23.196  26.081  1.00  0.00     0.121 C 
ATOM     12  C   UNL A   1      32.224  24.376  24.593  1.00  0.00     0.121 C 
ATOM     13  C   UNL A   1      31.592  22.079  26.373  1.00  0.00     0.043 C 
ATOM     14  C   UNL A   1      33.328  23.379  24.910  1.00  0.00     0.043 C 
BRANCH   8  15
ATOM     15  C   UNL A   1      30.226  26.606  24.718  1.00  0.00     0.043 A 
ATOM     16  C   UNL A   1      31.114  28.318  23.230  1.00  0.00     0.161 A 
ATOM     17  C   UNL A   1      31.306  27.374  24.260  1.00  0.00     0.064 A 
ATOM     18  C   UNL A   1      29.861  28.449  22.616  1.00  0.00     0.160 A 
ATOM     19  C   UNL A   1      28.779  27.748  23.154  1.00  0.00     0.051 A 
ATOM     20  C   UNL A   1      28.949  26.873  24.221  1.00  0.00     0.018 A 
BRANCH  16  21
ATOM     21  O   UNL A   1      32.187  29.051  22.795  1.00  0.00    -0.490 OA
BRANCH  21  22
ATOM     22  C   UNL A   1      33.325  28.947  23.662  1.00  0.00     0.226 C 
ATOM     23  C   UNL A   1      34.546  28.581  22.829  1.00  0.00     0.049 C 
ENDBRANCH  21  22
ENDBRANCH  16  21
BRANCH  18  24
ATOM     24  O   UNL A   1      29.490  29.206  21.544  1.00  0.00    -0.493 OA
ATOM     25  C   UNL A   1      29.105  30.556  21.735  1.00  0.00     0.278 C 
ENDBRANCH  18  24
ENDBRANCH   8  15
BRANCH   7  26
ATOM     26  C   UNL A   1      32.571  21.050  24.281  1.00  0.00    -0.032 A 
ATOM     27  C   UNL A   1      32.555  19.647  24.358  1.00  0.00     0.005 A 
ATOM     28  C   UNL A   1      32.301  21.587  23.002  1.00  0.00     0.005 A 
ATOM     29  C   UNL A   1      32.300  18.837  23.241  1.00  0.00     0.000 A 
ATOM     30  C   UNL A   1      32.057  20.784  21.880  1.00  0.00     0.000 A 
ATOM     31  C   UNL A   1      32.058  19.403  21.999  1.00  0.00     0.000 A 
ENDBRANCH   7  26
ENDBRANCH   4   7
ENDBRANCH   2   3
ENDBRANCH   1   2
BRANCH   1  32
ATOM     32  C   UNL A   1      38.157  20.128  25.237  1.00  0.00     0.023 C 
BRANCH  32  33
ATOM     33  C   UNL A   1      39.492  20.498  25.871  1.00  0.00     0.116 C 
BRANCH  33  34
ATOM     34  N   UNL A   1      40.408  19.370  25.961  1.00  0.00    -0.352 N 
ATOM     35  C   UNL A   1      41.770  19.372  26.162  1.00  0.00     0.251 C 
ATOM     36  H   UNL A   1      39.995  18.482  25.862  1.00  0.00     0.163 HD
ATOM     37  O   UNL A   1      42.407  18.335  26.078  1.00  0.00    -0.269 OA
BRANCH  35  38
ATOM     38  C   UNL A   1      42.452  20.652  26.454  1.00  0.00     0.039 A 
ATOM     39  C   UNL A   1      42.935  21.414  25.388  1.00  0.00     0.014 A 
ATOM     40  C   UNL A   1      42.582  21.108  27.767  1.00  0.00     0.014 A 
ATOM     41  C   UNL A   1      43.485  22.673  25.637  1.00  0.00     0.010 A 
ATOM     42  C   UNL A   1      43.058  22.393  28.004  1.00  0.00     0.010 A 
ATOM     43  C   UNL A   1      43.517  23.189  26.943  1.00  0.00    -0.014 A 
BRANCH  43  44
ATOM     44  C   UNL A   1      44.008  24.562  27.221  1.00  0.00     0.031 A 
ATOM     45  C   UNL A   1      43.061  25.614  27.734  1.00  0.00     0.074 A 
ATOM     46  C   UNL A   1      45.279  24.891  26.914  1.00  0.00     0.049 A 
ATOM     47  N   UNL A   1      43.283  26.882  27.960  1.00  0.00    -0.248 NA
ATOM     48  C   UNL A   1      41.676  25.192  27.999  1.00  0.00     0.031 C 
ATOM     49  C   UNL A   1      46.271  23.983  26.332  1.00  0.00     0.029 A 
ATOM     50  N   UNL A   1      45.946  26.085  27.019  1.00  0.00    -0.354 N 
ATOM     51  C   UNL A   1      42.062  27.418  28.352  1.00  0.00     0.074 A 
ATOM     52  C   UNL A   1      41.094  26.343  28.303  1.00  0.00     0.031 C 
ATOM     53  C   UNL A   1      47.416  24.654  26.129  1.00  0.00     0.029 A 
ATOM     54  C   UNL A   1      47.234  26.043  26.535  1.00  0.00     0.049 A 
ATOM     55  H   UNL A   1      45.542  26.897  27.403  1.00  0.00     0.167 HD
ATOM     56  C   UNL A   1      41.776  28.682  28.742  1.00  0.00     0.034 A 
ATOM     57  C   UNL A   1      48.160  27.016  26.420  1.00  0.00     0.034 A 
ATOM     58  C   UNL A   1      42.751  29.735  28.835  1.00  0.00     0.049 A 
ATOM     59  C   UNL A   1      47.829  28.401  26.906  1.00  0.00     0.074 A 
ATOM     60  C   UNL A   1      42.583  31.020  29.319  1.00  0.00     0.029 A 
ATOM     61  N   UNL A   1      44.072  29.628  28.429  1.00  0.00    -0.354 N 
ATOM     62  N   UNL A   1      46.715  28.845  27.435  1.00  0.00    -0.248 NA
ATOM     63  C   UNL A   1      48.894  29.411  26.813  1.00  0.00     0.031 C 
ATOM     64  C   UNL A   1      43.797  31.701  29.178  1.00  0.00     0.029 A 
ATOM     65  C   UNL A   1      44.728  30.829  28.637  1.00  0.00     0.049 A 
ATOM     66  H   UNL A   1      44.483  28.819  28.049  1.00  0.00     0.167 HD
ATOM     67  C   UNL A   1      46.955  30.173  27.772  1.00  0.00     0.074 A 
ATOM     68  C   UNL A   1      48.328  30.455  27.405  1.00  0.00     0.031 C 
ATOM     69  C   UNL A   1      46.111  31.081  28.321  1.00  0.00     0.034 A 
BRANCH  56  70
ATOM     70  C   UNL A   1      40.358  28.988  29.147  1.00  0.00     0.023 A 
ATOM     71  C   UNL A   1      39.406  29.317  28.159  1.00  0.00     0.012 A 
ATOM     72  C   UNL A   1      39.951  28.886  30.492  1.00  0.00     0.148 A 
ATOM     73  C   UNL A   1      38.082  29.576  28.507  1.00  0.00     0.002 A 
ATOM     74  C   UNL A   1      38.618  29.099  30.825  1.00  0.00     0.091 A 
ATOM     75  F   UNL A   1      40.873  28.592  31.419  1.00  0.00    -0.205 F 
ATOM     76  C   UNL A   1      37.685  29.455  29.837  1.00  0.00     0.022 A 
BRANCH  74  77
ATOM     77  S   UNL A   1      37.991  28.889  32.495  1.00  0.00     0.127 S 
ATOM     78  O   UNL A   1      38.194  27.456  32.707  1.00  0.00    -0.237 OA
ATOM     79  O   UNL A   1      38.884  29.752  33.269  1.00  0.00    -0.237 OA
ATOM     80  O   UNL A   1      36.603  29.325  32.461  1.00  0.00    -0.744 OA
ENDBRANCH  74  77
ENDBRANCH  56  70
BRANCH  57  81
ATOM     81  C   UNL A   1      49.510  26.700  25.872  1.00  0.00     0.023 A 
ATOM     82  C   UNL A   1      50.426  25.979  26.662  1.00  0.00     0.012 A 
ATOM     83  C   UNL A   1      49.882  27.086  24.570  1.00  0.00     0.148 A 
ATOM     84  C   UNL A   1      51.701  25.679  26.180  1.00  0.00     0.002 A 
ATOM     85  C   UNL A   1      51.132  26.736  24.074  1.00  0.00     0.091 A 
ATOM     86  F   UNL A   1      49.000  27.781  23.837  1.00  0.00    -0.205 F 
ATOM     87  C   UNL A   1      52.050  26.049  24.884  1.00  0.00     0.022 A 
BRANCH  85  88
ATOM     88  S   UNL A   1      51.619  27.054  22.375  1.00  0.00     0.127 S 
ATOM     89  O   UNL A   1      51.842  28.497  22.393  1.00  0.00    -0.237 OA
ATOM     90  O   UNL A   1      52.830  26.242  22.251  1.00  0.00    -0.237 OA
ATOM     91  O   UNL A   1      50.504  26.595  21.556  1.00  0.00    -0.744 OA
ENDBRANCH  85  88
ENDBRANCH  57  81
BRANCH  69  92
ATOM     92  C   UNL A   1      46.649  32.459  28.602  1.00  0.00     0.023 A 
ATOM     93  C   UNL A   1      47.193  32.755  29.867  1.00  0.00     0.012 A 
ATOM     94  C   UNL A   1      46.692  33.433  27.585  1.00  0.00     0.148 A 
ATOM     95  C   UNL A   1      47.744  34.011  30.124  1.00  0.00     0.002 A 
ATOM     96  C   UNL A   1      47.287  34.664  27.833  1.00  0.00     0.091 A 
ATOM     97  F   UNL A   1      46.151  33.137  26.393  1.00  0.00    -0.205 F 
ATOM     98  C   UNL A   1      47.803  34.958  29.105  1.00  0.00     0.022 A 
BRANCH  96  99
ATOM     99  S   UNL A   1      47.496  35.907  26.554  1.00  0.00     0.127 S 
ATOM    100  O   UNL A   1      48.174  35.146  25.507  1.00  0.00    -0.237 OA
ATOM    101  O   UNL A   1      46.112  36.271  26.246  1.00  0.00    -0.237 OA
ATOM    102  O   UNL A   1      48.281  36.977  27.157  1.00  0.00    -0.744 OA
ENDBRANCH  96  99
ENDBRANCH  69  92
ENDBRANCH  43  44
ENDBRANCH  35  38
ENDBRANCH  33  34
ENDBRANCH  32  33
ENDBRANCH   1  32
TORSDOF 19
ENDMDL
MODEL 3
REMARK VINA RESULT:     -12.1      5.648      9.834
REMARK SMILES CCOc1cc(C(=O)N2CCC(C(=O)NCCCCNC(=O)c3ccc(-c4c5nc(c(-c6cccc(S(=O)(=O)[O-])c6F)c6ccc([nH]6)c(-c6cccc(S(=O)(=O)[O-])c6F)c6nc(c(-c7cccc(S(=O)(=O)[O-])c7F)c7ccc4[nH]7)C=C6)C=C5)cc3)(c3ccccc3)CC2)ccc1OC
REMARK SMILES IDX 17 1 16 2 15 3 13 4 14 5 12 7 7 8 8 9 9 10 10 11 93 12 11 13
REMARK SMILES IDX 92 14 6 15 4 16 5 17 96 18 95 19 94 20 3 21 2 22 1 23 97 24
REMARK SMILES IDX 98 25 86 26 87 27 91 28 88 29 90 30 89 31 18 32 19 33 20 34
REMARK SMILES IDX 21 35 22 37 23 38 24 39 85 40 25 41 84 42 26 43 27 44 28 45
REMARK SMILES IDX 78 46 29 47 83 48 77 49 79 50 30 51 82 52 76 53 75 54 31 56
REMARK SMILES IDX 63 57 43 58 62 59 44 60 47 61 61 62 80 63 45 64 46 65 60 67
REMARK SMILES IDX 81 68 48 69 32 70 33 71 41 72 34 73 36 74 42 75 35 76 37 77
REMARK SMILES IDX 38 78 39 79 40 80 64 81 65 82 73 83 66 84 68 85 74 86 67 87
REMARK SMILES IDX 69 88 70 89 71 90 72 91 49 92 50 93 58 94 51 95 53 96 59 97
REMARK SMILES IDX 52 98 54 99 55 100 56 101 57 102
REMARK H PARENT 15 6 20 36 79 55 47 66
REMARK Flexibility Score: inf
ROOT
ATOM      1  C   UNL A   1      38.896  22.739  26.340  1.00  0.00     0.023 C 
ENDROOT
BRANCH   1   2
ATOM      2  C   UNL A   1      37.659  23.454  25.801  1.00  0.00     0.116 C 
BRANCH   2   3
ATOM      3  N   UNL A   1      37.504  23.259  24.369  1.00  0.00    -0.355 N 
ATOM      4  C   UNL A   1      36.413  23.163  23.550  1.00  0.00     0.230 C 
ATOM      5  O   UNL A   1      36.711  22.970  22.371  1.00  0.00    -0.274 OA
ATOM      6  H   UNL A   1      38.360  23.180  23.889  1.00  0.00     0.163 HD
BRANCH   4   7
ATOM      7  C   UNL A   1      34.940  23.315  24.091  1.00  0.00     0.077 C 
ATOM      8  C   UNL A   1      32.825  27.043  25.023  1.00  0.00     0.253 C 
ATOM      9  O   UNL A   1      33.317  27.810  25.848  1.00  0.00    -0.269 OA
ATOM     10  N   UNL A   1      33.388  25.788  24.708  1.00  0.00    -0.339 N 
ATOM     11  C   UNL A   1      33.979  25.054  25.816  1.00  0.00     0.121 C 
ATOM     12  C   UNL A   1      33.081  25.051  23.485  1.00  0.00     0.121 C 
ATOM     13  C   UNL A   1      35.058  24.038  25.462  1.00  0.00     0.043 C 
ATOM     14  C   UNL A   1      34.188  24.128  22.997  1.00  0.00     0.043 C 
BRANCH   8  15
ATOM     15  C   UNL A   1      31.503  27.416  24.433  1.00  0.00     0.043 A 
ATOM     16  C   UNL A   1      29.995  29.012  23.378  1.00  0.00     0.161 A 
ATOM     17  C   UNL A   1      31.261  28.696  23.914  1.00  0.00     0.064 A 
ATOM     18  C   UNL A   1      28.994  28.032  23.304  1.00  0.00     0.160 A 
ATOM     19  C   UNL A   1      29.223  26.799  23.917  1.00  0.00     0.051 A 
ATOM     20  C   UNL A   1      30.444  26.509  24.515  1.00  0.00     0.018 A 
BRANCH  16  21
ATOM     21  O   UNL A   1      29.785  30.267  22.870  1.00  0.00    -0.490 OA
BRANCH  21  22
ATOM     22  C   UNL A   1      29.195  31.165  23.821  1.00  0.00     0.226 C 
ATOM     23  C   UNL A   1      28.082  31.946  23.135  1.00  0.00     0.049 C 
ENDBRANCH  21  22
ENDBRANCH  16  21
BRANCH  18  24
ATOM     24  O   UNL A   1      27.758  28.091  22.731  1.00  0.00    -0.493 OA
ATOM     25  C   UNL A   1      26.647  28.521  23.498  1.00  0.00     0.278 C 
ENDBRANCH  18  24
ENDBRANCH   8  15
BRANCH   7  26
ATOM     26  C   UNL A   1      34.140  21.976  24.322  1.00  0.00    -0.032 A 
ATOM     27  C   UNL A   1      32.755  21.831  24.130  1.00  0.00     0.005 A 
ATOM     28  C   UNL A   1      34.813  20.813  24.760  1.00  0.00     0.005 A 
ATOM     29  C   UNL A   1      32.087  20.621  24.369  1.00  0.00     0.000 A 
ATOM     30  C   UNL A   1      34.150  19.605  25.012  1.00  0.00     0.000 A 
ATOM     31  C   UNL A   1      32.781  19.509  24.818  1.00  0.00     0.000 A 
ENDBRANCH   7  26
ENDBRANCH   4   7
ENDBRANCH   2   3
ENDBRANCH   1   2
BRANCH   1  32
ATOM     32  C   UNL A   1      39.135  21.345  25.758  1.00  0.00     0.023 C 
BRANCH  32  33
ATOM     33  C   UNL A   1      39.679  20.317  26.742  1.00  0.00     0.116 C 
BRANCH  33  34
ATOM     34  N   UNL A   1      40.763  19.520  26.186  1.00  0.00    -0.352 N 
ATOM     35  C   UNL A   1      42.044  19.905  25.858  1.00  0.00     0.251 C 
ATOM     36  H   UNL A   1      40.549  18.573  26.021  1.00  0.00     0.163 HD
ATOM     37  O   UNL A   1      42.788  19.136  25.275  1.00  0.00    -0.269 OA
BRANCH  35  38
ATOM     38  C   UNL A   1      42.492  21.274  26.196  1.00  0.00     0.039 A 
ATOM     39  C   UNL A   1      42.654  22.202  25.167  1.00  0.00     0.014 A 
ATOM     40  C   UNL A   1      42.717  21.643  27.525  1.00  0.00     0.014 A 
ATOM     41  C   UNL A   1      42.973  23.526  25.478  1.00  0.00     0.010 A 
ATOM     42  C   UNL A   1      42.957  22.976  27.836  1.00  0.00     0.010 A 
ATOM     43  C   UNL A   1      43.090  23.932  26.817  1.00  0.00    -0.014 A 
BRANCH  43  44
ATOM     44  C   UNL A   1      43.332  25.352  27.177  1.00  0.00     0.031 A 
ATOM     45  C   UNL A   1      44.722  25.925  27.099  1.00  0.00     0.074 A 
ATOM     46  C   UNL A   1      42.323  26.097  27.672  1.00  0.00     0.049 A 
ATOM     47  N   UNL A   1      45.144  27.112  27.445  1.00  0.00    -0.248 NA
ATOM     48  C   UNL A   1      45.783  25.035  26.595  1.00  0.00     0.031 C 
ATOM     49  C   UNL A   1      40.949  25.630  27.875  1.00  0.00     0.029 A 
ATOM     50  N   UNL A   1      42.303  27.392  28.124  1.00  0.00    -0.354 N 
ATOM     51  C   UNL A   1      46.519  27.101  27.242  1.00  0.00     0.074 A 
ATOM     52  C   UNL A   1      46.866  25.778  26.771  1.00  0.00     0.031 C 
ATOM     53  C   UNL A   1      40.222  26.623  28.413  1.00  0.00     0.029 A 
ATOM     54  C   UNL A   1      41.081  27.783  28.622  1.00  0.00     0.049 A 
ATOM     55  H   UNL A   1      43.088  27.985  28.095  1.00  0.00     0.167 HD
ATOM     56  C   UNL A   1      47.409  28.108  27.406  1.00  0.00     0.034 A 
ATOM     57  C   UNL A   1      40.699  28.942  29.196  1.00  0.00     0.034 A 
ATOM     58  C   UNL A   1      47.052  29.437  27.828  1.00  0.00     0.049 A 
ATOM     59  C   UNL A   1      41.699  30.060  29.321  1.00  0.00     0.074 A 
ATOM     60  C   UNL A   1      47.863  30.553  27.923  1.00  0.00     0.029 A 
ATOM     61  N   UNL A   1      45.785  29.825  28.231  1.00  0.00    -0.354 N 
ATOM     62  N   UNL A   1      42.959  30.084  28.962  1.00  0.00    -0.248 NA
ATOM     63  C   UNL A   1      41.215  31.324  29.898  1.00  0.00     0.031 C 
ATOM     64  C   UNL A   1      47.091  31.611  28.413  1.00  0.00     0.029 A 
ATOM     65  C   UNL A   1      45.792  31.161  28.592  1.00  0.00     0.049 A 
ATOM     66  H   UNL A   1      44.995  29.237  28.258  1.00  0.00     0.167 HD
ATOM     67  C   UNL A   1      43.409  31.371  29.234  1.00  0.00     0.074 A 
ATOM     68  C   UNL A   1      42.280  32.104  29.770  1.00  0.00     0.031 C 
ATOM     69  C   UNL A   1      44.649  31.895  29.070  1.00  0.00     0.034 A 
BRANCH  56  70
ATOM     70  C   UNL A   1      48.853  27.829  27.082  1.00  0.00     0.023 A 
ATOM     71  C   UNL A   1      49.729  27.412  28.105  1.00  0.00     0.012 A 
ATOM     72  C   UNL A   1      49.328  27.914  25.758  1.00  0.00     0.148 A 
ATOM     73  C   UNL A   1      51.063  27.119  27.823  1.00  0.00     0.002 A 
ATOM     74  C   UNL A   1      50.646  27.576  25.477  1.00  0.00     0.091 A 
ATOM     75  F   UNL A   1      48.485  28.332  24.802  1.00  0.00    -0.205 F 
ATOM     76  C   UNL A   1      51.518  27.190  26.509  1.00  0.00     0.022 A 
BRANCH  74  77
ATOM     77  S   UNL A   1      51.306  27.555  23.807  1.00  0.00     0.127 S 
ATOM     78  O   UNL A   1      51.282  28.976  23.463  1.00  0.00    -0.237 OA
ATOM     79  O   UNL A   1      52.646  27.001  24.014  1.00  0.00    -0.237 OA
ATOM     80  O   UNL A   1      50.412  26.709  23.031  1.00  0.00    -0.744 OA
ENDBRANCH  74  77
ENDBRANCH  56  70
BRANCH  57  81
ATOM     81  C   UNL A   1      39.288  29.124  29.641  1.00  0.00     0.023 A 
ATOM     82  C   UNL A   1      38.916  28.730  30.941  1.00  0.00     0.012 A 
ATOM     83  C   UNL A   1      38.321  29.703  28.796  1.00  0.00     0.148 A 
ATOM     84  C   UNL A   1      37.599  28.877  31.380  1.00  0.00     0.002 A 
ATOM     85  C   UNL A   1      37.025  29.899  29.259  1.00  0.00     0.091 A 
ATOM     86  F   UNL A   1      38.692  30.062  27.558  1.00  0.00    -0.205 F 
ATOM     87  C   UNL A   1      36.658  29.470  30.544  1.00  0.00     0.022 A 
BRANCH  85  88
ATOM     88  S   UNL A   1      35.781  30.772  28.302  1.00  0.00     0.127 S 
ATOM     89  O   UNL A   1      36.517  31.955  27.864  1.00  0.00    -0.237 OA
ATOM     90  O   UNL A   1      35.481  29.805  27.245  1.00  0.00    -0.237 OA
ATOM     91  O   UNL A   1      34.679  31.016  29.222  1.00  0.00    -0.744 OA
ENDBRANCH  85  88
ENDBRANCH  57  81
BRANCH  69  92
ATOM     92  C   UNL A   1      44.853  33.343  29.431  1.00  0.00     0.023 A 
ATOM     93  C   UNL A   1      45.314  33.687  30.717  1.00  0.00     0.012 A 
ATOM     94  C   UNL A   1      44.669  34.354  28.468  1.00  0.00     0.148 A 
ATOM     95  C   UNL A   1      45.559  35.020  31.047  1.00  0.00     0.002 A 
ATOM     96  C   UNL A   1      44.963  35.674  28.788  1.00  0.00     0.091 A 
ATOM     97  F   UNL A   1      44.212  34.007  27.255  1.00  0.00    -0.205 F 
ATOM     98  C   UNL A   1      45.397  36.010  30.081  1.00  0.00     0.022 A 
BRANCH  96  99
ATOM     99  S   UNL A   1      44.878  37.000  27.580  1.00  0.00     0.127 S 
ATOM    100  O   UNL A   1      45.867  36.569  26.594  1.00  0.00    -0.237 OA
ATOM    101  O   UNL A   1      43.488  36.918  27.128  1.00  0.00    -0.237 OA
ATOM    102  O   UNL A   1      45.206  38.223  28.301  1.00  0.00    -0.744 OA
ENDBRANCH  96  99
ENDBRANCH  69  92
ENDBRANCH  43  44
ENDBRANCH  35  38
ENDBRANCH  33  34
ENDBRANCH  32  33
ENDBRANCH   1  32
TORSDOF 19
ENDMDL
