MODEL 1
REMARK VINA RESULT:     -12.3      0.000      0.000
REMARK SMILES Nc1ncc(C(=O)NCCCCNC(=O)c2ccc(-c3c4nc(c(-c5cccc(S(=O)(=O)[O-])c5F)c5ccc([nH]5)c(-c5cccc(S(=O)(=O)[O-])c5F)c5nc(c(-c6cccc(S(=O)(=O)[O-])c6F)c6ccc3[nH]6)C=C5)C=C4)cc2)c(-c2ccccc2)n1
REMARK SMILES IDX 11 1 10 2 9 3 8 4 6 5 7 6 5 8 2 9 3 10 86 11 4 12 79 13 1 14
REMARK SMILES IDX 80 17 81 18 85 19 82 20 84 21 83 22 12 23 13 24 14 25 15 27
REMARK SMILES IDX 16 28 17 29 78 30 18 31 77 32 19 33 20 34 21 35 71 36 22 37
REMARK SMILES IDX 76 38 70 39 72 40 23 41 75 42 69 43 68 44 24 46 56 47 36 48
REMARK SMILES IDX 55 49 37 50 40 51 54 52 73 53 38 54 39 55 53 57 74 58 41 59
REMARK SMILES IDX 25 60 26 61 34 62 27 63 29 64 35 65 28 66 30 67 31 68 32 69
REMARK SMILES IDX 33 70 57 71 58 72 66 73 59 74 61 75 67 76 60 77 62 78 63 79
REMARK SMILES IDX 64 80 65 81 42 82 43 83 51 84 44 85 46 86 52 87 45 88 47 89
REMARK SMILES IDX 48 90 49 91 50 92
REMARK H PARENT 8 7 1 15 1 16 13 26 72 45 40 56
REMARK Flexibility Score: inf
ROOT
ATOM      1  C   UNL A   1      32.092  30.126  25.433  1.00  0.00     0.023 C 
ENDROOT
BRANCH   1   2
ATOM      2  C   UNL A   1      32.977  28.911  25.160  1.00  0.00     0.023 C 
BRANCH   2   3
ATOM      3  C   UNL A   1      32.863  27.738  26.121  1.00  0.00     0.116 C 
BRANCH   3   4
ATOM      4  N   UNL A   1      31.563  27.135  26.272  1.00  0.00    -0.352 N 
ATOM      5  C   UNL A   1      30.798  26.450  25.357  1.00  0.00     0.255 C 
ATOM      6  O   UNL A   1      29.745  25.952  25.764  1.00  0.00    -0.269 OA
ATOM      7  H   UNL A   1      31.162  27.227  27.167  1.00  0.00     0.163 HD
BRANCH   5   8
ATOM      8  C   UNL A   1      31.079  26.339  23.902  1.00  0.00     0.084 A 
ATOM      9  C   UNL A   1      31.905  25.825  21.337  1.00  0.00     0.220 A 
ATOM     10  N   UNL A   1      32.422  25.078  22.305  1.00  0.00    -0.221 NA
ATOM     11  N   UNL A   1      31.029  26.806  21.538  1.00  0.00    -0.212 NA
ATOM     12  C   UNL A   1      32.001  25.358  23.561  1.00  0.00     0.131 A 
ATOM     13  C   UNL A   1      30.629  27.073  22.816  1.00  0.00     0.089 A 
BRANCH   9  14
ATOM     14  N   UNL A   1      32.289  25.579  20.053  1.00  0.00    -0.368 N 
ATOM     15  H   UNL A   1      31.618  25.579  19.331  1.00  0.00     0.159 HD
ATOM     16  H   UNL A   1      33.234  25.400  19.847  1.00  0.00     0.159 HD
ENDBRANCH   9  14
BRANCH  13  17
ATOM     17  C   UNL A   1      29.679  28.192  22.835  1.00  0.00     0.001 A 
ATOM     18  C   UNL A   1      30.062  29.516  22.574  1.00  0.00     0.010 A 
ATOM     19  C   UNL A   1      28.321  27.935  23.126  1.00  0.00     0.010 A 
ATOM     20  C   UNL A   1      29.128  30.554  22.671  1.00  0.00     0.001 A 
ATOM     21  C   UNL A   1      27.397  28.973  23.244  1.00  0.00     0.001 A 
ATOM     22  C   UNL A   1      27.804  30.285  23.024  1.00  0.00     0.000 A 
ENDBRANCH  13  17
ENDBRANCH   5   8
ENDBRANCH   3   4
ENDBRANCH   2   3
ENDBRANCH   1   2
BRANCH   1  23
ATOM     23  C   UNL A   1      31.951  30.595  26.879  1.00  0.00     0.116 C 
BRANCH  23  24
ATOM     24  N   UNL A   1      32.132  32.028  27.082  1.00  0.00    -0.352 N 
ATOM     25  C   UNL A   1      33.225  32.748  27.522  1.00  0.00     0.251 C 
ATOM     26  H   UNL A   1      31.341  32.573  26.870  1.00  0.00     0.163 HD
ATOM     27  O   UNL A   1      33.153  33.962  27.626  1.00  0.00    -0.269 OA
BRANCH  25  28
ATOM     28  C   UNL A   1      34.468  32.042  27.916  1.00  0.00     0.039 A 
ATOM     29  C   UNL A   1      35.654  32.775  28.020  1.00  0.00     0.014 A 
ATOM     30  C   UNL A   1      34.457  30.684  28.231  1.00  0.00     0.014 A 
ATOM     31  C   UNL A   1      36.795  32.175  28.563  1.00  0.00     0.010 A 
ATOM     32  C   UNL A   1      35.563  30.116  28.858  1.00  0.00     0.010 A 
ATOM     33  C   UNL A   1      36.738  30.859  29.051  1.00  0.00    -0.014 A 
BRANCH  33  34
ATOM     34  C   UNL A   1      37.862  30.252  29.814  1.00  0.00     0.031 A 
ATOM     35  C   UNL A   1      38.123  30.664  31.239  1.00  0.00     0.074 A 
ATOM     36  C   UNL A   1      38.733  29.437  29.181  1.00  0.00     0.049 A 
ATOM     37  N   UNL A   1      39.126  30.353  32.018  1.00  0.00    -0.248 NA
ATOM     38  C   UNL A   1      37.149  31.583  31.854  1.00  0.00     0.031 C 
ATOM     39  C   UNL A   1      38.650  29.036  27.774  1.00  0.00     0.029 A 
ATOM     40  N   UNL A   1      39.880  28.828  29.627  1.00  0.00    -0.354 N 
ATOM     41  C   UNL A   1      38.936  31.077  33.190  1.00  0.00     0.074 A 
ATOM     42  C   UNL A   1      37.736  31.866  33.008  1.00  0.00     0.031 C 
ATOM     43  C   UNL A   1      39.694  28.248  27.475  1.00  0.00     0.029 A 
ATOM     44  C   UNL A   1      40.540  28.110  28.656  1.00  0.00     0.049 A 
ATOM     45  H   UNL A   1      40.201  28.898  30.556  1.00  0.00     0.167 HD
ATOM     46  C   UNL A   1      39.673  31.065  34.326  1.00  0.00     0.034 A 
ATOM     47  C   UNL A   1      41.699  27.421  28.706  1.00  0.00     0.034 A 
ATOM     48  C   UNL A   1      40.822  30.225  34.529  1.00  0.00     0.049 A 
ATOM     49  C   UNL A   1      42.452  27.356  30.007  1.00  0.00     0.074 A 
ATOM     50  C   UNL A   1      41.570  30.053  35.680  1.00  0.00     0.029 A 
ATOM     51  N   UNL A   1      41.388  29.412  33.559  1.00  0.00    -0.354 N 
ATOM     52  N   UNL A   1      42.162  27.916  31.155  1.00  0.00    -0.248 NA
ATOM     53  C   UNL A   1      43.670  26.534  30.031  1.00  0.00     0.031 C 
ATOM     54  C   UNL A   1      42.595  29.142  35.402  1.00  0.00     0.029 A 
ATOM     55  C   UNL A   1      42.475  28.736  34.083  1.00  0.00     0.049 A 
ATOM     56  H   UNL A   1      41.063  29.328  32.634  1.00  0.00     0.167 HD
ATOM     57  C   UNL A   1      43.139  27.488  32.047  1.00  0.00     0.074 A 
ATOM     58  C   UNL A   1      44.018  26.604  31.309  1.00  0.00     0.031 C 
ATOM     59  C   UNL A   1      43.303  27.811  33.352  1.00  0.00     0.034 A 
BRANCH  46  60
ATOM     60  C   UNL A   1      39.215  31.937  35.466  1.00  0.00     0.023 A 
ATOM     61  C   UNL A   1      38.299  31.424  36.408  1.00  0.00     0.012 A 
ATOM     62  C   UNL A   1      39.721  33.240  35.636  1.00  0.00     0.148 A 
ATOM     63  C   UNL A   1      37.864  32.204  37.476  1.00  0.00     0.002 A 
ATOM     64  C   UNL A   1      39.316  33.998  36.730  1.00  0.00     0.091 A 
ATOM     65  F   UNL A   1      40.575  33.721  34.722  1.00  0.00    -0.205 F 
ATOM     66  C   UNL A   1      38.379  33.487  37.643  1.00  0.00     0.022 A 
BRANCH  64  67
ATOM     67  S   UNL A   1      39.980  35.631  37.078  1.00  0.00     0.127 S 
ATOM     68  O   UNL A   1      39.278  35.978  38.313  1.00  0.00    -0.237 OA
ATOM     69  O   UNL A   1      41.407  35.356  37.245  1.00  0.00    -0.237 OA
ATOM     70  O   UNL A   1      39.652  36.451  35.919  1.00  0.00    -0.744 OA
ENDBRANCH  64  67
ENDBRANCH  46  60
BRANCH  47  71
ATOM     71  C   UNL A   1      42.170  26.666  27.509  1.00  0.00     0.023 A 
ATOM     72  C   UNL A   1      42.887  27.351  26.508  1.00  0.00     0.012 A 
ATOM     73  C   UNL A   1      41.950  25.283  27.369  1.00  0.00     0.148 A 
ATOM     74  C   UNL A   1      43.349  26.679  25.375  1.00  0.00     0.002 A 
ATOM     75  C   UNL A   1      42.461  24.608  26.264  1.00  0.00     0.091 A 
ATOM     76  F   UNL A   1      41.255  24.649  28.326  1.00  0.00    -0.205 F 
ATOM     77  C   UNL A   1      43.146  25.307  25.259  1.00  0.00     0.022 A 
BRANCH  75  78
ATOM     78  S   UNL A   1      42.362  22.822  26.097  1.00  0.00     0.127 S 
ATOM     79  O   UNL A   1      43.089  22.369  27.280  1.00  0.00    -0.237 OA
ATOM     80  O   UNL A   1      40.917  22.592  26.137  1.00  0.00    -0.237 OA
ATOM     81  O   UNL A   1      42.980  22.516  24.814  1.00  0.00    -0.744 OA
ENDBRANCH  75  78
ENDBRANCH  47  71
BRANCH  59  82
ATOM     82  C   UNL A   1      44.455  27.181  34.089  1.00  0.00     0.023 A 
ATOM     83  C   UNL A   1      45.722  27.796  34.062  1.00  0.00     0.012 A 
ATOM     84  C   UNL A   1      44.262  26.028  34.876  1.00  0.00     0.148 A 
ATOM     85  C   UNL A   1      46.786  27.260  34.784  1.00  0.00     0.002 A 
ATOM     86  C   UNL A   1      45.315  25.525  35.630  1.00  0.00     0.091 A 
ATOM     87  F   UNL A   1      43.054  25.445  34.871  1.00  0.00    -0.205 F 
ATOM     88  C   UNL A   1      46.580  26.133  35.577  1.00  0.00     0.022 A 
BRANCH  86  89
ATOM     89  S   UNL A   1      45.113  24.135  36.751  1.00  0.00     0.127 S 
ATOM     90  O   UNL A   1      44.626  23.093  35.849  1.00  0.00    -0.237 OA
ATOM     91  O   UNL A   1      46.476  23.929  37.242  1.00  0.00    -0.237 OA
ATOM     92  O   UNL A   1      44.168  24.578  37.767  1.00  0.00    -0.744 OA
ENDBRANCH  86  89
ENDBRANCH  59  82
ENDBRANCH  33  34
ENDBRANCH  25  28
ENDBRANCH  23  24
ENDBRANCH   1  23
TORSDOF 16
ENDMDL
MODEL 2
REMARK VINA RESULT:     -12.3      1.325      1.613
REMARK SMILES Nc1ncc(C(=O)NCCCCNC(=O)c2ccc(-c3c4nc(c(-c5cccc(S(=O)(=O)[O-])c5F)c5ccc([nH]5)c(-c5cccc(S(=O)(=O)[O-])c5F)c5nc(c(-c6cccc(S(=O)(=O)[O-])c6F)c6ccc3[nH]6)C=C5)C=C4)cc2)c(-c2ccccc2)n1
REMARK SMILES IDX 11 1 10 2 9 3 8 4 6 5 7 6 5 8 2 9 3 10 86 11 4 12 79 13 1 14
REMARK SMILES IDX 80 17 81 18 85 19 82 20 84 21 83 22 12 23 13 24 14 25 15 27
REMARK SMILES IDX 16 28 17 29 78 30 18 31 77 32 19 33 20 34 21 35 71 36 22 37
REMARK SMILES IDX 76 38 70 39 72 40 23 41 75 42 69 43 68 44 24 46 56 47 36 48
REMARK SMILES IDX 55 49 37 50 40 51 54 52 73 53 38 54 39 55 53 57 74 58 41 59
REMARK SMILES IDX 25 60 26 61 34 62 27 63 29 64 35 65 28 66 30 67 31 68 32 69
REMARK SMILES IDX 33 70 57 71 58 72 66 73 59 74 61 75 67 76 60 77 62 78 63 79
REMARK SMILES IDX 64 80 65 81 42 82 43 83 51 84 44 85 46 86 52 87 45 88 47 89
REMARK SMILES IDX 48 90 49 91 50 92
REMARK H PARENT 8 7 1 15 1 16 13 26 72 45 40 56
REMARK Flexibility Score: inf
ROOT
ATOM      1  C   UNL A   1      31.619  29.397  27.205  1.00  0.00     0.023 C 
ENDROOT
BRANCH   1   2
ATOM      2  C   UNL A   1      32.243  28.068  27.627  1.00  0.00     0.023 C 
BRANCH   2   3
ATOM      3  C   UNL A   1      32.006  26.869  26.722  1.00  0.00     0.116 C 
BRANCH   3   4
ATOM      4  N   UNL A   1      30.644  26.431  26.554  1.00  0.00    -0.352 N 
ATOM      5  C   UNL A   1      29.985  26.022  25.418  1.00  0.00     0.255 C 
ATOM      6  O   UNL A   1      28.830  25.608  25.557  1.00  0.00    -0.269 OA
ATOM      7  H   UNL A   1      30.104  26.422  27.378  1.00  0.00     0.163 HD
BRANCH   5   8
ATOM      8  C   UNL A   1      30.504  26.123  24.030  1.00  0.00     0.084 A 
ATOM      9  C   UNL A   1      31.708  25.946  21.571  1.00  0.00     0.220 A 
ATOM     10  N   UNL A   1      31.960  24.979  22.444  1.00  0.00    -0.221 NA
ATOM     11  N   UNL A   1      30.922  26.991  21.820  1.00  0.00    -0.212 NA
ATOM     12  C   UNL A   1      31.357  25.096  23.652  1.00  0.00     0.131 A 
ATOM     13  C   UNL A   1      30.335  27.089  23.049  1.00  0.00     0.089 A 
BRANCH   9  14
ATOM     14  N   UNL A   1      32.282  25.872  20.338  1.00  0.00    -0.368 N 
ATOM     15  H   UNL A   1      31.777  25.490  19.583  1.00  0.00     0.159 HD
ATOM     16  H   UNL A   1      33.200  26.199  20.202  1.00  0.00     0.159 HD
ENDBRANCH   9  14
BRANCH  13  17
ATOM     17  C   UNL A   1      29.525  28.309  23.137  1.00  0.00     0.001 A 
ATOM     18  C   UNL A   1      30.085  29.576  23.362  1.00  0.00     0.010 A 
ATOM     19  C   UNL A   1      28.124  28.216  22.991  1.00  0.00     0.010 A 
ATOM     20  C   UNL A   1      29.260  30.698  23.505  1.00  0.00     0.001 A 
ATOM     21  C   UNL A   1      27.302  29.332  23.155  1.00  0.00     0.001 A 
ATOM     22  C   UNL A   1      27.873  30.572  23.420  1.00  0.00     0.000 A 
ENDBRANCH  13  17
ENDBRANCH   5   8
ENDBRANCH   3   4
ENDBRANCH   2   3
ENDBRANCH   1   2
BRANCH   1  23
ATOM     23  C   UNL A   1      32.477  30.360  26.388  1.00  0.00     0.116 C 
BRANCH  23  24
ATOM     24  N   UNL A   1      32.471  31.741  26.857  1.00  0.00    -0.352 N 
ATOM     25  C   UNL A   1      33.432  32.472  27.524  1.00  0.00     0.251 C 
ATOM     26  H   UNL A   1      31.641  32.233  26.665  1.00  0.00     0.163 HD
ATOM     27  O   UNL A   1      33.209  33.633  27.832  1.00  0.00    -0.269 OA
BRANCH  25  28
ATOM     28  C   UNL A   1      34.713  31.835  27.913  1.00  0.00     0.039 A 
ATOM     29  C   UNL A   1      35.816  32.651  28.185  1.00  0.00     0.014 A 
ATOM     30  C   UNL A   1      34.816  30.452  28.057  1.00  0.00     0.014 A 
ATOM     31  C   UNL A   1      36.977  32.089  28.726  1.00  0.00     0.010 A 
ATOM     32  C   UNL A   1      35.934  29.909  28.683  1.00  0.00     0.010 A 
ATOM     33  C   UNL A   1      37.020  30.722  29.044  1.00  0.00    -0.014 A 
BRANCH  33  34
ATOM     34  C   UNL A   1      38.153  30.124  29.802  1.00  0.00     0.031 A 
ATOM     35  C   UNL A   1      38.437  30.561  31.214  1.00  0.00     0.074 A 
ATOM     36  C   UNL A   1      39.010  29.294  29.170  1.00  0.00     0.049 A 
ATOM     37  N   UNL A   1      39.450  30.260  31.984  1.00  0.00    -0.248 NA
ATOM     38  C   UNL A   1      37.477  31.495  31.827  1.00  0.00     0.031 C 
ATOM     39  C   UNL A   1      38.905  28.868  27.772  1.00  0.00     0.029 A 
ATOM     40  N   UNL A   1      40.162  28.688  29.610  1.00  0.00    -0.354 N 
ATOM     41  C   UNL A   1      39.281  31.006  33.145  1.00  0.00     0.074 A 
ATOM     42  C   UNL A   1      38.082  31.796  32.966  1.00  0.00     0.031 C 
ATOM     43  C   UNL A   1      39.941  28.070  27.472  1.00  0.00     0.029 A 
ATOM     44  C   UNL A   1      40.804  27.949  28.642  1.00  0.00     0.049 A 
ATOM     45  H   UNL A   1      40.497  28.774  30.532  1.00  0.00     0.167 HD
ATOM     46  C   UNL A   1      40.035  31.011  34.270  1.00  0.00     0.034 A 
ATOM     47  C   UNL A   1      41.960  27.257  28.687  1.00  0.00     0.034 A 
ATOM     48  C   UNL A   1      41.183  30.170  34.471  1.00  0.00     0.049 A 
ATOM     49  C   UNL A   1      42.733  27.212  29.978  1.00  0.00     0.074 A 
ATOM     50  C   UNL A   1      41.949  30.016  35.613  1.00  0.00     0.029 A 
ATOM     51  N   UNL A   1      41.731  29.336  33.507  1.00  0.00    -0.354 N 
ATOM     52  N   UNL A   1      42.462  27.795  31.120  1.00  0.00    -0.248 NA
ATOM     53  C   UNL A   1      43.948  26.385  29.998  1.00  0.00     0.031 C 
ATOM     54  C   UNL A   1      42.965  29.095  35.337  1.00  0.00     0.029 A 
ATOM     55  C   UNL A   1      42.823  28.665  34.027  1.00  0.00     0.049 A 
ATOM     56  H   UNL A   1      41.393  29.238  32.589  1.00  0.00     0.167 HD
ATOM     57  C   UNL A   1      43.451  27.378  32.005  1.00  0.00     0.074 A 
ATOM     58  C   UNL A   1      44.316  26.477  31.270  1.00  0.00     0.031 C 
ATOM     59  C   UNL A   1      43.637  27.724  33.301  1.00  0.00     0.034 A 
BRANCH  46  60
ATOM     60  C   UNL A   1      39.598  31.906  35.400  1.00  0.00     0.023 A 
ATOM     61  C   UNL A   1      39.986  33.263  35.400  1.00  0.00     0.012 A 
ATOM     62  C   UNL A   1      38.770  31.427  36.434  1.00  0.00     0.148 A 
ATOM     63  C   UNL A   1      39.592  34.116  36.428  1.00  0.00     0.002 A 
ATOM     64  C   UNL A   1      38.344  32.295  37.433  1.00  0.00     0.091 A 
ATOM     65  F   UNL A   1      38.427  30.131  36.431  1.00  0.00    -0.205 F 
ATOM     66  C   UNL A   1      38.764  33.636  37.438  1.00  0.00     0.022 A 
BRANCH  64  67
ATOM     67  S   UNL A   1      37.213  31.794  38.736  1.00  0.00     0.127 S 
ATOM     68  O   UNL A   1      38.037  31.981  39.929  1.00  0.00    -0.237 OA
ATOM     69  O   UNL A   1      36.124  32.760  38.589  1.00  0.00    -0.237 OA
ATOM     70  O   UNL A   1      36.845  30.417  38.437  1.00  0.00    -0.744 OA
ENDBRANCH  64  67
ENDBRANCH  46  60
BRANCH  47  71
ATOM     71  C   UNL A   1      42.410  26.478  27.497  1.00  0.00     0.023 A 
ATOM     72  C   UNL A   1      43.200  27.118  26.521  1.00  0.00     0.012 A 
ATOM     73  C   UNL A   1      42.099  25.114  27.341  1.00  0.00     0.148 A 
ATOM     74  C   UNL A   1      43.645  26.422  25.396  1.00  0.00     0.002 A 
ATOM     75  C   UNL A   1      42.592  24.413  26.245  1.00  0.00     0.091 A 
ATOM     76  F   UNL A   1      41.337  24.524  28.273  1.00  0.00    -0.205 F 
ATOM     77  C   UNL A   1      43.351  25.068  25.263  1.00  0.00     0.022 A 
BRANCH  75  78
ATOM     78  S   UNL A   1      42.374  22.639  26.061  1.00  0.00     0.127 S 
ATOM     79  O   UNL A   1      43.127  22.124  27.201  1.00  0.00    -0.237 OA
ATOM     80  O   UNL A   1      40.921  22.498  26.169  1.00  0.00    -0.237 OA
ATOM     81  O   UNL A   1      42.910  22.315  24.745  1.00  0.00    -0.744 OA
ENDBRANCH  75  78
ENDBRANCH  47  71
BRANCH  59  82
ATOM     82  C   UNL A   1      44.797  27.102  34.032  1.00  0.00     0.023 A 
ATOM     83  C   UNL A   1      46.044  27.758  34.048  1.00  0.00     0.012 A 
ATOM     84  C   UNL A   1      44.629  25.915  34.771  1.00  0.00     0.148 A 
ATOM     85  C   UNL A   1      47.114  27.227  34.766  1.00  0.00     0.002 A 
ATOM     86  C   UNL A   1      45.687  25.416  35.522  1.00  0.00     0.091 A 
ATOM     87  F   UNL A   1      43.441  25.295  34.725  1.00  0.00    -0.205 F 
ATOM     88  C   UNL A   1      46.932  26.065  35.513  1.00  0.00     0.022 A 
BRANCH  86  89
ATOM     89  S   UNL A   1      45.512  23.979  36.586  1.00  0.00     0.127 S 
ATOM     90  O   UNL A   1      44.654  24.498  37.649  1.00  0.00    -0.237 OA
ATOM     91  O   UNL A   1      44.866  23.011  35.700  1.00  0.00    -0.237 OA
ATOM     92  O   UNL A   1      46.863  23.616  36.991  1.00  0.00    -0.744 OA
ENDBRANCH  86  89
ENDBRANCH  59  82
ENDBRANCH  33  34
ENDBRANCH  25  28
ENDBRANCH  23  24
ENDBRANCH   1  23
TORSDOF 16
ENDMDL
MODEL 3
REMARK VINA RESULT:     -12.2      2.170      8.010
REMARK SMILES Nc1ncc(C(=O)NCCCCNC(=O)c2ccc(-c3c4nc(c(-c5cccc(S(=O)(=O)[O-])c5F)c5ccc([nH]5)c(-c5cccc(S(=O)(=O)[O-])c5F)c5nc(c(-c6cccc(S(=O)(=O)[O-])c6F)c6ccc3[nH]6)C=C5)C=C4)cc2)c(-c2ccccc2)n1
REMARK SMILES IDX 11 1 10 2 9 3 8 4 6 5 7 6 5 8 2 9 3 10 86 11 4 12 79 13 1 14
REMARK SMILES IDX 80 17 81 18 85 19 82 20 84 21 83 22 12 23 13 24 14 25 15 27
REMARK SMILES IDX 16 28 17 29 78 30 18 31 77 32 19 33 20 34 21 35 71 36 22 37
REMARK SMILES IDX 76 38 70 39 72 40 23 41 75 42 69 43 68 44 24 46 56 47 36 48
REMARK SMILES IDX 55 49 37 50 40 51 54 52 73 53 38 54 39 55 53 57 74 58 41 59
REMARK SMILES IDX 25 60 26 61 34 62 27 63 29 64 35 65 28 66 30 67 31 68 32 69
REMARK SMILES IDX 33 70 57 71 58 72 66 73 59 74 61 75 67 76 60 77 62 78 63 79
REMARK SMILES IDX 64 80 65 81 42 82 43 83 51 84 44 85 46 86 52 87 45 88 47 89
REMARK SMILES IDX 48 90 49 91 50 92
REMARK H PARENT 8 7 1 15 1 16 13 26 72 45 40 56
REMARK Flexibility Score: inf
ROOT
ATOM      1  C   UNL A   1      32.145  30.895  26.668  1.00  0.00     0.023 C 
ENDROOT
BRANCH   1   2
ATOM      2  C   UNL A   1      32.688  29.817  25.731  1.00  0.00     0.023 C 
BRANCH   2   3
ATOM      3  C   UNL A   1      32.904  28.430  26.318  1.00  0.00     0.116 C 
BRANCH   3   4
ATOM      4  N   UNL A   1      31.729  27.643  26.595  1.00  0.00    -0.352 N 
ATOM      5  C   UNL A   1      31.015  26.807  25.769  1.00  0.00     0.255 C 
ATOM      6  O   UNL A   1      30.087  26.173  26.278  1.00  0.00    -0.269 OA
ATOM      7  H   UNL A   1      31.387  27.715  27.516  1.00  0.00     0.163 HD
BRANCH   5   8
ATOM      8  C   UNL A   1      31.201  26.671  24.302  1.00  0.00     0.084 A 
ATOM      9  C   UNL A   1      31.882  26.142  21.697  1.00  0.00     0.220 A 
ATOM     10  N   UNL A   1      32.525  25.470  22.644  1.00  0.00    -0.221 NA
ATOM     11  N   UNL A   1      30.945  27.056  21.936  1.00  0.00    -0.212 NA
ATOM     12  C   UNL A   1      32.172  25.756  23.920  1.00  0.00     0.131 A 
ATOM     13  C   UNL A   1      30.616  27.332  23.232  1.00  0.00     0.089 A 
BRANCH   9  14
ATOM     14  N   UNL A   1      32.192  25.885  20.396  1.00  0.00    -0.368 N 
ATOM     15  H   UNL A   1      31.675  26.311  19.673  1.00  0.00     0.159 HD
ATOM     16  H   UNL A   1      32.933  25.275  20.177  1.00  0.00     0.159 HD
ENDBRANCH   9  14
BRANCH  13  17
ATOM     17  C   UNL A   1      29.581  28.371  23.291  1.00  0.00     0.001 A 
ATOM     18  C   UNL A   1      28.217  28.093  23.127  1.00  0.00     0.010 A 
ATOM     19  C   UNL A   1      29.966  29.710  23.521  1.00  0.00     0.010 A 
ATOM     20  C   UNL A   1      27.278  29.132  23.124  1.00  0.00     0.001 A 
ATOM     21  C   UNL A   1      29.033  30.747  23.497  1.00  0.00     0.001 A 
ATOM     22  C   UNL A   1      27.688  30.456  23.290  1.00  0.00     0.000 A 
ENDBRANCH  13  17
ENDBRANCH   5   8
ENDBRANCH   3   4
ENDBRANCH   2   3
ENDBRANCH   1   2
BRANCH   1  23
ATOM     23  C   UNL A   1      33.146  31.848  27.315  1.00  0.00     0.116 C 
BRANCH  23  24
ATOM     24  N   UNL A   1      32.649  33.199  27.547  1.00  0.00    -0.352 N 
ATOM     25  C   UNL A   1      33.114  34.204  28.371  1.00  0.00     0.251 C 
ATOM     26  H   UNL A   1      31.847  33.434  27.027  1.00  0.00     0.163 HD
ATOM     27  O   UNL A   1      32.530  35.276  28.414  1.00  0.00    -0.269 OA
BRANCH  25  28
ATOM     28  C   UNL A   1      34.291  33.966  29.240  1.00  0.00     0.039 A 
ATOM     29  C   UNL A   1      34.093  33.391  30.499  1.00  0.00     0.014 A 
ATOM     30  C   UNL A   1      35.582  34.258  28.801  1.00  0.00     0.014 A 
ATOM     31  C   UNL A   1      35.197  32.990  31.260  1.00  0.00     0.010 A 
ATOM     32  C   UNL A   1      36.675  33.774  29.515  1.00  0.00     0.010 A 
ATOM     33  C   UNL A   1      36.497  33.116  30.742  1.00  0.00    -0.014 A 
BRANCH  33  34
ATOM     34  C   UNL A   1      37.679  32.524  31.425  1.00  0.00     0.031 A 
ATOM     35  C   UNL A   1      38.430  31.383  30.791  1.00  0.00     0.074 A 
ATOM     36  C   UNL A   1      37.988  32.917  32.680  1.00  0.00     0.049 A 
ATOM     37  N   UNL A   1      39.393  30.651  31.288  1.00  0.00    -0.248 NA
ATOM     38  C   UNL A   1      38.015  30.987  29.435  1.00  0.00     0.031 C 
ATOM     39  C   UNL A   1      37.278  33.944  33.446  1.00  0.00     0.029 A 
ATOM     40  N   UNL A   1      38.957  32.474  33.546  1.00  0.00    -0.354 N 
ATOM     41  C   UNL A   1      39.660  29.676  30.334  1.00  0.00     0.074 A 
ATOM     42  C   UNL A   1      38.737  29.893  29.240  1.00  0.00     0.031 C 
ATOM     43  C   UNL A   1      37.835  34.056  34.662  1.00  0.00     0.029 A 
ATOM     44  C   UNL A   1      38.922  33.089  34.778  1.00  0.00     0.049 A 
ATOM     45  H   UNL A   1      39.616  31.781  33.309  1.00  0.00     0.167 HD
ATOM     46  C   UNL A   1      40.605  28.707  30.350  1.00  0.00     0.034 A 
ATOM     47  C   UNL A   1      39.675  32.894  35.879  1.00  0.00     0.034 A 
ATOM     48  C   UNL A   1      41.567  28.541  31.406  1.00  0.00     0.049 A 
ATOM     49  C   UNL A   1      40.775  31.868  35.838  1.00  0.00     0.074 A 
ATOM     50  C   UNL A   1      42.636  27.665  31.467  1.00  0.00     0.029 A 
ATOM     51  N   UNL A   1      41.579  29.270  32.586  1.00  0.00    -0.354 N 
ATOM     52  N   UNL A   1      41.119  31.069  34.858  1.00  0.00    -0.248 NA
ATOM     53  C   UNL A   1      41.616  31.744  37.038  1.00  0.00     0.031 C 
ATOM     54  C   UNL A   1      43.290  27.858  32.689  1.00  0.00     0.029 A 
ATOM     55  C   UNL A   1      42.637  28.865  33.381  1.00  0.00     0.049 A 
ATOM     56  H   UNL A   1      40.932  29.971  32.822  1.00  0.00     0.167 HD
ATOM     57  C   UNL A   1      42.235  30.371  35.308  1.00  0.00     0.074 A 
ATOM     58  C   UNL A   1      42.522  30.859  36.642  1.00  0.00     0.031 C 
ATOM     59  C   UNL A   1      42.946  29.404  34.681  1.00  0.00     0.034 A 
BRANCH  46  60
ATOM     60  C   UNL A   1      40.692  27.793  29.155  1.00  0.00     0.023 A 
ATOM     61  C   UNL A   1      39.856  26.659  29.088  1.00  0.00     0.012 A 
ATOM     62  C   UNL A   1      41.557  28.076  28.081  1.00  0.00     0.148 A 
ATOM     63  C   UNL A   1      39.908  25.800  27.993  1.00  0.00     0.002 A 
ATOM     64  C   UNL A   1      41.572  27.238  26.971  1.00  0.00     0.091 A 
ATOM     65  F   UNL A   1      42.359  29.146  28.168  1.00  0.00    -0.205 F 
ATOM     66  C   UNL A   1      40.758  26.094  26.931  1.00  0.00     0.022 A 
BRANCH  64  67
ATOM     67  S   UNL A   1      42.574  27.573  25.517  1.00  0.00     0.127 S 
ATOM     68  O   UNL A   1      43.923  27.573  26.082  1.00  0.00    -0.237 OA
ATOM     69  O   UNL A   1      42.271  26.426  24.662  1.00  0.00    -0.237 OA
ATOM     70  O   UNL A   1      42.111  28.854  25.000  1.00  0.00    -0.744 OA
ENDBRANCH  64  67
ENDBRANCH  46  60
BRANCH  47  71
ATOM     71  C   UNL A   1      39.471  33.751  37.083  1.00  0.00     0.023 A 
ATOM     72  C   UNL A   1      39.921  35.086  37.055  1.00  0.00     0.012 A 
ATOM     73  C   UNL A   1      38.810  33.274  38.231  1.00  0.00     0.148 A 
ATOM     74  C   UNL A   1      39.744  35.921  38.159  1.00  0.00     0.002 A 
ATOM     75  C   UNL A   1      38.588  34.128  39.307  1.00  0.00     0.091 A 
ATOM     76  F   UNL A   1      38.399  31.998  38.245  1.00  0.00    -0.205 F 
ATOM     77  C   UNL A   1      39.069  35.447  39.280  1.00  0.00     0.022 A 
BRANCH  75  78
ATOM     78  S   UNL A   1      37.613  33.642  40.735  1.00  0.00     0.127 S 
ATOM     79  O   UNL A   1      36.426  33.069  40.108  1.00  0.00    -0.237 OA
ATOM     80  O   UNL A   1      38.493  32.672  41.389  1.00  0.00    -0.237 OA
ATOM     81  O   UNL A   1      37.402  34.866  41.498  1.00  0.00    -0.744 OA
ENDBRANCH  75  78
ENDBRANCH  47  71
BRANCH  59  82
ATOM     82  C   UNL A   1      44.132  28.825  35.407  1.00  0.00     0.023 A 
ATOM     83  C   UNL A   1      45.406  29.398  35.231  1.00  0.00     0.012 A 
ATOM     84  C   UNL A   1      43.967  27.769  36.325  1.00  0.00     0.148 A 
ATOM     85  C   UNL A   1      46.504  28.913  35.938  1.00  0.00     0.002 A 
ATOM     86  C   UNL A   1      45.058  27.321  37.061  1.00  0.00     0.091 A 
ATOM     87  F   UNL A   1      42.750  27.223  36.462  1.00  0.00    -0.205 F 
ATOM     88  C   UNL A   1      46.328  27.884  36.861  1.00  0.00     0.022 A 
BRANCH  86  89
ATOM     89  S   UNL A   1      44.901  26.067  38.338  1.00  0.00     0.127 S 
ATOM     90  O   UNL A   1      43.961  26.698  39.262  1.00  0.00    -0.237 OA
ATOM     91  O   UNL A   1      44.355  24.931  37.595  1.00  0.00    -0.237 OA
ATOM     92  O   UNL A   1      46.246  25.856  38.857  1.00  0.00    -0.744 OA
ENDBRANCH  86  89
ENDBRANCH  59  82
ENDBRANCH  33  34
ENDBRANCH  25  28
ENDBRANCH  23  24
ENDBRANCH   1  23
TORSDOF 16
ENDMDL
