MODEL 1
REMARK VINA RESULT:     -12.5      0.000      0.000
REMARK SMILES Cc1cc2c(c(C)c1Br)C=C(C(=O)NCCCCNC(=O)c1ccc(-c3c4nc(c(-c5cccc(S(=O)(=O)[O-])c5F)c5ccc([nH]5)c(-c5cccc(S(=O)(=O)[O-])c5F)c5nc(c(-c6cccc(S(=O)(=O)[O-])c6F)c6ccc3[nH]6)C=C5)C=C4)cc1)[C@@H](C(F)(F)F)O2
REMARK SMILES IDX 17 1 16 2 15 3 14 4 12 5 13 6 11 8 1 9 2 10 3 11 8 12 4 13
REMARK SMILES IDX 6 14 9 15 5 16 90 17 7 18 10 19 85 20 86 21 87 22 88 23
REMARK SMILES IDX 89 24 18 25 19 26 20 27 21 29 22 30 23 31 84 32 24 33 83 34
REMARK SMILES IDX 25 35 26 36 27 37 77 38 28 39 82 40 76 41 78 42 29 43 81 44
REMARK SMILES IDX 75 45 74 46 30 48 62 49 42 50 61 51 43 52 46 53 60 54 79 55
REMARK SMILES IDX 44 56 45 57 59 59 80 60 47 61 31 62 32 63 40 64 33 65 35 66
REMARK SMILES IDX 41 67 34 68 36 69 37 70 38 71 39 72 63 73 64 74 72 75 65 76
REMARK SMILES IDX 67 77 73 78 66 79 68 80 69 81 70 82 71 83 48 84 49 85 57 86
REMARK SMILES IDX 50 87 52 88 58 89 51 90 53 91 54 92 55 93 56 94
REMARK H PARENT 14 7 19 28 78 47 46 58
REMARK Flexibility Score: inf
ROOT
ATOM      1  C   UNL A   1      31.831  31.594  26.600  1.00  0.00     0.023 C 
ENDROOT
BRANCH   1   2
ATOM      2  C   UNL A   1      31.809  30.081  26.824  1.00  0.00     0.023 C 
BRANCH   2   3
ATOM      3  C   UNL A   1      33.175  29.414  26.698  1.00  0.00     0.116 C 
BRANCH   3   4
ATOM      4  N   UNL A   1      33.650  29.401  25.325  1.00  0.00    -0.352 N 
ATOM      5  C   UNL A   1      33.705  28.513  24.307  1.00  0.00     0.251 C 
ATOM      6  O   UNL A   1      34.209  28.936  23.262  1.00  0.00    -0.270 OA
ATOM      7  H   UNL A   1      34.033  30.271  25.068  1.00  0.00     0.163 HD
BRANCH   5   8
ATOM      8  C   UNL A   1      33.209  27.104  24.362  1.00  0.00     0.067 C 
ATOM      9  C   UNL A   1      32.275  20.701  25.091  1.00  0.00     0.046 C 
ATOM     10  C   UNL A   1      32.830  22.098  25.011  1.00  0.00    -0.033 A 
ATOM     11  C   UNL A   1      31.930  23.147  24.802  1.00  0.00     0.051 A 
ATOM     12  C   UNL A   1      34.208  22.392  25.105  1.00  0.00     0.024 A 
ATOM     13  C   UNL A   1      32.381  24.458  24.698  1.00  0.00     0.128 A 
ATOM     14  C   UNL A   1      34.679  23.728  25.020  1.00  0.00    -0.026 A 
ATOM     15  Br  UNL A   1      35.428  20.935  25.348  1.00  0.00    -0.050 Br
ATOM     16  C   UNL A   1      33.737  24.768  24.821  1.00  0.00     0.021 A 
ATOM     17  O   UNL A   1      31.407  25.400  24.517  1.00  0.00    -0.475 OA
ATOM     18  C   UNL A   1      36.144  24.082  25.140  1.00  0.00     0.046 C 
ATOM     19  C   UNL A   1      34.106  26.188  24.772  1.00  0.00     0.026 C 
ATOM     20  C   UNL A   1      31.832  26.671  23.959  1.00  0.00     0.314 C 
BRANCH  20  21
ATOM     21  C   UNL A   1      31.637  26.650  22.431  1.00  0.00     0.429 C 
ATOM     22  F   UNL A   1      30.934  25.549  22.059  1.00  0.00    -0.167 F 
ATOM     23  F   UNL A   1      30.944  27.719  21.977  1.00  0.00    -0.167 F 
ATOM     24  F   UNL A   1      32.810  26.624  21.757  1.00  0.00    -0.167 F 
ENDBRANCH  20  21
ENDBRANCH   5   8
ENDBRANCH   3   4
ENDBRANCH   2   3
ENDBRANCH   1   2
BRANCH   1  25
ATOM     25  C   UNL A   1      32.914  32.355  27.364  1.00  0.00     0.116 C 
BRANCH  25  26
ATOM     26  N   UNL A   1      32.552  33.732  27.676  1.00  0.00    -0.352 N 
ATOM     27  C   UNL A   1      33.135  34.571  28.596  1.00  0.00     0.251 C 
ATOM     28  H   UNL A   1      31.799  34.107  27.166  1.00  0.00     0.163 HD
ATOM     29  O   UNL A   1      32.672  35.686  28.808  1.00  0.00    -0.269 OA
BRANCH  27  30
ATOM     30  C   UNL A   1      34.306  34.086  29.350  1.00  0.00     0.039 A 
ATOM     31  C   UNL A   1      34.100  33.271  30.464  1.00  0.00     0.014 A 
ATOM     32  C   UNL A   1      35.597  34.374  28.900  1.00  0.00     0.014 A 
ATOM     33  C   UNL A   1      35.199  32.688  31.095  1.00  0.00     0.010 A 
ATOM     34  C   UNL A   1      36.683  33.740  29.490  1.00  0.00     0.010 A 
ATOM     35  C   UNL A   1      36.494  32.894  30.593  1.00  0.00    -0.014 A 
BRANCH  35  36
ATOM     36  C   UNL A   1      37.666  32.236  31.215  1.00  0.00     0.031 A 
ATOM     37  C   UNL A   1      38.198  32.739  32.527  1.00  0.00     0.074 A 
ATOM     38  C   UNL A   1      38.288  31.230  30.569  1.00  0.00     0.049 A 
ATOM     39  N   UNL A   1      39.214  32.304  33.223  1.00  0.00    -0.248 NA
ATOM     40  C   UNL A   1      37.513  33.899  33.123  1.00  0.00     0.031 C 
ATOM     41  C   UNL A   1      37.908  30.709  29.254  1.00  0.00     0.029 A 
ATOM     42  N   UNL A   1      39.376  30.475  30.924  1.00  0.00    -0.354 N 
ATOM     43  C   UNL A   1      39.304  33.145  34.324  1.00  0.00     0.074 A 
ATOM     44  C   UNL A   1      38.273  34.148  34.180  1.00  0.00     0.031 C 
ATOM     45  C   UNL A   1      38.737  29.705  28.924  1.00  0.00     0.029 A 
ATOM     46  C   UNL A   1      39.715  29.522  29.992  1.00  0.00     0.049 A 
ATOM     47  H   UNL A   1      39.868  30.603  31.767  1.00  0.00     0.167 HD
ATOM     48  C   UNL A   1      40.139  33.062  35.386  1.00  0.00     0.034 A 
ATOM     49  C   UNL A   1      40.694  28.595  30.007  1.00  0.00     0.034 A 
ATOM     50  C   UNL A   1      41.123  32.029  35.551  1.00  0.00     0.049 A 
ATOM     51  C   UNL A   1      41.594  28.505  31.211  1.00  0.00     0.074 A 
ATOM     52  C   UNL A   1      41.957  31.802  36.630  1.00  0.00     0.029 A 
ATOM     53  N   UNL A   1      41.404  31.048  34.612  1.00  0.00    -0.354 N 
ATOM     54  N   UNL A   1      41.560  29.208  32.317  1.00  0.00    -0.248 NA
ATOM     55  C   UNL A   1      42.644  27.478  31.184  1.00  0.00     0.031 C 
ATOM     56  C   UNL A   1      42.748  30.686  36.340  1.00  0.00     0.029 A 
ATOM     57  C   UNL A   1      42.404  30.216  35.082  1.00  0.00     0.049 A 
ATOM     58  H   UNL A   1      40.957  30.958  33.740  1.00  0.00     0.167 HD
ATOM     59  C   UNL A   1      42.569  28.697  33.126  1.00  0.00     0.074 A 
ATOM     60  C   UNL A   1      43.180  27.607  32.392  1.00  0.00     0.031 C 
ATOM     61  C   UNL A   1      42.968  29.107  34.356  1.00  0.00     0.034 A 
BRANCH  48  62
ATOM     62  C   UNL A   1      39.956  34.065  36.492  1.00  0.00     0.023 A 
ATOM     63  C   UNL A   1      40.262  35.418  36.242  1.00  0.00     0.012 A 
ATOM     64  C   UNL A   1      39.445  33.689  37.748  1.00  0.00     0.148 A 
ATOM     65  C   UNL A   1      40.092  36.380  37.237  1.00  0.00     0.002 A 
ATOM     66  C   UNL A   1      39.243  34.660  38.723  1.00  0.00     0.091 A 
ATOM     67  F   UNL A   1      39.185  32.394  37.974  1.00  0.00    -0.205 F 
ATOM     68  C   UNL A   1      39.574  36.003  38.471  1.00  0.00     0.022 A 
BRANCH  66  69
ATOM     69  S   UNL A   1      38.517  34.288  40.323  1.00  0.00     0.127 S 
ATOM     70  O   UNL A   1      39.571  33.489  40.946  1.00  0.00    -0.237 OA
ATOM     71  O   UNL A   1      38.339  35.620  40.902  1.00  0.00    -0.237 OA
ATOM     72  O   UNL A   1      37.275  33.581  40.042  1.00  0.00    -0.744 OA
ENDBRANCH  66  69
ENDBRANCH  48  62
BRANCH  49  73
ATOM     73  C   UNL A   1      40.797  27.614  28.891  1.00  0.00     0.023 A 
ATOM     74  C   UNL A   1      39.862  26.562  28.821  1.00  0.00     0.012 A 
ATOM     75  C   UNL A   1      41.758  27.745  27.870  1.00  0.00     0.148 A 
ATOM     76  C   UNL A   1      39.891  25.651  27.766  1.00  0.00     0.002 A 
ATOM     77  C   UNL A   1      41.751  26.862  26.794  1.00  0.00     0.091 A 
ATOM     78  F   UNL A   1      42.647  28.744  27.960  1.00  0.00    -0.205 F 
ATOM     79  C   UNL A   1      40.826  25.807  26.748  1.00  0.00     0.022 A 
BRANCH  77  80
ATOM     80  S   UNL A   1      42.831  27.063  25.372  1.00  0.00     0.127 S 
ATOM     81  O   UNL A   1      44.136  27.225  26.007  1.00  0.00    -0.237 OA
ATOM     82  O   UNL A   1      42.641  25.795  24.667  1.00  0.00    -0.237 OA
ATOM     83  O   UNL A   1      42.325  28.227  24.657  1.00  0.00    -0.744 OA
ENDBRANCH  77  80
ENDBRANCH  49  73
BRANCH  61  84
ATOM     84  C   UNL A   1      44.126  28.391  34.997  1.00  0.00     0.023 A 
ATOM     85  C   UNL A   1      45.439  28.753  34.635  1.00  0.00     0.012 A 
ATOM     86  C   UNL A   1      43.923  27.465  36.038  1.00  0.00     0.148 A 
ATOM     87  C   UNL A   1      46.534  28.196  35.294  1.00  0.00     0.002 A 
ATOM     88  C   UNL A   1      45.018  26.947  36.721  1.00  0.00     0.091 A 
ATOM     89  F   UNL A   1      42.666  27.124  36.355  1.00  0.00    -0.205 F 
ATOM     90  C   UNL A   1      46.323  27.306  36.345  1.00  0.00     0.022 A 
BRANCH  88  91
ATOM     91  S   UNL A   1      44.843  25.874  38.151  1.00  0.00     0.127 S 
ATOM     92  O   UNL A   1      44.603  24.577  37.522  1.00  0.00    -0.237 OA
ATOM     93  O   UNL A   1      46.148  26.005  38.800  1.00  0.00    -0.237 OA
ATOM     94  O   UNL A   1      43.730  26.412  38.921  1.00  0.00    -0.744 OA
ENDBRANCH  88  91
ENDBRANCH  61  84
ENDBRANCH  35  36
ENDBRANCH  27  30
ENDBRANCH  25  26
ENDBRANCH   1  25
TORSDOF 15
ENDMDL
MODEL 2
REMARK VINA RESULT:     -12.4      6.463     11.133
REMARK SMILES Cc1cc2c(c(C)c1Br)C=C(C(=O)NCCCCNC(=O)c1ccc(-c3c4nc(c(-c5cccc(S(=O)(=O)[O-])c5F)c5ccc([nH]5)c(-c5cccc(S(=O)(=O)[O-])c5F)c5nc(c(-c6cccc(S(=O)(=O)[O-])c6F)c6ccc3[nH]6)C=C5)C=C4)cc1)[C@@H](C(F)(F)F)O2
REMARK SMILES IDX 17 1 16 2 15 3 14 4 12 5 13 6 11 8 1 9 2 10 3 11 8 12 4 13
REMARK SMILES IDX 6 14 9 15 5 16 90 17 7 18 10 19 85 20 86 21 87 22 88 23
REMARK SMILES IDX 89 24 18 25 19 26 20 27 21 29 22 30 23 31 84 32 24 33 83 34
REMARK SMILES IDX 25 35 26 36 27 37 77 38 28 39 82 40 76 41 78 42 29 43 81 44
REMARK SMILES IDX 75 45 74 46 30 48 62 49 42 50 61 51 43 52 46 53 60 54 79 55
REMARK SMILES IDX 44 56 45 57 59 59 80 60 47 61 31 62 32 63 40 64 33 65 35 66
REMARK SMILES IDX 41 67 34 68 36 69 37 70 38 71 39 72 63 73 64 74 72 75 65 76
REMARK SMILES IDX 67 77 73 78 66 79 68 80 69 81 70 82 71 83 48 84 49 85 57 86
REMARK SMILES IDX 50 87 52 88 58 89 51 90 53 91 54 92 55 93 56 94
REMARK H PARENT 14 7 19 28 78 47 46 58
REMARK Flexibility Score: inf
ROOT
ATOM      1  C   UNL A   1      37.995  20.201  24.935  1.00  0.00     0.023 C 
ENDROOT
BRANCH   1   2
ATOM      2  C   UNL A   1      36.771  21.101  25.118  1.00  0.00     0.023 C 
BRANCH   2   3
ATOM      3  C   UNL A   1      35.438  20.367  25.006  1.00  0.00     0.116 C 
BRANCH   3   4
ATOM      4  N   UNL A   1      34.472  20.844  25.980  1.00  0.00    -0.352 N 
ATOM      5  C   UNL A   1      33.725  21.956  26.168  1.00  0.00     0.251 C 
ATOM      6  O   UNL A   1      33.004  21.945  27.171  1.00  0.00    -0.270 OA
ATOM      7  H   UNL A   1      34.322  20.183  26.693  1.00  0.00     0.163 HD
BRANCH   5   8
ATOM      8  C   UNL A   1      33.713  23.151  25.272  1.00  0.00     0.067 C 
ATOM      9  C   UNL A   1      33.371  29.033  22.498  1.00  0.00     0.046 C 
ATOM     10  C   UNL A   1      33.328  27.850  23.428  1.00  0.00    -0.033 A 
ATOM     11  C   UNL A   1      33.858  26.640  22.971  1.00  0.00     0.051 A 
ATOM     12  C   UNL A   1      32.754  27.898  24.718  1.00  0.00     0.024 A 
ATOM     13  C   UNL A   1      33.831  25.505  23.773  1.00  0.00     0.128 A 
ATOM     14  C   UNL A   1      32.737  26.752  25.554  1.00  0.00    -0.026 A 
ATOM     15  Br  UNL A   1      31.995  29.555  25.308  1.00  0.00    -0.050 Br
ATOM     16  C   UNL A   1      33.295  25.545  25.063  1.00  0.00     0.021 A 
ATOM     17  O   UNL A   1      34.398  24.389  23.229  1.00  0.00    -0.475 OA
ATOM     18  C   UNL A   1      32.154  26.772  26.948  1.00  0.00     0.046 C 
ATOM     19  C   UNL A   1      33.380  24.315  25.860  1.00  0.00     0.026 C 
ATOM     20  C   UNL A   1      34.000  23.114  23.802  1.00  0.00     0.314 C 
BRANCH  20  21
ATOM     21  C   UNL A   1      32.837  22.525  22.982  1.00  0.00     0.429 C 
ATOM     22  F   UNL A   1      32.773  21.180  23.152  1.00  0.00    -0.167 F 
ATOM     23  F   UNL A   1      31.634  23.017  23.355  1.00  0.00    -0.167 F 
ATOM     24  F   UNL A   1      32.965  22.757  21.656  1.00  0.00    -0.167 F 
ENDBRANCH  20  21
ENDBRANCH   5   8
ENDBRANCH   3   4
ENDBRANCH   2   3
ENDBRANCH   1   2
BRANCH   1  25
ATOM     25  C   UNL A   1      39.117  20.405  25.953  1.00  0.00     0.116 C 
BRANCH  25  26
ATOM     26  N   UNL A   1      40.140  19.369  25.912  1.00  0.00    -0.352 N 
ATOM     27  C   UNL A   1      41.493  19.509  26.108  1.00  0.00     0.251 C 
ATOM     28  H   UNL A   1      39.823  18.456  25.721  1.00  0.00     0.163 HD
ATOM     29  O   UNL A   1      42.249  18.554  25.965  1.00  0.00    -0.269 OA
BRANCH  27  30
ATOM     30  C   UNL A   1      42.021  20.840  26.456  1.00  0.00     0.039 A 
ATOM     31  C   UNL A   1      42.238  21.767  25.435  1.00  0.00     0.014 A 
ATOM     32  C   UNL A   1      42.218  21.189  27.795  1.00  0.00     0.014 A 
ATOM     33  C   UNL A   1      42.596  23.074  25.765  1.00  0.00     0.010 A 
ATOM     34  C   UNL A   1      42.510  22.506  28.122  1.00  0.00     0.010 A 
ATOM     35  C   UNL A   1      42.704  23.460  27.111  1.00  0.00    -0.014 A 
BRANCH  35  36
ATOM     36  C   UNL A   1      43.025  24.858  27.480  1.00  0.00     0.031 A 
ATOM     37  C   UNL A   1      44.430  25.368  27.328  1.00  0.00     0.074 A 
ATOM     38  C   UNL A   1      42.069  25.644  28.011  1.00  0.00     0.049 A 
ATOM     39  N   UNL A   1      44.909  26.552  27.604  1.00  0.00    -0.248 NA
ATOM     40  C   UNL A   1      45.434  24.416  26.823  1.00  0.00     0.031 C 
ATOM     41  C   UNL A   1      40.689  25.233  28.278  1.00  0.00     0.029 A 
ATOM     42  N   UNL A   1      42.114  26.949  28.432  1.00  0.00    -0.354 N 
ATOM     43  C   UNL A   1      46.268  26.481  27.327  1.00  0.00     0.074 A 
ATOM     44  C   UNL A   1      46.549  25.126  26.910  1.00  0.00     0.031 C 
ATOM     45  C   UNL A   1      40.014  26.272  28.797  1.00  0.00     0.029 A 
ATOM     46  C   UNL A   1      40.914  27.416  28.916  1.00  0.00     0.049 A 
ATOM     47  H   UNL A   1      42.929  27.500  28.391  1.00  0.00     0.167 HD
ATOM     48  C   UNL A   1      47.191  27.470  27.368  1.00  0.00     0.034 A 
ATOM     49  C   UNL A   1      40.576  28.633  29.386  1.00  0.00     0.034 A 
ATOM     50  C   UNL A   1      46.894  28.828  27.727  1.00  0.00     0.049 A 
ATOM     51  C   UNL A   1      41.613  29.723  29.397  1.00  0.00     0.074 A 
ATOM     52  C   UNL A   1      47.737  29.924  27.714  1.00  0.00     0.029 A 
ATOM     53  N   UNL A   1      45.656  29.277  28.161  1.00  0.00    -0.354 N 
ATOM     54  N   UNL A   1      42.856  29.681  28.979  1.00  0.00    -0.248 NA
ATOM     55  C   UNL A   1      41.199  31.035  29.915  1.00  0.00     0.031 C 
ATOM     56  C   UNL A   1      47.009  31.037  28.147  1.00  0.00     0.029 A 
ATOM     57  C   UNL A   1      45.712  30.633  28.426  1.00  0.00     0.049 A 
ATOM     58  H   UNL A   1      44.856  28.714  28.264  1.00  0.00     0.167 HD
ATOM     59  C   UNL A   1      43.365  30.962  29.164  1.00  0.00     0.074 A 
ATOM     60  C   UNL A   1      42.288  31.764  29.708  1.00  0.00     0.031 C 
ATOM     61  C   UNL A   1      44.617  31.426  28.924  1.00  0.00     0.034 A 
BRANCH  48  62
ATOM     62  C   UNL A   1      48.588  27.132  26.925  1.00  0.00     0.023 A 
ATOM     63  C   UNL A   1      49.437  26.440  27.814  1.00  0.00     0.012 A 
ATOM     64  C   UNL A   1      49.047  27.449  25.634  1.00  0.00     0.148 A 
ATOM     65  C   UNL A   1      50.734  26.097  27.436  1.00  0.00     0.002 A 
ATOM     66  C   UNL A   1      50.330  27.069  25.251  1.00  0.00     0.091 A 
ATOM     67  F   UNL A   1      48.235  28.130  24.812  1.00  0.00    -0.205 F 
ATOM     68  C   UNL A   1      51.176  26.402  26.153  1.00  0.00     0.022 A 
BRANCH  66  69
ATOM     69  S   UNL A   1      50.969  27.356  23.597  1.00  0.00     0.127 S 
ATOM     70  O   UNL A   1      49.942  26.725  22.770  1.00  0.00    -0.237 OA
ATOM     71  O   UNL A   1      50.999  28.817  23.523  1.00  0.00    -0.237 OA
ATOM     72  O   UNL A   1      52.281  26.723  23.562  1.00  0.00    -0.744 OA
ENDBRANCH  66  69
ENDBRANCH  48  62
BRANCH  49  73
ATOM     73  C   UNL A   1      39.164  28.905  29.778  1.00  0.00     0.023 A 
ATOM     74  C   UNL A   1      38.751  28.596  31.089  1.00  0.00     0.012 A 
ATOM     75  C   UNL A   1      38.253  29.522  28.899  1.00  0.00     0.148 A 
ATOM     76  C   UNL A   1      37.453  28.881  31.513  1.00  0.00     0.002 A 
ATOM     77  C   UNL A   1      36.975  29.849  29.344  1.00  0.00     0.091 A 
ATOM     78  F   UNL A   1      38.660  29.797  27.652  1.00  0.00    -0.205 F 
ATOM     79  C   UNL A   1      36.570  29.517  30.646  1.00  0.00     0.022 A 
BRANCH  77  80
ATOM     80  S   UNL A   1      35.814  30.786  28.342  1.00  0.00     0.127 S 
ATOM     81  O   UNL A   1      35.280  29.753  27.458  1.00  0.00    -0.237 OA
ATOM     82  O   UNL A   1      34.875  31.279  29.351  1.00  0.00    -0.237 OA
ATOM     83  O   UNL A   1      36.603  31.826  27.698  1.00  0.00    -0.744 OA
ENDBRANCH  77  80
ENDBRANCH  49  73
BRANCH  61  84
ATOM     84  C   UNL A   1      44.911  32.864  29.255  1.00  0.00     0.023 A 
ATOM     85  C   UNL A   1      45.455  33.179  30.516  1.00  0.00     0.012 A 
ATOM     86  C   UNL A   1      44.775  33.876  28.286  1.00  0.00     0.148 A 
ATOM     87  C   UNL A   1      45.850  34.483  30.811  1.00  0.00     0.002 A 
ATOM     88  C   UNL A   1      45.212  35.165  28.570  1.00  0.00     0.091 A 
ATOM     89  F   UNL A   1      44.240  33.557  27.098  1.00  0.00    -0.205 F 
ATOM     90  C   UNL A   1      45.742  35.471  29.835  1.00  0.00     0.022 A 
BRANCH  88  91
ATOM     91  S   UNL A   1      45.207  36.479  27.344  1.00  0.00     0.127 S 
ATOM     92  O   UNL A   1      43.779  36.617  27.062  1.00  0.00    -0.237 OA
ATOM     93  O   UNL A   1      45.794  37.597  28.084  1.00  0.00    -0.237 OA
ATOM     94  O   UNL A   1      46.019  35.994  26.237  1.00  0.00    -0.744 OA
ENDBRANCH  88  91
ENDBRANCH  61  84
ENDBRANCH  35  36
ENDBRANCH  27  30
ENDBRANCH  25  26
ENDBRANCH   1  25
TORSDOF 15
ENDMDL
MODEL 3
REMARK VINA RESULT:     -12.4      3.256      4.350
REMARK SMILES Cc1cc2c(c(C)c1Br)C=C(C(=O)NCCCCNC(=O)c1ccc(-c3c4nc(c(-c5cccc(S(=O)(=O)[O-])c5F)c5ccc([nH]5)c(-c5cccc(S(=O)(=O)[O-])c5F)c5nc(c(-c6cccc(S(=O)(=O)[O-])c6F)c6ccc3[nH]6)C=C5)C=C4)cc1)[C@@H](C(F)(F)F)O2
REMARK SMILES IDX 17 1 16 2 15 3 14 4 12 5 13 6 11 8 1 9 2 10 3 11 8 12 4 13
REMARK SMILES IDX 6 14 9 15 5 16 90 17 7 18 10 19 85 20 86 21 87 22 88 23
REMARK SMILES IDX 89 24 18 25 19 26 20 27 21 29 22 30 23 31 84 32 24 33 83 34
REMARK SMILES IDX 25 35 26 36 27 37 77 38 28 39 82 40 76 41 78 42 29 43 81 44
REMARK SMILES IDX 75 45 74 46 30 48 62 49 42 50 61 51 43 52 46 53 60 54 79 55
REMARK SMILES IDX 44 56 45 57 59 59 80 60 47 61 31 62 32 63 40 64 33 65 35 66
REMARK SMILES IDX 41 67 34 68 36 69 37 70 38 71 39 72 63 73 64 74 72 75 65 76
REMARK SMILES IDX 67 77 73 78 66 79 68 80 69 81 70 82 71 83 48 84 49 85 57 86
REMARK SMILES IDX 50 87 52 88 58 89 51 90 53 91 54 92 55 93 56 94
REMARK H PARENT 14 7 19 28 78 47 46 58
REMARK Flexibility Score: inf
ROOT
ATOM      1  C   UNL A   1      32.983  28.965  27.207  1.00  0.00     0.023 C 
ENDROOT
BRANCH   1   2
ATOM      2  C   UNL A   1      31.578  29.067  26.610  1.00  0.00     0.023 C 
BRANCH   2   3
ATOM      3  C   UNL A   1      31.502  29.909  25.339  1.00  0.00     0.116 C 
BRANCH   3   4
ATOM      4  N   UNL A   1      30.645  29.302  24.336  1.00  0.00    -0.352 N 
ATOM      5  C   UNL A   1      30.676  28.209  23.540  1.00  0.00     0.251 C 
ATOM      6  O   UNL A   1      29.694  28.063  22.804  1.00  0.00    -0.270 OA
ATOM      7  H   UNL A   1      29.822  29.825  24.200  1.00  0.00     0.163 HD
BRANCH   5   8
ATOM      8  C   UNL A   1      31.779  27.203  23.496  1.00  0.00     0.067 C 
ATOM      9  C   UNL A   1      35.914  22.240  24.321  1.00  0.00     0.046 C 
ATOM     10  C   UNL A   1      34.808  23.255  24.430  1.00  0.00    -0.033 A 
ATOM     11  C   UNL A   1      34.652  24.166  23.380  1.00  0.00     0.051 A 
ATOM     12  C   UNL A   1      33.949  23.349  25.546  1.00  0.00     0.024 A 
ATOM     13  C   UNL A   1      33.662  25.141  23.429  1.00  0.00     0.128 A 
ATOM     14  C   UNL A   1      32.923  24.328  25.600  1.00  0.00    -0.026 A 
ATOM     15  Br  UNL A   1      34.208  22.120  26.993  1.00  0.00    -0.050 Br
ATOM     16  C   UNL A   1      32.784  25.227  24.512  1.00  0.00     0.021 A 
ATOM     17  O   UNL A   1      33.591  25.958  22.337  1.00  0.00    -0.475 OA
ATOM     18  C   UNL A   1      31.970  24.443  26.768  1.00  0.00     0.046 C 
ATOM     19  C   UNL A   1      31.727  26.242  24.437  1.00  0.00     0.026 C 
ATOM     20  C   UNL A   1      32.919  27.233  22.524  1.00  0.00     0.314 C 
BRANCH  20  21
ATOM     21  C   UNL A   1      33.961  28.316  22.859  1.00  0.00     0.429 C 
ATOM     22  F   UNL A   1      34.413  28.160  24.130  1.00  0.00    -0.167 F 
ATOM     23  F   UNL A   1      35.048  28.262  22.056  1.00  0.00    -0.167 F 
ATOM     24  F   UNL A   1      33.460  29.568  22.762  1.00  0.00    -0.167 F 
ENDBRANCH  20  21
ENDBRANCH   5   8
ENDBRANCH   3   4
ENDBRANCH   2   3
ENDBRANCH   1   2
BRANCH   1  25
ATOM     25  C   UNL A   1      33.937  30.100  26.837  1.00  0.00     0.116 C 
BRANCH  25  26
ATOM     26  N   UNL A   1      33.781  31.290  27.664  1.00  0.00    -0.352 N 
ATOM     27  C   UNL A   1      34.618  31.747  28.653  1.00  0.00     0.251 C 
ATOM     28  H   UNL A   1      32.978  31.833  27.492  1.00  0.00     0.163 HD
ATOM     29  O   UNL A   1      34.316  32.728  29.325  1.00  0.00    -0.269 OA
BRANCH  27  30
ATOM     30  C   UNL A   1      35.866  31.009  28.917  1.00  0.00     0.039 A 
ATOM     31  C   UNL A   1      37.066  31.511  28.411  1.00  0.00     0.014 A 
ATOM     32  C   UNL A   1      35.850  29.873  29.731  1.00  0.00     0.014 A 
ATOM     33  C   UNL A   1      38.268  30.905  28.776  1.00  0.00     0.010 A 
ATOM     34  C   UNL A   1      37.052  29.313  30.145  1.00  0.00     0.010 A 
ATOM     35  C   UNL A   1      38.270  29.822  29.670  1.00  0.00    -0.014 A 
BRANCH  35  36
ATOM     36  C   UNL A   1      39.540  29.204  30.115  1.00  0.00     0.031 A 
ATOM     37  C   UNL A   1      40.249  29.738  31.327  1.00  0.00     0.074 A 
ATOM     38  C   UNL A   1      40.087  28.208  29.390  1.00  0.00     0.049 A 
ATOM     39  N   UNL A   1      41.370  29.339  31.866  1.00  0.00    -0.248 NA
ATOM     40  C   UNL A   1      39.628  30.885  32.010  1.00  0.00     0.031 C 
ATOM     41  C   UNL A   1      39.530  27.660  28.151  1.00  0.00     0.029 A 
ATOM     42  N   UNL A   1      41.238  27.487  29.584  1.00  0.00    -0.354 N 
ATOM     43  C   UNL A   1      41.600  30.196  32.934  1.00  0.00     0.074 A 
ATOM     44  C   UNL A   1      40.530  31.168  32.939  1.00  0.00     0.031 C 
ATOM     45  C   UNL A   1      40.329  26.676  27.709  1.00  0.00     0.029 A 
ATOM     46  C   UNL A   1      41.461  26.532  28.619  1.00  0.00     0.049 A 
ATOM     47  H   UNL A   1      41.847  27.639  30.342  1.00  0.00     0.167 HD
ATOM     48  C   UNL A   1      42.586  30.149  33.859  1.00  0.00     0.034 A 
ATOM     49  C   UNL A   1      42.458  25.633  28.494  1.00  0.00     0.034 A 
ATOM     50  C   UNL A   1      43.614  29.146  33.883  1.00  0.00     0.049 A 
ATOM     51  C   UNL A   1      43.530  25.583  29.549  1.00  0.00     0.074 A 
ATOM     52  C   UNL A   1      44.606  28.955  34.826  1.00  0.00     0.029 A 
ATOM     53  N   UNL A   1      43.779  28.162  32.920  1.00  0.00    -0.354 N 
ATOM     54  N   UNL A   1      43.642  26.299  30.643  1.00  0.00    -0.248 NA
ATOM     55  C   UNL A   1      44.594  24.585  29.374  1.00  0.00     0.031 C 
ATOM     56  C   UNL A   1      45.377  27.858  34.430  1.00  0.00     0.029 A 
ATOM     57  C   UNL A   1      44.862  27.363  33.241  1.00  0.00     0.049 A 
ATOM     58  H   UNL A   1      43.209  28.048  32.126  1.00  0.00     0.167 HD
ATOM     59  C   UNL A   1      44.776  25.825  31.295  1.00  0.00     0.074 A 
ATOM     60  C   UNL A   1      45.301  24.743  30.486  1.00  0.00     0.031 C 
ATOM     61  C   UNL A   1      45.343  26.261  32.448  1.00  0.00     0.034 A 
BRANCH  48  62
ATOM     62  C   UNL A   1      42.542  31.160  34.972  1.00  0.00     0.023 A 
ATOM     63  C   UNL A   1      41.906  30.815  36.182  1.00  0.00     0.012 A 
ATOM     64  C   UNL A   1      43.160  32.418  34.847  1.00  0.00     0.148 A 
ATOM     65  C   UNL A   1      41.856  31.719  37.241  1.00  0.00     0.002 A 
ATOM     66  C   UNL A   1      43.139  33.300  35.922  1.00  0.00     0.091 A 
ATOM     67  F   UNL A   1      43.737  32.738  33.680  1.00  0.00    -0.205 F 
ATOM     68  C   UNL A   1      42.481  32.956  37.115  1.00  0.00     0.022 A 
BRANCH  66  69
ATOM     69  S   UNL A   1      43.972  34.891  35.884  1.00  0.00     0.127 S 
ATOM     70  O   UNL A   1      43.235  35.584  34.828  1.00  0.00    -0.237 OA
ATOM     71  O   UNL A   1      43.729  35.402  37.233  1.00  0.00    -0.237 OA
ATOM     72  O   UNL A   1      45.369  34.602  35.590  1.00  0.00    -0.744 OA
ENDBRANCH  66  69
ENDBRANCH  48  62
BRANCH  49  73
ATOM     73  C   UNL A   1      42.420  24.641  27.383  1.00  0.00     0.023 A 
ATOM     74  C   UNL A   1      43.272  24.827  26.276  1.00  0.00     0.012 A 
ATOM     75  C   UNL A   1      41.608  23.492  27.438  1.00  0.00     0.148 A 
ATOM     76  C   UNL A   1      43.306  23.896  25.238  1.00  0.00     0.002 A 
ATOM     77  C   UNL A   1      41.683  22.542  26.423  1.00  0.00     0.091 A 
ATOM     78  F   UNL A   1      40.795  23.339  28.493  1.00  0.00    -0.205 F 
ATOM     79  C   UNL A   1      42.521  22.750  25.317  1.00  0.00     0.022 A 
BRANCH  77  80
ATOM     80  S   UNL A   1      40.809  20.974  26.502  1.00  0.00     0.127 S 
ATOM     81  O   UNL A   1      41.653  20.119  25.671  1.00  0.00    -0.237 OA
ATOM     82  O   UNL A   1      40.851  20.677  27.934  1.00  0.00    -0.237 OA
ATOM     83  O   UNL A   1      39.474  21.242  25.984  1.00  0.00    -0.744 OA
ENDBRANCH  77  80
ENDBRANCH  49  73
BRANCH  61  84
ATOM     84  C   UNL A   1      46.604  25.586  32.913  1.00  0.00     0.023 A 
ATOM     85  C   UNL A   1      47.850  26.134  32.546  1.00  0.00     0.012 A 
ATOM     86  C   UNL A   1      46.561  24.500  33.808  1.00  0.00     0.148 A 
ATOM     87  C   UNL A   1      49.033  25.605  33.056  1.00  0.00     0.002 A 
ATOM     88  C   UNL A   1      47.742  24.006  34.348  1.00  0.00     0.091 A 
ATOM     89  F   UNL A   1      45.366  23.984  34.131  1.00  0.00    -0.205 F 
ATOM     90  C   UNL A   1      48.979  24.552  33.967  1.00  0.00     0.022 A 
BRANCH  88  91
ATOM     91  S   UNL A   1      47.767  22.721  35.604  1.00  0.00     0.127 S 
ATOM     92  O   UNL A   1      46.910  21.701  35.002  1.00  0.00    -0.237 OA
ATOM     93  O   UNL A   1      49.186  22.369  35.663  1.00  0.00    -0.237 OA
ATOM     94  O   UNL A   1      47.247  23.338  36.817  1.00  0.00    -0.744 OA
ENDBRANCH  88  91
ENDBRANCH  61  84
ENDBRANCH  35  36
ENDBRANCH  27  30
ENDBRANCH  25  26
ENDBRANCH   1  25
TORSDOF 15
ENDMDL
