MODEL 1
REMARK VINA RESULT:     -13.1      0.000      0.000
REMARK SMILES Cc1ccccc1Nc1nc2c(c(=O)[nH]c(=O)n2C)n1CC(=O)NCCCCNC(=O)c1ccc(-c2c3nc(c(-c4cccc(S(=O)(=O)[O-])c4F)c4ccc([nH]4)c(-c4cccc(S(=O)(=O)[O-])c4F)c4nc(c(-c5cccc(S(=O)(=O)[O-])c5F)c5ccc2[nH]5)C=C4)C=C3)cc1
REMARK SMILES IDX 26 1 25 2 24 3 22 4 23 5 21 7 20 8 9 9 10 10 11 11 12 12
REMARK SMILES IDX 18 13 13 14 16 15 19 16 14 17 15 18 17 19 8 21 7 23 1 24
REMARK SMILES IDX 2 25 3 26 4 27 6 28 5 29 27 30 28 31 29 32 30 33 31 35 32 36
REMARK SMILES IDX 33 37 94 38 34 39 93 40 35 41 36 42 37 43 87 44 38 45 92 46
REMARK SMILES IDX 86 47 88 48 39 49 91 50 85 51 84 52 40 54 72 55 52 56 71 57
REMARK SMILES IDX 53 58 56 59 70 60 89 61 54 62 55 63 69 65 90 66 57 67 41 68
REMARK SMILES IDX 42 69 50 70 43 71 45 72 51 73 44 74 46 75 47 76 48 77 49 78
REMARK SMILES IDX 73 79 74 80 82 81 75 82 77 83 83 84 76 85 78 86 79 87 80 88
REMARK SMILES IDX 81 89 58 90 59 91 67 92 60 93 62 94 68 95 61 96 63 97 64 98
REMARK SMILES IDX 65 99 66 100
REMARK H PARENT 24 6 15 20 8 22 29 34 88 53 56 64
REMARK Flexibility Score: inf
ROOT
ATOM      1  C   UNL A   1      32.604  28.842  26.412  1.00  0.00     0.023 C 
ENDROOT
BRANCH   1   2
ATOM      2  C   UNL A   1      33.157  27.406  26.433  1.00  0.00     0.116 C 
BRANCH   2   3
ATOM      3  N   UNL A   1      32.192  26.343  26.656  1.00  0.00    -0.355 N 
ATOM      4  C   UNL A   1      32.266  24.989  26.498  1.00  0.00     0.240 C 
ATOM      5  O   UNL A   1      31.392  24.317  27.061  1.00  0.00    -0.273 OA
ATOM      6  H   UNL A   1      31.320  26.660  26.986  1.00  0.00     0.163 HD
BRANCH   4   7
ATOM      7  C   UNL A   1      33.368  24.274  25.745  1.00  0.00     0.226 C 
BRANCH   7   8
ATOM      8  N   UNL A   1      32.980  23.141  24.926  1.00  0.00    -0.295 N 
ATOM      9  C   UNL A   1      32.516  23.142  23.610  1.00  0.00     0.210 A 
ATOM     10  N   UNL A   1      32.210  21.912  23.232  1.00  0.00    -0.194 NA
ATOM     11  C   UNL A   1      32.511  21.112  24.290  1.00  0.00     0.170 A 
ATOM     12  C   UNL A   1      32.891  21.839  25.377  1.00  0.00     0.154 A 
ATOM     13  N   UNL A   1      32.502  19.730  24.307  1.00  0.00    -0.279 N 
ATOM     14  C   UNL A   1      33.218  21.228  26.629  1.00  0.00     0.279 A 
ATOM     15  C   UNL A   1      32.894  19.070  25.468  1.00  0.00     0.329 A 
ATOM     16  C   UNL A   1      32.167  18.974  23.120  1.00  0.00     0.157 C 
ATOM     17  O   UNL A   1      33.489  21.812  27.657  1.00  0.00    -0.267 OA
ATOM     18  N   UNL A   1      33.224  19.850  26.554  1.00  0.00    -0.272 N 
ATOM     19  O   UNL A   1      32.958  17.844  25.577  1.00  0.00    -0.248 OA
ATOM     20  H   UNL A   1      33.494  19.370  27.371  1.00  0.00     0.175 HD
BRANCH   9  21
ATOM     21  N   UNL A   1      32.305  24.253  22.852  1.00  0.00    -0.325 N 
ATOM     22  H   UNL A   1      32.769  24.274  21.984  1.00  0.00     0.170 HD
BRANCH  21  23
ATOM     23  C   UNL A   1      31.502  25.386  23.155  1.00  0.00     0.044 A 
ATOM     24  C   UNL A   1      33.381  27.050  22.657  1.00  0.00     0.046 C 
ATOM     25  C   UNL A   1      31.960  26.705  22.993  1.00  0.00    -0.027 A 
ATOM     26  C   UNL A   1      31.075  27.791  23.202  1.00  0.00     0.005 A 
ATOM     27  C   UNL A   1      29.754  27.587  23.590  1.00  0.00     0.000 A 
ATOM     28  C   UNL A   1      30.199  25.230  23.621  1.00  0.00     0.026 A 
ATOM     29  C   UNL A   1      29.319  26.297  23.823  1.00  0.00     0.002 A 
ENDBRANCH  21  23
ENDBRANCH   9  21
ENDBRANCH   7   8
ENDBRANCH   4   7
ENDBRANCH   2   3
ENDBRANCH   1   2
BRANCH   1  30
ATOM     30  C   UNL A   1      33.587  30.009  26.429  1.00  0.00     0.023 C 
BRANCH  30  31
ATOM     31  C   UNL A   1      33.593  30.814  27.695  1.00  0.00     0.116 C 
BRANCH  31  32
ATOM     32  N   UNL A   1      34.649  31.788  27.740  1.00  0.00    -0.352 N 
ATOM     33  C   UNL A   1      35.896  31.647  28.314  1.00  0.00     0.251 C 
ATOM     34  H   UNL A   1      34.461  32.655  27.312  1.00  0.00     0.163 HD
ATOM     35  O   UNL A   1      36.497  32.665  28.641  1.00  0.00    -0.269 OA
BRANCH  33  36
ATOM     36  C   UNL A   1      36.554  30.309  28.336  1.00  0.00     0.039 A 
ATOM     37  C   UNL A   1      36.690  29.735  29.605  1.00  0.00     0.014 A 
ATOM     38  C   UNL A   1      37.362  29.870  27.292  1.00  0.00     0.014 A 
ATOM     39  C   UNL A   1      37.846  29.035  29.911  1.00  0.00     0.010 A 
ATOM     40  C   UNL A   1      38.558  29.286  27.607  1.00  0.00     0.010 A 
ATOM     41  C   UNL A   1      38.827  28.967  28.938  1.00  0.00    -0.014 A 
BRANCH  41  42
ATOM     42  C   UNL A   1      40.181  28.522  29.149  1.00  0.00     0.031 A 
ATOM     43  C   UNL A   1      40.456  27.094  28.992  1.00  0.00     0.074 A 
ATOM     44  C   UNL A   1      41.136  29.474  29.128  1.00  0.00     0.049 A 
ATOM     45  N   UNL A   1      41.580  26.540  29.260  1.00  0.00    -0.248 NA
ATOM     46  C   UNL A   1      39.439  26.157  28.523  1.00  0.00     0.031 C 
ATOM     47  C   UNL A   1      42.531  29.351  28.731  1.00  0.00     0.029 A 
ATOM     48  N   UNL A   1      41.049  30.791  29.539  1.00  0.00    -0.354 N 
ATOM     49  C   UNL A   1      41.556  25.299  28.661  1.00  0.00     0.074 A 
ATOM     50  C   UNL A   1      40.166  25.047  28.384  1.00  0.00     0.031 C 
ATOM     51  C   UNL A   1      43.201  30.446  29.137  1.00  0.00     0.029 A 
ATOM     52  C   UNL A   1      42.301  31.209  29.987  1.00  0.00     0.049 A 
ATOM     53  H   UNL A   1      40.234  31.343  29.519  1.00  0.00     0.167 HD
ATOM     54  C   UNL A   1      42.748  24.752  28.293  1.00  0.00     0.034 A 
ATOM     55  C   UNL A   1      42.504  31.421  31.329  1.00  0.00     0.034 A 
ATOM     56  C   UNL A   1      43.858  25.571  28.824  1.00  0.00     0.049 A 
ATOM     57  C   UNL A   1      43.427  30.385  31.964  1.00  0.00     0.074 A 
ATOM     58  C   UNL A   1      44.712  26.499  28.248  1.00  0.00     0.029 A 
ATOM     59  N   UNL A   1      43.973  25.746  30.203  1.00  0.00    -0.354 N 
ATOM     60  N   UNL A   1      43.827  29.293  31.370  1.00  0.00    -0.248 NA
ATOM     61  C   UNL A   1      43.994  30.508  33.304  1.00  0.00     0.031 C 
ATOM     62  C   UNL A   1      45.253  27.305  29.293  1.00  0.00     0.029 A 
ATOM     63  C   UNL A   1      44.761  26.847  30.505  1.00  0.00     0.049 A 
ATOM     64  H   UNL A   1      43.549  25.164  30.873  1.00  0.00     0.167 HD
ATOM     65  C   UNL A   1      44.572  28.523  32.224  1.00  0.00     0.074 A 
ATOM     66  C   UNL A   1      44.710  29.371  33.399  1.00  0.00     0.031 C 
ATOM     67  C   UNL A   1      44.964  27.247  31.900  1.00  0.00     0.034 A 
BRANCH  54  68
ATOM     68  C   UNL A   1      42.948  23.673  27.231  1.00  0.00     0.023 A 
ATOM     69  C   UNL A   1      43.601  24.072  26.042  1.00  0.00     0.012 A 
ATOM     70  C   UNL A   1      42.496  22.330  27.253  1.00  0.00     0.148 A 
ATOM     71  C   UNL A   1      43.745  23.228  24.934  1.00  0.00     0.002 A 
ATOM     72  C   UNL A   1      42.638  21.482  26.148  1.00  0.00     0.091 A 
ATOM     73  F   UNL A   1      41.927  21.824  28.343  1.00  0.00    -0.205 F 
ATOM     74  C   UNL A   1      43.254  21.933  24.981  1.00  0.00     0.022 A 
BRANCH  72  75
ATOM     75  S   UNL A   1      42.026  19.782  26.135  1.00  0.00     0.127 S 
ATOM     76  O   UNL A   1      40.580  19.979  26.008  1.00  0.00    -0.237 OA
ATOM     77  O   UNL A   1      42.669  19.229  24.945  1.00  0.00    -0.237 OA
ATOM     78  O   UNL A   1      42.441  19.177  27.395  1.00  0.00    -0.744 OA
ENDBRANCH  72  75
ENDBRANCH  54  68
BRANCH  55  79
ATOM     79  C   UNL A   1      41.303  32.051  31.974  1.00  0.00     0.023 A 
ATOM     80  C   UNL A   1      40.853  33.268  31.398  1.00  0.00     0.012 A 
ATOM     81  C   UNL A   1      40.396  31.294  32.738  1.00  0.00     0.148 A 
ATOM     82  C   UNL A   1      39.497  33.600  31.391  1.00  0.00     0.002 A 
ATOM     83  C   UNL A   1      39.045  31.649  32.751  1.00  0.00     0.091 A 
ATOM     84  F   UNL A   1      40.845  30.212  33.386  1.00  0.00    -0.205 F 
ATOM     85  C   UNL A   1      38.586  32.762  32.025  1.00  0.00     0.022 A 
BRANCH  83  86
ATOM     86  S   UNL A   1      37.823  30.646  33.611  1.00  0.00     0.127 S 
ATOM     87  O   UNL A   1      37.950  31.138  34.980  1.00  0.00    -0.237 OA
ATOM     88  O   UNL A   1      36.573  31.015  32.949  1.00  0.00    -0.237 OA
ATOM     89  O   UNL A   1      38.237  29.270  33.381  1.00  0.00    -0.744 OA
ENDBRANCH  83  86
ENDBRANCH  55  79
BRANCH  67  90
ATOM     90  C   UNL A   1      45.574  26.236  32.863  1.00  0.00     0.023 A 
ATOM     91  C   UNL A   1      46.942  26.224  33.189  1.00  0.00     0.012 A 
ATOM     92  C   UNL A   1      44.751  25.332  33.590  1.00  0.00     0.148 A 
ATOM     93  C   UNL A   1      47.480  25.330  34.123  1.00  0.00     0.002 A 
ATOM     94  C   UNL A   1      45.268  24.542  34.614  1.00  0.00     0.091 A 
ATOM     95  F   UNL A   1      43.453  25.202  33.281  1.00  0.00    -0.205 F 
ATOM     96  C   UNL A   1      46.640  24.507  34.856  1.00  0.00     0.022 A 
BRANCH  94  97
ATOM     97  S   UNL A   1      44.186  23.676  35.760  1.00  0.00     0.127 S 
ATOM     98  O   UNL A   1      42.984  23.478  34.951  1.00  0.00    -0.237 OA
ATOM     99  O   UNL A   1      44.941  22.454  36.039  1.00  0.00    -0.237 OA
ATOM    100  O   UNL A   1      44.050  24.565  36.906  1.00  0.00    -0.744 OA
ENDBRANCH  94  97
ENDBRANCH  67  90
ENDBRANCH  41  42
ENDBRANCH  33  36
ENDBRANCH  31  32
ENDBRANCH  30  31
ENDBRANCH   1  30
TORSDOF 17
ENDMDL
MODEL 2
REMARK VINA RESULT:     -12.8      3.873      9.247
REMARK SMILES Cc1ccccc1Nc1nc2c(c(=O)[nH]c(=O)n2C)n1CC(=O)NCCCCNC(=O)c1ccc(-c2c3nc(c(-c4cccc(S(=O)(=O)[O-])c4F)c4ccc([nH]4)c(-c4cccc(S(=O)(=O)[O-])c4F)c4nc(c(-c5cccc(S(=O)(=O)[O-])c5F)c5ccc2[nH]5)C=C4)C=C3)cc1
REMARK SMILES IDX 26 1 25 2 24 3 22 4 23 5 21 7 20 8 9 9 10 10 11 11 12 12
REMARK SMILES IDX 18 13 13 14 16 15 19 16 14 17 15 18 17 19 8 21 7 23 1 24
REMARK SMILES IDX 2 25 3 26 4 27 6 28 5 29 27 30 28 31 29 32 30 33 31 35 32 36
REMARK SMILES IDX 33 37 94 38 34 39 93 40 35 41 36 42 37 43 87 44 38 45 92 46
REMARK SMILES IDX 86 47 88 48 39 49 91 50 85 51 84 52 40 54 72 55 52 56 71 57
REMARK SMILES IDX 53 58 56 59 70 60 89 61 54 62 55 63 69 65 90 66 57 67 41 68
REMARK SMILES IDX 42 69 50 70 43 71 45 72 51 73 44 74 46 75 47 76 48 77 49 78
REMARK SMILES IDX 73 79 74 80 82 81 75 82 77 83 83 84 76 85 78 86 79 87 80 88
REMARK SMILES IDX 81 89 58 90 59 91 67 92 60 93 62 94 68 95 61 96 63 97 64 98
REMARK SMILES IDX 65 99 66 100
REMARK H PARENT 24 6 15 20 8 22 29 34 88 53 56 64
REMARK Flexibility Score: inf
ROOT
ATOM      1  C   UNL A   1      36.430  21.477  25.365  1.00  0.00     0.023 C 
ENDROOT
BRANCH   1   2
ATOM      2  C   UNL A   1      36.143  22.937  24.973  1.00  0.00     0.116 C 
BRANCH   2   3
ATOM      3  N   UNL A   1      35.328  23.143  23.788  1.00  0.00    -0.355 N 
ATOM      4  C   UNL A   1      34.472  24.143  23.426  1.00  0.00     0.240 C 
ATOM      5  O   UNL A   1      34.162  24.200  22.228  1.00  0.00    -0.273 OA
ATOM      6  H   UNL A   1      35.410  22.425  23.119  1.00  0.00     0.163 HD
BRANCH   4   7
ATOM      7  C   UNL A   1      33.946  25.203  24.369  1.00  0.00     0.226 C 
BRANCH   7   8
ATOM      8  N   UNL A   1      32.535  25.529  24.276  1.00  0.00    -0.295 N 
ATOM      9  C   UNL A   1      31.457  24.892  24.892  1.00  0.00     0.210 A 
ATOM     10  N   UNL A   1      30.319  25.447  24.511  1.00  0.00    -0.194 NA
ATOM     11  C   UNL A   1      30.664  26.466  23.678  1.00  0.00     0.170 A 
ATOM     12  C   UNL A   1      32.003  26.484  23.434  1.00  0.00     0.154 A 
ATOM     13  N   UNL A   1      29.817  27.425  23.155  1.00  0.00    -0.279 N 
ATOM     14  C   UNL A   1      32.607  27.436  22.552  1.00  0.00     0.279 A 
ATOM     15  C   UNL A   1      30.352  28.433  22.360  1.00  0.00     0.329 A 
ATOM     16  C   UNL A   1      28.408  27.433  23.487  1.00  0.00     0.157 C 
ATOM     17  O   UNL A   1      33.774  27.466  22.227  1.00  0.00    -0.267 OA
ATOM     18  N   UNL A   1      31.705  28.380  22.103  1.00  0.00    -0.272 N 
ATOM     19  O   UNL A   1      29.693  29.355  21.876  1.00  0.00    -0.248 OA
ATOM     20  H   UNL A   1      32.070  29.096  21.535  1.00  0.00     0.175 HD
BRANCH   9  21
ATOM     21  N   UNL A   1      31.545  23.791  25.689  1.00  0.00    -0.325 N 
ATOM     22  H   UNL A   1      31.168  23.885  26.593  1.00  0.00     0.170 HD
BRANCH  21  23
ATOM     23  C   UNL A   1      32.114  22.525  25.381  1.00  0.00     0.044 A 
ATOM     24  C   UNL A   1      33.317  22.342  27.632  1.00  0.00     0.046 C 
ATOM     25  C   UNL A   1      32.879  21.793  26.306  1.00  0.00    -0.027 A 
ATOM     26  C   UNL A   1      33.322  20.488  25.980  1.00  0.00     0.005 A 
ATOM     27  C   UNL A   1      33.037  19.911  24.746  1.00  0.00     0.000 A 
ATOM     28  C   UNL A   1      31.921  21.943  24.131  1.00  0.00     0.026 A 
ATOM     29  C   UNL A   1      32.350  20.653  23.806  1.00  0.00     0.002 A 
ENDBRANCH  21  23
ENDBRANCH   9  21
ENDBRANCH   7   8
ENDBRANCH   4   7
ENDBRANCH   2   3
ENDBRANCH   1   2
BRANCH   1  30
ATOM     30  C   UNL A   1      37.880  21.016  25.475  1.00  0.00     0.023 C 
BRANCH  30  31
ATOM     31  C   UNL A   1      38.896  22.119  25.490  1.00  0.00     0.116 C 
BRANCH  31  32
ATOM     32  N   UNL A   1      39.811  22.030  26.595  1.00  0.00    -0.352 N 
ATOM     33  C   UNL A   1      40.534  23.056  27.170  1.00  0.00     0.251 C 
ATOM     34  H   UNL A   1      39.937  21.135  26.986  1.00  0.00     0.163 HD
ATOM     35  O   UNL A   1      41.552  22.765  27.789  1.00  0.00    -0.269 OA
BRANCH  33  36
ATOM     36  C   UNL A   1      39.966  24.434  27.201  1.00  0.00     0.039 A 
ATOM     37  C   UNL A   1      40.662  25.380  26.440  1.00  0.00     0.014 A 
ATOM     38  C   UNL A   1      39.123  24.860  28.224  1.00  0.00     0.014 A 
ATOM     39  C   UNL A   1      40.813  26.667  26.931  1.00  0.00     0.010 A 
ATOM     40  C   UNL A   1      39.358  26.086  28.782  1.00  0.00     0.010 A 
ATOM     41  C   UNL A   1      40.283  26.940  28.180  1.00  0.00    -0.014 A 
BRANCH  41  42
ATOM     42  C   UNL A   1      40.558  28.116  28.963  1.00  0.00     0.031 A 
ATOM     43  C   UNL A   1      39.678  29.271  28.782  1.00  0.00     0.074 A 
ATOM     44  C   UNL A   1      41.363  27.951  30.033  1.00  0.00     0.049 A 
ATOM     45  N   UNL A   1      39.870  30.418  29.322  1.00  0.00    -0.248 NA
ATOM     46  C   UNL A   1      38.491  29.214  27.934  1.00  0.00     0.031 C 
ATOM     47  C   UNL A   1      41.375  28.694  31.284  1.00  0.00     0.029 A 
ATOM     48  N   UNL A   1      42.423  27.077  30.186  1.00  0.00    -0.354 N 
ATOM     49  C   UNL A   1      38.681  31.105  29.209  1.00  0.00     0.074 A 
ATOM     50  C   UNL A   1      37.937  30.398  28.199  1.00  0.00     0.031 C 
ATOM     51  C   UNL A   1      42.511  28.415  31.951  1.00  0.00     0.029 A 
ATOM     52  C   UNL A   1      43.356  27.643  31.053  1.00  0.00     0.049 A 
ATOM     53  H   UNL A   1      42.505  26.197  29.751  1.00  0.00     0.167 HD
ATOM     54  C   UNL A   1      38.411  32.056  30.145  1.00  0.00     0.034 A 
ATOM     55  C   UNL A   1      44.559  28.085  30.559  1.00  0.00     0.034 A 
ATOM     56  C   UNL A   1      39.602  32.276  30.992  1.00  0.00     0.049 A 
ATOM     57  C   UNL A   1      44.692  29.605  30.582  1.00  0.00     0.074 A 
ATOM     58  C   UNL A   1      39.942  31.872  32.274  1.00  0.00     0.029 A 
ATOM     59  N   UNL A   1      40.787  32.708  30.398  1.00  0.00    -0.354 N 
ATOM     60  N   UNL A   1      43.712  30.426  30.845  1.00  0.00    -0.248 NA
ATOM     61  C   UNL A   1      45.943  30.319  30.341  1.00  0.00     0.031 C 
ATOM     62  C   UNL A   1      41.360  31.960  32.400  1.00  0.00     0.029 A 
ATOM     63  C   UNL A   1      41.879  32.454  31.213  1.00  0.00     0.049 A 
ATOM     64  H   UNL A   1      40.839  33.137  29.513  1.00  0.00     0.167 HD
ATOM     65  C   UNL A   1      44.118  31.726  30.703  1.00  0.00     0.074 A 
ATOM     66  C   UNL A   1      45.548  31.601  30.462  1.00  0.00     0.031 C 
ATOM     67  C   UNL A   1      43.233  32.776  30.753  1.00  0.00     0.034 A 
BRANCH  54  68
ATOM     68  C   UNL A   1      37.025  32.586  30.510  1.00  0.00     0.023 A 
ATOM     69  C   UNL A   1      36.538  32.246  31.794  1.00  0.00     0.012 A 
ATOM     70  C   UNL A   1      36.126  33.318  29.695  1.00  0.00     0.148 A 
ATOM     71  C   UNL A   1      35.240  32.554  32.220  1.00  0.00     0.002 A 
ATOM     72  C   UNL A   1      34.827  33.628  30.117  1.00  0.00     0.091 A 
ATOM     73  F   UNL A   1      36.497  33.749  28.493  1.00  0.00    -0.205 F 
ATOM     74  C   UNL A   1      34.378  33.238  31.378  1.00  0.00     0.022 A 
BRANCH  72  75
ATOM     75  S   UNL A   1      33.647  34.518  29.076  1.00  0.00     0.127 S 
ATOM     76  O   UNL A   1      34.455  35.635  28.586  1.00  0.00    -0.237 OA
ATOM     77  O   UNL A   1      33.313  33.519  28.063  1.00  0.00    -0.237 OA
ATOM     78  O   UNL A   1      32.541  34.911  29.941  1.00  0.00    -0.744 OA
ENDBRANCH  72  75
ENDBRANCH  54  68
BRANCH  55  79
ATOM     79  C   UNL A   1      45.087  27.166  29.493  1.00  0.00     0.023 A 
ATOM     80  C   UNL A   1      45.248  25.807  29.868  1.00  0.00     0.012 A 
ATOM     81  C   UNL A   1      44.963  27.477  28.127  1.00  0.00     0.148 A 
ATOM     82  C   UNL A   1      45.064  24.781  28.939  1.00  0.00     0.002 A 
ATOM     83  C   UNL A   1      44.808  26.444  27.199  1.00  0.00     0.091 A 
ATOM     84  F   UNL A   1      44.936  28.763  27.758  1.00  0.00    -0.205 F 
ATOM     85  C   UNL A   1      44.793  25.101  27.614  1.00  0.00     0.022 A 
BRANCH  83  86
ATOM     86  S   UNL A   1      44.524  26.787  25.456  1.00  0.00     0.127 S 
ATOM     87  O   UNL A   1      43.895  25.547  25.011  1.00  0.00    -0.237 OA
ATOM     88  O   UNL A   1      43.629  27.942  25.491  1.00  0.00    -0.237 OA
ATOM     89  O   UNL A   1      45.843  27.072  24.909  1.00  0.00    -0.744 OA
ENDBRANCH  83  86
ENDBRANCH  55  79
BRANCH  67  90
ATOM     90  C   UNL A   1      43.544  34.217  30.368  1.00  0.00     0.023 A 
ATOM     91  C   UNL A   1      44.025  35.165  31.289  1.00  0.00     0.012 A 
ATOM     92  C   UNL A   1      43.491  34.637  29.009  1.00  0.00     0.148 A 
ATOM     93  C   UNL A   1      44.367  36.469  30.910  1.00  0.00     0.002 A 
ATOM     94  C   UNL A   1      43.961  35.888  28.617  1.00  0.00     0.091 A 
ATOM     95  F   UNL A   1      42.956  33.837  28.076  1.00  0.00    -0.205 F 
ATOM     96  C   UNL A   1      44.361  36.824  29.570  1.00  0.00     0.022 A 
BRANCH  94  97
ATOM     97  S   UNL A   1      44.227  36.281  26.883  1.00  0.00     0.127 S 
ATOM     98  O   UNL A   1      44.343  37.738  26.917  1.00  0.00    -0.237 OA
ATOM     99  O   UNL A   1      45.476  35.577  26.591  1.00  0.00    -0.237 OA
ATOM    100  O   UNL A   1      43.065  35.745  26.185  1.00  0.00    -0.744 OA
ENDBRANCH  94  97
ENDBRANCH  67  90
ENDBRANCH  41  42
ENDBRANCH  33  36
ENDBRANCH  31  32
ENDBRANCH  30  31
ENDBRANCH   1  30
TORSDOF 17
ENDMDL
MODEL 3
REMARK VINA RESULT:     -12.5      3.663      8.672
REMARK SMILES Cc1ccccc1Nc1nc2c(c(=O)[nH]c(=O)n2C)n1CC(=O)NCCCCNC(=O)c1ccc(-c2c3nc(c(-c4cccc(S(=O)(=O)[O-])c4F)c4ccc([nH]4)c(-c4cccc(S(=O)(=O)[O-])c4F)c4nc(c(-c5cccc(S(=O)(=O)[O-])c5F)c5ccc2[nH]5)C=C4)C=C3)cc1
REMARK SMILES IDX 26 1 25 2 24 3 22 4 23 5 21 7 20 8 9 9 10 10 11 11 12 12
REMARK SMILES IDX 18 13 13 14 16 15 19 16 14 17 15 18 17 19 8 21 7 23 1 24
REMARK SMILES IDX 2 25 3 26 4 27 6 28 5 29 27 30 28 31 29 32 30 33 31 35 32 36
REMARK SMILES IDX 33 37 94 38 34 39 93 40 35 41 36 42 37 43 87 44 38 45 92 46
REMARK SMILES IDX 86 47 88 48 39 49 91 50 85 51 84 52 40 54 72 55 52 56 71 57
REMARK SMILES IDX 53 58 56 59 70 60 89 61 54 62 55 63 69 65 90 66 57 67 41 68
REMARK SMILES IDX 42 69 50 70 43 71 45 72 51 73 44 74 46 75 47 76 48 77 49 78
REMARK SMILES IDX 73 79 74 80 82 81 75 82 77 83 83 84 76 85 78 86 79 87 80 88
REMARK SMILES IDX 81 89 58 90 59 91 67 92 60 93 62 94 68 95 61 96 63 97 64 98
REMARK SMILES IDX 65 99 66 100
REMARK H PARENT 24 6 15 20 8 22 29 34 88 53 56 64
REMARK Flexibility Score: inf
ROOT
ATOM      1  C   UNL A   1      36.889  23.824  25.198  1.00  0.00     0.023 C 
ENDROOT
BRANCH   1   2
ATOM      2  C   UNL A   1      35.418  23.885  24.748  1.00  0.00     0.116 C 
BRANCH   2   3
ATOM      3  N   UNL A   1      34.661  25.054  25.162  1.00  0.00    -0.355 N 
ATOM      4  C   UNL A   1      33.566  25.201  25.964  1.00  0.00     0.240 C 
ATOM      5  O   UNL A   1      33.334  26.343  26.382  1.00  0.00    -0.273 OA
ATOM      6  H   UNL A   1      35.005  25.901  24.796  1.00  0.00     0.163 HD
BRANCH   4   7
ATOM      7  C   UNL A   1      32.676  24.062  26.414  1.00  0.00     0.226 C 
BRANCH   7   8
ATOM      8  N   UNL A   1      32.360  23.043  25.431  1.00  0.00    -0.295 N 
ATOM      9  C   UNL A   1      31.414  23.092  24.406  1.00  0.00     0.210 A 
ATOM     10  N   UNL A   1      31.381  21.940  23.757  1.00  0.00    -0.194 NA
ATOM     11  C   UNL A   1      32.332  21.160  24.338  1.00  0.00     0.170 A 
ATOM     12  C   UNL A   1      32.882  21.765  25.427  1.00  0.00     0.154 A 
ATOM     13  N   UNL A   1      32.766  19.924  23.897  1.00  0.00    -0.279 N 
ATOM     14  C   UNL A   1      33.876  21.127  26.236  1.00  0.00     0.279 A 
ATOM     15  C   UNL A   1      33.793  19.286  24.587  1.00  0.00     0.329 A 
ATOM     16  C   UNL A   1      32.222  19.331  22.695  1.00  0.00     0.157 C 
ATOM     17  O   UNL A   1      34.353  21.570  27.259  1.00  0.00    -0.267 OA
ATOM     18  N   UNL A   1      34.283  19.918  25.710  1.00  0.00    -0.272 N 
ATOM     19  O   UNL A   1      34.278  18.203  24.257  1.00  0.00    -0.248 OA
ATOM     20  H   UNL A   1      35.005  19.453  26.191  1.00  0.00     0.175 HD
BRANCH   9  21
ATOM     21  N   UNL A   1      30.568  24.132  24.166  1.00  0.00    -0.325 N 
ATOM     22  H   UNL A   1      29.644  24.017  24.486  1.00  0.00     0.170 HD
BRANCH  21  23
ATOM     23  C   UNL A   1      30.851  25.362  23.511  1.00  0.00     0.044 A 
ATOM     24  C   UNL A   1      28.575  26.377  24.095  1.00  0.00     0.046 C 
ATOM     25  C   UNL A   1      29.966  26.454  23.535  1.00  0.00    -0.027 A 
ATOM     26  C   UNL A   1      30.353  27.690  22.962  1.00  0.00     0.005 A 
ATOM     27  C   UNL A   1      31.592  27.849  22.349  1.00  0.00     0.000 A 
ATOM     28  C   UNL A   1      32.045  25.541  22.818  1.00  0.00     0.026 A 
ATOM     29  C   UNL A   1      32.436  26.760  22.256  1.00  0.00     0.002 A 
ENDBRANCH  21  23
ENDBRANCH   9  21
ENDBRANCH   7   8
ENDBRANCH   4   7
ENDBRANCH   2   3
ENDBRANCH   1   2
BRANCH   1  30
ATOM     30  C   UNL A   1      37.401  22.549  25.862  1.00  0.00     0.023 C 
BRANCH  30  31
ATOM     31  C   UNL A   1      38.842  22.229  25.592  1.00  0.00     0.116 C 
BRANCH  31  32
ATOM     32  N   UNL A   1      39.629  22.118  26.789  1.00  0.00    -0.352 N 
ATOM     33  C   UNL A   1      40.366  23.111  27.403  1.00  0.00     0.251 C 
ATOM     34  H   UNL A   1      39.646  21.233  27.220  1.00  0.00     0.163 HD
ATOM     35  O   UNL A   1      41.291  22.772  28.135  1.00  0.00    -0.269 OA
BRANCH  33  36
ATOM     36  C   UNL A   1      39.905  24.527  27.330  1.00  0.00     0.039 A 
ATOM     37  C   UNL A   1      40.757  25.394  26.637  1.00  0.00     0.014 A 
ATOM     38  C   UNL A   1      38.978  25.047  28.230  1.00  0.00     0.014 A 
ATOM     39  C   UNL A   1      40.944  26.682  27.111  1.00  0.00     0.010 A 
ATOM     40  C   UNL A   1      39.236  26.271  28.782  1.00  0.00     0.010 A 
ATOM     41  C   UNL A   1      40.289  27.035  28.278  1.00  0.00    -0.014 A 
BRANCH  41  42
ATOM     42  C   UNL A   1      40.556  28.214  29.060  1.00  0.00     0.031 A 
ATOM     43  C   UNL A   1      39.659  29.357  28.889  1.00  0.00     0.074 A 
ATOM     44  C   UNL A   1      41.374  28.059  30.122  1.00  0.00     0.049 A 
ATOM     45  N   UNL A   1      39.841  30.506  29.427  1.00  0.00    -0.248 NA
ATOM     46  C   UNL A   1      38.465  29.284  28.052  1.00  0.00     0.031 C 
ATOM     47  C   UNL A   1      41.387  28.801  31.373  1.00  0.00     0.029 A 
ATOM     48  N   UNL A   1      42.446  27.199  30.264  1.00  0.00    -0.354 N 
ATOM     49  C   UNL A   1      38.641  31.177  29.327  1.00  0.00     0.074 A 
ATOM     50  C   UNL A   1      37.898  30.461  28.322  1.00  0.00     0.031 C 
ATOM     51  C   UNL A   1      42.533  28.536  32.029  1.00  0.00     0.029 A 
ATOM     52  C   UNL A   1      43.380  27.777  31.123  1.00  0.00     0.049 A 
ATOM     53  H   UNL A   1      42.536  26.321  29.828  1.00  0.00     0.167 HD
ATOM     54  C   UNL A   1      38.367  32.124  30.266  1.00  0.00     0.034 A 
ATOM     55  C   UNL A   1      44.572  28.235  30.618  1.00  0.00     0.034 A 
ATOM     56  C   UNL A   1      39.563  32.359  31.102  1.00  0.00     0.049 A 
ATOM     57  C   UNL A   1      44.685  29.758  30.642  1.00  0.00     0.074 A 
ATOM     58  C   UNL A   1      39.921  31.958  32.380  1.00  0.00     0.029 A 
ATOM     59  N   UNL A   1      40.736  32.808  30.497  1.00  0.00    -0.354 N 
ATOM     60  N   UNL A   1      43.696  30.565  30.914  1.00  0.00    -0.248 NA
ATOM     61  C   UNL A   1      45.923  30.489  30.389  1.00  0.00     0.031 C 
ATOM     62  C   UNL A   1      41.338  32.065  32.492  1.00  0.00     0.029 A 
ATOM     63  C   UNL A   1      41.840  32.567  31.302  1.00  0.00     0.049 A 
ATOM     64  H   UNL A   1      40.775  33.238  29.612  1.00  0.00     0.167 HD
ATOM     65  C   UNL A   1      44.083  31.870  30.770  1.00  0.00     0.074 A 
ATOM     66  C   UNL A   1      45.513  31.765  30.515  1.00  0.00     0.031 C 
ATOM     67  C   UNL A   1      43.185  32.908  30.829  1.00  0.00     0.034 A 
BRANCH  54  68
ATOM     68  C   UNL A   1      36.978  32.634  30.645  1.00  0.00     0.023 A 
ATOM     69  C   UNL A   1      36.375  32.041  31.778  1.00  0.00     0.012 A 
ATOM     70  C   UNL A   1      36.177  33.582  29.959  1.00  0.00     0.148 A 
ATOM     71  C   UNL A   1      35.060  32.317  32.171  1.00  0.00     0.002 A 
ATOM     72  C   UNL A   1      34.862  33.861  30.348  1.00  0.00     0.091 A 
ATOM     73  F   UNL A   1      36.662  34.252  28.918  1.00  0.00    -0.205 F 
ATOM     74  C   UNL A   1      34.297  33.221  31.450  1.00  0.00     0.022 A 
BRANCH  72  75
ATOM     75  S   UNL A   1      33.806  35.028  29.460  1.00  0.00     0.127 S 
ATOM     76  O   UNL A   1      32.672  34.184  29.077  1.00  0.00    -0.237 OA
ATOM     77  O   UNL A   1      33.504  36.020  30.490  1.00  0.00    -0.237 OA
ATOM     78  O   UNL A   1      34.588  35.528  28.335  1.00  0.00    -0.744 OA
ENDBRANCH  72  75
ENDBRANCH  54  68
BRANCH  55  79
ATOM     79  C   UNL A   1      45.102  27.325  29.547  1.00  0.00     0.023 A 
ATOM     80  C   UNL A   1      45.287  25.968  29.919  1.00  0.00     0.012 A 
ATOM     81  C   UNL A   1      44.959  27.633  28.182  1.00  0.00     0.148 A 
ATOM     82  C   UNL A   1      45.109  24.939  28.992  1.00  0.00     0.002 A 
ATOM     83  C   UNL A   1      44.810  26.599  27.255  1.00  0.00     0.091 A 
ATOM     84  F   UNL A   1      44.908  28.919  27.813  1.00  0.00    -0.205 F 
ATOM     85  C   UNL A   1      44.819  25.255  27.670  1.00  0.00     0.022 A 
BRANCH  83  86
ATOM     86  S   UNL A   1      44.502  26.937  25.515  1.00  0.00     0.127 S 
ATOM     87  O   UNL A   1      43.578  28.065  25.594  1.00  0.00    -0.237 OA
ATOM     88  O   UNL A   1      45.830  27.277  25.008  1.00  0.00    -0.237 OA
ATOM     89  O   UNL A   1      43.959  25.697  24.981  1.00  0.00    -0.744 OA
ENDBRANCH  83  86
ENDBRANCH  55  79
BRANCH  67  90
ATOM     90  C   UNL A   1      43.472  34.353  30.442  1.00  0.00     0.023 A 
ATOM     91  C   UNL A   1      43.868  35.328  31.377  1.00  0.00     0.012 A 
ATOM     92  C   UNL A   1      43.487  34.755  29.078  1.00  0.00     0.148 A 
ATOM     93  C   UNL A   1      44.191  36.637  31.000  1.00  0.00     0.002 A 
ATOM     94  C   UNL A   1      43.940  36.015  28.696  1.00  0.00     0.091 A 
ATOM     95  F   UNL A   1      43.033  33.927  28.126  1.00  0.00    -0.205 F 
ATOM     96  C   UNL A   1      44.253  36.975  29.657  1.00  0.00     0.022 A 
BRANCH  94  97
ATOM     97  S   UNL A   1      44.295  36.396  26.975  1.00  0.00     0.127 S 
ATOM     98  O   UNL A   1      42.966  36.328  26.369  1.00  0.00    -0.237 OA
ATOM     99  O   UNL A   1      44.856  37.745  27.063  1.00  0.00    -0.237 OA
ATOM    100  O   UNL A   1      45.250  35.382  26.546  1.00  0.00    -0.744 OA
ENDBRANCH  94  97
ENDBRANCH  67  90
ENDBRANCH  41  42
ENDBRANCH  33  36
ENDBRANCH  31  32
ENDBRANCH  30  31
ENDBRANCH   1  30
TORSDOF 17
ENDMDL
