MODEL 1
REMARK VINA RESULT:     -11.5      0.000      0.000
REMARK SMILES CCCN1CCC[C@@]2(CCN(c3ccc(C(=O)NCCCCNC(=O)c4ccc(-c5c6nc(c(-c7cccc(S(=O)(=O)[O-])c7F)c7ccc([nH]7)c(-c7cccc(S(=O)(=O)[O-])c7F)c7nc(c(-c8cccc(S(=O)(=O)[O-])c8F)c8ccc5[nH]8)C=C7)C=C6)cc4)cn3)C2)C1=O
REMARK SMILES IDX 20 1 19 2 18 3 16 4 17 5 15 7 12 8 13 9 90 10 14 11 89 12
REMARK SMILES IDX 11 13 4 14 5 15 92 16 6 17 8 18 93 19 7 20 9 21 91 22 10 23
REMARK SMILES IDX 3 24 2 25 1 26 21 27 22 28 23 29 24 30 25 32 26 33 27 34
REMARK SMILES IDX 88 35 28 36 87 37 29 38 30 39 31 40 81 41 32 42 86 43 80 44
REMARK SMILES IDX 82 45 33 46 85 47 79 48 78 49 34 51 66 52 46 53 65 54 47 55
REMARK SMILES IDX 50 56 64 57 83 58 48 59 49 60 63 62 84 63 51 64 35 65 36 66
REMARK SMILES IDX 44 67 37 68 39 69 45 70 38 71 40 72 41 73 42 74 43 75 67 76
REMARK SMILES IDX 68 77 76 78 69 79 71 80 77 81 70 82 72 83 73 84 74 85 75 86
REMARK SMILES IDX 52 87 53 88 61 89 54 90 56 91 62 92 55 93 57 94 58 95 59 96
REMARK SMILES IDX 60 97
REMARK H PARENT 18 6 23 31 82 50 50 61
REMARK Flexibility Score: inf
ROOT
ATOM      1  C   UNL A   1      37.276  19.245  24.577  1.00  0.00     0.023 C 
ENDROOT
BRANCH   1   2
ATOM      2  C   UNL A   1      35.997  19.951  25.037  1.00  0.00     0.116 C 
BRANCH   2   3
ATOM      3  N   UNL A   1      34.819  19.178  24.695  1.00  0.00    -0.352 N 
ATOM      4  C   UNL A   1      33.493  19.513  24.578  1.00  0.00     0.252 C 
ATOM      5  O   UNL A   1      32.719  18.633  24.198  1.00  0.00    -0.269 OA
ATOM      6  H   UNL A   1      35.006  18.229  24.510  1.00  0.00     0.163 HD
BRANCH   4   7
ATOM      7  C   UNL A   1      32.945  20.867  24.857  1.00  0.00     0.058 A 
ATOM      8  C   UNL A   1      31.983  23.353  25.676  1.00  0.00     0.128 A 
ATOM      9  C   UNL A   1      31.871  22.962  24.347  1.00  0.00     0.048 A 
ATOM     10  N   UNL A   1      32.586  22.562  26.581  1.00  0.00    -0.239 NA
ATOM     11  C   UNL A   1      32.382  21.735  23.932  1.00  0.00     0.019 A 
ATOM     12  C   UNL A   1      33.033  21.344  26.162  1.00  0.00     0.127 A 
BRANCH   8  13
ATOM     13  N   UNL A   1      31.474  24.576  26.047  1.00  0.00    -0.356 N 
ATOM     14  N   UNL A   1      32.263  28.409  24.203  1.00  0.00    -0.342 N 
ATOM     15  C   UNL A   1      32.742  29.389  25.164  1.00  0.00     0.119 C 
ATOM     16  C   UNL A   1      31.214  27.567  24.567  1.00  0.00     0.230 C 
ATOM     17  C   UNL A   1      33.046  28.750  26.507  1.00  0.00     0.023 C 
ATOM     18  C   UNL A   1      31.339  26.956  25.969  1.00  0.00     0.069 C 
ATOM     19  O   UNL A   1      30.329  27.241  23.779  1.00  0.00    -0.274 OA
ATOM     20  C   UNL A   1      31.819  27.990  26.999  1.00  0.00     0.021 C 
ATOM     21  C   UNL A   1      30.010  26.306  26.409  1.00  0.00     0.040 C 
ATOM     22  C   UNL A   1      32.315  25.754  25.859  1.00  0.00     0.135 C 
ATOM     23  C   UNL A   1      30.080  24.896  25.825  1.00  0.00     0.119 C 
BRANCH  14  24
ATOM     24  C   UNL A   1      32.544  28.602  22.782  1.00  0.00     0.119 C 
BRANCH  24  25
ATOM     25  C   UNL A   1      33.778  27.836  22.290  1.00  0.00     0.018 C 
ATOM     26  C   UNL A   1      33.516  26.353  22.055  1.00  0.00     0.006 C 
ENDBRANCH  24  25
ENDBRANCH  14  24
ENDBRANCH   8  13
ENDBRANCH   4   7
ENDBRANCH   2   3
ENDBRANCH   1   2
BRANCH   1  27
ATOM     27  C   UNL A   1      38.566  20.015  24.871  1.00  0.00     0.023 C 
BRANCH  27  28
ATOM     28  C   UNL A   1      39.250  19.648  26.184  1.00  0.00     0.116 C 
BRANCH  28  29
ATOM     29  N   UNL A   1      40.494  18.912  26.004  1.00  0.00    -0.352 N 
ATOM     30  C   UNL A   1      41.783  19.389  26.069  1.00  0.00     0.251 C 
ATOM     31  H   UNL A   1      40.401  17.950  25.811  1.00  0.00     0.163 HD
ATOM     32  O   UNL A   1      42.727  18.661  25.800  1.00  0.00    -0.269 OA
BRANCH  30  33
ATOM     33  C   UNL A   1      42.004  20.808  26.424  1.00  0.00     0.039 A 
ATOM     34  C   UNL A   1      42.320  21.127  27.746  1.00  0.00     0.014 A 
ATOM     35  C   UNL A   1      41.944  21.805  25.448  1.00  0.00     0.014 A 
ATOM     36  C   UNL A   1      42.645  22.446  28.077  1.00  0.00     0.010 A 
ATOM     37  C   UNL A   1      42.332  23.103  25.767  1.00  0.00     0.010 A 
ATOM     38  C   UNL A   1      42.688  23.437  27.083  1.00  0.00    -0.014 A 
BRANCH  38  39
ATOM     39  C   UNL A   1      43.125  24.821  27.390  1.00  0.00     0.031 A 
ATOM     40  C   UNL A   1      42.168  25.795  28.021  1.00  0.00     0.074 A 
ATOM     41  C   UNL A   1      44.349  25.232  26.998  1.00  0.00     0.049 A 
ATOM     42  N   UNL A   1      42.347  27.059  28.301  1.00  0.00    -0.248 NA
ATOM     43  C   UNL A   1      40.824  25.293  28.355  1.00  0.00     0.031 C 
ATOM     44  C   UNL A   1      45.332  24.411  26.288  1.00  0.00     0.029 A 
ATOM     45  N   UNL A   1      44.961  26.457  27.109  1.00  0.00    -0.354 N 
ATOM     46  C   UNL A   1      41.130  27.516  28.793  1.00  0.00     0.074 A 
ATOM     47  C   UNL A   1      40.214  26.398  28.761  1.00  0.00     0.031 C 
ATOM     48  C   UNL A   1      46.417  25.156  26.019  1.00  0.00     0.029 A 
ATOM     49  C   UNL A   1      46.202  26.510  26.516  1.00  0.00     0.049 A 
ATOM     50  H   UNL A   1      44.550  27.224  27.568  1.00  0.00     0.167 HD
ATOM     51  C   UNL A   1      40.814  28.748  29.254  1.00  0.00     0.034 A 
ATOM     52  C   UNL A   1      47.065  27.537  26.382  1.00  0.00     0.034 A 
ATOM     53  C   UNL A   1      41.748  29.835  29.355  1.00  0.00     0.049 A 
ATOM     54  C   UNL A   1      46.711  28.872  26.982  1.00  0.00     0.074 A 
ATOM     55  C   UNL A   1      41.560  31.078  29.934  1.00  0.00     0.029 A 
ATOM     56  N   UNL A   1      43.041  29.815  28.859  1.00  0.00    -0.354 N 
ATOM     57  N   UNL A   1      45.628  29.223  27.633  1.00  0.00    -0.248 NA
ATOM     58  C   UNL A   1      47.715  29.942  26.868  1.00  0.00     0.031 C 
ATOM     59  C   UNL A   1      42.735  31.817  29.773  1.00  0.00     0.029 A 
ATOM     60  C   UNL A   1      43.660  31.028  29.108  1.00  0.00     0.049 A 
ATOM     61  H   UNL A   1      43.458  29.052  28.398  1.00  0.00     0.167 HD
ATOM     62  C   UNL A   1      45.836  30.537  28.037  1.00  0.00     0.074 A 
ATOM     63  C   UNL A   1      47.158  30.912  27.578  1.00  0.00     0.031 C 
ATOM     64  C   UNL A   1      45.001  31.365  28.709  1.00  0.00     0.034 A 
BRANCH  51  65
ATOM     65  C   UNL A   1      39.413  28.983  29.752  1.00  0.00     0.023 A 
ATOM     66  C   UNL A   1      39.041  28.509  31.026  1.00  0.00     0.012 A 
ATOM     67  C   UNL A   1      38.504  29.760  29.008  1.00  0.00     0.148 A 
ATOM     68  C   UNL A   1      37.777  28.787  31.544  1.00  0.00     0.002 A 
ATOM     69  C   UNL A   1      37.261  30.069  29.548  1.00  0.00     0.091 A 
ATOM     70  F   UNL A   1      38.873  30.185  27.791  1.00  0.00    -0.205 F 
ATOM     71  C   UNL A   1      36.893  29.576  30.812  1.00  0.00     0.022 A 
BRANCH  69  72
ATOM     72  S   UNL A   1      36.080  31.141  28.723  1.00  0.00     0.127 S 
ATOM     73  O   UNL A   1      36.893  32.329  28.462  1.00  0.00    -0.237 OA
ATOM     74  O   UNL A   1      35.739  30.362  27.533  1.00  0.00    -0.237 OA
ATOM     75  O   UNL A   1      34.984  31.332  29.662  1.00  0.00    -0.744 OA
ENDBRANCH  69  72
ENDBRANCH  51  65
BRANCH  52  76
ATOM     76  C   UNL A   1      48.378  27.333  25.706  1.00  0.00     0.023 A 
ATOM     77  C   UNL A   1      49.501  26.967  26.474  1.00  0.00     0.012 A 
ATOM     78  C   UNL A   1      48.523  27.495  24.316  1.00  0.00     0.148 A 
ATOM     79  C   UNL A   1      50.753  26.810  25.878  1.00  0.00     0.002 A 
ATOM     80  C   UNL A   1      49.761  27.283  23.720  1.00  0.00     0.091 A 
ATOM     81  F   UNL A   1      47.450  27.860  23.600  1.00  0.00    -0.205 F 
ATOM     82  C   UNL A   1      50.881  26.959  24.500  1.00  0.00     0.022 A 
BRANCH  80  83
ATOM     83  S   UNL A   1      49.973  27.323  21.936  1.00  0.00     0.127 S 
ATOM     84  O   UNL A   1      49.739  28.732  21.637  1.00  0.00    -0.237 OA
ATOM     85  O   UNL A   1      51.359  26.881  21.777  1.00  0.00    -0.237 OA
ATOM     86  O   UNL A   1      48.988  26.382  21.416  1.00  0.00    -0.744 OA
ENDBRANCH  80  83
ENDBRANCH  52  76
BRANCH  64  87
ATOM     87  C   UNL A   1      45.494  32.750  29.033  1.00  0.00     0.023 A 
ATOM     88  C   UNL A   1      46.187  32.979  30.238  1.00  0.00     0.012 A 
ATOM     89  C   UNL A   1      45.347  33.800  28.106  1.00  0.00     0.148 A 
ATOM     90  C   UNL A   1      46.703  34.242  30.528  1.00  0.00     0.002 A 
ATOM     91  C   UNL A   1      45.905  35.043  28.381  1.00  0.00     0.091 A 
ATOM     92  F   UNL A   1      44.667  33.566  26.975  1.00  0.00    -0.205 F 
ATOM     93  C   UNL A   1      46.572  35.269  29.596  1.00  0.00     0.022 A 
BRANCH  91  94
ATOM     94  S   UNL A   1      45.870  36.392  27.195  1.00  0.00     0.127 S 
ATOM     95  O   UNL A   1      44.438  36.671  27.102  1.00  0.00    -0.237 OA
ATOM     96  O   UNL A   1      46.650  37.427  27.875  1.00  0.00    -0.237 OA
ATOM     97  O   UNL A   1      46.488  35.872  25.983  1.00  0.00    -0.744 OA
ENDBRANCH  91  94
ENDBRANCH  64  87
ENDBRANCH  38  39
ENDBRANCH  30  33
ENDBRANCH  28  29
ENDBRANCH  27  28
ENDBRANCH   1  27
TORSDOF 17
ENDMDL
MODEL 2
REMARK VINA RESULT:     -10.8      2.173      3.160
REMARK SMILES CCCN1CCC[C@@]2(CCN(c3ccc(C(=O)NCCCCNC(=O)c4ccc(-c5c6nc(c(-c7cccc(S(=O)(=O)[O-])c7F)c7ccc([nH]7)c(-c7cccc(S(=O)(=O)[O-])c7F)c7nc(c(-c8cccc(S(=O)(=O)[O-])c8F)c8ccc5[nH]8)C=C7)C=C6)cc4)cn3)C2)C1=O
REMARK SMILES IDX 20 1 19 2 18 3 16 4 17 5 15 7 12 8 13 9 90 10 14 11 89 12
REMARK SMILES IDX 11 13 4 14 5 15 92 16 6 17 8 18 93 19 7 20 9 21 91 22 10 23
REMARK SMILES IDX 3 24 2 25 1 26 21 27 22 28 23 29 24 30 25 32 26 33 27 34
REMARK SMILES IDX 88 35 28 36 87 37 29 38 30 39 31 40 81 41 32 42 86 43 80 44
REMARK SMILES IDX 82 45 33 46 85 47 79 48 78 49 34 51 66 52 46 53 65 54 47 55
REMARK SMILES IDX 50 56 64 57 83 58 48 59 49 60 63 62 84 63 51 64 35 65 36 66
REMARK SMILES IDX 44 67 37 68 39 69 45 70 38 71 40 72 41 73 42 74 43 75 67 76
REMARK SMILES IDX 68 77 76 78 69 79 71 80 77 81 70 82 72 83 73 84 74 85 75 86
REMARK SMILES IDX 52 87 53 88 61 89 54 90 56 91 62 92 55 93 57 94 58 95 59 96
REMARK SMILES IDX 60 97
REMARK H PARENT 18 6 23 31 82 50 50 61
REMARK Flexibility Score: inf
ROOT
ATOM      1  C   UNL A   1      34.095  21.041  26.829  1.00  0.00     0.023 C 
ENDROOT
BRANCH   1   2
ATOM      2  C   UNL A   1      32.606  20.855  26.523  1.00  0.00     0.116 C 
BRANCH   2   3
ATOM      3  N   UNL A   1      32.410  20.195  25.248  1.00  0.00    -0.352 N 
ATOM      4  C   UNL A   1      32.377  20.663  23.957  1.00  0.00     0.252 C 
ATOM      5  O   UNL A   1      32.257  19.831  23.057  1.00  0.00    -0.269 OA
ATOM      6  H   UNL A   1      32.277  19.222  25.320  1.00  0.00     0.163 HD
BRANCH   4   7
ATOM      7  C   UNL A   1      32.499  22.097  23.585  1.00  0.00     0.058 A 
ATOM      8  C   UNL A   1      32.425  24.804  22.917  1.00  0.00     0.128 A 
ATOM      9  C   UNL A   1      33.625  24.105  22.873  1.00  0.00     0.048 A 
ATOM     10  N   UNL A   1      31.289  24.203  23.315  1.00  0.00    -0.239 NA
ATOM     11  C   UNL A   1      33.668  22.762  23.240  1.00  0.00     0.019 A 
ATOM     12  C   UNL A   1      31.346  22.875  23.620  1.00  0.00     0.127 A 
BRANCH   8  13
ATOM     13  N   UNL A   1      32.423  26.131  22.556  1.00  0.00    -0.356 N 
ATOM     14  N   UNL A   1      31.719  29.541  25.123  1.00  0.00    -0.342 N 
ATOM     15  C   UNL A   1      30.651  30.392  24.621  1.00  0.00     0.119 C 
ATOM     16  C   UNL A   1      32.648  29.026  24.222  1.00  0.00     0.230 C 
ATOM     17  C   UNL A   1      29.925  29.744  23.457  1.00  0.00     0.023 C 
ATOM     18  C   UNL A   1      32.043  28.456  22.932  1.00  0.00     0.069 C 
ATOM     19  O   UNL A   1      33.842  28.920  24.496  1.00  0.00    -0.274 OA
ATOM     20  C   UNL A   1      30.931  29.360  22.378  1.00  0.00     0.021 C 
ATOM     21  C   UNL A   1      33.136  28.203  21.873  1.00  0.00     0.040 C 
ATOM     22  C   UNL A   1      31.518  27.033  23.263  1.00  0.00     0.135 C 
ATOM     23  C   UNL A   1      33.655  26.806  22.207  1.00  0.00     0.119 C 
BRANCH  14  24
ATOM     24  C   UNL A   1      32.076  29.599  26.539  1.00  0.00     0.119 C 
BRANCH  24  25
ATOM     25  C   UNL A   1      31.419  28.501  27.383  1.00  0.00     0.018 C 
ATOM     26  C   UNL A   1      31.723  27.093  26.887  1.00  0.00     0.006 C 
ENDBRANCH  24  25
ENDBRANCH  14  24
ENDBRANCH   8  13
ENDBRANCH   4   7
ENDBRANCH   2   3
ENDBRANCH   1   2
BRANCH   1  27
ATOM     27  C   UNL A   1      34.550  22.500  26.902  1.00  0.00     0.023 C 
BRANCH  27  28
ATOM     28  C   UNL A   1      35.876  22.797  26.208  1.00  0.00     0.116 C 
BRANCH  28  29
ATOM     29  N   UNL A   1      36.634  21.601  25.871  1.00  0.00    -0.352 N 
ATOM     30  C   UNL A   1      38.001  21.455  25.784  1.00  0.00     0.251 C 
ATOM     31  H   UNL A   1      36.103  20.794  25.681  1.00  0.00     0.163 HD
ATOM     32  O   UNL A   1      38.487  20.404  25.395  1.00  0.00    -0.269 OA
BRANCH  30  33
ATOM     33  C   UNL A   1      38.866  22.605  26.126  1.00  0.00     0.039 A 
ATOM     34  C   UNL A   1      38.533  23.867  25.630  1.00  0.00     0.014 A 
ATOM     35  C   UNL A   1      39.968  22.441  26.968  1.00  0.00     0.014 A 
ATOM     36  C   UNL A   1      39.270  24.982  26.035  1.00  0.00     0.010 A 
ATOM     37  C   UNL A   1      40.659  23.562  27.421  1.00  0.00     0.010 A 
ATOM     38  C   UNL A   1      40.316  24.843  26.962  1.00  0.00    -0.014 A 
BRANCH  38  39
ATOM     39  C   UNL A   1      41.050  26.024  27.483  1.00  0.00     0.031 A 
ATOM     40  C   UNL A   1      40.320  27.085  28.260  1.00  0.00     0.074 A 
ATOM     41  C   UNL A   1      42.348  26.193  27.159  1.00  0.00     0.049 A 
ATOM     42  N   UNL A   1      40.776  28.215  28.735  1.00  0.00    -0.248 NA
ATOM     43  C   UNL A   1      38.886  26.866  28.512  1.00  0.00     0.031 C 
ATOM     44  C   UNL A   1      43.140  25.284  26.327  1.00  0.00     0.029 A 
ATOM     45  N   UNL A   1      43.222  27.210  27.460  1.00  0.00    -0.354 N 
ATOM     46  C   UNL A   1      39.680  28.862  29.294  1.00  0.00     0.074 A 
ATOM     47  C   UNL A   1      38.533  28.006  29.088  1.00  0.00     0.031 C 
ATOM     48  C   UNL A   1      44.377  25.788  26.177  1.00  0.00     0.029 A 
ATOM     49  C   UNL A   1      44.461  27.062  26.881  1.00  0.00     0.049 A 
ATOM     50  H   UNL A   1      42.982  27.972  28.035  1.00  0.00     0.167 HD
ATOM     51  C   UNL A   1      39.640  30.048  29.944  1.00  0.00     0.034 A 
ATOM     52  C   UNL A   1      45.542  27.867  26.910  1.00  0.00     0.034 A 
ATOM     53  C   UNL A   1      40.795  30.859  30.213  1.00  0.00     0.049 A 
ATOM     54  C   UNL A   1      45.485  29.140  27.713  1.00  0.00     0.074 A 
ATOM     55  C   UNL A   1      40.878  32.007  30.981  1.00  0.00     0.029 A 
ATOM     56  N   UNL A   1      42.066  30.614  29.718  1.00  0.00    -0.354 N 
ATOM     57  N   UNL A   1      44.489  29.630  28.412  1.00  0.00    -0.248 NA
ATOM     58  C   UNL A   1      46.711  29.951  27.767  1.00  0.00     0.031 C 
ATOM     59  C   UNL A   1      42.197  32.467  30.936  1.00  0.00     0.029 A 
ATOM     60  C   UNL A   1      42.938  31.596  30.155  1.00  0.00     0.049 A 
ATOM     61  H   UNL A   1      42.312  29.854  29.142  1.00  0.00     0.167 HD
ATOM     62  C   UNL A   1      44.979  30.781  29.017  1.00  0.00     0.074 A 
ATOM     63  C   UNL A   1      46.367  30.904  28.622  1.00  0.00     0.031 C 
ATOM     64  C   UNL A   1      44.334  31.668  29.812  1.00  0.00     0.034 A 
BRANCH  51  65
ATOM     65  C   UNL A   1      38.314  30.524  30.474  1.00  0.00     0.023 A 
ATOM     66  C   UNL A   1      37.970  30.264  31.816  1.00  0.00     0.012 A 
ATOM     67  C   UNL A   1      37.462  31.314  29.680  1.00  0.00     0.148 A 
ATOM     68  C   UNL A   1      36.787  30.768  32.354  1.00  0.00     0.002 A 
ATOM     69  C   UNL A   1      36.304  31.848  30.234  1.00  0.00     0.091 A 
ATOM     70  F   UNL A   1      37.800  31.533  28.400  1.00  0.00    -0.205 F 
ATOM     71  C   UNL A   1      35.961  31.568  31.568  1.00  0.00     0.022 A 
BRANCH  69  72
ATOM     72  S   UNL A   1      35.213  32.954  29.334  1.00  0.00     0.127 S 
ATOM     73  O   UNL A   1      34.742  32.088  28.254  1.00  0.00    -0.237 OA
ATOM     74  O   UNL A   1      34.204  33.277  30.342  1.00  0.00    -0.237 OA
ATOM     75  O   UNL A   1      36.037  34.079  28.913  1.00  0.00    -0.744 OA
ENDBRANCH  69  72
ENDBRANCH  51  65
BRANCH  52  76
ATOM     76  C   UNL A   1      46.796  27.469  26.209  1.00  0.00     0.023 A 
ATOM     77  C   UNL A   1      46.971  27.818  24.855  1.00  0.00     0.012 A 
ATOM     78  C   UNL A   1      47.811  26.751  26.867  1.00  0.00     0.148 A 
ATOM     79  C   UNL A   1      48.115  27.423  24.159  1.00  0.00     0.002 A 
ATOM     80  C   UNL A   1      48.972  26.409  26.183  1.00  0.00     0.091 A 
ATOM     81  F   UNL A   1      47.623  26.410  28.150  1.00  0.00    -0.205 F 
ATOM     82  C   UNL A   1      49.118  26.727  24.825  1.00  0.00     0.022 A 
BRANCH  80  83
ATOM     83  S   UNL A   1      50.365  25.631  27.011  1.00  0.00     0.127 S 
ATOM     84  O   UNL A   1      50.767  26.665  27.959  1.00  0.00    -0.237 OA
ATOM     85  O   UNL A   1      49.748  24.448  27.613  1.00  0.00    -0.237 OA
ATOM     86  O   UNL A   1      51.316  25.327  25.949  1.00  0.00    -0.744 OA
ENDBRANCH  80  83
ENDBRANCH  52  76
BRANCH  64  87
ATOM     87  C   UNL A   1      45.122  32.833  30.350  1.00  0.00     0.023 A 
ATOM     88  C   UNL A   1      45.718  32.744  31.622  1.00  0.00     0.012 A 
ATOM     89  C   UNL A   1      45.342  33.978  29.558  1.00  0.00     0.148 A 
ATOM     90  C   UNL A   1      46.499  33.791  32.112  1.00  0.00     0.002 A 
ATOM     91  C   UNL A   1      46.160  34.995  30.034  1.00  0.00     0.091 A 
ATOM     92  F   UNL A   1      44.749  34.051  28.359  1.00  0.00    -0.205 F 
ATOM     93  C   UNL A   1      46.730  34.909  31.314  1.00  0.00     0.022 A 
BRANCH  91  94
ATOM     94  S   UNL A   1      46.590  36.425  29.033  1.00  0.00     0.127 S 
ATOM     95  O   UNL A   1      45.719  37.455  29.595  1.00  0.00    -0.237 OA
ATOM     96  O   UNL A   1      48.013  36.598  29.332  1.00  0.00    -0.237 OA
ATOM     97  O   UNL A   1      46.308  36.045  27.656  1.00  0.00    -0.744 OA
ENDBRANCH  91  94
ENDBRANCH  64  87
ENDBRANCH  38  39
ENDBRANCH  30  33
ENDBRANCH  28  29
ENDBRANCH  27  28
ENDBRANCH   1  27
TORSDOF 17
ENDMDL
MODEL 3
REMARK VINA RESULT:     -10.8      1.843      2.333
REMARK SMILES CCCN1CCC[C@@]2(CCN(c3ccc(C(=O)NCCCCNC(=O)c4ccc(-c5c6nc(c(-c7cccc(S(=O)(=O)[O-])c7F)c7ccc([nH]7)c(-c7cccc(S(=O)(=O)[O-])c7F)c7nc(c(-c8cccc(S(=O)(=O)[O-])c8F)c8ccc5[nH]8)C=C7)C=C6)cc4)cn3)C2)C1=O
REMARK SMILES IDX 20 1 19 2 18 3 16 4 17 5 15 7 12 8 13 9 90 10 14 11 89 12
REMARK SMILES IDX 11 13 4 14 5 15 92 16 6 17 8 18 93 19 7 20 9 21 91 22 10 23
REMARK SMILES IDX 3 24 2 25 1 26 21 27 22 28 23 29 24 30 25 32 26 33 27 34
REMARK SMILES IDX 88 35 28 36 87 37 29 38 30 39 31 40 81 41 32 42 86 43 80 44
REMARK SMILES IDX 82 45 33 46 85 47 79 48 78 49 34 51 66 52 46 53 65 54 47 55
REMARK SMILES IDX 50 56 64 57 83 58 48 59 49 60 63 62 84 63 51 64 35 65 36 66
REMARK SMILES IDX 44 67 37 68 39 69 45 70 38 71 40 72 41 73 42 74 43 75 67 76
REMARK SMILES IDX 68 77 76 78 69 79 71 80 77 81 70 82 72 83 73 84 74 85 75 86
REMARK SMILES IDX 52 87 53 88 61 89 54 90 56 91 62 92 55 93 57 94 58 95 59 96
REMARK SMILES IDX 60 97
REMARK H PARENT 18 6 23 31 82 50 50 61
REMARK Flexibility Score: inf
ROOT
ATOM      1  C   UNL A   1      35.892  18.897  24.602  1.00  0.00     0.023 C 
ENDROOT
BRANCH   1   2
ATOM      2  C   UNL A   1      34.569  18.361  25.154  1.00  0.00     0.116 C 
BRANCH   2   3
ATOM      3  N   UNL A   1      33.528  18.391  24.145  1.00  0.00    -0.352 N 
ATOM      4  C   UNL A   1      32.781  19.414  23.615  1.00  0.00     0.252 C 
ATOM      5  O   UNL A   1      32.003  19.133  22.703  1.00  0.00    -0.269 OA
ATOM      6  H   UNL A   1      33.316  17.508  23.765  1.00  0.00     0.163 HD
BRANCH   4   7
ATOM      7  C   UNL A   1      32.872  20.832  24.056  1.00  0.00     0.058 A 
ATOM      8  C   UNL A   1      33.161  23.550  24.608  1.00  0.00     0.128 A 
ATOM      9  C   UNL A   1      32.709  22.680  25.593  1.00  0.00     0.048 A 
ATOM     10  N   UNL A   1      33.432  23.109  23.366  1.00  0.00    -0.239 NA
ATOM     11  C   UNL A   1      32.532  21.328  25.307  1.00  0.00     0.019 A 
ATOM     12  C   UNL A   1      33.300  21.773  23.124  1.00  0.00     0.127 A 
BRANCH   8  13
ATOM     13  N   UNL A   1      33.315  24.879  24.924  1.00  0.00    -0.356 N 
ATOM     14  N   UNL A   1      31.117  28.231  23.297  1.00  0.00    -0.342 N 
ATOM     15  C   UNL A   1      31.999  29.247  22.745  1.00  0.00     0.119 C 
ATOM     16  C   UNL A   1      31.456  27.632  24.509  1.00  0.00     0.230 C 
ATOM     17  C   UNL A   1      33.437  28.764  22.689  1.00  0.00     0.023 C 
ATOM     18  C   UNL A   1      32.927  27.214  24.628  1.00  0.00     0.069 C 
ATOM     19  O   UNL A   1      30.616  27.345  25.358  1.00  0.00    -0.274 OA
ATOM     20  C   UNL A   1      33.871  28.293  24.072  1.00  0.00     0.021 C 
ATOM     21  C   UNL A   1      33.285  26.859  26.086  1.00  0.00     0.040 C 
ATOM     22  C   UNL A   1      33.083  25.866  23.874  1.00  0.00     0.135 C 
ATOM     23  C   UNL A   1      32.892  25.388  26.212  1.00  0.00     0.119 C 
BRANCH  14  24
ATOM     24  C   UNL A   1      29.726  28.171  22.853  1.00  0.00     0.119 C 
BRANCH  24  25
ATOM     25  C   UNL A   1      28.986  29.509  22.969  1.00  0.00     0.018 C 
ATOM     26  C   UNL A   1      28.485  30.042  21.633  1.00  0.00     0.006 C 
ENDBRANCH  24  25
ENDBRANCH  14  24
ENDBRANCH   8  13
ENDBRANCH   4   7
ENDBRANCH   2   3
ENDBRANCH   1   2
BRANCH   1  27
ATOM     27  C   UNL A   1      36.220  20.332  25.022  1.00  0.00     0.023 C 
BRANCH  27  28
ATOM     28  C   UNL A   1      37.690  20.718  24.901  1.00  0.00     0.116 C 
BRANCH  28  29
ATOM     29  N   UNL A   1      38.603  19.672  25.338  1.00  0.00    -0.352 N 
ATOM     30  C   UNL A   1      39.889  19.806  25.812  1.00  0.00     0.251 C 
ATOM     31  H   UNL A   1      38.257  18.751  25.289  1.00  0.00     0.163 HD
ATOM     32  O   UNL A   1      40.565  18.818  26.053  1.00  0.00    -0.269 OA
BRANCH  30  33
ATOM     33  C   UNL A   1      40.450  21.164  25.982  1.00  0.00     0.039 A 
ATOM     34  C   UNL A   1      39.583  22.217  26.274  1.00  0.00     0.014 A 
ATOM     35  C   UNL A   1      41.828  21.380  25.900  1.00  0.00     0.014 A 
ATOM     36  C   UNL A   1      40.106  23.483  26.552  1.00  0.00     0.010 A 
ATOM     37  C   UNL A   1      42.349  22.625  26.241  1.00  0.00     0.010 A 
ATOM     38  C   UNL A   1      41.495  23.688  26.573  1.00  0.00    -0.014 A 
BRANCH  38  39
ATOM     39  C   UNL A   1      42.078  24.997  26.961  1.00  0.00     0.031 A 
ATOM     40  C   UNL A   1      41.247  26.003  27.708  1.00  0.00     0.074 A 
ATOM     41  C   UNL A   1      43.318  25.320  26.542  1.00  0.00     0.049 A 
ATOM     42  N   UNL A   1      41.559  27.219  28.072  1.00  0.00    -0.248 NA
ATOM     43  C   UNL A   1      39.874  25.606  28.068  1.00  0.00     0.031 C 
ATOM     44  C   UNL A   1      44.187  24.468  25.726  1.00  0.00     0.029 A 
ATOM     45  N   UNL A   1      44.051  26.469  26.714  1.00  0.00    -0.354 N 
ATOM     46  C   UNL A   1      40.414  27.749  28.655  1.00  0.00     0.074 A 
ATOM     47  C   UNL A   1      39.392  26.728  28.585  1.00  0.00     0.031 C 
ATOM     48  C   UNL A   1      45.328  25.126  25.461  1.00  0.00     0.029 A 
ATOM     49  C   UNL A   1      45.266  26.451  26.068  1.00  0.00     0.049 A 
ATOM     50  H   UNL A   1      43.736  27.233  27.248  1.00  0.00     0.167 HD
ATOM     51  C   UNL A   1      40.239  28.964  29.222  1.00  0.00     0.034 A 
ATOM     52  C   UNL A   1      46.219  27.399  25.969  1.00  0.00     0.034 A 
ATOM     53  C   UNL A   1      41.278  29.948  29.358  1.00  0.00     0.049 A 
ATOM     54  C   UNL A   1      46.023  28.710  26.683  1.00  0.00     0.074 A 
ATOM     55  C   UNL A   1      41.236  31.153  30.037  1.00  0.00     0.029 A 
ATOM     56  N   UNL A   1      42.542  29.845  28.800  1.00  0.00    -0.354 N 
ATOM     57  N   UNL A   1      45.007  29.109  27.410  1.00  0.00    -0.248 NA
ATOM     58  C   UNL A   1      47.120  29.687  26.600  1.00  0.00     0.031 C 
ATOM     59  C   UNL A   1      42.471  31.788  29.874  1.00  0.00     0.029 A 
ATOM     60  C   UNL A   1      43.286  30.971  29.109  1.00  0.00     0.049 A 
ATOM     61  H   UNL A   1      42.863  29.084  28.264  1.00  0.00     0.167 HD
ATOM     62  C   UNL A   1      45.358  30.362  27.900  1.00  0.00     0.074 A 
ATOM     63  C   UNL A   1      46.690  30.646  27.407  1.00  0.00     0.031 C 
ATOM     64  C   UNL A   1      44.636  31.210  28.672  1.00  0.00     0.034 A 
BRANCH  51  65
ATOM     65  C   UNL A   1      38.889  29.291  29.803  1.00  0.00     0.023 A 
ATOM     66  C   UNL A   1      38.604  28.937  31.137  1.00  0.00     0.012 A 
ATOM     67  C   UNL A   1      37.948  30.037  29.067  1.00  0.00     0.148 A 
ATOM     68  C   UNL A   1      37.395  29.303  31.724  1.00  0.00     0.002 A 
ATOM     69  C   UNL A   1      36.762  30.434  29.672  1.00  0.00     0.091 A 
ATOM     70  F   UNL A   1      38.233  30.346  27.794  1.00  0.00    -0.205 F 
ATOM     71  C   UNL A   1      36.480  30.061  30.997  1.00  0.00     0.022 A 
BRANCH  69  72
ATOM     72  S   UNL A   1      35.552  31.477  28.851  1.00  0.00     0.127 S 
ATOM     73  O   UNL A   1      34.884  30.518  27.973  1.00  0.00    -0.237 OA
ATOM     74  O   UNL A   1      34.740  31.946  29.973  1.00  0.00    -0.237 OA
ATOM     75  O   UNL A   1      36.312  32.517  28.171  1.00  0.00    -0.744 OA
ENDBRANCH  69  72
ENDBRANCH  51  65
BRANCH  52  76
ATOM     76  C   UNL A   1      47.477  27.126  25.217  1.00  0.00     0.023 A 
ATOM     77  C   UNL A   1      48.522  26.426  25.851  1.00  0.00     0.012 A 
ATOM     78  C   UNL A   1      47.646  27.551  23.886  1.00  0.00     0.148 A 
ATOM     79  C   UNL A   1      49.728  26.192  25.188  1.00  0.00     0.002 A 
ATOM     80  C   UNL A   1      48.829  27.266  23.213  1.00  0.00     0.091 A 
ATOM     81  F   UNL A   1      46.650  28.232  23.302  1.00  0.00    -0.205 F 
ATOM     82  C   UNL A   1      49.878  26.603  23.868  1.00  0.00     0.022 A 
BRANCH  80  83
ATOM     83  S   UNL A   1      49.042  27.645  21.470  1.00  0.00     0.127 S 
ATOM     84  O   UNL A   1      49.274  29.085  21.501  1.00  0.00    -0.237 OA
ATOM     85  O   UNL A   1      50.213  26.839  21.117  1.00  0.00    -0.237 OA
ATOM     86  O   UNL A   1      47.807  27.205  20.833  1.00  0.00    -0.744 OA
ENDBRANCH  80  83
ENDBRANCH  52  76
BRANCH  64  87
ATOM     87  C   UNL A   1      45.275  32.512  29.074  1.00  0.00     0.023 A 
ATOM     88  C   UNL A   1      45.079  33.659  28.281  1.00  0.00     0.012 A 
ATOM     89  C   UNL A   1      45.995  32.616  30.280  1.00  0.00     0.148 A 
ATOM     90  C   UNL A   1      45.616  34.887  28.669  1.00  0.00     0.002 A 
ATOM     91  C   UNL A   1      46.485  33.852  30.684  1.00  0.00     0.091 A 
ATOM     92  F   UNL A   1      46.186  31.508  31.010  1.00  0.00    -0.205 F 
ATOM     93  C   UNL A   1      46.307  34.986  29.875  1.00  0.00     0.022 A 
BRANCH  91  94
ATOM     94  S   UNL A   1      47.300  34.089  32.268  1.00  0.00     0.127 S 
ATOM     95  O   UNL A   1      46.276  33.623  33.202  1.00  0.00    -0.237 OA
ATOM     96  O   UNL A   1      48.466  33.211  32.154  1.00  0.00    -0.237 OA
ATOM     97  O   UNL A   1      47.621  35.507  32.343  1.00  0.00    -0.744 OA
ENDBRANCH  91  94
ENDBRANCH  64  87
ENDBRANCH  38  39
ENDBRANCH  30  33
ENDBRANCH  28  29
ENDBRANCH  27  28
ENDBRANCH   1  27
TORSDOF 17
ENDMDL
