MODEL 1
REMARK VINA RESULT:     -12.0      0.000      0.000
REMARK SMILES Cc1cc(C)c(NC(=O)C2(C)CCCC2)c(C(=O)NCCCCNC(=O)c2ccc(-c3c4nc(c(-c5cccc(S(=O)(=O)[O-])c5F)c5ccc([nH]5)c(-c5cccc(S(=O)(=O)[O-])c5F)c5nc(c(-c6cccc(S(=O)(=O)[O-])c6F)c6ccc3[nH]6)C=C5)C=C4)cc2)c1
REMARK SMILES IDX 22 1 21 2 20 3 19 4 17 5 18 6 16 8 1 9 2 10 3 11 90 12 4 13
REMARK SMILES IDX 5 14 6 15 7 16 8 17 9 19 10 20 11 21 12 22 15 23 13 24 14 25
REMARK SMILES IDX 23 26 24 27 25 28 26 30 27 31 28 32 89 33 29 34 88 35 30 36
REMARK SMILES IDX 31 37 32 38 82 39 33 40 87 41 81 42 83 43 34 44 86 45 80 46
REMARK SMILES IDX 79 47 35 49 67 50 47 51 66 52 48 53 51 54 65 55 84 56 49 57
REMARK SMILES IDX 50 58 64 60 85 61 52 62 36 63 37 64 45 65 38 66 40 67 46 68
REMARK SMILES IDX 39 69 41 70 42 71 43 72 44 73 68 74 69 75 77 76 70 77 72 78
REMARK SMILES IDX 78 79 71 80 73 81 74 82 75 83 76 84 53 85 54 86 62 87 55 88
REMARK SMILES IDX 57 89 63 90 56 91 58 92 59 93 60 94 61 95
REMARK H PARENT 19 7 7 18 24 29 83 48 51 59
REMARK Flexibility Score: inf
ROOT
ATOM      1  C   UNL A   1      38.284  19.389  24.977  1.00  0.00     0.023 C 
ENDROOT
BRANCH   1   2
ATOM      2  C   UNL A   1      37.105  20.341  24.732  1.00  0.00     0.023 C 
BRANCH   2   3
ATOM      3  C   UNL A   1      37.403  21.811  25.042  1.00  0.00     0.116 C 
BRANCH   3   4
ATOM      4  N   UNL A   1      36.497  22.367  26.030  1.00  0.00    -0.352 N 
ATOM      5  C   UNL A   1      35.136  22.495  26.163  1.00  0.00     0.253 C 
ATOM      6  O   UNL A   1      34.769  23.009  27.225  1.00  0.00    -0.269 OA
ATOM      7  H   UNL A   1      36.980  22.747  26.800  1.00  0.00     0.163 HD
BRANCH   5   8
ATOM      8  C   UNL A   1      34.090  22.135  25.131  1.00  0.00     0.063 A 
ATOM      9  C   UNL A   1      32.183  19.064  23.872  1.00  0.00     0.044 C 
ATOM     10  C   UNL A   1      32.726  20.461  23.964  1.00  0.00    -0.050 A 
ATOM     11  C   UNL A   1      32.441  21.393  22.974  1.00  0.00     0.009 A 
ATOM     12  C   UNL A   1      33.593  20.829  24.998  1.00  0.00     0.019 A 
ATOM     13  C   UNL A   1      32.977  22.690  23.035  1.00  0.00    -0.026 A 
ATOM     14  C   UNL A   1      33.148  23.393  21.707  1.00  0.00     0.046 C 
ATOM     15  C   UNL A   1      33.648  23.124  24.193  1.00  0.00     0.056 A 
BRANCH  15  16
ATOM     16  N   UNL A   1      34.051  24.470  24.350  1.00  0.00    -0.325 N 
ATOM     17  C   UNL A   1      33.422  25.663  24.563  1.00  0.00     0.230 C 
ATOM     18  H   UNL A   1      35.028  24.573  24.290  1.00  0.00     0.169 HD
ATOM     19  O   UNL A   1      33.941  26.650  24.021  1.00  0.00    -0.274 OA
BRANCH  17  20
ATOM     20  C   UNL A   1      32.291  25.877  25.631  1.00  0.00     0.047 C 
ATOM     21  C   UNL A   1      32.675  27.082  26.502  1.00  0.00     0.022 C 
ATOM     22  C   UNL A   1      30.958  26.187  24.892  1.00  0.00     0.016 C 
ATOM     23  C   UNL A   1      31.823  24.706  26.506  1.00  0.00     0.016 C 
ATOM     24  C   UNL A   1      30.421  24.814  24.510  1.00  0.00     0.001 C 
ATOM     25  C   UNL A   1      30.794  23.919  25.684  1.00  0.00     0.001 C 
ENDBRANCH  17  20
ENDBRANCH  15  16
ENDBRANCH   5   8
ENDBRANCH   3   4
ENDBRANCH   2   3
ENDBRANCH   1   2
BRANCH   1  26
ATOM     26  C   UNL A   1      39.249  19.813  26.083  1.00  0.00     0.116 C 
BRANCH  26  27
ATOM     27  N   UNL A   1      40.507  19.078  26.084  1.00  0.00    -0.352 N 
ATOM     28  C   UNL A   1      41.768  19.573  26.325  1.00  0.00     0.251 C 
ATOM     29  H   UNL A   1      40.448  18.115  25.889  1.00  0.00     0.163 HD
ATOM     30  O   UNL A   1      42.755  18.851  26.215  1.00  0.00    -0.269 OA
BRANCH  28  31
ATOM     31  C   UNL A   1      41.916  21.002  26.671  1.00  0.00     0.039 A 
ATOM     32  C   UNL A   1      42.391  21.343  27.938  1.00  0.00     0.014 A 
ATOM     33  C   UNL A   1      41.668  21.989  25.713  1.00  0.00     0.014 A 
ATOM     34  C   UNL A   1      42.692  22.678  28.221  1.00  0.00     0.010 A 
ATOM     35  C   UNL A   1      42.034  23.305  25.975  1.00  0.00     0.010 A 
ATOM     36  C   UNL A   1      42.554  23.662  27.228  1.00  0.00    -0.014 A 
BRANCH  36  37
ATOM     37  C   UNL A   1      42.977  25.064  27.471  1.00  0.00     0.031 A 
ATOM     38  C   UNL A   1      42.024  26.047  28.091  1.00  0.00     0.074 A 
ATOM     39  C   UNL A   1      44.190  25.475  27.046  1.00  0.00     0.049 A 
ATOM     40  N   UNL A   1      42.200  27.318  28.344  1.00  0.00    -0.248 NA
ATOM     41  C   UNL A   1      40.686  25.545  28.448  1.00  0.00     0.031 C 
ATOM     42  C   UNL A   1      45.168  24.640  26.344  1.00  0.00     0.029 A 
ATOM     43  N   UNL A   1      44.796  26.703  27.118  1.00  0.00    -0.354 N 
ATOM     44  C   UNL A   1      40.992  27.775  28.856  1.00  0.00     0.074 A 
ATOM     45  C   UNL A   1      40.077  26.654  28.844  1.00  0.00     0.031 C 
ATOM     46  C   UNL A   1      46.252  25.378  26.057  1.00  0.00     0.029 A 
ATOM     47  C   UNL A   1      46.041  26.742  26.532  1.00  0.00     0.049 A 
ATOM     48  H   UNL A   1      44.380  27.485  27.549  1.00  0.00     0.167 HD
ATOM     49  C   UNL A   1      40.681  29.005  29.327  1.00  0.00     0.034 A 
ATOM     50  C   UNL A   1      46.913  27.761  26.396  1.00  0.00     0.034 A 
ATOM     51  C   UNL A   1      41.609  30.102  29.385  1.00  0.00     0.049 A 
ATOM     52  C   UNL A   1      46.564  29.103  26.982  1.00  0.00     0.074 A 
ATOM     53  C   UNL A   1      41.422  31.358  29.931  1.00  0.00     0.029 A 
ATOM     54  N   UNL A   1      42.897  30.074  28.874  1.00  0.00    -0.354 N 
ATOM     55  N   UNL A   1      45.480  29.465  27.623  1.00  0.00    -0.248 NA
ATOM     56  C   UNL A   1      47.573  30.164  26.860  1.00  0.00     0.031 C 
ATOM     57  C   UNL A   1      42.594  32.097  29.737  1.00  0.00     0.029 A 
ATOM     58  C   UNL A   1      43.517  31.293  29.088  1.00  0.00     0.049 A 
ATOM     59  H   UNL A   1      43.311  29.301  28.425  1.00  0.00     0.167 HD
ATOM     60  C   UNL A   1      45.691  30.783  28.015  1.00  0.00     0.074 A 
ATOM     61  C   UNL A   1      47.016  31.147  27.557  1.00  0.00     0.031 C 
ATOM     62  C   UNL A   1      44.858  31.620  28.679  1.00  0.00     0.034 A 
BRANCH  49  63
ATOM     63  C   UNL A   1      39.297  29.211  29.883  1.00  0.00     0.023 A 
ATOM     64  C   UNL A   1      39.019  28.818  31.208  1.00  0.00     0.012 A 
ATOM     65  C   UNL A   1      38.292  29.841  29.124  1.00  0.00     0.148 A 
ATOM     66  C   UNL A   1      37.753  29.016  31.758  1.00  0.00     0.002 A 
ATOM     67  C   UNL A   1      37.045  30.074  29.694  1.00  0.00     0.091 A 
ATOM     68  F   UNL A   1      38.568  30.187  27.858  1.00  0.00    -0.205 F 
ATOM     69  C   UNL A   1      36.772  29.653  31.005  1.00  0.00     0.022 A 
BRANCH  67  70
ATOM     70  S   UNL A   1      35.736  30.954  28.835  1.00  0.00     0.127 S 
ATOM     71  O   UNL A   1      35.029  29.859  28.173  1.00  0.00    -0.237 OA
ATOM     72  O   UNL A   1      35.004  31.573  29.940  1.00  0.00    -0.237 OA
ATOM     73  O   UNL A   1      36.402  31.896  27.946  1.00  0.00    -0.744 OA
ENDBRANCH  67  70
ENDBRANCH  49  63
BRANCH  50  74
ATOM     74  C   UNL A   1      48.236  27.529  25.748  1.00  0.00     0.023 A 
ATOM     75  C   UNL A   1      49.350  27.210  26.550  1.00  0.00     0.012 A 
ATOM     76  C   UNL A   1      48.395  27.600  24.351  1.00  0.00     0.148 A 
ATOM     77  C   UNL A   1      50.604  27.000  25.977  1.00  0.00     0.002 A 
ATOM     78  C   UNL A   1      49.636  27.335  23.782  1.00  0.00     0.091 A 
ATOM     79  F   UNL A   1      47.327  27.916  23.605  1.00  0.00    -0.205 F 
ATOM     80  C   UNL A   1      50.745  27.053  24.594  1.00  0.00     0.022 A 
BRANCH  78  81
ATOM     81  S   UNL A   1      49.878  27.251  22.004  1.00  0.00     0.127 S 
ATOM     82  O   UNL A   1      49.639  28.635  21.604  1.00  0.00    -0.237 OA
ATOM     83  O   UNL A   1      51.270  26.812  21.907  1.00  0.00    -0.237 OA
ATOM     84  O   UNL A   1      48.908  26.274  21.525  1.00  0.00    -0.744 OA
ENDBRANCH  78  81
ENDBRANCH  50  74
BRANCH  62  85
ATOM     85  C   UNL A   1      45.360  33.006  28.989  1.00  0.00     0.023 A 
ATOM     86  C   UNL A   1      46.112  33.233  30.158  1.00  0.00     0.012 A 
ATOM     87  C   UNL A   1      45.157  34.063  28.080  1.00  0.00     0.148 A 
ATOM     88  C   UNL A   1      46.630  34.498  30.432  1.00  0.00     0.002 A 
ATOM     89  C   UNL A   1      45.717  35.309  28.336  1.00  0.00     0.091 A 
ATOM     90  F   UNL A   1      44.421  33.831  26.982  1.00  0.00    -0.205 F 
ATOM     91  C   UNL A   1      46.444  35.531  29.517  1.00  0.00     0.022 A 
BRANCH  89  92
ATOM     92  S   UNL A   1      45.611  36.668  27.166  1.00  0.00     0.127 S 
ATOM     93  O   UNL A   1      46.364  36.143  26.029  1.00  0.00    -0.237 OA
ATOM     94  O   UNL A   1      44.168  36.777  26.944  1.00  0.00    -0.237 OA
ATOM     95  O   UNL A   1      46.205  37.818  27.835  1.00  0.00    -0.744 OA
ENDBRANCH  89  92
ENDBRANCH  62  85
ENDBRANCH  36  37
ENDBRANCH  28  31
ENDBRANCH  26  27
ENDBRANCH   1  26
TORSDOF 16
ENDMDL
MODEL 2
REMARK VINA RESULT:     -12.0      6.205     11.458
REMARK SMILES Cc1cc(C)c(NC(=O)C2(C)CCCC2)c(C(=O)NCCCCNC(=O)c2ccc(-c3c4nc(c(-c5cccc(S(=O)(=O)[O-])c5F)c5ccc([nH]5)c(-c5cccc(S(=O)(=O)[O-])c5F)c5nc(c(-c6cccc(S(=O)(=O)[O-])c6F)c6ccc3[nH]6)C=C5)C=C4)cc2)c1
REMARK SMILES IDX 22 1 21 2 20 3 19 4 17 5 18 6 16 8 1 9 2 10 3 11 90 12 4 13
REMARK SMILES IDX 5 14 6 15 7 16 8 17 9 19 10 20 11 21 12 22 15 23 13 24 14 25
REMARK SMILES IDX 23 26 24 27 25 28 26 30 27 31 28 32 89 33 29 34 88 35 30 36
REMARK SMILES IDX 31 37 32 38 82 39 33 40 87 41 81 42 83 43 34 44 86 45 80 46
REMARK SMILES IDX 79 47 35 49 67 50 47 51 66 52 48 53 51 54 65 55 84 56 49 57
REMARK SMILES IDX 50 58 64 60 85 61 52 62 36 63 37 64 45 65 38 66 40 67 46 68
REMARK SMILES IDX 39 69 41 70 42 71 43 72 44 73 68 74 69 75 77 76 70 77 72 78
REMARK SMILES IDX 78 79 71 80 73 81 74 82 75 83 76 84 53 85 54 86 62 87 55 88
REMARK SMILES IDX 57 89 63 90 56 91 58 92 59 93 60 94 61 95
REMARK H PARENT 19 7 7 18 24 29 83 48 51 59
REMARK Flexibility Score: inf
ROOT
ATOM      1  C   UNL A   1      31.813  31.333  27.043  1.00  0.00     0.023 C 
ENDROOT
BRANCH   1   2
ATOM      2  C   UNL A   1      32.162  30.303  25.960  1.00  0.00     0.023 C 
BRANCH   2   3
ATOM      3  C   UNL A   1      33.428  29.489  26.244  1.00  0.00     0.116 C 
BRANCH   3   4
ATOM      4  N   UNL A   1      33.984  28.888  25.046  1.00  0.00    -0.352 N 
ATOM      5  C   UNL A   1      33.641  27.856  24.207  1.00  0.00     0.253 C 
ATOM      6  O   UNL A   1      34.396  27.706  23.240  1.00  0.00    -0.269 OA
ATOM      7  H   UNL A   1      34.817  29.332  24.763  1.00  0.00     0.163 HD
BRANCH   5   8
ATOM      8  C   UNL A   1      32.499  26.882  24.392  1.00  0.00     0.063 A 
ATOM      9  C   UNL A   1      28.719  26.689  23.820  1.00  0.00     0.044 C 
ATOM     10  C   UNL A   1      30.105  26.350  24.287  1.00  0.00    -0.050 A 
ATOM     11  C   UNL A   1      30.324  25.234  25.085  1.00  0.00     0.009 A 
ATOM     12  C   UNL A   1      31.186  27.188  24.000  1.00  0.00     0.019 A 
ATOM     13  C   UNL A   1      31.613  24.932  25.557  1.00  0.00    -0.026 A 
ATOM     14  C   UNL A   1      31.673  24.145  26.846  1.00  0.00     0.046 C 
ATOM     15  C   UNL A   1      32.727  25.641  25.070  1.00  0.00     0.056 A 
BRANCH  15  16
ATOM     16  N   UNL A   1      34.047  25.252  25.397  1.00  0.00    -0.325 N 
ATOM     17  C   UNL A   1      34.800  24.121  25.256  1.00  0.00     0.230 C 
ATOM     18  H   UNL A   1      34.547  25.976  25.837  1.00  0.00     0.169 HD
ATOM     19  O   UNL A   1      35.607  23.894  26.169  1.00  0.00    -0.274 OA
BRANCH  17  20
ATOM     20  C   UNL A   1      34.882  23.286  23.929  1.00  0.00     0.047 C 
ATOM     21  C   UNL A   1      36.305  23.417  23.367  1.00  0.00     0.022 C 
ATOM     22  C   UNL A   1      34.602  21.792  24.260  1.00  0.00     0.016 C 
ATOM     23  C   UNL A   1      33.843  23.493  22.819  1.00  0.00     0.016 C 
ATOM     24  C   UNL A   1      33.082  21.702  24.293  1.00  0.00     0.001 C 
ATOM     25  C   UNL A   1      32.620  22.644  23.189  1.00  0.00     0.001 C 
ENDBRANCH  17  20
ENDBRANCH  15  16
ENDBRANCH   5   8
ENDBRANCH   3   4
ENDBRANCH   2   3
ENDBRANCH   1   2
BRANCH   1  26
ATOM     26  C   UNL A   1      32.950  32.273  27.443  1.00  0.00     0.116 C 
BRANCH  26  27
ATOM     27  N   UNL A   1      32.538  33.659  27.616  1.00  0.00    -0.352 N 
ATOM     28  C   UNL A   1      33.068  34.591  28.480  1.00  0.00     0.251 C 
ATOM     29  H   UNL A   1      31.794  33.966  27.049  1.00  0.00     0.163 HD
ATOM     30  O   UNL A   1      32.568  35.708  28.578  1.00  0.00    -0.269 OA
BRANCH  28  31
ATOM     31  C   UNL A   1      34.218  34.204  29.322  1.00  0.00     0.039 A 
ATOM     32  C   UNL A   1      33.977  33.571  30.543  1.00  0.00     0.014 A 
ATOM     33  C   UNL A   1      35.524  34.391  28.862  1.00  0.00     0.014 A 
ATOM     34  C   UNL A   1      35.051  33.053  31.271  1.00  0.00     0.010 A 
ATOM     35  C   UNL A   1      36.583  33.814  29.555  1.00  0.00     0.010 A 
ATOM     36  C   UNL A   1      36.358  33.135  30.762  1.00  0.00    -0.014 A 
BRANCH  36  37
ATOM     37  C   UNL A   1      37.498  32.491  31.461  1.00  0.00     0.031 A 
ATOM     38  C   UNL A   1      38.221  31.335  30.829  1.00  0.00     0.074 A 
ATOM     39  C   UNL A   1      37.822  32.889  32.709  1.00  0.00     0.049 A 
ATOM     40  N   UNL A   1      39.210  30.623  31.302  1.00  0.00    -0.248 NA
ATOM     41  C   UNL A   1      37.752  30.901  29.502  1.00  0.00     0.031 C 
ATOM     42  C   UNL A   1      37.134  33.936  33.469  1.00  0.00     0.029 A 
ATOM     43  N   UNL A   1      38.794  32.443  33.568  1.00  0.00    -0.354 N 
ATOM     44  C   UNL A   1      39.461  29.641  30.352  1.00  0.00     0.074 A 
ATOM     45  C   UNL A   1      38.495  29.823  29.291  1.00  0.00     0.031 C 
ATOM     46  C   UNL A   1      37.709  34.055  34.676  1.00  0.00     0.029 A 
ATOM     47  C   UNL A   1      38.791  33.082  34.788  1.00  0.00     0.049 A 
ATOM     48  H   UNL A   1      39.435  31.733  33.335  1.00  0.00     0.167 HD
ATOM     49  C   UNL A   1      40.429  28.694  30.346  1.00  0.00     0.034 A 
ATOM     50  C   UNL A   1      39.573  32.904  35.871  1.00  0.00     0.034 A 
ATOM     51  C   UNL A   1      41.418  28.549  31.378  1.00  0.00     0.049 A 
ATOM     52  C   UNL A   1      40.679  31.883  35.812  1.00  0.00     0.074 A 
ATOM     53  C   UNL A   1      42.497  27.686  31.420  1.00  0.00     0.029 A 
ATOM     54  N   UNL A   1      41.446  29.283  32.554  1.00  0.00    -0.354 N 
ATOM     55  N   UNL A   1      41.011  31.083  34.828  1.00  0.00    -0.248 NA
ATOM     56  C   UNL A   1      41.541  31.770  36.997  1.00  0.00     0.031 C 
ATOM     57  C   UNL A   1      43.171  27.887  32.629  1.00  0.00     0.029 A 
ATOM     58  C   UNL A   1      42.522  28.890  33.331  1.00  0.00     0.049 A 
ATOM     59  H   UNL A   1      40.797  29.981  32.801  1.00  0.00     0.167 HD
ATOM     60  C   UNL A   1      42.142  30.399  35.259  1.00  0.00     0.074 A 
ATOM     61  C   UNL A   1      42.451  30.895  36.585  1.00  0.00     0.031 C 
ATOM     62  C   UNL A   1      42.851  29.436  34.622  1.00  0.00     0.034 A 
BRANCH  49  63
ATOM     63  C   UNL A   1      40.507  27.784  29.149  1.00  0.00     0.023 A 
ATOM     64  C   UNL A   1      39.613  26.698  29.048  1.00  0.00     0.012 A 
ATOM     65  C   UNL A   1      41.417  28.029  28.104  1.00  0.00     0.148 A 
ATOM     66  C   UNL A   1      39.645  25.850  27.942  1.00  0.00     0.002 A 
ATOM     67  C   UNL A   1      41.414  27.205  26.983  1.00  0.00     0.091 A 
ATOM     68  F   UNL A   1      42.274  29.052  28.228  1.00  0.00    -0.205 F 
ATOM     69  C   UNL A   1      40.537  26.110  26.906  1.00  0.00     0.022 A 
BRANCH  67  70
ATOM     70  S   UNL A   1      42.472  27.499  25.561  1.00  0.00     0.127 S 
ATOM     71  O   UNL A   1      43.797  27.524  26.179  1.00  0.00    -0.237 OA
ATOM     72  O   UNL A   1      42.208  26.322  24.732  1.00  0.00    -0.237 OA
ATOM     73  O   UNL A   1      42.027  28.760  24.984  1.00  0.00    -0.744 OA
ENDBRANCH  67  70
ENDBRANCH  49  63
BRANCH  50  74
ATOM     74  C   UNL A   1      39.391  33.767  37.073  1.00  0.00     0.023 A 
ATOM     75  C   UNL A   1      39.842  35.102  37.036  1.00  0.00     0.012 A 
ATOM     76  C   UNL A   1      38.760  33.288  38.236  1.00  0.00     0.148 A 
ATOM     77  C   UNL A   1      39.699  35.932  38.148  1.00  0.00     0.002 A 
ATOM     78  C   UNL A   1      38.571  34.137  39.321  1.00  0.00     0.091 A 
ATOM     79  F   UNL A   1      38.349  32.012  38.257  1.00  0.00    -0.205 F 
ATOM     80  C   UNL A   1      39.055  35.455  39.286  1.00  0.00     0.022 A 
BRANCH  78  81
ATOM     81  S   UNL A   1      37.637  33.646  40.774  1.00  0.00     0.127 S 
ATOM     82  O   UNL A   1      37.380  34.933  41.414  1.00  0.00    -0.237 OA
ATOM     83  O   UNL A   1      36.463  33.007  40.180  1.00  0.00    -0.237 OA
ATOM     84  O   UNL A   1      38.508  32.734  41.506  1.00  0.00    -0.744 OA
ENDBRANCH  78  81
ENDBRANCH  50  74
BRANCH  62  85
ATOM     85  C   UNL A   1      44.057  28.873  35.327  1.00  0.00     0.023 A 
ATOM     86  C   UNL A   1      45.320  29.467  35.135  1.00  0.00     0.012 A 
ATOM     87  C   UNL A   1      43.923  27.810  36.242  1.00  0.00     0.148 A 
ATOM     88  C   UNL A   1      46.437  28.993  35.822  1.00  0.00     0.002 A 
ATOM     89  C   UNL A   1      45.031  27.374  36.958  1.00  0.00     0.091 A 
ATOM     90  F   UNL A   1      42.716  27.246  36.395  1.00  0.00    -0.205 F 
ATOM     91  C   UNL A   1      46.291  27.957  36.742  1.00  0.00     0.022 A 
BRANCH  89  92
ATOM     92  S   UNL A   1      44.915  26.113  38.233  1.00  0.00     0.127 S 
ATOM     93  O   UNL A   1      44.242  25.030  37.520  1.00  0.00    -0.237 OA
ATOM     94  O   UNL A   1      46.322  25.856  38.545  1.00  0.00    -0.237 OA
ATOM     95  O   UNL A   1      44.157  26.714  39.322  1.00  0.00    -0.744 OA
ENDBRANCH  89  92
ENDBRANCH  62  85
ENDBRANCH  36  37
ENDBRANCH  28  31
ENDBRANCH  26  27
ENDBRANCH   1  26
TORSDOF 16
ENDMDL
MODEL 3
REMARK VINA RESULT:     -11.8      5.703      9.472
REMARK SMILES Cc1cc(C)c(NC(=O)C2(C)CCCC2)c(C(=O)NCCCCNC(=O)c2ccc(-c3c4nc(c(-c5cccc(S(=O)(=O)[O-])c5F)c5ccc([nH]5)c(-c5cccc(S(=O)(=O)[O-])c5F)c5nc(c(-c6cccc(S(=O)(=O)[O-])c6F)c6ccc3[nH]6)C=C5)C=C4)cc2)c1
REMARK SMILES IDX 22 1 21 2 20 3 19 4 17 5 18 6 16 8 1 9 2 10 3 11 90 12 4 13
REMARK SMILES IDX 5 14 6 15 7 16 8 17 9 19 10 20 11 21 12 22 15 23 13 24 14 25
REMARK SMILES IDX 23 26 24 27 25 28 26 30 27 31 28 32 89 33 29 34 88 35 30 36
REMARK SMILES IDX 31 37 32 38 82 39 33 40 87 41 81 42 83 43 34 44 86 45 80 46
REMARK SMILES IDX 79 47 35 49 67 50 47 51 66 52 48 53 51 54 65 55 84 56 49 57
REMARK SMILES IDX 50 58 64 60 85 61 52 62 36 63 37 64 45 65 38 66 40 67 46 68
REMARK SMILES IDX 39 69 41 70 42 71 43 72 44 73 68 74 69 75 77 76 70 77 72 78
REMARK SMILES IDX 78 79 71 80 73 81 74 82 75 83 76 84 53 85 54 86 62 87 55 88
REMARK SMILES IDX 57 89 63 90 56 91 58 92 59 93 60 94 61 95
REMARK H PARENT 19 7 7 18 24 29 83 48 51 59
REMARK Flexibility Score: inf
ROOT
ATOM      1  C   UNL A   1      31.413  32.076  26.739  1.00  0.00     0.023 C 
ENDROOT
BRANCH   1   2
ATOM      2  C   UNL A   1      31.581  30.583  26.427  1.00  0.00     0.023 C 
BRANCH   2   3
ATOM      3  C   UNL A   1      32.918  29.988  26.877  1.00  0.00     0.116 C 
BRANCH   3   4
ATOM      4  N   UNL A   1      33.670  29.413  25.777  1.00  0.00    -0.352 N 
ATOM      5  C   UNL A   1      33.384  28.622  24.690  1.00  0.00     0.253 C 
ATOM      6  O   UNL A   1      34.348  28.397  23.951  1.00  0.00    -0.269 OA
ATOM      7  H   UNL A   1      34.625  29.649  25.820  1.00  0.00     0.163 HD
BRANCH   5   8
ATOM      8  C   UNL A   1      32.056  27.973  24.369  1.00  0.00     0.063 A 
ATOM      9  C   UNL A   1      28.779  28.794  22.569  1.00  0.00     0.044 C 
ATOM     10  C   UNL A   1      29.795  28.088  23.419  1.00  0.00    -0.050 A 
ATOM     11  C   UNL A   1      29.457  26.926  24.100  1.00  0.00     0.009 A 
ATOM     12  C   UNL A   1      31.073  28.626  23.609  1.00  0.00     0.019 A 
ATOM     13  C   UNL A   1      30.393  26.281  24.927  1.00  0.00    -0.026 A 
ATOM     14  C   UNL A   1      29.815  25.460  26.057  1.00  0.00     0.046 C 
ATOM     15  C   UNL A   1      31.739  26.692  24.925  1.00  0.00     0.056 A 
BRANCH  15  16
ATOM     16  N   UNL A   1      32.732  25.961  25.616  1.00  0.00    -0.325 N 
ATOM     17  C   UNL A   1      33.365  24.762  25.445  1.00  0.00     0.230 C 
ATOM     18  H   UNL A   1      33.045  26.432  26.421  1.00  0.00     0.169 HD
ATOM     19  O   UNL A   1      33.655  24.154  26.485  1.00  0.00    -0.274 OA
BRANCH  17  20
ATOM     20  C   UNL A   1      33.958  24.275  24.076  1.00  0.00     0.047 C 
ATOM     21  C   UNL A   1      35.448  23.965  24.280  1.00  0.00     0.022 C 
ATOM     22  C   UNL A   1      33.222  22.973  23.648  1.00  0.00     0.016 C 
ATOM     23  C   UNL A   1      33.750  25.106  22.803  1.00  0.00     0.016 C 
ATOM     24  C   UNL A   1      31.945  23.472  22.986  1.00  0.00     0.001 C 
ATOM     25  C   UNL A   1      32.367  24.737  22.250  1.00  0.00     0.001 C 
ENDBRANCH  17  20
ENDBRANCH  15  16
ENDBRANCH   5   8
ENDBRANCH   3   4
ENDBRANCH   2   3
ENDBRANCH   1   2
BRANCH   1  26
ATOM     26  C   UNL A   1      32.714  32.856  26.925  1.00  0.00     0.116 C 
BRANCH  26  27
ATOM     27  N   UNL A   1      32.573  34.058  27.737  1.00  0.00    -0.352 N 
ATOM     28  C   UNL A   1      33.369  34.462  28.784  1.00  0.00     0.251 C 
ATOM     29  H   UNL A   1      31.819  34.650  27.510  1.00  0.00     0.163 HD
ATOM     30  O   UNL A   1      33.085  35.464  29.435  1.00  0.00    -0.269 OA
BRANCH  28  31
ATOM     31  C   UNL A   1      34.544  33.640  29.141  1.00  0.00     0.039 A 
ATOM     32  C   UNL A   1      35.821  34.159  28.921  1.00  0.00     0.014 A 
ATOM     33  C   UNL A   1      34.375  32.403  29.767  1.00  0.00     0.014 A 
ATOM     34  C   UNL A   1      36.934  33.467  29.403  1.00  0.00     0.010 A 
ATOM     35  C   UNL A   1      35.480  31.752  30.305  1.00  0.00     0.010 A 
ATOM     36  C   UNL A   1      36.769  32.279  30.135  1.00  0.00    -0.014 A 
BRANCH  36  37
ATOM     37  C   UNL A   1      37.928  31.589  30.754  1.00  0.00     0.031 A 
ATOM     38  C   UNL A   1      38.322  31.893  32.173  1.00  0.00     0.074 A 
ATOM     39  C   UNL A   1      38.683  30.757  30.007  1.00  0.00     0.049 A 
ATOM     40  N   UNL A   1      39.323  31.421  32.869  1.00  0.00    -0.248 NA
ATOM     41  C   UNL A   1      37.501  32.878  32.896  1.00  0.00     0.031 C 
ATOM     42  C   UNL A   1      38.461  30.455  28.591  1.00  0.00     0.029 A 
ATOM     43  N   UNL A   1      39.805  30.034  30.326  1.00  0.00    -0.354 N 
ATOM     44  C   UNL A   1      39.274  32.072  34.095  1.00  0.00     0.074 A 
ATOM     45  C   UNL A   1      38.167  33.002  34.036  1.00  0.00     0.031 C 
ATOM     46  C   UNL A   1      39.410  29.605  28.167  1.00  0.00     0.029 A 
ATOM     47  C   UNL A   1      40.322  29.319  29.270  1.00  0.00     0.049 A 
ATOM     48  H   UNL A   1      40.203  30.027  31.227  1.00  0.00     0.167 HD
ATOM     49  C   UNL A   1      40.057  31.890  35.185  1.00  0.00     0.034 A 
ATOM     50  C   UNL A   1      41.406  28.521  29.201  1.00  0.00     0.034 A 
ATOM     51  C   UNL A   1      41.124  30.929  35.256  1.00  0.00     0.049 A 
ATOM     52  C   UNL A   1      42.223  28.291  30.444  1.00  0.00     0.074 A 
ATOM     53  C   UNL A   1      41.913  30.600  36.343  1.00  0.00     0.029 A 
ATOM     54  N   UNL A   1      41.554  30.147  34.196  1.00  0.00    -0.354 N 
ATOM     55  N   UNL A   1      42.051  28.784  31.647  1.00  0.00    -0.248 NA
ATOM     56  C   UNL A   1      43.359  27.366  30.331  1.00  0.00     0.031 C 
ATOM     57  C   UNL A   1      42.832  29.628  35.936  1.00  0.00     0.029 A 
ATOM     58  C   UNL A   1      42.602  29.338  34.601  1.00  0.00     0.049 A 
ATOM     59  H   UNL A   1      41.172  30.164  33.289  1.00  0.00     0.167 HD
ATOM     60  C   UNL A   1      43.031  28.200  32.441  1.00  0.00     0.074 A 
ATOM     61  C   UNL A   1      43.780  27.301  31.588  1.00  0.00     0.031 C 
ATOM     62  C   UNL A   1      43.297  28.403  33.755  1.00  0.00     0.034 A 
BRANCH  49  63
ATOM     63  C   UNL A   1      39.743  32.701  36.414  1.00  0.00     0.023 A 
ATOM     64  C   UNL A   1      40.385  33.942  36.606  1.00  0.00     0.012 A 
ATOM     65  C   UNL A   1      38.779  32.270  37.345  1.00  0.00     0.148 A 
ATOM     66  C   UNL A   1      40.099  34.726  37.723  1.00  0.00     0.002 A 
ATOM     67  C   UNL A   1      38.468  33.078  38.434  1.00  0.00     0.091 A 
ATOM     68  F   UNL A   1      38.196  31.078  37.159  1.00  0.00    -0.205 F 
ATOM     69  C   UNL A   1      39.133  34.299  38.629  1.00  0.00     0.022 A 
BRANCH  67  70
ATOM     70  S   UNL A   1      37.185  32.655  39.619  1.00  0.00     0.127 S 
ATOM     71  O   UNL A   1      35.987  32.691  38.782  1.00  0.00    -0.237 OA
ATOM     72  O   UNL A   1      37.591  31.315  40.047  1.00  0.00    -0.237 OA
ATOM     73  O   UNL A   1      37.251  33.670  40.661  1.00  0.00    -0.744 OA
ENDBRANCH  67  70
ENDBRANCH  49  63
BRANCH  50  74
ATOM     74  C   UNL A   1      41.733  27.815  27.929  1.00  0.00     0.023 A 
ATOM     75  C   UNL A   1      42.218  28.558  26.834  1.00  0.00     0.012 A 
ATOM     76  C   UNL A   1      41.590  26.421  27.802  1.00  0.00     0.148 A 
ATOM     77  C   UNL A   1      42.522  27.930  25.626  1.00  0.00     0.002 A 
ATOM     78  C   UNL A   1      41.946  25.794  26.612  1.00  0.00     0.091 A 
ATOM     79  F   UNL A   1      41.116  25.732  28.850  1.00  0.00    -0.205 F 
ATOM     80  C   UNL A   1      42.396  26.549  25.517  1.00  0.00     0.022 A 
BRANCH  78  81
ATOM     81  S   UNL A   1      41.941  24.007  26.429  1.00  0.00     0.127 S 
ATOM     82  O   UNL A   1      42.715  23.585  27.594  1.00  0.00    -0.237 OA
ATOM     83  O   UNL A   1      40.513  23.699  26.493  1.00  0.00    -0.237 OA
ATOM     84  O   UNL A   1      42.552  23.747  25.132  1.00  0.00    -0.744 OA
ENDBRANCH  78  81
ENDBRANCH  50  74
BRANCH  62  85
ATOM     85  C   UNL A   1      44.423  27.614  34.370  1.00  0.00     0.023 A 
ATOM     86  C   UNL A   1      45.728  28.146  34.376  1.00  0.00     0.012 A 
ATOM     87  C   UNL A   1      44.173  26.387  35.015  1.00  0.00     0.148 A 
ATOM     88  C   UNL A   1      46.772  27.455  34.990  1.00  0.00     0.002 A 
ATOM     89  C   UNL A   1      45.208  25.727  35.666  1.00  0.00     0.091 A 
ATOM     90  F   UNL A   1      42.928  25.889  34.981  1.00  0.00    -0.205 F 
ATOM     91  C   UNL A   1      46.510  26.254  35.644  1.00  0.00     0.022 A 
BRANCH  89  92
ATOM     92  S   UNL A   1      44.943  24.226  36.617  1.00  0.00     0.127 S 
ATOM     93  O   UNL A   1      46.310  23.747  36.806  1.00  0.00    -0.237 OA
ATOM     94  O   UNL A   1      44.301  24.735  37.831  1.00  0.00    -0.237 OA
ATOM     95  O   UNL A   1      44.089  23.379  35.795  1.00  0.00    -0.744 OA
ENDBRANCH  89  92
ENDBRANCH  62  85
ENDBRANCH  36  37
ENDBRANCH  28  31
ENDBRANCH  26  27
ENDBRANCH   1  26
TORSDOF 16
ENDMDL
