MODEL 1
REMARK VINA RESULT:     -13.3      0.000      0.000
REMARK SMILES Cc1[nH]c2ccccc2c1/C=C1/SC(=S)N(c2cccc(C(=O)NCCCCNC(=O)c3ccc(-c4c5nc(c(-c6cccc(S(=O)(=O)[O-])c6F)c6ccc([nH]6)c(-c6cccc(S(=O)(=O)[O-])c6F)c6nc(c(-c7cccc(S(=O)(=O)[O-])c7F)c7ccc4[nH]7)C=C6)C=C5)cc3)c2)C1=O
REMARK SMILES IDX 27 1 26 2 25 3 24 4 22 5 23 6 21 8 17 9 18 10 95 11 19 12
REMARK SMILES IDX 20 13 16 14 11 15 12 16 13 17 96 18 14 19 97 20 15 21 10 22
REMARK SMILES IDX 1 23 2 24 3 25 4 26 9 28 5 29 8 30 6 31 7 32 28 33 29 34
REMARK SMILES IDX 30 35 31 37 32 38 33 39 94 40 34 41 93 42 35 43 36 44 37 45
REMARK SMILES IDX 87 46 38 47 92 48 86 49 88 50 39 51 91 52 85 53 84 54 40 56
REMARK SMILES IDX 72 57 52 58 71 59 53 60 56 61 70 62 89 63 54 64 55 65 69 67
REMARK SMILES IDX 90 68 57 69 41 70 42 71 50 72 43 73 45 74 51 75 44 76 46 77
REMARK SMILES IDX 47 78 48 79 49 80 73 81 74 82 82 83 75 84 77 85 83 86 76 87
REMARK SMILES IDX 78 88 79 89 80 90 81 91 58 92 59 93 67 94 60 95 62 96 68 97
REMARK SMILES IDX 61 98 63 99 64 100 65 101 66 102
REMARK H PARENT 24 7 3 27 29 36 88 55 56 66
REMARK Flexibility Score: inf
ROOT
ATOM      1  C   UNL A   1      32.241  29.316  25.321  1.00  0.00     0.023 C 
ENDROOT
BRANCH   1   2
ATOM      2  C   UNL A   1      31.013  29.527  24.445  1.00  0.00     0.023 C 
BRANCH   2   3
ATOM      3  C   UNL A   1      31.174  29.239  22.958  1.00  0.00     0.116 C 
BRANCH   3   4
ATOM      4  N   UNL A   1      32.549  29.194  22.489  1.00  0.00    -0.352 N 
ATOM      5  C   UNL A   1      33.320  28.146  22.037  1.00  0.00     0.251 C 
ATOM      6  O   UNL A   1      34.480  28.363  21.693  1.00  0.00    -0.269 OA
ATOM      7  H   UNL A   1      33.010  30.064  22.497  1.00  0.00     0.163 HD
BRANCH   5   8
ATOM      8  C   UNL A   1      32.818  26.746  22.020  1.00  0.00     0.041 A 
ATOM      9  C   UNL A   1      32.085  24.733  23.169  1.00  0.00     0.051 A 
ATOM     10  C   UNL A   1      32.248  24.021  21.970  1.00  0.00     0.027 A 
ATOM     11  C   UNL A   1      32.281  26.120  23.150  1.00  0.00     0.040 A 
ATOM     12  C   UNL A   1      32.640  24.666  20.798  1.00  0.00     0.003 A 
ATOM     13  C   UNL A   1      32.953  26.023  20.829  1.00  0.00     0.014 A 
BRANCH   9  14
ATOM     14  N   UNL A   1      31.953  24.044  24.419  1.00  0.00    -0.261 N 
ATOM     15  C   UNL A   1      33.254  21.360  26.543  1.00  0.00     0.032 C 
ATOM     16  C   UNL A   1      32.600  22.402  26.004  1.00  0.00     0.081 C 
ATOM     17  S   UNL A   1      31.656  23.499  26.932  1.00  0.00    -0.054 SA
ATOM     18  C   UNL A   1      32.606  22.817  24.571  1.00  0.00     0.270 C 
ATOM     19  C   UNL A   1      31.332  24.550  25.551  1.00  0.00     0.152 C 
ATOM     20  O   UNL A   1      33.160  22.171  23.689  1.00  0.00    -0.268 OA
ATOM     21  S   UNL A   1      30.323  25.873  25.717  1.00  0.00    -0.051 S 
BRANCH  15  22
ATOM     22  C   UNL A   1      34.089  20.439  25.845  1.00  0.00     0.004 A 
ATOM     23  C   UNL A   1      36.343  21.788  25.761  1.00  0.00     0.065 C 
ATOM     24  C   UNL A   1      35.417  20.651  25.519  1.00  0.00     0.020 A 
ATOM     25  N   UNL A   1      35.828  19.554  24.798  1.00  0.00    -0.358 N 
ATOM     26  C   UNL A   1      34.811  18.634  24.684  1.00  0.00     0.046 A 
ATOM     27  H   UNL A   1      36.728  19.443  24.416  1.00  0.00     0.166 HD
ATOM     28  C   UNL A   1      33.706  19.159  25.353  1.00  0.00     0.007 A 
ATOM     29  C   UNL A   1      34.786  17.395  24.033  1.00  0.00     0.027 A 
ATOM     30  C   UNL A   1      32.516  18.402  25.383  1.00  0.00     0.011 A 
ATOM     31  C   UNL A   1      33.593  16.667  24.073  1.00  0.00     0.002 A 
ATOM     32  C   UNL A   1      32.475  17.159  24.742  1.00  0.00     0.001 A 
ENDBRANCH  15  22
ENDBRANCH   9  14
ENDBRANCH   5   8
ENDBRANCH   3   4
ENDBRANCH   2   3
ENDBRANCH   1   2
BRANCH   1  33
ATOM     33  C   UNL A   1      32.146  29.827  26.755  1.00  0.00     0.116 C 
BRANCH  33  34
ATOM     34  N   UNL A   1      32.137  31.279  26.866  1.00  0.00    -0.352 N 
ATOM     35  C   UNL A   1      33.098  32.128  27.373  1.00  0.00     0.251 C 
ATOM     36  H   UNL A   1      31.324  31.721  26.530  1.00  0.00     0.163 HD
ATOM     37  O   UNL A   1      32.871  33.330  27.444  1.00  0.00    -0.269 OA
BRANCH  35  38
ATOM     38  C   UNL A   1      34.382  31.583  27.870  1.00  0.00     0.039 A 
ATOM     39  C   UNL A   1      35.417  32.471  28.175  1.00  0.00     0.014 A 
ATOM     40  C   UNL A   1      34.554  30.213  28.071  1.00  0.00     0.014 A 
ATOM     41  C   UNL A   1      36.588  31.994  28.772  1.00  0.00     0.010 A 
ATOM     42  C   UNL A   1      35.685  29.750  28.739  1.00  0.00     0.010 A 
ATOM     43  C   UNL A   1      36.711  30.635  29.104  1.00  0.00    -0.014 A 
BRANCH  43  44
ATOM     44  C   UNL A   1      37.883  30.121  29.861  1.00  0.00     0.031 A 
ATOM     45  C   UNL A   1      38.152  30.598  31.263  1.00  0.00     0.074 A 
ATOM     46  C   UNL A   1      38.771  29.313  29.245  1.00  0.00     0.049 A 
ATOM     47  N   UNL A   1      39.162  30.325  32.046  1.00  0.00    -0.248 NA
ATOM     48  C   UNL A   1      37.174  31.529  31.850  1.00  0.00     0.031 C 
ATOM     49  C   UNL A   1      38.676  28.850  27.858  1.00  0.00     0.029 A 
ATOM     50  N   UNL A   1      39.945  28.761  29.695  1.00  0.00    -0.354 N 
ATOM     51  C   UNL A   1      38.969  31.085  33.194  1.00  0.00     0.074 A 
ATOM     52  C   UNL A   1      37.757  31.849  32.996  1.00  0.00     0.031 C 
ATOM     53  C   UNL A   1      39.742  28.086  27.572  1.00  0.00     0.029 A 
ATOM     54  C   UNL A   1      40.611  28.022  28.744  1.00  0.00     0.049 A 
ATOM     55  H   UNL A   1      40.280  28.884  30.613  1.00  0.00     0.167 HD
ATOM     56  C   UNL A   1      39.715  31.120  34.324  1.00  0.00     0.034 A 
ATOM     57  C   UNL A   1      41.789  27.370  28.805  1.00  0.00     0.034 A 
ATOM     58  C   UNL A   1      40.880  30.308  34.547  1.00  0.00     0.049 A 
ATOM     59  C   UNL A   1      42.560  27.373  30.097  1.00  0.00     0.074 A 
ATOM     60  C   UNL A   1      41.631  30.181  35.702  1.00  0.00     0.029 A 
ATOM     61  N   UNL A   1      41.464  29.485  33.597  1.00  0.00    -0.354 N 
ATOM     62  N   UNL A   1      42.260  27.949  31.237  1.00  0.00    -0.248 NA
ATOM     63  C   UNL A   1      43.815  26.607  30.126  1.00  0.00     0.031 C 
ATOM     64  C   UNL A   1      42.680  29.293  35.445  1.00  0.00     0.029 A 
ATOM     65  C   UNL A   1      42.572  28.855  34.135  1.00  0.00     0.049 A 
ATOM     66  H   UNL A   1      41.138  29.367  32.676  1.00  0.00     0.167 HD
ATOM     67  C   UNL A   1      43.265  27.584  32.125  1.00  0.00     0.074 A 
ATOM     68  C   UNL A   1      44.172  26.720  31.399  1.00  0.00     0.031 C 
ATOM     69  C   UNL A   1      43.430  27.946  33.421  1.00  0.00     0.034 A 
BRANCH  56  70
ATOM     70  C   UNL A   1      39.259  32.024  35.440  1.00  0.00     0.023 A 
ATOM     71  C   UNL A   1      38.324  31.545  36.380  1.00  0.00     0.012 A 
ATOM     72  C   UNL A   1      39.801  33.313  35.598  1.00  0.00     0.148 A 
ATOM     73  C   UNL A   1      37.912  32.347  37.443  1.00  0.00     0.002 A 
ATOM     74  C   UNL A   1      39.417  34.091  36.685  1.00  0.00     0.091 A 
ATOM     75  F   UNL A   1      40.672  33.758  34.681  1.00  0.00    -0.205 F 
ATOM     76  C   UNL A   1      38.466  33.614  37.602  1.00  0.00     0.022 A 
BRANCH  74  77
ATOM     77  S   UNL A   1      40.131  35.705  37.020  1.00  0.00     0.127 S 
ATOM     78  O   UNL A   1      41.563  35.409  36.982  1.00  0.00    -0.237 OA
ATOM     79  O   UNL A   1      39.642  36.500  35.893  1.00  0.00    -0.237 OA
ATOM     80  O   UNL A   1      39.610  36.112  38.319  1.00  0.00    -0.744 OA
ENDBRANCH  74  77
ENDBRANCH  56  70
BRANCH  57  81
ATOM     81  C   UNL A   1      42.274  26.585  27.633  1.00  0.00     0.023 A 
ATOM     82  C   UNL A   1      43.066  27.226  26.659  1.00  0.00     0.012 A 
ATOM     83  C   UNL A   1      41.976  25.218  27.482  1.00  0.00     0.148 A 
ATOM     84  C   UNL A   1      43.523  26.529  25.541  1.00  0.00     0.002 A 
ATOM     85  C   UNL A   1      42.479  24.516  26.392  1.00  0.00     0.091 A 
ATOM     86  F   UNL A   1      41.208  24.627  28.409  1.00  0.00    -0.205 F 
ATOM     87  C   UNL A   1      43.238  25.173  25.411  1.00  0.00     0.022 A 
BRANCH  85  88
ATOM     88  S   UNL A   1      42.270  22.740  26.219  1.00  0.00     0.127 S 
ATOM     89  O   UNL A   1      40.827  22.591  26.376  1.00  0.00    -0.237 OA
ATOM     90  O   UNL A   1      42.770  22.504  24.863  1.00  0.00    -0.237 OA
ATOM     91  O   UNL A   1      43.092  22.150  27.266  1.00  0.00    -0.744 OA
ENDBRANCH  85  88
ENDBRANCH  57  81
BRANCH  69  92
ATOM     92  C   UNL A   1      44.615  27.382  34.160  1.00  0.00     0.023 A 
ATOM     93  C   UNL A   1      45.821  28.108  34.201  1.00  0.00     0.012 A 
ATOM     94  C   UNL A   1      44.507  26.177  34.881  1.00  0.00     0.148 A 
ATOM     95  C   UNL A   1      46.911  27.628  34.926  1.00  0.00     0.002 A 
ATOM     96  C   UNL A   1      45.582  25.729  35.640  1.00  0.00     0.091 A 
ATOM     97  F   UNL A   1      43.357  25.489  34.813  1.00  0.00    -0.205 F 
ATOM     98  C   UNL A   1      46.789  26.447  35.655  1.00  0.00     0.022 A 
BRANCH  96  99
ATOM     99  S   UNL A   1      45.477  24.270  36.684  1.00  0.00     0.127 S 
ATOM    100  O   UNL A   1      44.788  24.794  37.861  1.00  0.00    -0.237 OA
ATOM    101  O   UNL A   1      44.680  23.357  35.866  1.00  0.00    -0.237 OA
ATOM    102  O   UNL A   1      46.851  23.838  36.903  1.00  0.00    -0.744 OA
ENDBRANCH  96  99
ENDBRANCH  69  92
ENDBRANCH  43  44
ENDBRANCH  35  38
ENDBRANCH  33  34
ENDBRANCH   1  33
TORSDOF 16
ENDMDL
MODEL 2
REMARK VINA RESULT:     -13.1      2.924      4.737
REMARK SMILES Cc1[nH]c2ccccc2c1/C=C1/SC(=S)N(c2cccc(C(=O)NCCCCNC(=O)c3ccc(-c4c5nc(c(-c6cccc(S(=O)(=O)[O-])c6F)c6ccc([nH]6)c(-c6cccc(S(=O)(=O)[O-])c6F)c6nc(c(-c7cccc(S(=O)(=O)[O-])c7F)c7ccc4[nH]7)C=C6)C=C5)cc3)c2)C1=O
REMARK SMILES IDX 27 1 26 2 25 3 24 4 22 5 23 6 21 8 17 9 18 10 95 11 19 12
REMARK SMILES IDX 20 13 16 14 11 15 12 16 13 17 96 18 14 19 97 20 15 21 10 22
REMARK SMILES IDX 1 23 2 24 3 25 4 26 9 28 5 29 8 30 6 31 7 32 28 33 29 34
REMARK SMILES IDX 30 35 31 37 32 38 33 39 94 40 34 41 93 42 35 43 36 44 37 45
REMARK SMILES IDX 87 46 38 47 92 48 86 49 88 50 39 51 91 52 85 53 84 54 40 56
REMARK SMILES IDX 72 57 52 58 71 59 53 60 56 61 70 62 89 63 54 64 55 65 69 67
REMARK SMILES IDX 90 68 57 69 41 70 42 71 50 72 43 73 45 74 51 75 44 76 46 77
REMARK SMILES IDX 47 78 48 79 49 80 73 81 74 82 82 83 75 84 77 85 83 86 76 87
REMARK SMILES IDX 78 88 79 89 80 90 81 91 58 92 59 93 67 94 60 95 62 96 68 97
REMARK SMILES IDX 61 98 63 99 64 100 65 101 66 102
REMARK H PARENT 24 7 3 27 29 36 88 55 56 66
REMARK Flexibility Score: inf
ROOT
ATOM      1  C   UNL A   1      34.548  34.890  28.738  1.00  0.00     0.023 C 
ENDROOT
BRANCH   1   2
ATOM      2  C   UNL A   1      35.486  33.825  28.184  1.00  0.00     0.023 C 
BRANCH   2   3
ATOM      3  C   UNL A   1      34.865  32.477  27.843  1.00  0.00     0.116 C 
BRANCH   3   4
ATOM      4  N   UNL A   1      35.789  31.355  27.860  1.00  0.00    -0.352 N 
ATOM      5  C   UNL A   1      35.616  30.031  27.524  1.00  0.00     0.251 C 
ATOM      6  O   UNL A   1      36.566  29.258  27.629  1.00  0.00    -0.269 OA
ATOM      7  H   UNL A   1      36.697  31.582  28.165  1.00  0.00     0.163 HD
BRANCH   5   8
ATOM      8  C   UNL A   1      34.294  29.487  27.109  1.00  0.00     0.041 A 
ATOM      9  C   UNL A   1      32.920  28.117  25.645  1.00  0.00     0.051 A 
ATOM     10  C   UNL A   1      31.786  28.792  26.122  1.00  0.00     0.027 A 
ATOM     11  C   UNL A   1      34.161  28.412  26.225  1.00  0.00     0.040 A 
ATOM     12  C   UNL A   1      31.892  29.766  27.114  1.00  0.00     0.003 A 
ATOM     13  C   UNL A   1      33.148  30.134  27.587  1.00  0.00     0.014 A 
BRANCH   9  14
ATOM     14  N   UNL A   1      32.856  27.325  24.452  1.00  0.00    -0.261 N 
ATOM     15  C   UNL A   1      32.906  23.936  23.068  1.00  0.00     0.032 C 
ATOM     16  C   UNL A   1      32.833  25.258  23.287  1.00  0.00     0.081 C 
ATOM     17  S   UNL A   1      32.177  26.364  22.146  1.00  0.00    -0.054 SA
ATOM     18  C   UNL A   1      33.241  25.983  24.526  1.00  0.00     0.270 C 
ATOM     19  C   UNL A   1      32.317  27.740  23.243  1.00  0.00     0.152 C 
ATOM     20  O   UNL A   1      33.790  25.434  25.473  1.00  0.00    -0.268 OA
ATOM     21  S   UNL A   1      31.914  29.278  22.724  1.00  0.00    -0.051 S 
BRANCH  15  22
ATOM     22  C   UNL A   1      33.394  22.957  23.982  1.00  0.00     0.004 A 
ATOM     23  C   UNL A   1      31.199  22.392  25.313  1.00  0.00     0.065 C 
ATOM     24  C   UNL A   1      32.636  22.310  24.942  1.00  0.00     0.020 A 
ATOM     25  N   UNL A   1      33.496  21.502  25.648  1.00  0.00    -0.358 N 
ATOM     26  C   UNL A   1      34.774  21.589  25.146  1.00  0.00     0.046 A 
ATOM     27  H   UNL A   1      33.232  20.937  26.410  1.00  0.00     0.166 HD
ATOM     28  C   UNL A   1      34.735  22.488  24.080  1.00  0.00     0.007 A 
ATOM     29  C   UNL A   1      35.951  20.956  25.562  1.00  0.00     0.027 A 
ATOM     30  C   UNL A   1      35.932  22.760  23.385  1.00  0.00     0.011 A 
ATOM     31  C   UNL A   1      37.125  21.246  24.860  1.00  0.00     0.002 A 
ATOM     32  C   UNL A   1      37.118  22.131  23.784  1.00  0.00     0.001 A 
ENDBRANCH  15  22
ENDBRANCH   9  14
ENDBRANCH   5   8
ENDBRANCH   3   4
ENDBRANCH   2   3
ENDBRANCH   1   2
BRANCH   1  33
ATOM     33  C   UNL A   1      33.223  34.396  29.309  1.00  0.00     0.116 C 
BRANCH  33  34
ATOM     34  N   UNL A   1      32.580  35.339  30.213  1.00  0.00    -0.352 N 
ATOM     35  C   UNL A   1      32.874  35.639  31.526  1.00  0.00     0.251 C 
ATOM     36  H   UNL A   1      31.821  35.836  29.830  1.00  0.00     0.163 HD
ATOM     37  O   UNL A   1      32.163  36.420  32.145  1.00  0.00    -0.269 OA
BRANCH  35  38
ATOM     38  C   UNL A   1      34.020  34.984  32.197  1.00  0.00     0.039 A 
ATOM     39  C   UNL A   1      33.820  33.750  32.822  1.00  0.00     0.014 A 
ATOM     40  C   UNL A   1      35.291  35.561  32.179  1.00  0.00     0.014 A 
ATOM     41  C   UNL A   1      34.913  33.051  33.343  1.00  0.00     0.010 A 
ATOM     42  C   UNL A   1      36.388  34.828  32.625  1.00  0.00     0.010 A 
ATOM     43  C   UNL A   1      36.213  33.562  33.205  1.00  0.00    -0.014 A 
BRANCH  43  44
ATOM     44  C   UNL A   1      37.406  32.780  33.626  1.00  0.00     0.031 A 
ATOM     45  C   UNL A   1      38.185  33.183  34.849  1.00  0.00     0.074 A 
ATOM     46  C   UNL A   1      37.856  31.779  32.842  1.00  0.00     0.049 A 
ATOM     47  N   UNL A   1      39.292  32.676  35.324  1.00  0.00    -0.248 NA
ATOM     48  C   UNL A   1      37.671  34.326  35.621  1.00  0.00     0.031 C 
ATOM     49  C   UNL A   1      37.246  31.348  31.582  1.00  0.00     0.029 A 
ATOM     50  N   UNL A   1      38.951  30.959  32.973  1.00  0.00    -0.354 N 
ATOM     51  C   UNL A   1      39.633  33.464  36.417  1.00  0.00     0.074 A 
ATOM     52  C   UNL A   1      38.629  34.499  36.522  1.00  0.00     0.031 C 
ATOM     53  C   UNL A   1      37.970  30.346  31.059  1.00  0.00     0.029 A 
ATOM     54  C   UNL A   1      39.111  30.077  31.929  1.00  0.00     0.049 A 
ATOM     55  H   UNL A   1      39.565  31.000  33.742  1.00  0.00     0.167 HD
ATOM     56  C   UNL A   1      40.671  33.320  37.276  1.00  0.00     0.034 A 
ATOM     57  C   UNL A   1      40.069  29.158  31.696  1.00  0.00     0.034 A 
ATOM     58  C   UNL A   1      41.628  32.250  37.213  1.00  0.00     0.049 A 
ATOM     59  C   UNL A   1      41.171  28.978  32.705  1.00  0.00     0.074 A 
ATOM     60  C   UNL A   1      42.641  31.949  38.107  1.00  0.00     0.029 A 
ATOM     61  N   UNL A   1      41.694  31.306  36.200  1.00  0.00    -0.354 N 
ATOM     62  N   UNL A   1      41.368  29.614  33.835  1.00  0.00    -0.248 NA
ATOM     63  C   UNL A   1      42.164  27.930  32.427  1.00  0.00     0.031 C 
ATOM     64  C   UNL A   1      43.329  30.831  37.625  1.00  0.00     0.029 A 
ATOM     65  C   UNL A   1      42.735  30.427  36.440  1.00  0.00     0.049 A 
ATOM     66  H   UNL A   1      41.089  31.268  35.425  1.00  0.00     0.167 HD
ATOM     67  C   UNL A   1      42.480  29.019  34.419  1.00  0.00     0.074 A 
ATOM     68  C   UNL A   1      42.903  27.957  33.529  1.00  0.00     0.031 C 
ATOM     69  C   UNL A   1      43.105  29.334  35.580  1.00  0.00     0.034 A 
BRANCH  56  70
ATOM     70  C   UNL A   1      40.792  34.312  38.404  1.00  0.00     0.023 A 
ATOM     71  C   UNL A   1      41.688  35.393  38.282  1.00  0.00     0.012 A 
ATOM     72  C   UNL A   1      39.974  34.215  39.546  1.00  0.00     0.148 A 
ATOM     73  C   UNL A   1      41.793  36.345  39.295  1.00  0.00     0.002 A 
ATOM     74  C   UNL A   1      40.054  35.192  40.532  1.00  0.00     0.091 A 
ATOM     75  F   UNL A   1      39.144  33.168  39.652  1.00  0.00    -0.205 F 
ATOM     76  C   UNL A   1      40.969  36.251  40.414  1.00  0.00     0.022 A 
BRANCH  74  77
ATOM     77  S   UNL A   1      38.981  35.203  41.973  1.00  0.00     0.127 S 
ATOM     78  O   UNL A   1      39.480  34.050  42.722  1.00  0.00    -0.237 OA
ATOM     79  O   UNL A   1      39.286  36.501  42.576  1.00  0.00    -0.237 OA
ATOM     80  O   UNL A   1      37.623  35.077  41.462  1.00  0.00    -0.744 OA
ENDBRANCH  74  77
ENDBRANCH  56  70
BRANCH  57  81
ATOM     81  C   UNL A   1      39.985  28.275  30.497  1.00  0.00     0.023 A 
ATOM     82  C   UNL A   1      39.119  27.164  30.523  1.00  0.00     0.012 A 
ATOM     83  C   UNL A   1      40.735  28.532  29.334  1.00  0.00     0.148 A 
ATOM     84  C   UNL A   1      39.027  26.306  29.427  1.00  0.00     0.002 A 
ATOM     85  C   UNL A   1      40.599  27.703  28.226  1.00  0.00     0.091 A 
ATOM     86  F   UNL A   1      41.567  29.584  29.331  1.00  0.00    -0.205 F 
ATOM     87  C   UNL A   1      39.760  26.579  28.276  1.00  0.00     0.022 A 
BRANCH  85  88
ATOM     88  S   UNL A   1      41.405  28.059  26.660  1.00  0.00     0.127 S 
ATOM     89  O   UNL A   1      41.235  26.800  25.941  1.00  0.00    -0.237 OA
ATOM     90  O   UNL A   1      40.604  29.173  26.149  1.00  0.00    -0.237 OA
ATOM     91  O   UNL A   1      42.774  28.419  27.002  1.00  0.00    -0.744 OA
ENDBRANCH  85  88
ENDBRANCH  57  81
BRANCH  69  92
ATOM     92  C   UNL A   1      44.293  28.501  35.984  1.00  0.00     0.023 A 
ATOM     93  C   UNL A   1      45.579  28.856  35.533  1.00  0.00     0.012 A 
ATOM     94  C   UNL A   1      44.145  27.422  36.876  1.00  0.00     0.148 A 
ATOM     95  C   UNL A   1      46.698  28.130  35.942  1.00  0.00     0.002 A 
ATOM     96  C   UNL A   1      45.269  26.733  37.316  1.00  0.00     0.091 A 
ATOM     97  F   UNL A   1      42.910  27.086  37.279  1.00  0.00    -0.205 F 
ATOM     98  C   UNL A   1      46.545  27.078  36.841  1.00  0.00     0.022 A 
BRANCH  96  99
ATOM     99  S   UNL A   1      45.173  25.428  38.548  1.00  0.00     0.127 S 
ATOM    100  O   UNL A   1      44.442  24.389  37.826  1.00  0.00    -0.237 OA
ATOM    101  O   UNL A   1      46.583  25.124  38.793  1.00  0.00    -0.237 OA
ATOM    102  O   UNL A   1      44.476  26.008  39.689  1.00  0.00    -0.744 OA
ENDBRANCH  96  99
ENDBRANCH  69  92
ENDBRANCH  43  44
ENDBRANCH  35  38
ENDBRANCH  33  34
ENDBRANCH   1  33
TORSDOF 16
ENDMDL
MODEL 3
REMARK VINA RESULT:     -13.1      1.324      2.017
REMARK SMILES Cc1[nH]c2ccccc2c1/C=C1/SC(=S)N(c2cccc(C(=O)NCCCCNC(=O)c3ccc(-c4c5nc(c(-c6cccc(S(=O)(=O)[O-])c6F)c6ccc([nH]6)c(-c6cccc(S(=O)(=O)[O-])c6F)c6nc(c(-c7cccc(S(=O)(=O)[O-])c7F)c7ccc4[nH]7)C=C6)C=C5)cc3)c2)C1=O
REMARK SMILES IDX 27 1 26 2 25 3 24 4 22 5 23 6 21 8 17 9 18 10 95 11 19 12
REMARK SMILES IDX 20 13 16 14 11 15 12 16 13 17 96 18 14 19 97 20 15 21 10 22
REMARK SMILES IDX 1 23 2 24 3 25 4 26 9 28 5 29 8 30 6 31 7 32 28 33 29 34
REMARK SMILES IDX 30 35 31 37 32 38 33 39 94 40 34 41 93 42 35 43 36 44 37 45
REMARK SMILES IDX 87 46 38 47 92 48 86 49 88 50 39 51 91 52 85 53 84 54 40 56
REMARK SMILES IDX 72 57 52 58 71 59 53 60 56 61 70 62 89 63 54 64 55 65 69 67
REMARK SMILES IDX 90 68 57 69 41 70 42 71 50 72 43 73 45 74 51 75 44 76 46 77
REMARK SMILES IDX 47 78 48 79 49 80 73 81 74 82 82 83 75 84 77 85 83 86 76 87
REMARK SMILES IDX 78 88 79 89 80 90 81 91 58 92 59 93 67 94 60 95 62 96 68 97
REMARK SMILES IDX 61 98 63 99 64 100 65 101 66 102
REMARK H PARENT 24 7 3 27 29 36 88 55 56 66
REMARK Flexibility Score: inf
ROOT
ATOM      1  C   UNL A   1      32.568  29.254  25.865  1.00  0.00     0.023 C 
ENDROOT
BRANCH   1   2
ATOM      2  C   UNL A   1      31.284  29.443  25.067  1.00  0.00     0.023 C 
BRANCH   2   3
ATOM      3  C   UNL A   1      31.425  29.527  23.553  1.00  0.00     0.116 C 
BRANCH   3   4
ATOM      4  N   UNL A   1      32.788  29.432  23.059  1.00  0.00    -0.352 N 
ATOM      5  C   UNL A   1      33.473  28.386  22.480  1.00  0.00     0.251 C 
ATOM      6  O   UNL A   1      34.643  28.552  22.143  1.00  0.00    -0.269 OA
ATOM      7  H   UNL A   1      33.314  30.259  23.155  1.00  0.00     0.163 HD
BRANCH   5   8
ATOM      8  C   UNL A   1      32.865  27.038  22.316  1.00  0.00     0.041 A 
ATOM      9  C   UNL A   1      31.967  24.980  23.246  1.00  0.00     0.051 A 
ATOM     10  C   UNL A   1      32.089  24.386  21.981  1.00  0.00     0.027 A 
ATOM     11  C   UNL A   1      32.269  26.343  23.372  1.00  0.00     0.040 A 
ATOM     12  C   UNL A   1      32.544  25.116  20.883  1.00  0.00     0.003 A 
ATOM     13  C   UNL A   1      32.959  26.434  21.057  1.00  0.00     0.014 A 
BRANCH   9  14
ATOM     14  N   UNL A   1      31.767  24.178  24.417  1.00  0.00    -0.261 N 
ATOM     15  C   UNL A   1      33.082  21.448  26.471  1.00  0.00     0.032 C 
ATOM     16  C   UNL A   1      32.393  22.470  25.940  1.00  0.00     0.081 C 
ATOM     17  S   UNL A   1      31.253  23.398  26.831  1.00  0.00    -0.054 SA
ATOM     18  C   UNL A   1      32.515  23.005  24.553  1.00  0.00     0.270 C 
ATOM     19  C   UNL A   1      30.981  24.530  25.505  1.00  0.00     0.152 C 
ATOM     20  O   UNL A   1      33.220  22.488  23.695  1.00  0.00    -0.268 OA
ATOM     21  S   UNL A   1      29.837  25.741  25.651  1.00  0.00    -0.051 S 
BRANCH  15  22
ATOM     22  C   UNL A   1      34.073  20.666  25.809  1.00  0.00     0.004 A 
ATOM     23  C   UNL A   1      32.657  18.565  25.112  1.00  0.00     0.065 C 
ATOM     24  C   UNL A   1      33.863  19.425  25.235  1.00  0.00     0.020 A 
ATOM     25  N   UNL A   1      35.082  18.993  24.766  1.00  0.00    -0.358 N 
ATOM     26  C   UNL A   1      36.057  19.937  24.995  1.00  0.00     0.046 A 
ATOM     27  H   UNL A   1      35.235  18.126  24.326  1.00  0.00     0.166 HD
ATOM     28  C   UNL A   1      35.445  21.013  25.636  1.00  0.00     0.007 A 
ATOM     29  C   UNL A   1      37.425  19.910  24.696  1.00  0.00     0.027 A 
ATOM     30  C   UNL A   1      36.236  22.126  25.988  1.00  0.00     0.011 A 
ATOM     31  C   UNL A   1      38.188  21.023  25.060  1.00  0.00     0.002 A 
ATOM     32  C   UNL A   1      37.604  22.118  25.692  1.00  0.00     0.001 A 
ENDBRANCH  15  22
ENDBRANCH   9  14
ENDBRANCH   5   8
ENDBRANCH   3   4
ENDBRANCH   2   3
ENDBRANCH   1   2
BRANCH   1  33
ATOM     33  C   UNL A   1      32.599  29.879  27.256  1.00  0.00     0.116 C 
BRANCH  33  34
ATOM     34  N   UNL A   1      32.698  31.332  27.250  1.00  0.00    -0.352 N 
ATOM     35  C   UNL A   1      33.754  32.143  27.609  1.00  0.00     0.251 C 
ATOM     36  H   UNL A   1      31.891  31.807  26.945  1.00  0.00     0.163 HD
ATOM     37  O   UNL A   1      33.617  33.360  27.600  1.00  0.00    -0.269 OA
BRANCH  35  38
ATOM     38  C   UNL A   1      35.035  31.542  28.045  1.00  0.00     0.039 A 
ATOM     39  C   UNL A   1      36.156  32.367  28.176  1.00  0.00     0.014 A 
ATOM     40  C   UNL A   1      35.125  30.186  28.361  1.00  0.00     0.014 A 
ATOM     41  C   UNL A   1      37.338  31.851  28.715  1.00  0.00     0.010 A 
ATOM     42  C   UNL A   1      36.276  29.694  28.973  1.00  0.00     0.010 A 
ATOM     43  C   UNL A   1      37.393  30.522  29.164  1.00  0.00    -0.014 A 
BRANCH  43  44
ATOM     44  C   UNL A   1      38.589  29.984  29.864  1.00  0.00     0.031 A 
ATOM     45  C   UNL A   1      38.937  30.461  31.248  1.00  0.00     0.074 A 
ATOM     46  C   UNL A   1      39.425  29.152  29.210  1.00  0.00     0.049 A 
ATOM     47  N   UNL A   1      39.979  30.169  31.982  1.00  0.00    -0.248 NA
ATOM     48  C   UNL A   1      38.012  31.418  31.878  1.00  0.00     0.031 C 
ATOM     49  C   UNL A   1      39.251  28.686  27.832  1.00  0.00     0.029 A 
ATOM     50  N   UNL A   1      40.608  28.575  29.604  1.00  0.00    -0.354 N 
ATOM     51  C   UNL A   1      39.861  30.938  33.134  1.00  0.00     0.074 A 
ATOM     52  C   UNL A   1      38.659  31.730  32.992  1.00  0.00     0.031 C 
ATOM     53  C   UNL A   1      40.283  27.895  27.499  1.00  0.00     0.029 A 
ATOM     54  C   UNL A   1      41.208  27.817  28.626  1.00  0.00     0.049 A 
ATOM     55  H   UNL A   1      40.991  28.695  30.504  1.00  0.00     0.167 HD
ATOM     56  C   UNL A   1      40.663  30.962  34.225  1.00  0.00     0.034 A 
ATOM     57  C   UNL A   1      42.372  27.137  28.632  1.00  0.00     0.034 A 
ATOM     58  C   UNL A   1      41.818  30.123  34.395  1.00  0.00     0.049 A 
ATOM     59  C   UNL A   1      43.206  27.128  29.885  1.00  0.00     0.074 A 
ATOM     60  C   UNL A   1      42.623  29.985  35.512  1.00  0.00     0.029 A 
ATOM     61  N   UNL A   1      42.335  29.282  33.422  1.00  0.00    -0.354 N 
ATOM     62  N   UNL A   1      42.977  27.717  31.034  1.00  0.00    -0.248 NA
ATOM     63  C   UNL A   1      44.443  26.333  29.856  1.00  0.00     0.031 C 
ATOM     64  C   UNL A   1      43.637  29.071  35.208  1.00  0.00     0.029 A 
ATOM     65  C   UNL A   1      43.453  28.629  33.908  1.00  0.00     0.049 A 
ATOM     66  H   UNL A   1      41.961  29.168  32.519  1.00  0.00     0.167 HD
ATOM     67  C   UNL A   1      44.016  27.333  31.873  1.00  0.00     0.074 A 
ATOM     68  C   UNL A   1      44.866  26.444  31.109  1.00  0.00     0.031 C 
ATOM     69  C   UNL A   1      44.253  27.696  33.158  1.00  0.00     0.034 A 
BRANCH  56  70
ATOM     70  C   UNL A   1      40.284  31.881  35.357  1.00  0.00     0.023 A 
ATOM     71  C   UNL A   1      40.964  33.106  35.511  1.00  0.00     0.012 A 
ATOM     72  C   UNL A   1      39.216  31.568  36.219  1.00  0.00     0.148 A 
ATOM     73  C   UNL A   1      40.608  33.992  36.527  1.00  0.00     0.002 A 
ATOM     74  C   UNL A   1      38.840  32.475  37.203  1.00  0.00     0.091 A 
ATOM     75  F   UNL A   1      38.597  30.389  36.070  1.00  0.00    -0.205 F 
ATOM     76  C   UNL A   1      39.540  33.682  37.365  1.00  0.00     0.022 A 
BRANCH  74  77
ATOM     77  S   UNL A   1      37.429  32.204  38.282  1.00  0.00     0.127 S 
ATOM     78  O   UNL A   1      37.311  30.747  38.253  1.00  0.00    -0.237 OA
ATOM     79  O   UNL A   1      37.902  32.753  39.553  1.00  0.00    -0.237 OA
ATOM     80  O   UNL A   1      36.320  32.935  37.682  1.00  0.00    -0.744 OA
ENDBRANCH  74  77
ENDBRANCH  56  70
BRANCH  57  81
ATOM     81  C   UNL A   1      42.780  26.336  27.443  1.00  0.00     0.023 A 
ATOM     82  C   UNL A   1      43.562  26.945  26.441  1.00  0.00     0.012 A 
ATOM     83  C   UNL A   1      42.419  24.982  27.301  1.00  0.00     0.148 A 
ATOM     84  C   UNL A   1      43.948  26.232  25.306  1.00  0.00     0.002 A 
ATOM     85  C   UNL A   1      42.852  24.263  26.193  1.00  0.00     0.091 A 
ATOM     86  F   UNL A   1      41.662  24.422  28.256  1.00  0.00    -0.205 F 
ATOM     87  C   UNL A   1      43.601  24.889  25.185  1.00  0.00     0.022 A 
BRANCH  85  88
ATOM     88  S   UNL A   1      42.561  22.498  26.025  1.00  0.00     0.127 S 
ATOM     89  O   UNL A   1      43.176  22.213  24.732  1.00  0.00    -0.237 OA
ATOM     90  O   UNL A   1      43.280  21.957  27.181  1.00  0.00    -0.237 OA
ATOM     91  O   UNL A   1      41.116  22.335  26.096  1.00  0.00    -0.744 OA
ENDBRANCH  85  88
ENDBRANCH  57  81
BRANCH  69  92
ATOM     92  C   UNL A   1      45.460  27.108  33.840  1.00  0.00     0.023 A 
ATOM     93  C   UNL A   1      46.684  27.807  33.818  1.00  0.00     0.012 A 
ATOM     94  C   UNL A   1      45.360  25.909  34.572  1.00  0.00     0.148 A 
ATOM     95  C   UNL A   1      47.797  27.305  34.492  1.00  0.00     0.002 A 
ATOM     96  C   UNL A   1      46.461  25.440  35.279  1.00  0.00     0.091 A 
ATOM     97  F   UNL A   1      44.193  25.248  34.564  1.00  0.00    -0.205 F 
ATOM     98  C   UNL A   1      47.684  26.130  35.231  1.00  0.00     0.022 A 
BRANCH  96  99
ATOM     99  S   UNL A   1      46.375  23.988  36.335  1.00  0.00     0.127 S 
ATOM    100  O   UNL A   1      45.307  24.355  37.261  1.00  0.00    -0.237 OA
ATOM    101  O   UNL A   1      46.024  22.932  35.385  1.00  0.00    -0.237 OA
ATOM    102  O   UNL A   1      47.699  23.848  36.928  1.00  0.00    -0.744 OA
ENDBRANCH  96  99
ENDBRANCH  69  92
ENDBRANCH  43  44
ENDBRANCH  35  38
ENDBRANCH  33  34
ENDBRANCH   1  33
TORSDOF 16
ENDMDL
