MODEL 1
REMARK VINA RESULT:     -11.2      0.000      0.000
REMARK SMILES CCC(CC)(NC(=O)c1c(C)noc1C)C(=O)NCCCCNC(=O)c1ccc(-c2c3nc(c(-c4cccc(S(=O)(=O)[O-])c4F)c4ccc([nH]4)c(-c4cccc(S(=O)(=O)[O-])c4F)c4nc(c(-c5cccc(S(=O)(=O)[O-])c5F)c5ccc2[nH]5)C=C4)C=C3)cc1
REMARK SMILES IDX 21 1 20 2 19 3 18 4 16 5 17 6 3 8 2 9 1 10 4 11 5 12 6 13
REMARK SMILES IDX 7 14 8 16 9 17 10 18 14 19 11 20 12 21 13 22 15 23 22 24
REMARK SMILES IDX 23 25 24 26 25 28 26 29 27 30 88 31 28 32 87 33 29 34 30 35
REMARK SMILES IDX 31 36 81 37 32 38 86 39 80 40 82 41 33 42 85 43 79 44 78 45
REMARK SMILES IDX 34 47 66 48 46 49 65 50 47 51 50 52 64 53 83 54 48 55 49 56
REMARK SMILES IDX 63 58 84 59 51 60 35 61 36 62 44 63 37 64 39 65 45 66 38 67
REMARK SMILES IDX 40 68 41 69 42 70 43 71 67 72 68 73 76 74 69 75 71 76 77 77
REMARK SMILES IDX 70 78 72 79 73 80 74 81 75 82 52 83 53 84 61 85 54 86 56 87
REMARK SMILES IDX 62 88 55 89 57 90 58 91 59 92 60 93
REMARK H PARENT 18 7 6 15 23 27 82 46 50 57
REMARK Flexibility Score: inf
ROOT
ATOM      1  C   UNL A   1      35.726  21.563  25.724  1.00  0.00     0.023 C 
ENDROOT
BRANCH   1   2
ATOM      2  C   UNL A   1      34.532  20.767  25.210  1.00  0.00     0.023 C 
BRANCH   2   3
ATOM      3  C   UNL A   1      33.132  21.399  25.119  1.00  0.00     0.116 C 
BRANCH   3   4
ATOM      4  N   UNL A   1      32.439  21.899  26.314  1.00  0.00    -0.354 N 
ATOM      5  C   UNL A   1      31.952  23.139  26.698  1.00  0.00     0.245 C 
ATOM      6  O   UNL A   1      31.145  23.175  27.629  1.00  0.00    -0.272 OA
ATOM      7  H   UNL A   1      32.287  21.201  26.990  1.00  0.00     0.163 HD
BRANCH   5   8
ATOM      8  C   UNL A   1      32.222  24.381  25.840  1.00  0.00     0.118 C 
BRANCH   8   9
ATOM      9  C   UNL A   1      32.012  24.319  24.303  1.00  0.00     0.035 C 
ATOM     10  C   UNL A   1      30.667  23.847  23.770  1.00  0.00     0.007 C 
ENDBRANCH   8   9
BRANCH   8  11
ATOM     11  C   UNL A   1      33.753  24.617  26.150  1.00  0.00     0.035 C 
ATOM     12  C   UNL A   1      34.710  24.963  25.026  1.00  0.00     0.007 C 
ENDBRANCH   8  11
BRANCH   8  13
ATOM     13  N   UNL A   1      31.312  25.418  26.353  1.00  0.00    -0.337 N 
ATOM     14  C   UNL A   1      31.358  26.803  26.407  1.00  0.00     0.257 C 
ATOM     15  H   UNL A   1      30.488  25.045  26.743  1.00  0.00     0.164 HD
ATOM     16  O   UNL A   1      30.622  27.215  27.317  1.00  0.00    -0.269 OA
BRANCH  14  17
ATOM     17  C   UNL A   1      32.109  27.796  25.598  1.00  0.00     0.105 A 
ATOM     18  C   UNL A   1      31.669  28.105  24.241  1.00  0.00     0.093 A 
ATOM     19  C   UNL A   1      33.331  28.490  25.623  1.00  0.00     0.146 A 
ATOM     20  C   UNL A   1      30.562  27.527  23.440  1.00  0.00     0.071 C 
ATOM     21  N   UNL A   1      32.426  29.020  23.645  1.00  0.00    -0.084 NA
ATOM     22  O   UNL A   1      33.439  29.267  24.507  1.00  0.00    -0.361 OA
ATOM     23  C   UNL A   1      34.608  28.610  26.361  1.00  0.00     0.092 C 
ENDBRANCH  14  17
ENDBRANCH   8  13
ENDBRANCH   5   8
ENDBRANCH   3   4
ENDBRANCH   2   3
ENDBRANCH   1   2
BRANCH   1  24
ATOM     24  C   UNL A   1      36.985  21.502  24.881  1.00  0.00     0.116 C 
BRANCH  24  25
ATOM     25  N   UNL A   1      37.893  20.457  25.321  1.00  0.00    -0.352 N 
ATOM     26  C   UNL A   1      39.132  20.575  25.903  1.00  0.00     0.251 C 
ATOM     27  H   UNL A   1      37.576  19.536  25.182  1.00  0.00     0.163 HD
ATOM     28  O   UNL A   1      39.817  19.564  26.066  1.00  0.00    -0.269 OA
BRANCH  26  29
ATOM     29  C   UNL A   1      39.658  21.899  26.306  1.00  0.00     0.039 A 
ATOM     30  C   UNL A   1      40.781  21.951  27.136  1.00  0.00     0.014 A 
ATOM     31  C   UNL A   1      39.049  23.088  25.891  1.00  0.00     0.014 A 
ATOM     32  C   UNL A   1      41.319  23.186  27.511  1.00  0.00     0.010 A 
ATOM     33  C   UNL A   1      39.630  24.317  26.203  1.00  0.00     0.010 A 
ATOM     34  C   UNL A   1      40.763  24.382  27.027  1.00  0.00    -0.014 A 
BRANCH  34  35
ATOM     35  C   UNL A   1      41.356  25.699  27.385  1.00  0.00     0.031 A 
ATOM     36  C   UNL A   1      42.774  26.029  27.001  1.00  0.00     0.074 A 
ATOM     37  C   UNL A   1      40.636  26.583  28.105  1.00  0.00     0.049 A 
ATOM     38  N   UNL A   1      43.463  27.117  27.239  1.00  0.00    -0.248 NA
ATOM     39  C   UNL A   1      43.529  24.995  26.274  1.00  0.00     0.031 C 
ATOM     40  C   UNL A   1      39.278  26.359  28.605  1.00  0.00     0.029 A 
ATOM     41  N   UNL A   1      40.953  27.840  28.561  1.00  0.00    -0.354 N 
ATOM     42  C   UNL A   1      44.731  26.889  26.720  1.00  0.00     0.074 A 
ATOM     43  C   UNL A   1      44.731  25.544  26.187  1.00  0.00     0.031 C 
ATOM     44  C   UNL A   1      38.878  27.441  29.292  1.00  0.00     0.029 A 
ATOM     45  C   UNL A   1      39.957  28.423  29.309  1.00  0.00     0.049 A 
ATOM     46  H   UNL A   1      41.812  28.281  28.371  1.00  0.00     0.167 HD
ATOM     47  C   UNL A   1      45.792  27.729  26.662  1.00  0.00     0.034 A 
ATOM     48  C   UNL A   1      39.918  29.611  29.945  1.00  0.00     0.034 A 
ATOM     49  C   UNL A   1      45.782  29.078  27.164  1.00  0.00     0.049 A 
ATOM     50  C   UNL A   1      41.101  30.537  29.845  1.00  0.00     0.074 A 
ATOM     51  C   UNL A   1      46.781  30.033  27.082  1.00  0.00     0.029 A 
ATOM     52  N   UNL A   1      44.729  29.659  27.852  1.00  0.00    -0.354 N 
ATOM     53  N   UNL A   1      42.236  30.361  29.212  1.00  0.00    -0.248 NA
ATOM     54  C   UNL A   1      40.985  31.841  30.515  1.00  0.00     0.031 C 
ATOM     55  C   UNL A   1      46.343  31.182  27.749  1.00  0.00     0.029 A 
ATOM     56  C   UNL A   1      45.057  30.956  28.212  1.00  0.00     0.049 A 
ATOM     57  H   UNL A   1      43.874  29.216  28.055  1.00  0.00     0.167 HD
ATOM     58  C   UNL A   1      42.952  31.542  29.377  1.00  0.00     0.074 A 
ATOM     59  C   UNL A   1      42.113  32.434  30.150  1.00  0.00     0.031 C 
ATOM     60  C   UNL A   1      44.196  31.854  28.938  1.00  0.00     0.034 A 
BRANCH  47  61
ATOM     61  C   UNL A   1      47.047  27.230  25.989  1.00  0.00     0.023 A 
ATOM     62  C   UNL A   1      47.233  27.454  24.609  1.00  0.00     0.012 A 
ATOM     63  C   UNL A   1      48.064  26.595  26.728  1.00  0.00     0.148 A 
ATOM     64  C   UNL A   1      48.392  27.020  23.968  1.00  0.00     0.002 A 
ATOM     65  C   UNL A   1      49.237  26.208  26.091  1.00  0.00     0.091 A 
ATOM     66  F   UNL A   1      47.864  26.375  28.035  1.00  0.00    -0.205 F 
ATOM     67  C   UNL A   1      49.398  26.407  24.710  1.00  0.00     0.022 A 
BRANCH  65  68
ATOM     68  S   UNL A   1      50.627  25.483  26.971  1.00  0.00     0.127 S 
ATOM     69  O   UNL A   1      51.554  25.201  25.875  1.00  0.00    -0.237 OA
ATOM     70  O   UNL A   1      51.038  26.579  27.850  1.00  0.00    -0.237 OA
ATOM     71  O   UNL A   1      50.101  24.314  27.660  1.00  0.00    -0.744 OA
ENDBRANCH  65  68
ENDBRANCH  47  61
BRANCH  48  72
ATOM     72  C   UNL A   1      38.694  30.018  30.692  1.00  0.00     0.023 A 
ATOM     73  C   UNL A   1      38.533  29.626  32.035  1.00  0.00     0.012 A 
ATOM     74  C   UNL A   1      37.695  30.803  30.083  1.00  0.00     0.148 A 
ATOM     75  C   UNL A   1      37.386  29.978  32.747  1.00  0.00     0.002 A 
ATOM     76  C   UNL A   1      36.582  31.198  30.815  1.00  0.00     0.091 A 
ATOM     77  F   UNL A   1      37.862  31.156  28.801  1.00  0.00    -0.205 F 
ATOM     78  C   UNL A   1      36.416  30.771  32.142  1.00  0.00     0.022 A 
BRANCH  76  79
ATOM     79  S   UNL A   1      35.345  32.323  30.160  1.00  0.00     0.127 S 
ATOM     80  O   UNL A   1      34.415  32.430  31.282  1.00  0.00    -0.237 OA
ATOM     81  O   UNL A   1      36.140  33.525  29.902  1.00  0.00    -0.237 OA
ATOM     82  O   UNL A   1      34.821  31.679  28.965  1.00  0.00    -0.744 OA
ENDBRANCH  76  79
ENDBRANCH  48  72
BRANCH  60  83
ATOM     83  C   UNL A   1      44.721  33.234  29.241  1.00  0.00     0.023 A 
ATOM     84  C   UNL A   1      45.406  33.480  30.448  1.00  0.00     0.012 A 
ATOM     85  C   UNL A   1      44.597  34.270  28.293  1.00  0.00     0.148 A 
ATOM     86  C   UNL A   1      45.928  34.744  30.721  1.00  0.00     0.002 A 
ATOM     87  C   UNL A   1      45.166  35.511  28.550  1.00  0.00     0.091 A 
ATOM     88  F   UNL A   1      43.928  34.022  27.159  1.00  0.00    -0.205 F 
ATOM     89  C   UNL A   1      45.819  35.755  29.769  1.00  0.00     0.022 A 
BRANCH  87  90
ATOM     90  S   UNL A   1      45.163  36.842  27.343  1.00  0.00     0.127 S 
ATOM     91  O   UNL A   1      45.793  37.927  28.094  1.00  0.00    -0.237 OA
ATOM     92  O   UNL A   1      45.986  36.286  26.268  1.00  0.00    -0.237 OA
ATOM     93  O   UNL A   1      43.768  37.059  26.985  1.00  0.00    -0.744 OA
ENDBRANCH  87  90
ENDBRANCH  60  83
ENDBRANCH  34  35
ENDBRANCH  26  29
ENDBRANCH  24  25
ENDBRANCH   1  24
TORSDOF 18
ENDMDL
MODEL 2
REMARK VINA RESULT:     -11.2      4.791      9.617
REMARK SMILES CCC(CC)(NC(=O)c1c(C)noc1C)C(=O)NCCCCNC(=O)c1ccc(-c2c3nc(c(-c4cccc(S(=O)(=O)[O-])c4F)c4ccc([nH]4)c(-c4cccc(S(=O)(=O)[O-])c4F)c4nc(c(-c5cccc(S(=O)(=O)[O-])c5F)c5ccc2[nH]5)C=C4)C=C3)cc1
REMARK SMILES IDX 21 1 20 2 19 3 18 4 16 5 17 6 3 8 2 9 1 10 4 11 5 12 6 13
REMARK SMILES IDX 7 14 8 16 9 17 10 18 14 19 11 20 12 21 13 22 15 23 22 24
REMARK SMILES IDX 23 25 24 26 25 28 26 29 27 30 88 31 28 32 87 33 29 34 30 35
REMARK SMILES IDX 31 36 81 37 32 38 86 39 80 40 82 41 33 42 85 43 79 44 78 45
REMARK SMILES IDX 34 47 66 48 46 49 65 50 47 51 50 52 64 53 83 54 48 55 49 56
REMARK SMILES IDX 63 58 84 59 51 60 35 61 36 62 44 63 37 64 39 65 45 66 38 67
REMARK SMILES IDX 40 68 41 69 42 70 43 71 67 72 68 73 76 74 69 75 71 76 77 77
REMARK SMILES IDX 70 78 72 79 73 80 74 81 75 82 52 83 53 84 61 85 54 86 56 87
REMARK SMILES IDX 62 88 55 89 57 90 58 91 59 92 60 93
REMARK H PARENT 18 7 6 15 23 27 82 46 50 57
REMARK Flexibility Score: inf
ROOT
ATOM      1  C   UNL A   1      32.800  29.231  25.320  1.00  0.00     0.023 C 
ENDROOT
BRANCH   1   2
ATOM      2  C   UNL A   1      33.347  28.962  23.923  1.00  0.00     0.023 C 
BRANCH   2   3
ATOM      3  C   UNL A   1      32.441  28.418  22.803  1.00  0.00     0.116 C 
BRANCH   3   4
ATOM      4  N   UNL A   1      32.923  27.409  21.851  1.00  0.00    -0.354 N 
ATOM      5  C   UNL A   1      33.015  26.026  21.876  1.00  0.00     0.245 C 
ATOM      6  O   UNL A   1      33.177  25.443  20.802  1.00  0.00    -0.272 OA
ATOM      7  H   UNL A   1      33.254  27.801  21.011  1.00  0.00     0.163 HD
BRANCH   5   8
ATOM      8  C   UNL A   1      32.682  25.247  23.154  1.00  0.00     0.118 C 
BRANCH   8   9
ATOM      9  C   UNL A   1      31.551  25.747  24.092  1.00  0.00     0.035 C 
ATOM     10  C   UNL A   1      30.105  25.537  23.666  1.00  0.00     0.007 C 
ENDBRANCH   8   9
BRANCH   8  11
ATOM     11  C   UNL A   1      34.066  25.333  23.910  1.00  0.00     0.035 C 
ATOM     12  C   UNL A   1      34.098  25.545  25.412  1.00  0.00     0.007 C 
ENDBRANCH   8  11
BRANCH   8  13
ATOM     13  N   UNL A   1      32.297  23.900  22.703  1.00  0.00    -0.337 N 
ATOM     14  C   UNL A   1      32.696  22.616  23.044  1.00  0.00     0.257 C 
ATOM     15  H   UNL A   1      31.601  23.913  22.006  1.00  0.00     0.164 HD
ATOM     16  O   UNL A   1      32.456  21.836  22.109  1.00  0.00    -0.269 OA
BRANCH  14  17
ATOM     17  C   UNL A   1      33.329  22.075  24.274  1.00  0.00     0.105 A 
ATOM     18  C   UNL A   1      32.551  21.978  25.505  1.00  0.00     0.093 A 
ATOM     19  C   UNL A   1      34.605  21.749  24.764  1.00  0.00     0.146 A 
ATOM     20  C   UNL A   1      31.160  22.405  25.793  1.00  0.00     0.071 C 
ATOM     21  N   UNL A   1      33.242  21.463  26.517  1.00  0.00    -0.084 NA
ATOM     22  O   UNL A   1      34.502  21.307  26.050  1.00  0.00    -0.361 OA
ATOM     23  C   UNL A   1      36.047  21.812  24.441  1.00  0.00     0.092 C 
ENDBRANCH  14  17
ENDBRANCH   8  13
ENDBRANCH   5   8
ENDBRANCH   3   4
ENDBRANCH   2   3
ENDBRANCH   1   2
BRANCH   1  24
ATOM     24  C   UNL A   1      33.829  29.467  26.408  1.00  0.00     0.116 C 
BRANCH  24  25
ATOM     25  N   UNL A   1      33.647  30.746  27.072  1.00  0.00    -0.352 N 
ATOM     26  C   UNL A   1      34.411  31.328  28.053  1.00  0.00     0.251 C 
ATOM     27  H   UNL A   1      32.865  31.266  26.778  1.00  0.00     0.163 HD
ATOM     28  O   UNL A   1      34.005  32.355  28.600  1.00  0.00    -0.269 OA
BRANCH  26  29
ATOM     29  C   UNL A   1      35.695  30.723  28.475  1.00  0.00     0.039 A 
ATOM     30  C   UNL A   1      36.875  31.159  27.866  1.00  0.00     0.014 A 
ATOM     31  C   UNL A   1      35.749  29.720  29.449  1.00  0.00     0.014 A 
ATOM     32  C   UNL A   1      38.106  30.626  28.263  1.00  0.00     0.010 A 
ATOM     33  C   UNL A   1      36.981  29.245  29.897  1.00  0.00     0.010 A 
ATOM     34  C   UNL A   1      38.174  29.682  29.300  1.00  0.00    -0.014 A 
BRANCH  34  35
ATOM     35  C   UNL A   1      39.482  29.143  29.759  1.00  0.00     0.031 A 
ATOM     36  C   UNL A   1      40.234  29.813  30.879  1.00  0.00     0.074 A 
ATOM     37  C   UNL A   1      40.025  28.080  29.132  1.00  0.00     0.049 A 
ATOM     38  N   UNL A   1      41.392  29.496  31.402  1.00  0.00    -0.248 NA
ATOM     39  C   UNL A   1      39.619  31.009  31.477  1.00  0.00     0.031 C 
ATOM     40  C   UNL A   1      39.437  27.384  27.986  1.00  0.00     0.029 A 
ATOM     41  N   UNL A   1      41.204  27.411  29.356  1.00  0.00    -0.354 N 
ATOM     42  C   UNL A   1      41.655  30.463  32.365  1.00  0.00     0.074 A 
ATOM     43  C   UNL A   1      40.555  31.402  32.328  1.00  0.00     0.031 C 
ATOM     44  C   UNL A   1      40.253  26.386  27.612  1.00  0.00     0.029 A 
ATOM     45  C   UNL A   1      41.435  26.386  28.468  1.00  0.00     0.049 A 
ATOM     46  H   UNL A   1      41.825  27.643  30.084  1.00  0.00     0.167 HD
ATOM     47  C   UNL A   1      42.700  30.549  33.223  1.00  0.00     0.034 A 
ATOM     48  C   UNL A   1      42.484  25.547  28.349  1.00  0.00     0.034 A 
ATOM     49  C   UNL A   1      43.778  29.598  33.281  1.00  0.00     0.049 A 
ATOM     50  C   UNL A   1      43.621  25.648  29.330  1.00  0.00     0.074 A 
ATOM     51  C   UNL A   1      44.841  29.556  34.167  1.00  0.00     0.029 A 
ATOM     52  N   UNL A   1      43.940  28.532  32.411  1.00  0.00    -0.354 N 
ATOM     53  N   UNL A   1      43.772  26.477  30.335  1.00  0.00    -0.248 NA
ATOM     54  C   UNL A   1      44.713  24.675  29.185  1.00  0.00     0.031 C 
ATOM     55  C   UNL A   1      45.663  28.481  33.813  1.00  0.00     0.029 A 
ATOM     56  C   UNL A   1      45.092  27.831  32.730  1.00  0.00     0.049 A 
ATOM     57  H   UNL A   1      43.328  28.305  31.675  1.00  0.00     0.167 HD
ATOM     58  C   UNL A   1      44.956  26.102  30.963  1.00  0.00     0.074 A 
ATOM     59  C   UNL A   1      45.469  24.958  30.238  1.00  0.00     0.031 C 
ATOM     60  C   UNL A   1      45.568  26.664  32.034  1.00  0.00     0.034 A 
BRANCH  47  61
ATOM     61  C   UNL A   1      42.706  31.692  34.208  1.00  0.00     0.023 A 
ATOM     62  C   UNL A   1      43.257  32.934  33.832  1.00  0.00     0.012 A 
ATOM     63  C   UNL A   1      42.114  31.556  35.480  1.00  0.00     0.148 A 
ATOM     64  C   UNL A   1      43.258  34.010  34.718  1.00  0.00     0.002 A 
ATOM     65  C   UNL A   1      42.075  32.648  36.340  1.00  0.00     0.091 A 
ATOM     66  F   UNL A   1      41.609  30.365  35.828  1.00  0.00    -0.205 F 
ATOM     67  C   UNL A   1      42.658  33.870  35.966  1.00  0.00     0.022 A 
BRANCH  65  68
ATOM     68  S   UNL A   1      41.255  32.598  37.938  1.00  0.00     0.127 S 
ATOM     69  O   UNL A   1      39.921  32.123  37.570  1.00  0.00    -0.237 OA
ATOM     70  O   UNL A   1      42.068  31.625  38.669  1.00  0.00    -0.237 OA
ATOM     71  O   UNL A   1      41.312  33.955  38.462  1.00  0.00    -0.744 OA
ENDBRANCH  65  68
ENDBRANCH  47  61
BRANCH  48  72
ATOM     72  C   UNL A   1      42.484  24.500  27.288  1.00  0.00     0.023 A 
ATOM     73  C   UNL A   1      43.309  24.653  26.157  1.00  0.00     0.012 A 
ATOM     74  C   UNL A   1      41.682  23.347  27.401  1.00  0.00     0.148 A 
ATOM     75  C   UNL A   1      43.310  23.695  25.142  1.00  0.00     0.002 A 
ATOM     76  C   UNL A   1      41.732  22.370  26.414  1.00  0.00     0.091 A 
ATOM     77  F   UNL A   1      40.896  23.226  28.480  1.00  0.00    -0.205 F 
ATOM     78  C   UNL A   1      42.530  22.550  25.274  1.00  0.00     0.022 A 
BRANCH  76  79
ATOM     79  S   UNL A   1      40.860  20.807  26.559  1.00  0.00     0.127 S 
ATOM     80  O   UNL A   1      40.954  20.545  27.994  1.00  0.00    -0.237 OA
ATOM     81  O   UNL A   1      39.523  21.163  26.084  1.00  0.00    -0.237 OA
ATOM     82  O   UNL A   1      41.577  19.875  25.700  1.00  0.00    -0.744 OA
ENDBRANCH  76  79
ENDBRANCH  48  72
BRANCH  60  83
ATOM     83  C   UNL A   1      46.844  26.028  32.525  1.00  0.00     0.023 A 
ATOM     84  C   UNL A   1      48.090  26.496  32.063  1.00  0.00     0.012 A 
ATOM     85  C   UNL A   1      46.807  25.013  33.503  1.00  0.00     0.148 A 
ATOM     86  C   UNL A   1      49.277  25.940  32.539  1.00  0.00     0.002 A 
ATOM     87  C   UNL A   1      47.994  24.502  34.012  1.00  0.00     0.091 A 
ATOM     88  F   UNL A   1      45.612  24.569  33.919  1.00  0.00    -0.205 F 
ATOM     89  C   UNL A   1      49.230  24.953  33.520  1.00  0.00     0.022 A 
BRANCH  87  90
ATOM     90  S   UNL A   1      48.033  23.300  35.347  1.00  0.00     0.127 S 
ATOM     91  O   UNL A   1      47.297  24.000  36.399  1.00  0.00    -0.237 OA
ATOM     92  O   UNL A   1      47.323  22.164  34.759  1.00  0.00    -0.237 OA
ATOM     93  O   UNL A   1      49.440  23.055  35.628  1.00  0.00    -0.744 OA
ENDBRANCH  87  90
ENDBRANCH  60  83
ENDBRANCH  34  35
ENDBRANCH  26  29
ENDBRANCH  24  25
ENDBRANCH   1  24
TORSDOF 18
ENDMDL
MODEL 3
REMARK VINA RESULT:     -11.2      1.645      2.210
REMARK SMILES CCC(CC)(NC(=O)c1c(C)noc1C)C(=O)NCCCCNC(=O)c1ccc(-c2c3nc(c(-c4cccc(S(=O)(=O)[O-])c4F)c4ccc([nH]4)c(-c4cccc(S(=O)(=O)[O-])c4F)c4nc(c(-c5cccc(S(=O)(=O)[O-])c5F)c5ccc2[nH]5)C=C4)C=C3)cc1
REMARK SMILES IDX 21 1 20 2 19 3 18 4 16 5 17 6 3 8 2 9 1 10 4 11 5 12 6 13
REMARK SMILES IDX 7 14 8 16 9 17 10 18 14 19 11 20 12 21 13 22 15 23 22 24
REMARK SMILES IDX 23 25 24 26 25 28 26 29 27 30 88 31 28 32 87 33 29 34 30 35
REMARK SMILES IDX 31 36 81 37 32 38 86 39 80 40 82 41 33 42 85 43 79 44 78 45
REMARK SMILES IDX 34 47 66 48 46 49 65 50 47 51 50 52 64 53 83 54 48 55 49 56
REMARK SMILES IDX 63 58 84 59 51 60 35 61 36 62 44 63 37 64 39 65 45 66 38 67
REMARK SMILES IDX 40 68 41 69 42 70 43 71 67 72 68 73 76 74 69 75 71 76 77 77
REMARK SMILES IDX 70 78 72 79 73 80 74 81 75 82 52 83 53 84 61 85 54 86 56 87
REMARK SMILES IDX 62 88 55 89 57 90 58 91 59 92 60 93
REMARK H PARENT 18 7 6 15 23 27 82 46 50 57
REMARK Flexibility Score: inf
ROOT
ATOM      1  C   UNL A   1      37.794  19.599  25.012  1.00  0.00     0.023 C 
ENDROOT
BRANCH   1   2
ATOM      2  C   UNL A   1      36.457  20.314  24.859  1.00  0.00     0.023 C 
BRANCH   2   3
ATOM      3  C   UNL A   1      36.167  21.628  25.606  1.00  0.00     0.116 C 
BRANCH   3   4
ATOM      4  N   UNL A   1      35.273  21.663  26.771  1.00  0.00    -0.354 N 
ATOM      5  C   UNL A   1      33.986  22.133  26.986  1.00  0.00     0.245 C 
ATOM      6  O   UNL A   1      33.392  21.741  27.992  1.00  0.00    -0.272 OA
ATOM      7  H   UNL A   1      35.675  21.266  27.577  1.00  0.00     0.163 HD
BRANCH   5   8
ATOM      8  C   UNL A   1      33.250  22.914  25.890  1.00  0.00     0.118 C 
BRANCH   8   9
ATOM      9  C   UNL A   1      33.247  22.382  24.432  1.00  0.00     0.035 C 
ATOM     10  C   UNL A   1      32.614  21.025  24.152  1.00  0.00     0.007 C 
ENDBRANCH   8   9
BRANCH   8  11
ATOM     11  C   UNL A   1      34.028  24.288  25.944  1.00  0.00     0.035 C 
ATOM     12  C   UNL A   1      34.637  24.865  24.680  1.00  0.00     0.007 C 
ENDBRANCH   8  11
BRANCH   8  13
ATOM     13  N   UNL A   1      31.845  22.972  26.325  1.00  0.00    -0.337 N 
ATOM     14  C   UNL A   1      30.914  23.992  26.450  1.00  0.00     0.257 C 
ATOM     15  H   UNL A   1      31.488  22.091  26.583  1.00  0.00     0.164 HD
ATOM     16  O   UNL A   1      30.042  23.670  27.272  1.00  0.00    -0.269 OA
BRANCH  14  17
ATOM     17  C   UNL A   1      30.815  25.322  25.796  1.00  0.00     0.105 A 
ATOM     18  C   UNL A   1      30.592  25.405  24.356  1.00  0.00     0.093 A 
ATOM     19  C   UNL A   1      31.062  26.674  26.084  1.00  0.00     0.146 A 
ATOM     20  C   UNL A   1      30.494  24.328  23.340  1.00  0.00     0.071 C 
ATOM     21  N   UNL A   1      30.511  26.656  23.914  1.00  0.00    -0.084 NA
ATOM     22  O   UNL A   1      30.783  27.434  24.986  1.00  0.00    -0.361 OA
ATOM     23  C   UNL A   1      31.623  27.582  27.109  1.00  0.00     0.092 C 
ENDBRANCH  14  17
ENDBRANCH   8  13
ENDBRANCH   5   8
ENDBRANCH   3   4
ENDBRANCH   2   3
ENDBRANCH   1   2
BRANCH   1  24
ATOM     24  C   UNL A   1      38.902  20.385  25.686  1.00  0.00     0.116 C 
BRANCH  24  25
ATOM     25  N   UNL A   1      40.050  19.556  26.010  1.00  0.00    -0.352 N 
ATOM     26  C   UNL A   1      41.305  19.935  26.417  1.00  0.00     0.251 C 
ATOM     27  H   UNL A   1      39.907  18.586  25.924  1.00  0.00     0.163 HD
ATOM     28  O   UNL A   1      42.193  19.086  26.496  1.00  0.00    -0.269 OA
BRANCH  26  29
ATOM     29  C   UNL A   1      41.605  21.352  26.731  1.00  0.00     0.039 A 
ATOM     30  C   UNL A   1      41.527  21.775  28.061  1.00  0.00     0.014 A 
ATOM     31  C   UNL A   1      41.943  22.270  25.732  1.00  0.00     0.014 A 
ATOM     32  C   UNL A   1      41.831  23.098  28.394  1.00  0.00     0.010 A 
ATOM     33  C   UNL A   1      42.320  23.568  26.074  1.00  0.00     0.010 A 
ATOM     34  C   UNL A   1      42.255  24.002  27.406  1.00  0.00    -0.014 A 
BRANCH  34  35
ATOM     35  C   UNL A   1      42.625  25.401  27.758  1.00  0.00     0.031 A 
ATOM     36  C   UNL A   1      44.052  25.866  27.643  1.00  0.00     0.074 A 
ATOM     37  C   UNL A   1      41.684  26.241  28.234  1.00  0.00     0.049 A 
ATOM     38  N   UNL A   1      44.563  27.040  27.918  1.00  0.00    -0.248 NA
ATOM     39  C   UNL A   1      45.043  24.880  27.180  1.00  0.00     0.031 C 
ATOM     40  C   UNL A   1      40.280  25.895  28.465  1.00  0.00     0.029 A 
ATOM     41  N   UNL A   1      41.771  27.554  28.631  1.00  0.00    -0.354 N 
ATOM     42  C   UNL A   1      45.929  26.926  27.690  1.00  0.00     0.074 A 
ATOM     43  C   UNL A   1      46.176  25.557  27.291  1.00  0.00     0.031 C 
ATOM     44  C   UNL A   1      39.638  26.967  28.956  1.00  0.00     0.029 A 
ATOM     45  C   UNL A   1      40.585  28.067  29.105  1.00  0.00     0.049 A 
ATOM     46  H   UNL A   1      42.603  28.077  28.581  1.00  0.00     0.167 HD
ATOM     47  C   UNL A   1      46.889  27.878  27.775  1.00  0.00     0.034 A 
ATOM     48  C   UNL A   1      40.295  29.282  29.611  1.00  0.00     0.034 A 
ATOM     49  C   UNL A   1      46.639  29.247  28.141  1.00  0.00     0.049 A 
ATOM     50  C   UNL A   1      41.374  30.330  29.672  1.00  0.00     0.074 A 
ATOM     51  C   UNL A   1      47.533  30.304  28.180  1.00  0.00     0.029 A 
ATOM     52  N   UNL A   1      45.412  29.747  28.546  1.00  0.00    -0.354 N 
ATOM     53  N   UNL A   1      42.629  30.244  29.302  1.00  0.00    -0.248 NA
ATOM     54  C   UNL A   1      40.989  31.653  30.185  1.00  0.00     0.031 C 
ATOM     55  C   UNL A   1      46.851  31.436  28.638  1.00  0.00     0.029 A 
ATOM     56  C   UNL A   1      45.525  31.094  28.848  1.00  0.00     0.049 A 
ATOM     57  H   UNL A   1      44.581  29.222  28.609  1.00  0.00     0.167 HD
ATOM     58  C   UNL A   1      43.173  31.509  29.502  1.00  0.00     0.074 A 
ATOM     59  C   UNL A   1      42.105  32.347  30.005  1.00  0.00     0.031 C 
ATOM     60  C   UNL A   1      44.445  31.932  29.300  1.00  0.00     0.034 A 
BRANCH  47  61
ATOM     61  C   UNL A   1      48.301  27.484  27.419  1.00  0.00     0.023 A 
ATOM     62  C   UNL A   1      49.116  26.860  28.386  1.00  0.00     0.012 A 
ATOM     63  C   UNL A   1      48.801  27.675  26.115  1.00  0.00     0.148 A 
ATOM     64  C   UNL A   1      50.417  26.469  28.075  1.00  0.00     0.002 A 
ATOM     65  C   UNL A   1      50.083  27.238  25.800  1.00  0.00     0.091 A 
ATOM     66  F   UNL A   1      48.020  28.284  25.213  1.00  0.00    -0.205 F 
ATOM     67  C   UNL A   1      50.896  26.648  26.781  1.00  0.00     0.022 A 
BRANCH  65  68
ATOM     68  S   UNL A   1      50.766  27.349  24.141  1.00  0.00     0.127 S 
ATOM     69  O   UNL A   1      52.022  26.614  24.291  1.00  0.00    -0.237 OA
ATOM     70  O   UNL A   1      49.749  26.662  23.345  1.00  0.00    -0.237 OA
ATOM     71  O   UNL A   1      50.905  28.770  23.857  1.00  0.00    -0.744 OA
ENDBRANCH  65  68
ENDBRANCH  47  61
BRANCH  48  72
ATOM     72  C   UNL A   1      38.906  29.593  30.053  1.00  0.00     0.023 A 
ATOM     73  C   UNL A   1      38.477  29.199  31.335  1.00  0.00     0.012 A 
ATOM     74  C   UNL A   1      38.012  30.289  29.215  1.00  0.00     0.148 A 
ATOM     75  C   UNL A   1      37.175  29.462  31.763  1.00  0.00     0.002 A 
ATOM     76  C   UNL A   1      36.736  30.598  29.669  1.00  0.00     0.091 A 
ATOM     77  F   UNL A   1      38.436  30.645  27.995  1.00  0.00    -0.205 F 
ATOM     78  C   UNL A   1      36.308  30.169  30.935  1.00  0.00     0.022 A 
BRANCH  76  79
ATOM     79  S   UNL A   1      35.595  31.613  28.724  1.00  0.00     0.127 S 
ATOM     80  O   UNL A   1      36.454  32.722  28.312  1.00  0.00    -0.237 OA
ATOM     81  O   UNL A   1      35.205  30.703  27.648  1.00  0.00    -0.237 OA
ATOM     82  O   UNL A   1      34.519  31.957  29.644  1.00  0.00    -0.744 OA
ENDBRANCH  76  79
ENDBRANCH  48  72
BRANCH  60  83
ATOM     83  C   UNL A   1      44.754  33.381  29.579  1.00  0.00     0.023 A 
ATOM     84  C   UNL A   1      45.234  33.770  30.846  1.00  0.00     0.012 A 
ATOM     85  C   UNL A   1      44.636  34.347  28.558  1.00  0.00     0.148 A 
ATOM     86  C   UNL A   1      45.558  35.102  31.102  1.00  0.00     0.002 A 
ATOM     87  C   UNL A   1      45.012  35.661  28.806  1.00  0.00     0.091 A 
ATOM     88  F   UNL A   1      44.163  33.961  27.365  1.00  0.00    -0.205 F 
ATOM     89  C   UNL A   1      45.459  36.044  30.081  1.00  0.00     0.022 A 
BRANCH  87  90
ATOM     90  S   UNL A   1      45.013  36.921  27.525  1.00  0.00     0.127 S 
ATOM     91  O   UNL A   1      46.012  36.399  26.594  1.00  0.00    -0.237 OA
ATOM     92  O   UNL A   1      43.635  36.864  27.036  1.00  0.00    -0.237 OA
ATOM     93  O   UNL A   1      45.369  38.169  28.187  1.00  0.00    -0.744 OA
ENDBRANCH  87  90
ENDBRANCH  60  83
ENDBRANCH  34  35
ENDBRANCH  26  29
ENDBRANCH  24  25
ENDBRANCH   1  24
TORSDOF 18
ENDMDL
