MODEL 1
REMARK VINA RESULT:     -10.3      0.000      0.000
REMARK SMILES CC[C@@](C)([NH2+]CC(=O)N[C@@H](C)c1ccc(F)cc1)C(=O)NCCCCNC(=O)c1ccc(-c2c3nc(c(-c4cccc(S(=O)(=O)[O-])c4F)c4ccc([nH]4)c(-c4cccc(S(=O)(=O)[O-])c4F)c4nc(c(-c5cccc(S(=O)(=O)[O-])c5F)c5ccc2[nH]5)C=C4)C=C3)cc1
REMARK SMILES IDX 22 1 21 2 19 3 20 4 3 6 4 7 2 8 1 9 5 10 6 13 7 14 8 15 9 16
REMARK SMILES IDX 10 18 11 19 12 20 13 21 18 22 14 23 17 24 15 25 16 26 23 27
REMARK SMILES IDX 24 28 25 29 26 30 27 31 28 33 29 34 30 35 91 36 31 37 90 38
REMARK SMILES IDX 32 39 33 40 34 41 84 42 35 43 89 44 83 45 85 46 36 47 88 48
REMARK SMILES IDX 82 49 81 50 37 52 69 53 49 54 68 55 50 56 53 57 67 58 86 59
REMARK SMILES IDX 51 60 52 61 66 63 87 64 54 65 38 66 39 67 47 68 40 69 42 70
REMARK SMILES IDX 48 71 41 72 43 73 44 74 45 75 46 76 70 77 71 78 79 79 72 80
REMARK SMILES IDX 74 81 80 82 73 83 75 84 76 85 77 86 78 87 55 88 56 89 64 90
REMARK SMILES IDX 57 91 59 92 65 93 58 94 60 95 61 96 62 97 63 98
REMARK H PARENT 21 5 5 11 5 12 9 17 26 32 85 51 53 62
REMARK Flexibility Score: inf
ROOT
ATOM      1  C   UNL A   1      33.720  29.630  26.588  1.00  0.00     0.116 C 
ENDROOT
BRANCH   1   2
ATOM      2  N   UNL A   1      33.237  29.120  25.297  1.00  0.00    -0.351 N 
ATOM      3  C   UNL A   1      31.937  28.669  25.136  1.00  0.00     0.281 C 
ATOM      4  O   UNL A   1      31.038  29.503  24.999  1.00  0.00    -0.268 OA
ATOM      5  H   UNL A   1      33.852  29.099  24.528  1.00  0.00     0.163 HD
BRANCH   3   6
ATOM      6  C   UNL A   1      31.664  27.111  24.939  1.00  0.00     0.172 C 
ATOM      7  C   UNL A   1      30.882  26.341  26.022  1.00  0.00     0.090 C 
BRANCH   6   8
ATOM      8  C   UNL A   1      30.747  27.052  23.664  1.00  0.00     0.075 C 
ATOM      9  C   UNL A   1      30.584  25.634  23.074  1.00  0.00     0.011 C 
ENDBRANCH   6   8
BRANCH   6  10
ATOM     10  N   UNL A   1      32.899  26.340  24.727  1.00  0.00    -0.326 N 
ATOM     11  H   UNL A   1      33.658  26.896  25.123  1.00  0.00     0.347 HD
ATOM     12  H   UNL A   1      32.892  26.179  23.721  1.00  0.00     0.347 HD
BRANCH  10  13
ATOM     13  C   UNL A   1      33.050  24.977  25.272  1.00  0.00     0.362 C 
BRANCH  13  14
ATOM     14  C   UNL A   1      34.040  23.905  24.748  1.00  0.00     0.275 C 
ATOM     15  O   UNL A   1      35.209  24.262  24.524  1.00  0.00    -0.268 OA
ATOM     16  N   UNL A   1      33.851  22.550  24.685  1.00  0.00    -0.345 N 
ATOM     17  H   UNL A   1      34.642  22.039  24.974  1.00  0.00     0.164 HD
BRANCH  16  18
ATOM     18  C   UNL A   1      32.729  21.691  24.286  1.00  0.00     0.109 C 
ATOM     19  C   UNL A   1      32.058  22.244  23.017  1.00  0.00     0.036 C 
BRANCH  18  20
ATOM     20  C   UNL A   1      33.029  20.217  24.078  1.00  0.00    -0.026 A 
ATOM     21  C   UNL A   1      34.072  19.549  24.726  1.00  0.00     0.009 A 
ATOM     22  C   UNL A   1      32.238  19.493  23.154  1.00  0.00     0.009 A 
ATOM     23  C   UNL A   1      34.331  18.205  24.442  1.00  0.00     0.039 A 
ATOM     24  C   UNL A   1      32.497  18.152  22.871  1.00  0.00     0.039 A 
ATOM     25  C   UNL A   1      33.549  17.522  23.516  1.00  0.00     0.123 A 
ATOM     26  F   UNL A   1      33.816  16.239  23.243  1.00  0.00    -0.207 F 
ENDBRANCH  18  20
ENDBRANCH  16  18
ENDBRANCH  13  14
ENDBRANCH  10  13
ENDBRANCH   6  10
ENDBRANCH   3   6
ENDBRANCH   1   2
BRANCH   1  27
ATOM     27  C   UNL A   1      33.207  31.044  26.905  1.00  0.00     0.023 C 
BRANCH  27  28
ATOM     28  C   UNL A   1      33.978  31.766  28.007  1.00  0.00     0.023 C 
BRANCH  28  29
ATOM     29  C   UNL A   1      34.212  33.256  27.783  1.00  0.00     0.116 C 
BRANCH  29  30
ATOM     30  N   UNL A   1      33.324  34.131  28.542  1.00  0.00    -0.352 N 
ATOM     31  C   UNL A   1      33.442  34.510  29.864  1.00  0.00     0.251 C 
ATOM     32  H   UNL A   1      32.551  34.493  28.053  1.00  0.00     0.163 HD
ATOM     33  O   UNL A   1      32.593  35.224  30.392  1.00  0.00    -0.269 OA
BRANCH  31  34
ATOM     34  C   UNL A   1      34.587  34.004  30.652  1.00  0.00     0.039 A 
ATOM     35  C   UNL A   1      34.394  32.923  31.516  1.00  0.00     0.014 A 
ATOM     36  C   UNL A   1      35.865  34.527  30.448  1.00  0.00     0.014 A 
ATOM     37  C   UNL A   1      35.503  32.302  32.098  1.00  0.00     0.010 A 
ATOM     38  C   UNL A   1      36.970  33.860  30.966  1.00  0.00     0.010 A 
ATOM     39  C   UNL A   1      36.803  32.733  31.785  1.00  0.00    -0.014 A 
BRANCH  39  40
ATOM     40  C   UNL A   1      38.003  31.997  32.267  1.00  0.00     0.031 A 
ATOM     41  C   UNL A   1      38.651  32.377  33.570  1.00  0.00     0.074 A 
ATOM     42  C   UNL A   1      38.571  31.059  31.484  1.00  0.00     0.049 A 
ATOM     43  N   UNL A   1      39.736  31.897  34.120  1.00  0.00    -0.248 NA
ATOM     44  C   UNL A   1      38.014  33.456  34.344  1.00  0.00     0.031 C 
ATOM     45  C   UNL A   1      38.094  30.661  30.157  1.00  0.00     0.029 A 
ATOM     46  N   UNL A   1      39.689  30.283  31.676  1.00  0.00    -0.354 N 
ATOM     47  C   UNL A   1      39.933  32.638  35.279  1.00  0.00     0.074 A 
ATOM     48  C   UNL A   1      38.876  33.623  35.337  1.00  0.00     0.031 C 
ATOM     49  C   UNL A   1      38.902  29.711  29.663  1.00  0.00     0.029 A 
ATOM     50  C   UNL A   1      39.973  29.447  30.620  1.00  0.00     0.049 A 
ATOM     51  H   UNL A   1      40.237  30.323  32.493  1.00  0.00     0.167 HD
ATOM     52  C   UNL A   1      40.884  32.487  36.230  1.00  0.00     0.034 A 
ATOM     53  C   UNL A   1      40.978  28.566  30.442  1.00  0.00     0.034 A 
ATOM     54  C   UNL A   1      41.897  31.467  36.200  1.00  0.00     0.049 A 
ATOM     55  C   UNL A   1      41.990  28.376  31.539  1.00  0.00     0.074 A 
ATOM     56  C   UNL A   1      42.844  31.172  37.164  1.00  0.00     0.029 A 
ATOM     57  N   UNL A   1      42.096  30.578  35.156  1.00  0.00    -0.354 N 
ATOM     58  N   UNL A   1      42.065  28.977  32.702  1.00  0.00    -0.248 NA
ATOM     59  C   UNL A   1      43.037  27.366  31.319  1.00  0.00     0.031 C 
ATOM     60  C   UNL A   1      43.627  30.113  36.697  1.00  0.00     0.029 A 
ATOM     61  C   UNL A   1      43.154  29.736  35.450  1.00  0.00     0.049 A 
ATOM     62  H   UNL A   1      41.565  30.550  34.328  1.00  0.00     0.167 HD
ATOM     63  C   UNL A   1      43.143  28.399  33.363  1.00  0.00     0.074 A 
ATOM     64  C   UNL A   1      43.682  27.387  32.479  1.00  0.00     0.031 C 
ATOM     65  C   UNL A   1      43.649  28.693  34.586  1.00  0.00     0.034 A 
BRANCH  52  66
ATOM     66  C   UNL A   1      40.832  33.396  37.428  1.00  0.00     0.023 A 
ATOM     67  C   UNL A   1      40.122  32.984  38.575  1.00  0.00     0.012 A 
ATOM     68  C   UNL A   1      41.544  34.611  37.455  1.00  0.00     0.148 A 
ATOM     69  C   UNL A   1      40.098  33.778  39.720  1.00  0.00     0.002 A 
ATOM     70  C   UNL A   1      41.553  35.376  38.616  1.00  0.00     0.091 A 
ATOM     71  F   UNL A   1      42.196  34.995  36.348  1.00  0.00    -0.205 F 
ATOM     72  C   UNL A   1      40.824  34.966  39.744  1.00  0.00     0.022 A 
BRANCH  70  73
ATOM     73  S   UNL A   1      42.523  36.879  38.780  1.00  0.00     0.127 S 
ATOM     74  O   UNL A   1      41.549  37.795  39.371  1.00  0.00    -0.237 OA
ATOM     75  O   UNL A   1      43.591  36.458  39.687  1.00  0.00    -0.237 OA
ATOM     76  O   UNL A   1      42.966  37.221  37.436  1.00  0.00    -0.744 OA
ENDBRANCH  70  73
ENDBRANCH  52  66
BRANCH  53  77
ATOM     77  C   UNL A   1      41.012  27.729  29.207  1.00  0.00     0.023 A 
ATOM     78  C   UNL A   1      40.150  26.620  29.108  1.00  0.00     0.012 A 
ATOM     79  C   UNL A   1      41.834  28.060  28.113  1.00  0.00     0.148 A 
ATOM     80  C   UNL A   1      40.118  25.844  27.948  1.00  0.00     0.002 A 
ATOM     81  C   UNL A   1      41.758  27.316  26.940  1.00  0.00     0.091 A 
ATOM     82  F   UNL A   1      42.655  29.113  28.232  1.00  0.00    -0.205 F 
ATOM     83  C   UNL A   1      40.911  26.199  26.861  1.00  0.00     0.022 A 
BRANCH  81  84
ATOM     84  S   UNL A   1      42.636  27.779  25.442  1.00  0.00     0.127 S 
ATOM     85  O   UNL A   1      42.422  26.608  24.595  1.00  0.00    -0.237 OA
ATOM     86  O   UNL A   1      41.910  28.981  25.027  1.00  0.00    -0.237 OA
ATOM     87  O   UNL A   1      44.012  28.021  25.849  1.00  0.00    -0.744 OA
ENDBRANCH  81  84
ENDBRANCH  53  77
BRANCH  65  88
ATOM     88  C   UNL A   1      44.838  27.909  35.073  1.00  0.00     0.023 A 
ATOM     89  C   UNL A   1      46.136  28.410  34.856  1.00  0.00     0.012 A 
ATOM     90  C   UNL A   1      44.664  26.752  35.859  1.00  0.00     0.148 A 
ATOM     91  C   UNL A   1      47.244  27.764  35.401  1.00  0.00     0.002 A 
ATOM     92  C   UNL A   1      45.770  26.141  36.438  1.00  0.00     0.091 A 
ATOM     93  F   UNL A   1      43.421  26.283  36.039  1.00  0.00    -0.205 F 
ATOM     94  C   UNL A   1      47.061  26.640  36.204  1.00  0.00     0.022 A 
BRANCH  92  95
ATOM     95  S   UNL A   1      45.621  24.752  37.570  1.00  0.00     0.127 S 
ATOM     96  O   UNL A   1      46.957  24.706  38.161  1.00  0.00    -0.237 OA
ATOM     97  O   UNL A   1      44.568  25.205  38.480  1.00  0.00    -0.237 OA
ATOM     98  O   UNL A   1      45.260  23.603  36.752  1.00  0.00    -0.744 OA
ENDBRANCH  92  95
ENDBRANCH  65  88
ENDBRANCH  39  40
ENDBRANCH  31  34
ENDBRANCH  29  30
ENDBRANCH  28  29
ENDBRANCH  27  28
ENDBRANCH   1  27
TORSDOF 20
ENDMDL
MODEL 2
REMARK VINA RESULT:     -10.3      1.808      2.130
REMARK SMILES CC[C@@](C)([NH2+]CC(=O)N[C@@H](C)c1ccc(F)cc1)C(=O)NCCCCNC(=O)c1ccc(-c2c3nc(c(-c4cccc(S(=O)(=O)[O-])c4F)c4ccc([nH]4)c(-c4cccc(S(=O)(=O)[O-])c4F)c4nc(c(-c5cccc(S(=O)(=O)[O-])c5F)c5ccc2[nH]5)C=C4)C=C3)cc1
REMARK SMILES IDX 22 1 21 2 19 3 20 4 3 6 4 7 2 8 1 9 5 10 6 13 7 14 8 15 9 16
REMARK SMILES IDX 10 18 11 19 12 20 13 21 18 22 14 23 17 24 15 25 16 26 23 27
REMARK SMILES IDX 24 28 25 29 26 30 27 31 28 33 29 34 30 35 91 36 31 37 90 38
REMARK SMILES IDX 32 39 33 40 34 41 84 42 35 43 89 44 83 45 85 46 36 47 88 48
REMARK SMILES IDX 82 49 81 50 37 52 69 53 49 54 68 55 50 56 53 57 67 58 86 59
REMARK SMILES IDX 51 60 52 61 66 63 87 64 54 65 38 66 39 67 47 68 40 69 42 70
REMARK SMILES IDX 48 71 41 72 43 73 44 74 45 75 46 76 70 77 71 78 79 79 72 80
REMARK SMILES IDX 74 81 80 82 73 83 75 84 76 85 77 86 78 87 55 88 56 89 64 90
REMARK SMILES IDX 57 91 59 92 65 93 58 94 60 95 61 96 62 97 63 98
REMARK H PARENT 21 5 5 11 5 12 9 17 26 32 85 51 53 62
REMARK Flexibility Score: inf
ROOT
ATOM      1  C   UNL A   1      33.822  29.511  26.154  1.00  0.00     0.116 C 
ENDROOT
BRANCH   1   2
ATOM      2  N   UNL A   1      33.258  29.655  24.805  1.00  0.00    -0.351 N 
ATOM      3  C   UNL A   1      31.980  29.214  24.502  1.00  0.00     0.281 C 
ATOM      4  O   UNL A   1      31.021  29.914  24.839  1.00  0.00    -0.268 OA
ATOM      5  H   UNL A   1      33.801  30.075  24.099  1.00  0.00     0.163 HD
BRANCH   3   6
ATOM      6  C   UNL A   1      31.789  27.935  23.571  1.00  0.00     0.172 C 
ATOM      7  C   UNL A   1      30.566  27.861  22.634  1.00  0.00     0.090 C 
BRANCH   6   8
ATOM      8  C   UNL A   1      33.029  27.987  22.608  1.00  0.00     0.075 C 
ATOM      9  C   UNL A   1      33.517  26.599  22.138  1.00  0.00     0.011 C 
ENDBRANCH   6   8
BRANCH   6  10
ATOM     10  N   UNL A   1      31.773  26.676  24.332  1.00  0.00    -0.326 N 
ATOM     11  H   UNL A   1      32.356  26.829  25.156  1.00  0.00     0.347 HD
ATOM     12  H   UNL A   1      32.082  25.993  23.641  1.00  0.00     0.347 HD
BRANCH  10  13
ATOM     13  C   UNL A   1      30.507  26.094  24.819  1.00  0.00     0.362 C 
BRANCH  13  14
ATOM     14  C   UNL A   1      30.381  24.815  25.685  1.00  0.00     0.275 C 
ATOM     15  O   UNL A   1      29.844  24.925  26.801  1.00  0.00    -0.268 OA
ATOM     16  N   UNL A   1      30.604  23.519  25.302  1.00  0.00    -0.345 N 
ATOM     17  H   UNL A   1      29.923  22.895  25.644  1.00  0.00     0.164 HD
BRANCH  16  18
ATOM     18  C   UNL A   1      31.634  22.855  24.493  1.00  0.00     0.109 C 
ATOM     19  C   UNL A   1      31.450  23.199  23.006  1.00  0.00     0.036 C 
BRANCH  18  20
ATOM     20  C   UNL A   1      33.082  23.104  24.879  1.00  0.00    -0.026 A 
ATOM     21  C   UNL A   1      33.532  23.107  26.203  1.00  0.00     0.009 A 
ATOM     22  C   UNL A   1      34.013  23.387  23.851  1.00  0.00     0.009 A 
ATOM     23  C   UNL A   1      34.867  23.406  26.491  1.00  0.00     0.039 A 
ATOM     24  C   UNL A   1      35.344  23.685  24.140  1.00  0.00     0.039 A 
ATOM     25  C   UNL A   1      35.757  23.698  25.462  1.00  0.00     0.123 A 
ATOM     26  F   UNL A   1      37.029  23.995  25.753  1.00  0.00    -0.207 F 
ENDBRANCH  18  20
ENDBRANCH  16  18
ENDBRANCH  13  14
ENDBRANCH  10  13
ENDBRANCH   6  10
ENDBRANCH   3   6
ENDBRANCH   1   2
BRANCH   1  27
ATOM     27  C   UNL A   1      32.990  30.226  27.232  1.00  0.00     0.023 C 
BRANCH  27  28
ATOM     28  C   UNL A   1      33.740  31.315  27.994  1.00  0.00     0.023 C 
BRANCH  28  29
ATOM     29  C   UNL A   1      33.924  32.634  27.252  1.00  0.00     0.116 C 
BRANCH  29  30
ATOM     30  N   UNL A   1      33.159  33.750  27.799  1.00  0.00    -0.352 N 
ATOM     31  C   UNL A   1      33.385  34.427  28.981  1.00  0.00     0.251 C 
ATOM     32  H   UNL A   1      32.393  34.055  27.262  1.00  0.00     0.163 HD
ATOM     33  O   UNL A   1      32.632  35.328  29.343  1.00  0.00    -0.269 OA
BRANCH  31  34
ATOM     34  C   UNL A   1      34.525  34.020  29.830  1.00  0.00     0.039 A 
ATOM     35  C   UNL A   1      34.291  33.201  30.937  1.00  0.00     0.014 A 
ATOM     36  C   UNL A   1      35.829  34.358  29.463  1.00  0.00     0.014 A 
ATOM     37  C   UNL A   1      35.375  32.637  31.616  1.00  0.00     0.010 A 
ATOM     38  C   UNL A   1      36.902  33.734  30.091  1.00  0.00     0.010 A 
ATOM     39  C   UNL A   1      36.688  32.857  31.165  1.00  0.00    -0.014 A 
BRANCH  39  40
ATOM     40  C   UNL A   1      37.847  32.149  31.772  1.00  0.00     0.031 A 
ATOM     41  C   UNL A   1      38.384  32.584  33.108  1.00  0.00     0.074 A 
ATOM     42  C   UNL A   1      38.482  31.186  31.075  1.00  0.00     0.049 A 
ATOM     43  N   UNL A   1      39.423  32.134  33.763  1.00  0.00    -0.248 NA
ATOM     44  C   UNL A   1      37.681  33.687  33.785  1.00  0.00     0.031 C 
ATOM     45  C   UNL A   1      38.118  30.735  29.730  1.00  0.00     0.029 A 
ATOM     46  N   UNL A   1      39.584  30.428  31.388  1.00  0.00    -0.354 N 
ATOM     47  C   UNL A   1      39.520  32.919  34.905  1.00  0.00     0.074 A 
ATOM     48  C   UNL A   1      38.457  33.898  34.838  1.00  0.00     0.031 C 
ATOM     49  C   UNL A   1      38.969  29.773  29.341  1.00  0.00     0.029 A 
ATOM     50  C   UNL A   1      39.958  29.554  30.392  1.00  0.00     0.049 A 
ATOM     51  H   UNL A   1      40.063  30.503  32.245  1.00  0.00     0.167 HD
ATOM     52  C   UNL A   1      40.391  32.812  35.936  1.00  0.00     0.034 A 
ATOM     53  C   UNL A   1      40.978  28.674  30.331  1.00  0.00     0.034 A 
ATOM     54  C   UNL A   1      41.407  31.801  36.028  1.00  0.00     0.049 A 
ATOM     55  C   UNL A   1      41.898  28.534  31.514  1.00  0.00     0.074 A 
ATOM     56  C   UNL A   1      42.273  31.550  37.078  1.00  0.00     0.029 A 
ATOM     57  N   UNL A   1      41.695  30.874  35.040  1.00  0.00    -0.354 N 
ATOM     58  N   UNL A   1      41.873  29.180  32.655  1.00  0.00    -0.248 NA
ATOM     59  C   UNL A   1      42.963  27.525  31.420  1.00  0.00     0.031 C 
ATOM     60  C   UNL A   1      43.096  30.480  36.718  1.00  0.00     0.029 A 
ATOM     61  C   UNL A   1      42.730  30.052  35.452  1.00  0.00     0.049 A 
ATOM     62  H   UNL A   1      41.234  30.810  34.172  1.00  0.00     0.167 HD
ATOM     63  C   UNL A   1      42.896  28.636  33.425  1.00  0.00     0.074 A 
ATOM     64  C   UNL A   1      43.511  27.595  32.627  1.00  0.00     0.031 C 
ATOM     65  C   UNL A   1      43.298  28.980  34.673  1.00  0.00     0.034 A 
BRANCH  52  66
ATOM     66  C   UNL A   1      40.235  33.767  37.090  1.00  0.00     0.023 A 
ATOM     67  C   UNL A   1      39.250  33.512  38.066  1.00  0.00     0.012 A 
ATOM     68  C   UNL A   1      41.107  34.861  37.255  1.00  0.00     0.148 A 
ATOM     69  C   UNL A   1      39.116  34.345  39.175  1.00  0.00     0.002 A 
ATOM     70  C   UNL A   1      40.996  35.661  38.386  1.00  0.00     0.091 A 
ATOM     71  F   UNL A   1      42.023  35.098  36.305  1.00  0.00    -0.205 F 
ATOM     72  C   UNL A   1      39.997  35.411  39.340  1.00  0.00     0.022 A 
BRANCH  70  73
ATOM     73  S   UNL A   1      42.133  37.007  38.738  1.00  0.00     0.127 S 
ATOM     74  O   UNL A   1      42.726  37.244  37.422  1.00  0.00    -0.237 OA
ATOM     75  O   UNL A   1      41.228  38.061  39.197  1.00  0.00    -0.237 OA
ATOM     76  O   UNL A   1      43.048  36.506  39.754  1.00  0.00    -0.744 OA
ENDBRANCH  70  73
ENDBRANCH  52  66
BRANCH  53  77
ATOM     77  C   UNL A   1      41.117  27.791  29.137  1.00  0.00     0.023 A 
ATOM     78  C   UNL A   1      40.225  26.714  28.974  1.00  0.00     0.012 A 
ATOM     79  C   UNL A   1      42.074  28.048  28.136  1.00  0.00     0.148 A 
ATOM     80  C   UNL A   1      40.293  25.897  27.844  1.00  0.00     0.002 A 
ATOM     81  C   UNL A   1      42.101  27.264  26.987  1.00  0.00     0.091 A 
ATOM     82  F   UNL A   1      42.921  29.071  28.315  1.00  0.00    -0.205 F 
ATOM     83  C   UNL A   1      41.221  26.180  26.846  1.00  0.00     0.022 A 
BRANCH  81  84
ATOM     84  S   UNL A   1      43.165  27.636  25.587  1.00  0.00     0.127 S 
ATOM     85  O   UNL A   1      42.251  28.348  24.698  1.00  0.00    -0.237 OA
ATOM     86  O   UNL A   1      44.197  28.469  26.206  1.00  0.00    -0.237 OA
ATOM     87  O   UNL A   1      43.643  26.350  25.102  1.00  0.00    -0.744 OA
ENDBRANCH  81  84
ENDBRANCH  53  77
BRANCH  65  88
ATOM     88  C   UNL A   1      44.447  28.224  35.286  1.00  0.00     0.023 A 
ATOM     89  C   UNL A   1      45.768  28.579  34.951  1.00  0.00     0.012 A 
ATOM     90  C   UNL A   1      44.221  27.261  36.288  1.00  0.00     0.148 A 
ATOM     91  C   UNL A   1      46.847  27.976  35.595  1.00  0.00     0.002 A 
ATOM     92  C   UNL A   1      45.300  26.698  36.959  1.00  0.00     0.091 A 
ATOM     93  F   UNL A   1      42.955  26.926  36.579  1.00  0.00    -0.205 F 
ATOM     94  C   UNL A   1      46.614  27.048  36.608  1.00  0.00     0.022 A 
BRANCH  92  95
ATOM     95  S   UNL A   1      45.094  25.574  38.346  1.00  0.00     0.127 S 
ATOM     96  O   UNL A   1      46.481  25.325  38.735  1.00  0.00    -0.237 OA
ATOM     97  O   UNL A   1      44.332  26.388  39.294  1.00  0.00    -0.237 OA
ATOM     98  O   UNL A   1      44.375  24.420  37.826  1.00  0.00    -0.744 OA
ENDBRANCH  92  95
ENDBRANCH  65  88
ENDBRANCH  39  40
ENDBRANCH  31  34
ENDBRANCH  29  30
ENDBRANCH  28  29
ENDBRANCH  27  28
ENDBRANCH   1  27
TORSDOF 20
ENDMDL
MODEL 3
REMARK VINA RESULT:     -10.3      4.944     10.583
REMARK SMILES CC[C@@](C)([NH2+]CC(=O)N[C@@H](C)c1ccc(F)cc1)C(=O)NCCCCNC(=O)c1ccc(-c2c3nc(c(-c4cccc(S(=O)(=O)[O-])c4F)c4ccc([nH]4)c(-c4cccc(S(=O)(=O)[O-])c4F)c4nc(c(-c5cccc(S(=O)(=O)[O-])c5F)c5ccc2[nH]5)C=C4)C=C3)cc1
REMARK SMILES IDX 22 1 21 2 19 3 20 4 3 6 4 7 2 8 1 9 5 10 6 13 7 14 8 15 9 16
REMARK SMILES IDX 10 18 11 19 12 20 13 21 18 22 14 23 17 24 15 25 16 26 23 27
REMARK SMILES IDX 24 28 25 29 26 30 27 31 28 33 29 34 30 35 91 36 31 37 90 38
REMARK SMILES IDX 32 39 33 40 34 41 84 42 35 43 89 44 83 45 85 46 36 47 88 48
REMARK SMILES IDX 82 49 81 50 37 52 69 53 49 54 68 55 50 56 53 57 67 58 86 59
REMARK SMILES IDX 51 60 52 61 66 63 87 64 54 65 38 66 39 67 47 68 40 69 42 70
REMARK SMILES IDX 48 71 41 72 43 73 44 74 45 75 46 76 70 77 71 78 79 79 72 80
REMARK SMILES IDX 74 81 80 82 73 83 75 84 76 85 77 86 78 87 55 88 56 89 64 90
REMARK SMILES IDX 57 91 59 92 65 93 58 94 60 95 61 96 62 97 63 98
REMARK H PARENT 21 5 5 11 5 12 9 17 26 32 85 51 53 62
REMARK Flexibility Score: inf
ROOT
ATOM      1  C   UNL A   1      33.886  36.398  28.844  1.00  0.00     0.116 C 
ENDROOT
BRANCH   1   2
ATOM      2  N   UNL A   1      32.907  36.206  29.923  1.00  0.00    -0.351 N 
ATOM      3  C   UNL A   1      33.106  36.739  31.186  1.00  0.00     0.281 C 
ATOM      4  O   UNL A   1      32.875  37.938  31.361  1.00  0.00    -0.268 OA
ATOM      5  H   UNL A   1      32.090  35.686  29.744  1.00  0.00     0.163 HD
BRANCH   3   6
ATOM      6  C   UNL A   1      33.437  35.769  32.407  1.00  0.00     0.172 C 
ATOM      7  C   UNL A   1      33.939  36.373  33.734  1.00  0.00     0.090 C 
BRANCH   6   8
ATOM      8  C   UNL A   1      32.047  35.127  32.759  1.00  0.00     0.075 C 
ATOM      9  C   UNL A   1      30.902  36.153  32.905  1.00  0.00     0.011 C 
ENDBRANCH   6   8
BRANCH   6  10
ATOM     10  N   UNL A   1      34.417  34.729  32.056  1.00  0.00    -0.326 N 
ATOM     11  H   UNL A   1      34.306  34.552  31.057  1.00  0.00     0.347 HD
ATOM     12  H   UNL A   1      34.191  33.980  32.709  1.00  0.00     0.347 HD
BRANCH  10  13
ATOM     13  C   UNL A   1      35.861  34.933  32.286  1.00  0.00     0.362 C 
BRANCH  13  14
ATOM     14  C   UNL A   1      36.704  34.230  33.379  1.00  0.00     0.275 C 
ATOM     15  O   UNL A   1      37.414  34.943  34.108  1.00  0.00    -0.268 OA
ATOM     16  N   UNL A   1      36.621  32.925  33.791  1.00  0.00    -0.345 N 
ATOM     17  H   UNL A   1      36.669  32.829  34.770  1.00  0.00     0.164 HD
BRANCH  16  18
ATOM     18  C   UNL A   1      36.473  31.641  33.096  1.00  0.00     0.109 C 
ATOM     19  C   UNL A   1      36.192  31.871  31.601  1.00  0.00     0.036 C 
BRANCH  18  20
ATOM     20  C   UNL A   1      37.614  30.647  33.232  1.00  0.00    -0.026 A 
ATOM     21  C   UNL A   1      38.806  30.938  33.903  1.00  0.00     0.009 A 
ATOM     22  C   UNL A   1      37.480  29.380  32.616  1.00  0.00     0.009 A 
ATOM     23  C   UNL A   1      39.841  29.998  33.937  1.00  0.00     0.039 A 
ATOM     24  C   UNL A   1      38.514  28.444  32.650  1.00  0.00     0.039 A 
ATOM     25  C   UNL A   1      39.689  28.767  33.307  1.00  0.00     0.123 A 
ATOM     26  F   UNL A   1      40.693  27.882  33.336  1.00  0.00    -0.207 F 
ENDBRANCH  18  20
ENDBRANCH  16  18
ENDBRANCH  13  14
ENDBRANCH  10  13
ENDBRANCH   6  10
ENDBRANCH   3   6
ENDBRANCH   1   2
BRANCH   1  27
ATOM     27  C   UNL A   1      34.763  35.158  28.602  1.00  0.00     0.023 C 
BRANCH  27  28
ATOM     28  C   UNL A   1      34.043  33.826  28.789  1.00  0.00     0.023 C 
BRANCH  28  29
ATOM     29  C   UNL A   1      34.804  32.591  28.319  1.00  0.00     0.116 C 
BRANCH  29  30
ATOM     30  N   UNL A   1      33.971  31.563  27.702  1.00  0.00    -0.352 N 
ATOM     31  C   UNL A   1      34.314  30.255  27.424  1.00  0.00     0.251 C 
ATOM     32  H   UNL A   1      33.058  31.835  27.457  1.00  0.00     0.163 HD
ATOM     33  O   UNL A   1      33.523  29.503  26.860  1.00  0.00    -0.269 OA
BRANCH  31  34
ATOM     34  C   UNL A   1      35.672  29.783  27.774  1.00  0.00     0.039 A 
ATOM     35  C   UNL A   1      36.713  29.968  26.862  1.00  0.00     0.014 A 
ATOM     36  C   UNL A   1      35.927  29.265  29.045  1.00  0.00     0.014 A 
ATOM     37  C   UNL A   1      38.030  29.726  27.264  1.00  0.00     0.010 A 
ATOM     38  C   UNL A   1      37.243  29.099  29.466  1.00  0.00     0.010 A 
ATOM     39  C   UNL A   1      38.309  29.340  28.586  1.00  0.00    -0.014 A 
BRANCH  39  40
ATOM     40  C   UNL A   1      39.706  29.224  29.083  1.00  0.00     0.031 A 
ATOM     41  C   UNL A   1      40.484  27.955  28.864  1.00  0.00     0.074 A 
ATOM     42  C   UNL A   1      40.238  30.218  29.822  1.00  0.00     0.049 A 
ATOM     43  N   UNL A   1      41.685  27.644  29.280  1.00  0.00    -0.248 NA
ATOM     44  C   UNL A   1      39.818  26.885  28.104  1.00  0.00     0.031 C 
ATOM     45  C   UNL A   1      39.554  31.462  30.185  1.00  0.00     0.029 A 
ATOM     46  N   UNL A   1      41.467  30.332  30.425  1.00  0.00    -0.354 N 
ATOM     47  C   UNL A   1      41.902  26.336  28.866  1.00  0.00     0.074 A 
ATOM     48  C   UNL A   1      40.697  25.897  28.198  1.00  0.00     0.031 C 
ATOM     49  C   UNL A   1      40.375  32.215  30.932  1.00  0.00     0.029 A 
ATOM     50  C   UNL A   1      41.634  31.502  31.129  1.00  0.00     0.049 A 
ATOM     51  H   UNL A   1      42.164  29.639  30.360  1.00  0.00     0.167 HD
ATOM     52  C   UNL A   1      43.017  25.580  28.997  1.00  0.00     0.034 A 
ATOM     53  C   UNL A   1      42.681  31.954  31.850  1.00  0.00     0.034 A 
ATOM     54  C   UNL A   1      44.234  26.040  29.608  1.00  0.00     0.049 A 
ATOM     55  C   UNL A   1      43.930  31.119  31.931  1.00  0.00     0.074 A 
ATOM     56  C   UNL A   1      45.448  25.382  29.699  1.00  0.00     0.029 A 
ATOM     57  N   UNL A   1      44.394  27.268  30.229  1.00  0.00    -0.354 N 
ATOM     58  N   UNL A   1      44.172  29.947  31.395  1.00  0.00    -0.248 NA
ATOM     59  C   UNL A   1      45.062  31.678  32.685  1.00  0.00     0.031 C 
ATOM     60  C   UNL A   1      46.339  26.207  30.390  1.00  0.00     0.029 A 
ATOM     61  C   UNL A   1      45.686  27.387  30.711  1.00  0.00     0.049 A 
ATOM     62  H   UNL A   1      43.694  27.954  30.316  1.00  0.00     0.167 HD
ATOM     63  C   UNL A   1      45.490  29.642  31.719  1.00  0.00     0.074 A 
ATOM     64  C   UNL A   1      46.002  30.761  32.483  1.00  0.00     0.031 C 
ATOM     65  C   UNL A   1      46.203  28.529  31.422  1.00  0.00     0.034 A 
BRANCH  52  66
ATOM     66  C   UNL A   1      43.004  24.198  28.399  1.00  0.00     0.023 A 
ATOM     67  C   UNL A   1      42.289  23.172  29.051  1.00  0.00     0.012 A 
ATOM     68  C   UNL A   1      43.622  23.933  27.161  1.00  0.00     0.148 A 
ATOM     69  C   UNL A   1      42.212  21.897  28.496  1.00  0.00     0.002 A 
ATOM     70  C   UNL A   1      43.502  22.670  26.592  1.00  0.00     0.091 A 
ATOM     71  F   UNL A   1      44.313  24.916  26.567  1.00  0.00    -0.205 F 
ATOM     72  C   UNL A   1      42.807  21.650  27.262  1.00  0.00     0.022 A 
BRANCH  70  73
ATOM     73  S   UNL A   1      44.159  22.271  24.968  1.00  0.00     0.127 S 
ATOM     74  O   UNL A   1      43.363  23.144  24.106  1.00  0.00    -0.237 OA
ATOM     75  O   UNL A   1      45.563  22.660  25.100  1.00  0.00    -0.237 OA
ATOM     76  O   UNL A   1      43.938  20.843  24.784  1.00  0.00    -0.744 OA
ENDBRANCH  70  73
ENDBRANCH  52  66
BRANCH  53  77
ATOM     77  C   UNL A   1      42.617  33.310  32.469  1.00  0.00     0.023 A 
ATOM     78  C   UNL A   1      43.014  34.428  31.710  1.00  0.00     0.012 A 
ATOM     79  C   UNL A   1      42.109  33.506  33.767  1.00  0.00     0.148 A 
ATOM     80  C   UNL A   1      42.920  35.717  32.239  1.00  0.00     0.002 A 
ATOM     81  C   UNL A   1      41.967  34.796  34.268  1.00  0.00     0.091 A 
ATOM     82  F   UNL A   1      41.747  32.428  34.477  1.00  0.00    -0.205 F 
ATOM     83  C   UNL A   1      42.385  35.901  33.510  1.00  0.00     0.022 A 
BRANCH  81  84
ATOM     84  S   UNL A   1      41.160  35.142  35.836  1.00  0.00     0.127 S 
ATOM     85  O   UNL A   1      42.295  35.171  36.756  1.00  0.00    -0.237 OA
ATOM     86  O   UNL A   1      40.544  36.444  35.576  1.00  0.00    -0.237 OA
ATOM     87  O   UNL A   1      40.210  34.059  36.039  1.00  0.00    -0.744 OA
ENDBRANCH  81  84
ENDBRANCH  53  77
BRANCH  65  88
ATOM     88  C   UNL A   1      47.630  28.448  31.900  1.00  0.00     0.023 A 
ATOM     89  C   UNL A   1      48.651  29.051  31.141  1.00  0.00     0.012 A 
ATOM     90  C   UNL A   1      47.936  27.896  33.160  1.00  0.00     0.148 A 
ATOM     91  C   UNL A   1      49.958  29.093  31.622  1.00  0.00     0.002 A 
ATOM     92  C   UNL A   1      49.232  27.984  33.653  1.00  0.00     0.091 A 
ATOM     93  F   UNL A   1      46.951  27.313  33.859  1.00  0.00    -0.205 F 
ATOM     94  C   UNL A   1      50.246  28.574  32.882  1.00  0.00     0.022 A 
BRANCH  92  95
ATOM     95  S   UNL A   1      49.673  27.438  35.308  1.00  0.00     0.127 S 
ATOM     96  O   UNL A   1      48.744  28.208  36.133  1.00  0.00    -0.237 OA
ATOM     97  O   UNL A   1      49.389  26.004  35.248  1.00  0.00    -0.237 OA
ATOM     98  O   UNL A   1      51.080  27.768  35.479  1.00  0.00    -0.744 OA
ENDBRANCH  92  95
ENDBRANCH  65  88
ENDBRANCH  39  40
ENDBRANCH  31  34
ENDBRANCH  29  30
ENDBRANCH  28  29
ENDBRANCH  27  28
ENDBRANCH   1  27
TORSDOF 20
ENDMDL
