MODEL 1
REMARK VINA RESULT:     -12.2      0.000      0.000
REMARK SMILES O=C(NCCCCNC(=O)c1cccc(Nc2ccnc3ccc(F)cc23)c1)c1ccc(-c2c3nc(c(-c4cccc(S(=O)(=O)[O-])c4F)c4ccc([nH]4)c(-c4cccc(S(=O)(=O)[O-])c4F)c4nc(c(-c5cccc(S(=O)(=O)[O-])c5F)c5ccc2[nH]5)C=C4)C=C3)cc1
REMARK SMILES IDX 5 1 4 2 3 3 1 4 2 5 29 7 30 8 91 9 31 10 90 11 32 12 33 13
REMARK SMILES IDX 34 14 84 15 35 16 89 17 83 18 85 19 36 20 88 21 82 22 81 23
REMARK SMILES IDX 37 25 69 26 49 27 68 28 50 29 53 30 67 31 86 32 51 33 52 34
REMARK SMILES IDX 66 36 87 37 54 38 38 39 39 40 47 41 40 42 42 43 48 44 41 45
REMARK SMILES IDX 43 46 44 47 45 48 46 49 70 50 71 51 79 52 72 53 74 54 80 55
REMARK SMILES IDX 73 56 75 57 76 58 77 59 78 60 55 61 56 62 64 63 57 64 59 65
REMARK SMILES IDX 65 66 58 67 60 68 61 69 62 70 63 71 6 72 7 73 8 74 9 75
REMARK SMILES IDX 10 77 11 78 12 79 28 80 13 81 15 82 14 83 16 84 17 86 18 87
REMARK SMILES IDX 27 88 19 89 21 90 26 91 20 92 22 93 24 94 23 95 25 96
REMARK H PARENT 3 6 85 24 53 35 8 76 16 85
REMARK Flexibility Score: inf
ROOT
ATOM      1  C   UNL A   1      31.459  32.389  26.916  1.00  0.00     0.023 C 
ENDROOT
BRANCH   1   2
ATOM      2  C   UNL A   1      32.738  33.087  27.354  1.00  0.00     0.116 C 
BRANCH   2   3
ATOM      3  N   UNL A   1      32.548  34.472  27.763  1.00  0.00    -0.352 N 
ATOM      4  O   UNL A   1      32.812  36.320  29.038  1.00  0.00    -0.269 OA
ATOM      5  C   UNL A   1      33.179  35.174  28.769  1.00  0.00     0.251 C 
ATOM      6  H   UNL A   1      31.877  34.978  27.249  1.00  0.00     0.163 HD
BRANCH   5   7
ATOM      7  C   UNL A   1      34.266  34.535  29.545  1.00  0.00     0.039 A 
ATOM      8  C   UNL A   1      35.580  34.596  29.085  1.00  0.00     0.014 A 
ATOM      9  C   UNL A   1      33.972  33.835  30.720  1.00  0.00     0.014 A 
ATOM     10  C   UNL A   1      36.553  33.799  29.671  1.00  0.00     0.010 A 
ATOM     11  C   UNL A   1      34.987  33.135  31.387  1.00  0.00     0.010 A 
ATOM     12  C   UNL A   1      36.281  33.081  30.849  1.00  0.00    -0.014 A 
BRANCH  12  13
ATOM     13  C   UNL A   1      37.408  32.388  31.528  1.00  0.00     0.031 A 
ATOM     14  C   UNL A   1      38.168  31.263  30.878  1.00  0.00     0.074 A 
ATOM     15  C   UNL A   1      37.770  32.825  32.752  1.00  0.00     0.049 A 
ATOM     16  N   UNL A   1      39.208  30.609  31.333  1.00  0.00    -0.248 NA
ATOM     17  C   UNL A   1      37.709  30.805  29.558  1.00  0.00     0.031 C 
ATOM     18  C   UNL A   1      37.082  33.881  33.503  1.00  0.00     0.029 A 
ATOM     19  N   UNL A   1      38.802  32.458  33.576  1.00  0.00    -0.354 N 
ATOM     20  C   UNL A   1      39.512  29.649  30.374  1.00  0.00     0.074 A 
ATOM     21  C   UNL A   1      38.536  29.795  29.315  1.00  0.00     0.031 C 
ATOM     22  C   UNL A   1      37.732  34.105  34.652  1.00  0.00     0.029 A 
ATOM     23  C   UNL A   1      38.831  33.155  34.761  1.00  0.00     0.049 A 
ATOM     24  H   UNL A   1      39.458  31.762  33.342  1.00  0.00     0.167 HD
ATOM     25  C   UNL A   1      40.517  28.739  30.376  1.00  0.00     0.034 A 
ATOM     26  C   UNL A   1      39.625  33.026  35.838  1.00  0.00     0.034 A 
ATOM     27  C   UNL A   1      41.489  28.606  31.431  1.00  0.00     0.049 A 
ATOM     28  C   UNL A   1      40.717  31.999  35.810  1.00  0.00     0.074 A 
ATOM     29  C   UNL A   1      42.571  27.742  31.500  1.00  0.00     0.029 A 
ATOM     30  N   UNL A   1      41.494  29.338  32.609  1.00  0.00    -0.354 N 
ATOM     31  N   UNL A   1      41.055  31.181  34.844  1.00  0.00    -0.248 NA
ATOM     32  C   UNL A   1      41.556  31.895  37.010  1.00  0.00     0.031 C 
ATOM     33  C   UNL A   1      43.202  27.924  32.735  1.00  0.00     0.029 A 
ATOM     34  C   UNL A   1      42.547  28.936  33.415  1.00  0.00     0.049 A 
ATOM     35  H   UNL A   1      40.845  30.042  32.838  1.00  0.00     0.167 HD
ATOM     36  C   UNL A   1      42.163  30.485  35.309  1.00  0.00     0.074 A 
ATOM     37  C   UNL A   1      42.462  31.008  36.625  1.00  0.00     0.031 C 
ATOM     38  C   UNL A   1      42.859  29.489  34.708  1.00  0.00     0.034 A 
BRANCH  25  39
ATOM     39  C   UNL A   1      40.646  27.817  29.186  1.00  0.00     0.023 A 
ATOM     40  C   UNL A   1      39.794  26.702  29.071  1.00  0.00     0.012 A 
ATOM     41  C   UNL A   1      41.537  28.117  28.134  1.00  0.00     0.148 A 
ATOM     42  C   UNL A   1      39.841  25.884  27.941  1.00  0.00     0.002 A 
ATOM     43  C   UNL A   1      41.546  27.324  26.992  1.00  0.00     0.091 A 
ATOM     44  F   UNL A   1      42.346  29.176  28.265  1.00  0.00    -0.205 F 
ATOM     45  C   UNL A   1      40.707  26.201  26.898  1.00  0.00     0.022 A 
BRANCH  43  46
ATOM     46  S   UNL A   1      42.564  27.692  25.557  1.00  0.00     0.127 S 
ATOM     47  O   UNL A   1      42.326  26.518  24.719  1.00  0.00    -0.237 OA
ATOM     48  O   UNL A   1      41.959  28.927  25.062  1.00  0.00    -0.237 OA
ATOM     49  O   UNL A   1      43.927  27.832  26.053  1.00  0.00    -0.744 OA
ENDBRANCH  43  46
ENDBRANCH  25  39
BRANCH  26  50
ATOM     50  C   UNL A   1      39.409  33.884  37.038  1.00  0.00     0.023 A 
ATOM     51  C   UNL A   1      39.843  35.223  37.034  1.00  0.00     0.012 A 
ATOM     52  C   UNL A   1      38.779  33.368  38.187  1.00  0.00     0.148 A 
ATOM     53  C   UNL A   1      39.699  36.016  38.174  1.00  0.00     0.002 A 
ATOM     54  C   UNL A   1      38.578  34.182  39.292  1.00  0.00     0.091 A 
ATOM     55  F   UNL A   1      38.381  32.087  38.174  1.00  0.00    -0.205 F 
ATOM     56  C   UNL A   1      39.060  35.499  39.298  1.00  0.00     0.022 A 
BRANCH  54  57
ATOM     57  S   UNL A   1      37.641  33.640  40.724  1.00  0.00     0.127 S 
ATOM     58  O   UNL A   1      38.535  32.642  41.305  1.00  0.00    -0.237 OA
ATOM     59  O   UNL A   1      37.520  34.881  41.491  1.00  0.00    -0.237 OA
ATOM     60  O   UNL A   1      36.380  33.135  40.200  1.00  0.00    -0.744 OA
ENDBRANCH  54  57
ENDBRANCH  26  50
BRANCH  38  61
ATOM     61  C   UNL A   1      44.043  28.933  35.457  1.00  0.00     0.023 A 
ATOM     62  C   UNL A   1      45.325  29.486  35.267  1.00  0.00     0.012 A 
ATOM     63  C   UNL A   1      43.876  27.872  36.368  1.00  0.00     0.148 A 
ATOM     64  C   UNL A   1      46.432  28.954  35.929  1.00  0.00     0.002 A 
ATOM     65  C   UNL A   1      44.973  27.388  37.070  1.00  0.00     0.091 A 
ATOM     66  F   UNL A   1      42.652  27.347  36.524  1.00  0.00    -0.205 F 
ATOM     67  C   UNL A   1      46.254  27.914  36.837  1.00  0.00     0.022 A 
BRANCH  65  68
ATOM     68  S   UNL A   1      44.828  26.116  38.330  1.00  0.00     0.127 S 
ATOM     69  O   UNL A   1      46.220  25.949  38.744  1.00  0.00    -0.237 OA
ATOM     70  O   UNL A   1      43.969  26.763  39.322  1.00  0.00    -0.237 OA
ATOM     71  O   UNL A   1      44.232  24.962  37.671  1.00  0.00    -0.744 OA
ENDBRANCH  65  68
ENDBRANCH  38  61
ENDBRANCH  12  13
ENDBRANCH   5   7
ENDBRANCH   2   3
ENDBRANCH   1   2
BRANCH   1  72
ATOM     72  C   UNL A   1      31.632  31.039  26.225  1.00  0.00     0.023 C 
BRANCH  72  73
ATOM     73  C   UNL A   1      31.847  29.824  27.131  1.00  0.00     0.116 C 
BRANCH  73  74
ATOM     74  N   UNL A   1      33.226  29.573  27.523  1.00  0.00    -0.352 N 
ATOM     75  C   UNL A   1      34.188  28.863  26.831  1.00  0.00     0.251 C 
ATOM     76  H   UNL A   1      33.507  29.956  28.385  1.00  0.00     0.163 HD
ATOM     77  O   UNL A   1      35.372  28.928  27.139  1.00  0.00    -0.269 OA
BRANCH  75  78
ATOM     78  C   UNL A   1      33.735  27.858  25.844  1.00  0.00     0.041 A 
ATOM     79  C   UNL A   1      33.919  28.269  24.522  1.00  0.00     0.014 A 
ATOM     80  C   UNL A   1      33.230  26.571  26.157  1.00  0.00     0.039 A 
ATOM     81  C   UNL A   1      33.780  27.348  23.505  1.00  0.00     0.003 A 
ATOM     82  C   UNL A   1      32.988  25.657  25.111  1.00  0.00     0.039 A 
ATOM     83  C   UNL A   1      33.356  26.057  23.807  1.00  0.00     0.026 A 
BRANCH  82  84
ATOM     84  N   UNL A   1      32.494  24.325  25.287  1.00  0.00    -0.355 N 
ATOM     85  H   UNL A   1      31.579  24.207  25.633  1.00  0.00     0.167 HD
BRANCH  84  86
ATOM     86  C   UNL A   1      33.258  23.162  24.988  1.00  0.00     0.050 A 
ATOM     87  C   UNL A   1      32.506  22.084  24.514  1.00  0.00     0.047 A 
ATOM     88  C   UNL A   1      34.676  22.960  25.123  1.00  0.00     0.027 A 
ATOM     89  C   UNL A   1      33.033  20.852  24.761  1.00  0.00     0.114 A 
ATOM     90  C   UNL A   1      35.132  21.680  24.696  1.00  0.00     0.072 A 
ATOM     91  C   UNL A   1      35.684  23.825  25.639  1.00  0.00     0.051 A 
ATOM     92  N   UNL A   1      34.327  20.634  24.538  1.00  0.00    -0.256 NA
ATOM     93  C   UNL A   1      36.471  21.401  24.517  1.00  0.00     0.032 A 
ATOM     94  C   UNL A   1      37.039  23.454  25.579  1.00  0.00     0.124 A 
ATOM     95  C   UNL A   1      37.444  22.285  24.951  1.00  0.00     0.041 A 
ATOM     96  F   UNL A   1      37.976  24.227  26.144  1.00  0.00    -0.207 F 
ENDBRANCH  84  86
ENDBRANCH  82  84
ENDBRANCH  75  78
ENDBRANCH  73  74
ENDBRANCH  72  73
ENDBRANCH   1  72
TORSDOF 16
ENDMDL
MODEL 2
REMARK VINA RESULT:     -12.2      5.527      8.671
REMARK SMILES O=C(NCCCCNC(=O)c1cccc(Nc2ccnc3ccc(F)cc23)c1)c1ccc(-c2c3nc(c(-c4cccc(S(=O)(=O)[O-])c4F)c4ccc([nH]4)c(-c4cccc(S(=O)(=O)[O-])c4F)c4nc(c(-c5cccc(S(=O)(=O)[O-])c5F)c5ccc2[nH]5)C=C4)C=C3)cc1
REMARK SMILES IDX 5 1 4 2 3 3 1 4 2 5 29 7 30 8 91 9 31 10 90 11 32 12 33 13
REMARK SMILES IDX 34 14 84 15 35 16 89 17 83 18 85 19 36 20 88 21 82 22 81 23
REMARK SMILES IDX 37 25 69 26 49 27 68 28 50 29 53 30 67 31 86 32 51 33 52 34
REMARK SMILES IDX 66 36 87 37 54 38 38 39 39 40 47 41 40 42 42 43 48 44 41 45
REMARK SMILES IDX 43 46 44 47 45 48 46 49 70 50 71 51 79 52 72 53 74 54 80 55
REMARK SMILES IDX 73 56 75 57 76 58 77 59 78 60 55 61 56 62 64 63 57 64 59 65
REMARK SMILES IDX 65 66 58 67 60 68 61 69 62 70 63 71 6 72 7 73 8 74 9 75
REMARK SMILES IDX 10 77 11 78 12 79 28 80 13 81 15 82 14 83 16 84 17 86 18 87
REMARK SMILES IDX 27 88 19 89 21 90 26 91 20 92 22 93 24 94 23 95 25 96
REMARK H PARENT 3 6 85 24 53 35 8 76 16 85
REMARK Flexibility Score: inf
ROOT
ATOM      1  C   UNL A   1      35.270  23.397  26.276  1.00  0.00     0.023 C 
ENDROOT
BRANCH   1   2
ATOM      2  C   UNL A   1      36.681  23.895  26.000  1.00  0.00     0.116 C 
BRANCH   2   3
ATOM      3  N   UNL A   1      37.682  22.838  25.942  1.00  0.00    -0.352 N 
ATOM      4  O   UNL A   1      39.741  21.914  26.063  1.00  0.00    -0.269 OA
ATOM      5  C   UNL A   1      39.019  22.890  26.276  1.00  0.00     0.251 C 
ATOM      6  H   UNL A   1      37.359  21.965  25.621  1.00  0.00     0.163 HD
BRANCH   5   7
ATOM      7  C   UNL A   1      39.589  24.130  26.850  1.00  0.00     0.039 A 
ATOM      8  C   UNL A   1      39.563  24.335  28.229  1.00  0.00     0.014 A 
ATOM      9  C   UNL A   1      40.116  25.117  26.011  1.00  0.00     0.014 A 
ATOM     10  C   UNL A   1      39.867  25.586  28.746  1.00  0.00     0.010 A 
ATOM     11  C   UNL A   1      40.546  26.336  26.551  1.00  0.00     0.010 A 
ATOM     12  C   UNL A   1      40.393  26.596  27.921  1.00  0.00    -0.014 A 
BRANCH  12  13
ATOM     13  C   UNL A   1      40.865  27.854  28.560  1.00  0.00     0.031 A 
ATOM     14  C   UNL A   1      42.327  28.161  28.746  1.00  0.00     0.074 A 
ATOM     15  C   UNL A   1      39.934  28.754  28.940  1.00  0.00     0.049 A 
ATOM     16  N   UNL A   1      42.878  29.244  29.234  1.00  0.00    -0.248 NA
ATOM     17  C   UNL A   1      43.295  27.130  28.344  1.00  0.00     0.031 C 
ATOM     18  C   UNL A   1      38.484  28.552  28.848  1.00  0.00     0.029 A 
ATOM     19  N   UNL A   1      40.056  30.015  29.463  1.00  0.00    -0.354 N 
ATOM     20  C   UNL A   1      44.250  29.018  29.225  1.00  0.00     0.074 A 
ATOM     21  C   UNL A   1      44.449  27.686  28.694  1.00  0.00     0.031 C 
ATOM     22  C   UNL A   1      37.854  29.660  29.257  1.00  0.00     0.029 A 
ATOM     23  C   UNL A   1      38.847  30.620  29.719  1.00  0.00     0.049 A 
ATOM     24  H   UNL A   1      40.923  30.446  29.638  1.00  0.00     0.167 HD
ATOM     25  C   UNL A   1      45.249  29.850  29.613  1.00  0.00     0.034 A 
ATOM     26  C   UNL A   1      38.559  31.799  30.297  1.00  0.00     0.034 A 
ATOM     27  C   UNL A   1      45.042  31.178  30.133  1.00  0.00     0.049 A 
ATOM     28  C   UNL A   1      39.689  32.686  30.728  1.00  0.00     0.074 A 
ATOM     29  C   UNL A   1      45.994  32.111  30.511  1.00  0.00     0.029 A 
ATOM     30  N   UNL A   1      43.805  31.760  30.366  1.00  0.00    -0.354 N 
ATOM     31  N   UNL A   1      40.979  32.498  30.602  1.00  0.00    -0.248 NA
ATOM     32  C   UNL A   1      39.323  33.962  31.356  1.00  0.00     0.031 C 
ATOM     33  C   UNL A   1      45.333  33.237  31.012  1.00  0.00     0.029 A 
ATOM     34  C   UNL A   1      43.969  33.030  30.897  1.00  0.00     0.049 A 
ATOM     35  H   UNL A   1      42.937  31.334  30.181  1.00  0.00     0.167 HD
ATOM     36  C   UNL A   1      41.579  33.643  31.109  1.00  0.00     0.074 A 
ATOM     37  C   UNL A   1      40.508  34.534  31.504  1.00  0.00     0.031 C 
ATOM     38  C   UNL A   1      42.897  33.924  31.252  1.00  0.00     0.034 A 
BRANCH  25  39
ATOM     39  C   UNL A   1      46.673  29.368  29.473  1.00  0.00     0.023 A 
ATOM     40  C   UNL A   1      47.263  28.619  30.510  1.00  0.00     0.012 A 
ATOM     41  C   UNL A   1      47.388  29.566  28.272  1.00  0.00     0.148 A 
ATOM     42  C   UNL A   1      48.549  28.095  30.367  1.00  0.00     0.002 A 
ATOM     43  C   UNL A   1      48.649  29.002  28.120  1.00  0.00     0.091 A 
ATOM     44  F   UNL A   1      46.814  30.288  27.301  1.00  0.00    -0.205 F 
ATOM     45  C   UNL A   1      49.236  28.276  29.170  1.00  0.00     0.022 A 
BRANCH  43  46
ATOM     46  S   UNL A   1      49.586  29.106  26.590  1.00  0.00     0.127 S 
ATOM     47  O   UNL A   1      48.661  28.495  25.637  1.00  0.00    -0.237 OA
ATOM     48  O   UNL A   1      49.755  30.551  26.434  1.00  0.00    -0.237 OA
ATOM     49  O   UNL A   1      50.819  28.365  26.818  1.00  0.00    -0.744 OA
ENDBRANCH  43  46
ENDBRANCH  25  39
BRANCH  26  50
ATOM     50  C   UNL A   1      37.141  32.203  30.513  1.00  0.00     0.023 A 
ATOM     51  C   UNL A   1      36.523  31.969  31.756  1.00  0.00     0.012 A 
ATOM     52  C   UNL A   1      36.401  32.812  29.481  1.00  0.00     0.148 A 
ATOM     53  C   UNL A   1      35.178  32.287  31.949  1.00  0.00     0.002 A 
ATOM     54  C   UNL A   1      35.084  33.189  29.702  1.00  0.00     0.091 A 
ATOM     55  F   UNL A   1      37.004  33.018  28.301  1.00  0.00    -0.205 F 
ATOM     56  C   UNL A   1      34.462  32.905  30.927  1.00  0.00     0.022 A 
BRANCH  54  57
ATOM     57  S   UNL A   1      34.136  34.113  28.490  1.00  0.00     0.127 S 
ATOM     58  O   UNL A   1      34.058  33.162  27.384  1.00  0.00    -0.237 OA
ATOM     59  O   UNL A   1      32.876  34.337  29.201  1.00  0.00    -0.237 OA
ATOM     60  O   UNL A   1      34.901  35.325  28.233  1.00  0.00    -0.744 OA
ENDBRANCH  54  57
ENDBRANCH  26  50
BRANCH  38  61
ATOM     61  C   UNL A   1      43.252  35.274  31.822  1.00  0.00     0.023 A 
ATOM     62  C   UNL A   1      43.299  35.464  33.218  1.00  0.00     0.012 A 
ATOM     63  C   UNL A   1      43.561  36.350  30.967  1.00  0.00     0.148 A 
ATOM     64  C   UNL A   1      43.592  36.718  33.753  1.00  0.00     0.002 A 
ATOM     65  C   UNL A   1      43.911  37.581  31.508  1.00  0.00     0.091 A 
ATOM     66  F   UNL A   1      43.495  36.156  29.642  1.00  0.00    -0.205 F 
ATOM     67  C   UNL A   1      43.907  37.772  32.900  1.00  0.00     0.022 A 
BRANCH  65  68
ATOM     68  S   UNL A   1      44.426  38.969  30.493  1.00  0.00     0.127 S 
ATOM     69  O   UNL A   1      44.723  39.983  31.504  1.00  0.00    -0.237 OA
ATOM     70  O   UNL A   1      45.600  38.430  29.807  1.00  0.00    -0.237 OA
ATOM     71  O   UNL A   1      43.299  39.272  29.622  1.00  0.00    -0.744 OA
ENDBRANCH  65  68
ENDBRANCH  38  61
ENDBRANCH  12  13
ENDBRANCH   5   7
ENDBRANCH   2   3
ENDBRANCH   1   2
BRANCH   1  72
ATOM     72  C   UNL A   1      35.131  21.909  26.588  1.00  0.00     0.023 C 
BRANCH  72  73
ATOM     73  C   UNL A   1      33.863  21.475  27.328  1.00  0.00     0.116 C 
BRANCH  73  74
ATOM     74  N   UNL A   1      33.093  20.422  26.683  1.00  0.00    -0.352 N 
ATOM     75  C   UNL A   1      32.495  20.449  25.438  1.00  0.00     0.251 C 
ATOM     76  H   UNL A   1      32.987  19.588  27.196  1.00  0.00     0.163 HD
ATOM     77  O   UNL A   1      32.089  19.424  24.904  1.00  0.00    -0.269 OA
BRANCH  75  78
ATOM     78  C   UNL A   1      32.164  21.768  24.855  1.00  0.00     0.041 A 
ATOM     79  C   UNL A   1      32.789  21.995  23.626  1.00  0.00     0.014 A 
ATOM     80  C   UNL A   1      31.258  22.705  25.410  1.00  0.00     0.039 A 
ATOM     81  C   UNL A   1      32.383  23.061  22.851  1.00  0.00     0.003 A 
ATOM     82  C   UNL A   1      30.916  23.853  24.665  1.00  0.00     0.039 A 
ATOM     83  C   UNL A   1      31.436  23.949  23.354  1.00  0.00     0.026 A 
BRANCH  82  84
ATOM     84  N   UNL A   1      30.006  24.869  25.098  1.00  0.00    -0.355 N 
ATOM     85  H   UNL A   1      29.254  24.608  25.678  1.00  0.00     0.167 HD
BRANCH  84  86
ATOM     86  C   UNL A   1      30.132  26.240  24.732  1.00  0.00     0.050 A 
ATOM     87  C   UNL A   1      29.105  26.715  23.912  1.00  0.00     0.047 A 
ATOM     88  C   UNL A   1      31.170  27.171  25.085  1.00  0.00     0.027 A 
ATOM     89  C   UNL A   1      29.444  27.750  23.095  1.00  0.00     0.114 A 
ATOM     90  C   UNL A   1      30.975  28.488  24.581  1.00  0.00     0.072 A 
ATOM     91  C   UNL A   1      32.369  26.975  25.831  1.00  0.00     0.051 A 
ATOM     92  N   UNL A   1      30.140  28.773  23.586  1.00  0.00    -0.256 NA
ATOM     93  C   UNL A   1      31.725  29.560  25.021  1.00  0.00     0.032 A 
ATOM     94  C   UNL A   1      33.198  28.067  26.145  1.00  0.00     0.124 A 
ATOM     95  C   UNL A   1      32.843  29.366  25.812  1.00  0.00     0.041 A 
ATOM     96  F   UNL A   1      34.367  27.869  26.768  1.00  0.00    -0.207 F 
ENDBRANCH  84  86
ENDBRANCH  82  84
ENDBRANCH  75  78
ENDBRANCH  73  74
ENDBRANCH  72  73
ENDBRANCH   1  72
TORSDOF 16
ENDMDL
MODEL 3
REMARK VINA RESULT:     -12.2      3.705      5.224
REMARK SMILES O=C(NCCCCNC(=O)c1cccc(Nc2ccnc3ccc(F)cc23)c1)c1ccc(-c2c3nc(c(-c4cccc(S(=O)(=O)[O-])c4F)c4ccc([nH]4)c(-c4cccc(S(=O)(=O)[O-])c4F)c4nc(c(-c5cccc(S(=O)(=O)[O-])c5F)c5ccc2[nH]5)C=C4)C=C3)cc1
REMARK SMILES IDX 5 1 4 2 3 3 1 4 2 5 29 7 30 8 91 9 31 10 90 11 32 12 33 13
REMARK SMILES IDX 34 14 84 15 35 16 89 17 83 18 85 19 36 20 88 21 82 22 81 23
REMARK SMILES IDX 37 25 69 26 49 27 68 28 50 29 53 30 67 31 86 32 51 33 52 34
REMARK SMILES IDX 66 36 87 37 54 38 38 39 39 40 47 41 40 42 42 43 48 44 41 45
REMARK SMILES IDX 43 46 44 47 45 48 46 49 70 50 71 51 79 52 72 53 74 54 80 55
REMARK SMILES IDX 73 56 75 57 76 58 77 59 78 60 55 61 56 62 64 63 57 64 59 65
REMARK SMILES IDX 65 66 58 67 60 68 61 69 62 70 63 71 6 72 7 73 8 74 9 75
REMARK SMILES IDX 10 77 11 78 12 79 28 80 13 81 15 82 14 83 16 84 17 86 18 87
REMARK SMILES IDX 27 88 19 89 21 90 26 91 20 92 22 93 24 94 23 95 25 96
REMARK H PARENT 3 6 85 24 53 35 8 76 16 85
REMARK Flexibility Score: inf
ROOT
ATOM      1  C   UNL A   1      33.602  28.084  25.633  1.00  0.00     0.023 C 
ENDROOT
BRANCH   1   2
ATOM      2  C   UNL A   1      33.694  28.383  27.122  1.00  0.00     0.116 C 
BRANCH   2   3
ATOM      3  N   UNL A   1      33.613  29.801  27.447  1.00  0.00    -0.352 N 
ATOM      4  O   UNL A   1      34.282  31.777  28.317  1.00  0.00    -0.269 OA
ATOM      5  C   UNL A   1      34.567  30.615  28.021  1.00  0.00     0.251 C 
ATOM      6  H   UNL A   1      32.759  30.239  27.227  1.00  0.00     0.163 HD
BRANCH   5   7
ATOM      7  C   UNL A   1      35.916  30.079  28.312  1.00  0.00     0.039 A 
ATOM      8  C   UNL A   1      36.183  29.499  29.551  1.00  0.00     0.014 A 
ATOM      9  C   UNL A   1      36.937  30.190  27.362  1.00  0.00     0.014 A 
ATOM     10  C   UNL A   1      37.493  29.222  29.915  1.00  0.00     0.010 A 
ATOM     11  C   UNL A   1      38.240  29.787  27.687  1.00  0.00     0.010 A 
ATOM     12  C   UNL A   1      38.537  29.331  28.980  1.00  0.00    -0.014 A 
BRANCH  12  13
ATOM     13  C   UNL A   1      39.890  28.854  29.374  1.00  0.00     0.031 A 
ATOM     14  C   UNL A   1      40.553  27.678  28.706  1.00  0.00     0.074 A 
ATOM     15  C   UNL A   1      40.543  29.538  30.336  1.00  0.00     0.049 A 
ATOM     16  N   UNL A   1      41.752  27.192  28.911  1.00  0.00    -0.248 NA
ATOM     17  C   UNL A   1      39.781  26.950  27.688  1.00  0.00     0.031 C 
ATOM     18  C   UNL A   1      39.987  30.670  31.086  1.00  0.00     0.029 A 
ATOM     19  N   UNL A   1      41.810  29.401  30.843  1.00  0.00    -0.354 N 
ATOM     20  C   UNL A   1      41.871  26.090  28.072  1.00  0.00     0.074 A 
ATOM     21  C   UNL A   1      40.614  25.969  27.363  1.00  0.00     0.031 C 
ATOM     22  C   UNL A   1      40.917  31.149  31.922  1.00  0.00     0.029 A 
ATOM     23  C   UNL A   1      42.104  30.310  31.831  1.00  0.00     0.049 A 
ATOM     24  H   UNL A   1      42.446  28.718  30.530  1.00  0.00     0.167 HD
ATOM     25  C   UNL A   1      42.933  25.264  27.904  1.00  0.00     0.034 A 
ATOM     26  C   UNL A   1      43.192  30.440  32.611  1.00  0.00     0.034 A 
ATOM     27  C   UNL A   1      44.183  25.396  28.608  1.00  0.00     0.049 A 
ATOM     28  C   UNL A   1      44.342  29.499  32.407  1.00  0.00     0.074 A 
ATOM     29  C   UNL A   1      45.332  24.634  28.472  1.00  0.00     0.029 A 
ATOM     30  N   UNL A   1      44.449  26.337  29.592  1.00  0.00    -0.354 N 
ATOM     31  N   UNL A   1      44.474  28.537  31.528  1.00  0.00    -0.248 NA
ATOM     32  C   UNL A   1      45.505  29.679  33.284  1.00  0.00     0.031 C 
ATOM     33  C   UNL A   1      46.274  25.086  29.401  1.00  0.00     0.029 A 
ATOM     34  C   UNL A   1      45.734  26.165  30.081  1.00  0.00     0.049 A 
ATOM     35  H   UNL A   1      43.817  27.027  29.898  1.00  0.00     0.167 HD
ATOM     36  C   UNL A   1      45.745  28.015  31.726  1.00  0.00     0.074 A 
ATOM     37  C   UNL A   1      46.356  28.796  32.782  1.00  0.00     0.031 C 
ATOM     38  C   UNL A   1      46.346  26.971  31.105  1.00  0.00     0.034 A 
BRANCH  25  39
ATOM     39  C   UNL A   1      42.813  24.144  26.898  1.00  0.00     0.023 A 
ATOM     40  C   UNL A   1      43.446  24.261  25.644  1.00  0.00     0.012 A 
ATOM     41  C   UNL A   1      42.167  22.936  27.234  1.00  0.00     0.148 A 
ATOM     42  C   UNL A   1      43.417  23.205  24.731  1.00  0.00     0.002 A 
ATOM     43  C   UNL A   1      42.181  21.873  26.338  1.00  0.00     0.091 A 
ATOM     44  F   UNL A   1      41.563  22.847  28.427  1.00  0.00    -0.205 F 
ATOM     45  C   UNL A   1      42.796  22.009  25.083  1.00  0.00     0.022 A 
BRANCH  43  46
ATOM     46  S   UNL A   1      41.482  20.263  26.724  1.00  0.00     0.127 S 
ATOM     47  O   UNL A   1      40.077  20.600  26.949  1.00  0.00    -0.237 OA
ATOM     48  O   UNL A   1      41.739  19.516  25.493  1.00  0.00    -0.237 OA
ATOM     49  O   UNL A   1      42.198  19.780  27.896  1.00  0.00    -0.744 OA
ENDBRANCH  43  46
ENDBRANCH  25  39
BRANCH  26  50
ATOM     50  C   UNL A   1      43.240  31.493  33.665  1.00  0.00     0.023 A 
ATOM     51  C   UNL A   1      43.800  32.752  33.378  1.00  0.00     0.012 A 
ATOM     52  C   UNL A   1      42.736  31.242  34.956  1.00  0.00     0.148 A 
ATOM     53  C   UNL A   1      43.904  33.723  34.374  1.00  0.00     0.002 A 
ATOM     54  C   UNL A   1      42.781  32.236  35.923  1.00  0.00     0.091 A 
ATOM     55  F   UNL A   1      42.215  30.033  35.213  1.00  0.00    -0.205 F 
ATOM     56  C   UNL A   1      43.387  33.469  35.642  1.00  0.00     0.022 A 
BRANCH  54  57
ATOM     57  S   UNL A   1      42.013  32.041  37.534  1.00  0.00     0.127 S 
ATOM     58  O   UNL A   1      42.253  33.349  38.138  1.00  0.00    -0.237 OA
ATOM     59  O   UNL A   1      40.620  31.774  37.172  1.00  0.00    -0.237 OA
ATOM     60  O   UNL A   1      42.695  30.918  38.160  1.00  0.00    -0.744 OA
ENDBRANCH  54  57
ENDBRANCH  26  50
BRANCH  38  61
ATOM     61  C   UNL A   1      47.757  26.645  31.524  1.00  0.00     0.023 A 
ATOM     62  C   UNL A   1      48.849  27.230  30.853  1.00  0.00     0.012 A 
ATOM     63  C   UNL A   1      47.997  25.771  32.602  1.00  0.00     0.148 A 
ATOM     64  C   UNL A   1      50.158  26.907  31.211  1.00  0.00     0.002 A 
ATOM     65  C   UNL A   1      49.303  25.501  32.993  1.00  0.00     0.091 A 
ATOM     66  F   UNL A   1      46.947  25.210  33.219  1.00  0.00    -0.205 F 
ATOM     67  C   UNL A   1      50.384  26.052  32.286  1.00  0.00     0.022 A 
BRANCH  65  68
ATOM     68  S   UNL A   1      49.692  24.489  34.424  1.00  0.00     0.127 S 
ATOM     69  O   UNL A   1      49.082  23.212  34.060  1.00  0.00    -0.237 OA
ATOM     70  O   UNL A   1      51.155  24.491  34.413  1.00  0.00    -0.237 OA
ATOM     71  O   UNL A   1      49.092  25.162  35.568  1.00  0.00    -0.744 OA
ENDBRANCH  65  68
ENDBRANCH  38  61
ENDBRANCH  12  13
ENDBRANCH   5   7
ENDBRANCH   2   3
ENDBRANCH   1   2
BRANCH   1  72
ATOM     72  C   UNL A   1      33.154  29.239  24.741  1.00  0.00     0.023 C 
BRANCH  72  73
ATOM     73  C   UNL A   1      33.343  29.059  23.233  1.00  0.00     0.116 C 
BRANCH  73  74
ATOM     74  N   UNL A   1      32.139  29.212  22.430  1.00  0.00    -0.352 N 
ATOM     75  C   UNL A   1      31.006  28.421  22.441  1.00  0.00     0.251 C 
ATOM     76  H   UNL A   1      32.131  29.972  21.804  1.00  0.00     0.163 HD
ATOM     77  O   UNL A   1      29.967  28.789  21.906  1.00  0.00    -0.269 OA
BRANCH  75  78
ATOM     78  C   UNL A   1      31.134  27.030  22.929  1.00  0.00     0.041 A 
ATOM     79  C   UNL A   1      30.399  26.790  24.093  1.00  0.00     0.014 A 
ATOM     80  C   UNL A   1      31.853  25.997  22.280  1.00  0.00     0.039 A 
ATOM     81  C   UNL A   1      30.220  25.491  24.520  1.00  0.00     0.003 A 
ATOM     82  C   UNL A   1      31.756  24.679  22.774  1.00  0.00     0.039 A 
ATOM     83  C   UNL A   1      30.862  24.457  23.845  1.00  0.00     0.026 A 
BRANCH  82  84
ATOM     84  N   UNL A   1      32.417  23.542  22.208  1.00  0.00    -0.355 N 
ATOM     85  H   UNL A   1      32.513  23.497  21.229  1.00  0.00     0.167 HD
BRANCH  84  86
ATOM     86  C   UNL A   1      32.941  22.473  22.989  1.00  0.00     0.050 A 
ATOM     87  C   UNL A   1      32.281  21.254  22.815  1.00  0.00     0.047 A 
ATOM     88  C   UNL A   1      34.035  22.497  23.923  1.00  0.00     0.027 A 
ATOM     89  C   UNL A   1      32.327  20.409  23.882  1.00  0.00     0.114 A 
ATOM     90  C   UNL A   1      34.330  21.236  24.514  1.00  0.00     0.072 A 
ATOM     91  C   UNL A   1      34.844  23.583  24.368  1.00  0.00     0.051 A 
ATOM     92  N   UNL A   1      33.482  20.212  24.514  1.00  0.00    -0.256 NA
ATOM     93  C   UNL A   1      35.489  21.016  25.231  1.00  0.00     0.032 A 
ATOM     94  C   UNL A   1      35.938  23.353  25.220  1.00  0.00     0.124 A 
ATOM     95  C   UNL A   1      36.311  22.069  25.591  1.00  0.00     0.041 A 
ATOM     96  F   UNL A   1      36.642  24.383  25.707  1.00  0.00    -0.207 F 
ENDBRANCH  84  86
ENDBRANCH  82  84
ENDBRANCH  75  78
ENDBRANCH  73  74
ENDBRANCH  72  73
ENDBRANCH   1  72
TORSDOF 16
ENDMDL
