MODEL 1
REMARK VINA RESULT:     -11.7      0.000      0.000
REMARK SMILES O=C(C[C@H]1CN(C(=O)c2sccc2Br)CCO1)NCCCCNC(=O)c1ccc(-c2c3nc(c(-c4cccc(S(=O)(=O)[O-])c4F)c4ccc([nH]4)c(-c4cccc(S(=O)(=O)[O-])c4F)c4nc(c(-c5cccc(S(=O)(=O)[O-])c5F)c5ccc2[nH]5)C=C4)C=C3)cc1
REMARK SMILES IDX 20 1 19 2 18 3 1 4 2 5 3 7 4 8 5 9 17 10 6 11 16 12 15 13
REMARK SMILES IDX 7 14 8 15 9 16 10 17 13 18 11 19 12 20 14 21 21 22 22 23
REMARK SMILES IDX 23 24 24 25 25 27 26 28 27 29 88 30 28 31 87 32 29 33 30 34
REMARK SMILES IDX 31 35 81 36 32 37 86 38 80 39 82 40 33 41 85 42 79 43 78 44
REMARK SMILES IDX 34 46 66 47 46 48 65 49 47 50 50 51 64 52 83 53 48 54 49 55
REMARK SMILES IDX 63 57 84 58 51 59 35 60 36 61 44 62 37 63 39 64 45 65 38 66
REMARK SMILES IDX 40 67 41 68 42 69 43 70 67 71 68 72 76 73 69 74 71 75 77 76
REMARK SMILES IDX 70 77 72 78 73 79 74 80 75 81 52 82 53 83 61 84 54 85 56 86
REMARK SMILES IDX 62 87 55 88 57 89 58 90 59 91 60 92
REMARK H PARENT 18 6 23 26 82 45 50 56
REMARK Flexibility Score: inf
ROOT
ATOM      1  C   UNL A   1      31.829  30.532  26.686  1.00  0.00     0.023 C 
ENDROOT
BRANCH   1   2
ATOM      2  C   UNL A   1      31.569  29.933  25.305  1.00  0.00     0.116 C 
BRANCH   2   3
ATOM      3  N   UNL A   1      32.207  28.642  25.150  1.00  0.00    -0.356 N 
ATOM      4  O   UNL A   1      30.353  27.638  24.268  1.00  0.00    -0.275 OA
ATOM      5  C   UNL A   1      31.525  27.571  24.636  1.00  0.00     0.222 C 
ATOM      6  H   UNL A   1      33.148  28.531  25.419  1.00  0.00     0.163 HD
BRANCH   5   7
ATOM      7  C   UNL A   1      32.261  26.255  24.627  1.00  0.00     0.133 C 
BRANCH   7   8
ATOM      8  C   UNL A   1      33.529  26.159  23.776  1.00  0.00     0.147 C 
ATOM      9  C   UNL A   1      34.241  24.799  24.019  1.00  0.00     0.152 C 
ATOM     10  O   UNL A   1      33.290  26.355  22.370  1.00  0.00    -0.374 OA
ATOM     11  N   UNL A   1      33.470  23.711  23.403  1.00  0.00    -0.333 N 
ATOM     12  C   UNL A   1      32.521  25.299  21.772  1.00  0.00     0.182 C 
ATOM     13  C   UNL A   1      33.177  23.934  21.985  1.00  0.00     0.148 C 
BRANCH  11  14
ATOM     14  C   UNL A   1      32.970  22.573  24.039  1.00  0.00     0.265 C 
ATOM     15  O   UNL A   1      32.396  21.692  23.396  1.00  0.00    -0.268 OA
BRANCH  14  16
ATOM     16  C   UNL A   1      33.197  22.424  25.461  1.00  0.00     0.106 A 
ATOM     17  S   UNL A   1      34.650  21.652  25.956  1.00  0.00    -0.137 S 
ATOM     18  C   UNL A   1      32.386  22.678  26.544  1.00  0.00     0.041 A 
ATOM     19  C   UNL A   1      34.193  21.697  27.604  1.00  0.00     0.067 A 
ATOM     20  C   UNL A   1      32.970  22.304  27.784  1.00  0.00     0.028 A 
ATOM     21  Br  UNL A   1      30.638  23.391  26.522  1.00  0.00    -0.049 Br
ENDBRANCH  14  16
ENDBRANCH  11  14
ENDBRANCH   7   8
ENDBRANCH   5   7
ENDBRANCH   2   3
ENDBRANCH   1   2
BRANCH   1  22
ATOM     22  C   UNL A   1      31.659  32.051  26.761  1.00  0.00     0.023 C 
BRANCH  22  23
ATOM     23  C   UNL A   1      32.841  32.807  27.355  1.00  0.00     0.116 C 
BRANCH  23  24
ATOM     24  N   UNL A   1      32.509  34.172  27.732  1.00  0.00    -0.352 N 
ATOM     25  C   UNL A   1      33.058  34.953  28.718  1.00  0.00     0.251 C 
ATOM     26  H   UNL A   1      31.790  34.594  27.208  1.00  0.00     0.163 HD
ATOM     27  O   UNL A   1      32.551  36.041  28.995  1.00  0.00    -0.269 OA
BRANCH  25  28
ATOM     28  C   UNL A   1      34.239  34.474  29.469  1.00  0.00     0.039 A 
ATOM     29  C   UNL A   1      34.066  34.006  30.774  1.00  0.00     0.014 A 
ATOM     30  C   UNL A   1      35.508  34.470  28.883  1.00  0.00     0.014 A 
ATOM     31  C   UNL A   1      35.156  33.474  31.468  1.00  0.00     0.010 A 
ATOM     32  C   UNL A   1      36.574  33.867  29.547  1.00  0.00     0.010 A 
ATOM     33  C   UNL A   1      36.411  33.365  30.848  1.00  0.00    -0.014 A 
BRANCH  33  34
ATOM     34  C   UNL A   1      37.556  32.714  31.535  1.00  0.00     0.031 A 
ATOM     35  C   UNL A   1      38.278  31.561  30.891  1.00  0.00     0.074 A 
ATOM     36  C   UNL A   1      37.897  33.106  32.779  1.00  0.00     0.049 A 
ATOM     37  N   UNL A   1      39.265  30.841  31.358  1.00  0.00    -0.248 NA
ATOM     38  C   UNL A   1      37.815  31.144  29.557  1.00  0.00     0.031 C 
ATOM     39  C   UNL A   1      37.231  34.162  33.545  1.00  0.00     0.029 A 
ATOM     40  N   UNL A   1      38.873  32.648  33.630  1.00  0.00    -0.354 N 
ATOM     41  C   UNL A   1      39.514  29.866  30.399  1.00  0.00     0.074 A 
ATOM     42  C   UNL A   1      38.555  30.067  29.336  1.00  0.00     0.031 C 
ATOM     43  C   UNL A   1      37.822  34.277  34.745  1.00  0.00     0.029 A 
ATOM     44  C   UNL A   1      38.884  33.281  34.851  1.00  0.00     0.049 A 
ATOM     45  H   UNL A   1      39.505  31.934  33.388  1.00  0.00     0.167 HD
ATOM     46  C   UNL A   1      40.471  28.907  30.391  1.00  0.00     0.034 A 
ATOM     47  C   UNL A   1      39.654  33.079  35.939  1.00  0.00     0.034 A 
ATOM     48  C   UNL A   1      41.448  28.733  31.431  1.00  0.00     0.049 A 
ATOM     49  C   UNL A   1      40.726  32.024  35.891  1.00  0.00     0.074 A 
ATOM     50  C   UNL A   1      42.515  27.853  31.470  1.00  0.00     0.029 A 
ATOM     51  N   UNL A   1      41.473  29.441  32.623  1.00  0.00    -0.354 N 
ATOM     52  N   UNL A   1      41.049  31.218  34.908  1.00  0.00    -0.248 NA
ATOM     53  C   UNL A   1      41.563  31.872  37.091  1.00  0.00     0.031 C 
ATOM     54  C   UNL A   1      43.161  28.001  32.701  1.00  0.00     0.029 A 
ATOM     55  C   UNL A   1      42.523  29.004  33.412  1.00  0.00     0.049 A 
ATOM     56  H   UNL A   1      40.836  30.150  32.871  1.00  0.00     0.167 HD
ATOM     57  C   UNL A   1      42.149  30.495  35.354  1.00  0.00     0.074 A 
ATOM     58  C   UNL A   1      42.449  30.971  36.689  1.00  0.00     0.031 C 
ATOM     59  C   UNL A   1      42.843  29.518  34.720  1.00  0.00     0.034 A 
BRANCH  46  60
ATOM     60  C   UNL A   1      40.533  27.988  29.198  1.00  0.00     0.023 A 
ATOM     61  C   UNL A   1      39.625  26.915  29.092  1.00  0.00     0.012 A 
ATOM     62  C   UNL A   1      41.447  28.223  28.152  1.00  0.00     0.148 A 
ATOM     63  C   UNL A   1      39.650  26.069  27.984  1.00  0.00     0.002 A 
ATOM     64  C   UNL A   1      41.434  27.405  27.029  1.00  0.00     0.091 A 
ATOM     65  F   UNL A   1      42.316  29.236  28.279  1.00  0.00    -0.205 F 
ATOM     66  C   UNL A   1      40.546  26.319  26.949  1.00  0.00     0.022 A 
BRANCH  64  67
ATOM     67  S   UNL A   1      42.491  27.695  25.606  1.00  0.00     0.127 S 
ATOM     68  O   UNL A   1      42.023  29.005  25.153  1.00  0.00    -0.237 OA
ATOM     69  O   UNL A   1      43.824  27.699  26.210  1.00  0.00    -0.237 OA
ATOM     70  O   UNL A   1      42.242  26.593  24.688  1.00  0.00    -0.744 OA
ENDBRANCH  64  67
ENDBRANCH  46  60
BRANCH  47  71
ATOM     71  C   UNL A   1      39.478  33.932  37.149  1.00  0.00     0.023 A 
ATOM     72  C   UNL A   1      39.942  35.261  37.132  1.00  0.00     0.012 A 
ATOM     73  C   UNL A   1      38.840  33.442  38.304  1.00  0.00     0.148 A 
ATOM     74  C   UNL A   1      39.808  36.076  38.256  1.00  0.00     0.002 A 
ATOM     75  C   UNL A   1      38.659  34.276  39.401  1.00  0.00     0.091 A 
ATOM     76  F   UNL A   1      38.414  32.170  38.303  1.00  0.00    -0.205 F 
ATOM     77  C   UNL A   1      39.159  35.588  39.387  1.00  0.00     0.022 A 
BRANCH  75  78
ATOM     78  S   UNL A   1      37.723  33.774  40.849  1.00  0.00     0.127 S 
ATOM     79  O   UNL A   1      38.695  32.954  41.566  1.00  0.00    -0.237 OA
ATOM     80  O   UNL A   1      37.424  35.064  41.474  1.00  0.00    -0.237 OA
ATOM     81  O   UNL A   1      36.555  33.069  40.340  1.00  0.00    -0.744 OA
ENDBRANCH  75  78
ENDBRANCH  47  71
BRANCH  59  82
ATOM     82  C   UNL A   1      44.027  28.920  35.435  1.00  0.00     0.023 A 
ATOM     83  C   UNL A   1      45.310  29.476  35.266  1.00  0.00     0.012 A 
ATOM     84  C   UNL A   1      43.851  27.848  36.334  1.00  0.00     0.148 A 
ATOM     85  C   UNL A   1      46.406  28.953  35.952  1.00  0.00     0.002 A 
ATOM     86  C   UNL A   1      44.937  27.367  37.054  1.00  0.00     0.091 A 
ATOM     87  F   UNL A   1      42.626  27.321  36.468  1.00  0.00    -0.205 F 
ATOM     88  C   UNL A   1      46.218  27.908  36.854  1.00  0.00     0.022 A 
BRANCH  86  89
ATOM     89  S   UNL A   1      44.773  26.093  38.310  1.00  0.00     0.127 S 
ATOM     90  O   UNL A   1      44.241  24.976  37.532  1.00  0.00    -0.237 OA
ATOM     91  O   UNL A   1      46.156  25.922  38.758  1.00  0.00    -0.237 OA
ATOM     92  O   UNL A   1      43.873  26.635  39.319  1.00  0.00    -0.744 OA
ENDBRANCH  86  89
ENDBRANCH  59  82
ENDBRANCH  33  34
ENDBRANCH  25  28
ENDBRANCH  23  24
ENDBRANCH  22  23
ENDBRANCH   1  22
TORSDOF 17
ENDMDL
MODEL 2
REMARK VINA RESULT:     -11.6      6.595     11.738
REMARK SMILES O=C(C[C@H]1CN(C(=O)c2sccc2Br)CCO1)NCCCCNC(=O)c1ccc(-c2c3nc(c(-c4cccc(S(=O)(=O)[O-])c4F)c4ccc([nH]4)c(-c4cccc(S(=O)(=O)[O-])c4F)c4nc(c(-c5cccc(S(=O)(=O)[O-])c5F)c5ccc2[nH]5)C=C4)C=C3)cc1
REMARK SMILES IDX 20 1 19 2 18 3 1 4 2 5 3 7 4 8 5 9 17 10 6 11 16 12 15 13
REMARK SMILES IDX 7 14 8 15 9 16 10 17 13 18 11 19 12 20 14 21 21 22 22 23
REMARK SMILES IDX 23 24 24 25 25 27 26 28 27 29 88 30 28 31 87 32 29 33 30 34
REMARK SMILES IDX 31 35 81 36 32 37 86 38 80 39 82 40 33 41 85 42 79 43 78 44
REMARK SMILES IDX 34 46 66 47 46 48 65 49 47 50 50 51 64 52 83 53 48 54 49 55
REMARK SMILES IDX 63 57 84 58 51 59 35 60 36 61 44 62 37 63 39 64 45 65 38 66
REMARK SMILES IDX 40 67 41 68 42 69 43 70 67 71 68 72 76 73 69 74 71 75 77 76
REMARK SMILES IDX 70 77 72 78 73 79 74 80 75 81 52 82 53 83 61 84 54 85 56 86
REMARK SMILES IDX 62 87 55 88 57 89 58 90 59 91 60 92
REMARK H PARENT 18 6 23 26 82 45 50 56
REMARK Flexibility Score: inf
ROOT
ATOM      1  C   UNL A   1      36.465  20.710  25.074  1.00  0.00     0.023 C 
ENDROOT
BRANCH   1   2
ATOM      2  C   UNL A   1      36.425  22.113  24.472  1.00  0.00     0.116 C 
BRANCH   2   3
ATOM      3  N   UNL A   1      35.067  22.552  24.223  1.00  0.00    -0.356 N 
ATOM      4  O   UNL A   1      35.280  24.472  25.444  1.00  0.00    -0.275 OA
ATOM      5  C   UNL A   1      34.593  23.725  24.749  1.00  0.00     0.222 C 
ATOM      6  H   UNL A   1      34.474  21.999  23.665  1.00  0.00     0.163 HD
BRANCH   5   7
ATOM      7  C   UNL A   1      33.134  24.019  24.512  1.00  0.00     0.133 C 
BRANCH   7   8
ATOM      8  C   UNL A   1      32.571  23.731  23.118  1.00  0.00     0.147 C 
ATOM      9  C   UNL A   1      31.078  24.156  23.040  1.00  0.00     0.152 C 
ATOM     10  O   UNL A   1      33.324  24.350  22.059  1.00  0.00    -0.374 OA
ATOM     11  N   UNL A   1      30.972  25.622  23.030  1.00  0.00    -0.333 N 
ATOM     12  C   UNL A   1      33.234  25.784  22.061  1.00  0.00     0.182 C 
ATOM     13  C   UNL A   1      31.782  26.258  21.989  1.00  0.00     0.148 C 
BRANCH  11  14
ATOM     14  C   UNL A   1      30.250  26.416  23.923  1.00  0.00     0.265 C 
ATOM     15  O   UNL A   1      29.116  26.091  24.280  1.00  0.00    -0.268 OA
BRANCH  14  16
ATOM     16  C   UNL A   1      30.889  27.596  24.466  1.00  0.00     0.106 A 
ATOM     17  S   UNL A   1      31.865  27.396  25.867  1.00  0.00    -0.137 S 
ATOM     18  C   UNL A   1      30.766  28.929  24.144  1.00  0.00     0.041 A 
ATOM     19  C   UNL A   1      32.134  29.080  26.003  1.00  0.00     0.067 A 
ATOM     20  C   UNL A   1      31.515  29.785  24.995  1.00  0.00     0.028 A 
ATOM     21  Br  UNL A   1      29.704  29.681  22.777  1.00  0.00    -0.049 Br
ENDBRANCH  14  16
ENDBRANCH  11  14
ENDBRANCH   7   8
ENDBRANCH   5   7
ENDBRANCH   2   3
ENDBRANCH   1   2
BRANCH   1  22
ATOM     22  C   UNL A   1      37.776  19.957  24.838  1.00  0.00     0.023 C 
BRANCH  22  23
ATOM     23  C   UNL A   1      38.932  20.368  25.743  1.00  0.00     0.116 C 
BRANCH  23  24
ATOM     24  N   UNL A   1      39.932  19.323  25.895  1.00  0.00    -0.352 N 
ATOM     25  C   UNL A   1      41.276  19.444  26.144  1.00  0.00     0.251 C 
ATOM     26  H   UNL A   1      39.598  18.400  25.806  1.00  0.00     0.163 HD
ATOM     27  O   UNL A   1      42.002  18.450  26.097  1.00  0.00    -0.269 OA
BRANCH  25  28
ATOM     28  C   UNL A   1      41.857  20.772  26.438  1.00  0.00     0.039 A 
ATOM     29  C   UNL A   1      42.207  21.607  25.375  1.00  0.00     0.014 A 
ATOM     30  C   UNL A   1      42.039  21.199  27.757  1.00  0.00     0.014 A 
ATOM     31  C   UNL A   1      42.680  22.896  25.634  1.00  0.00     0.010 A 
ATOM     32  C   UNL A   1      42.434  22.510  28.010  1.00  0.00     0.010 A 
ATOM     33  C   UNL A   1      42.762  23.373  26.952  1.00  0.00    -0.014 A 
BRANCH  33  34
ATOM     34  C   UNL A   1      43.171  24.772  27.242  1.00  0.00     0.031 A 
ATOM     35  C   UNL A   1      42.199  25.737  27.867  1.00  0.00     0.074 A 
ATOM     36  C   UNL A   1      44.393  25.200  26.867  1.00  0.00     0.049 A 
ATOM     37  N   UNL A   1      42.361  27.004  28.148  1.00  0.00    -0.248 NA
ATOM     38  C   UNL A   1      40.861  25.218  28.196  1.00  0.00     0.031 C 
ATOM     39  C   UNL A   1      45.403  24.387  26.186  1.00  0.00     0.029 A 
ATOM     40  N   UNL A   1      44.987  26.434  26.982  1.00  0.00    -0.354 N 
ATOM     41  C   UNL A   1      41.141  27.443  28.648  1.00  0.00     0.074 A 
ATOM     42  C   UNL A   1      40.237  26.315  28.603  1.00  0.00     0.031 C 
ATOM     43  C   UNL A   1      46.491  25.137  25.953  1.00  0.00     0.029 A 
ATOM     44  C   UNL A   1      46.247  26.494  26.433  1.00  0.00     0.049 A 
ATOM     45  H   UNL A   1      44.551  27.202  27.416  1.00  0.00     0.167 HD
ATOM     46  C   UNL A   1      40.808  28.666  29.125  1.00  0.00     0.034 A 
ATOM     47  C   UNL A   1      47.107  27.525  26.319  1.00  0.00     0.034 A 
ATOM     48  C   UNL A   1      41.719  29.777  29.204  1.00  0.00     0.049 A 
ATOM     49  C   UNL A   1      46.721  28.866  26.882  1.00  0.00     0.074 A 
ATOM     50  C   UNL A   1      41.505  31.026  29.758  1.00  0.00     0.029 A 
ATOM     51  N   UNL A   1      43.012  29.779  28.703  1.00  0.00    -0.354 N 
ATOM     52  N   UNL A   1      45.617  29.218  27.496  1.00  0.00    -0.248 NA
ATOM     53  C   UNL A   1      47.712  29.946  26.766  1.00  0.00     0.031 C 
ATOM     54  C   UNL A   1      42.654  31.797  29.557  1.00  0.00     0.029 A 
ATOM     55  C   UNL A   1      43.600  31.014  28.916  1.00  0.00     0.049 A 
ATOM     56  H   UNL A   1      43.447  29.014  28.260  1.00  0.00     0.167 HD
ATOM     57  C   UNL A   1      45.797  30.543  27.876  1.00  0.00     0.074 A 
ATOM     58  C   UNL A   1      47.124  30.926  27.437  1.00  0.00     0.031 C 
ATOM     59  C   UNL A   1      44.938  31.371  28.520  1.00  0.00     0.034 A 
BRANCH  46  60
ATOM     60  C   UNL A   1      39.404  28.863  29.635  1.00  0.00     0.023 A 
ATOM     61  C   UNL A   1      39.070  28.459  30.944  1.00  0.00     0.012 A 
ATOM     62  C   UNL A   1      38.431  29.503  28.842  1.00  0.00     0.148 A 
ATOM     63  C   UNL A   1      37.783  28.655  31.442  1.00  0.00     0.002 A 
ATOM     64  C   UNL A   1      37.164  29.739  29.363  1.00  0.00     0.091 A 
ATOM     65  F   UNL A   1      38.760  29.863  27.593  1.00  0.00    -0.205 F 
ATOM     66  C   UNL A   1      36.833  29.304  30.657  1.00  0.00     0.022 A 
BRANCH  64  67
ATOM     67  S   UNL A   1      35.899  30.640  28.462  1.00  0.00     0.127 S 
ATOM     68  O   UNL A   1      35.284  29.575  27.671  1.00  0.00    -0.237 OA
ATOM     69  O   UNL A   1      35.061  31.157  29.545  1.00  0.00    -0.237 OA
ATOM     70  O   UNL A   1      36.599  31.661  27.695  1.00  0.00    -0.744 OA
ENDBRANCH  64  67
ENDBRANCH  46  60
BRANCH  47  71
ATOM     71  C   UNL A   1      48.444  27.318  25.694  1.00  0.00     0.023 A 
ATOM     72  C   UNL A   1      49.531  26.924  26.498  1.00  0.00     0.012 A 
ATOM     73  C   UNL A   1      48.641  27.490  24.310  1.00  0.00     0.148 A 
ATOM     74  C   UNL A   1      50.798  26.741  25.943  1.00  0.00     0.002 A 
ATOM     75  C   UNL A   1      49.892  27.252  23.754  1.00  0.00     0.091 A 
ATOM     76  F   UNL A   1      47.595  27.874  23.564  1.00  0.00    -0.205 F 
ATOM     77  C   UNL A   1      50.977  26.896  24.571  1.00  0.00     0.022 A 
BRANCH  75  78
ATOM     78  S   UNL A   1      50.185  27.301  21.983  1.00  0.00     0.127 S 
ATOM     79  O   UNL A   1      51.572  26.853  21.896  1.00  0.00    -0.237 OA
ATOM     80  O   UNL A   1      49.195  26.343  21.488  1.00  0.00    -0.237 OA
ATOM     81  O   UNL A   1      49.940  28.679  21.580  1.00  0.00    -0.744 OA
ENDBRANCH  75  78
ENDBRANCH  47  71
BRANCH  59  82
ATOM     82  C   UNL A   1      45.412  32.765  28.836  1.00  0.00     0.023 A 
ATOM     83  C   UNL A   1      46.170  33.009  29.999  1.00  0.00     0.012 A 
ATOM     84  C   UNL A   1      45.166  33.824  27.938  1.00  0.00     0.148 A 
ATOM     85  C   UNL A   1      46.645  34.289  30.281  1.00  0.00     0.002 A 
ATOM     86  C   UNL A   1      45.687  35.085  28.199  1.00  0.00     0.091 A 
ATOM     87  F   UNL A   1      44.428  33.577  26.846  1.00  0.00    -0.205 F 
ATOM     88  C   UNL A   1      46.414  35.323  29.377  1.00  0.00     0.022 A 
BRANCH  86  89
ATOM     89  S   UNL A   1      45.527  36.452  27.044  1.00  0.00     0.127 S 
ATOM     90  O   UNL A   1      46.195  37.532  27.767  1.00  0.00    -0.237 OA
ATOM     91  O   UNL A   1      46.258  35.956  25.877  1.00  0.00    -0.237 OA
ATOM     92  O   UNL A   1      44.098  36.634  26.830  1.00  0.00    -0.744 OA
ENDBRANCH  86  89
ENDBRANCH  59  82
ENDBRANCH  33  34
ENDBRANCH  25  28
ENDBRANCH  23  24
ENDBRANCH  22  23
ENDBRANCH   1  22
TORSDOF 17
ENDMDL
MODEL 3
REMARK VINA RESULT:     -11.5      5.736      8.869
REMARK SMILES O=C(C[C@H]1CN(C(=O)c2sccc2Br)CCO1)NCCCCNC(=O)c1ccc(-c2c3nc(c(-c4cccc(S(=O)(=O)[O-])c4F)c4ccc([nH]4)c(-c4cccc(S(=O)(=O)[O-])c4F)c4nc(c(-c5cccc(S(=O)(=O)[O-])c5F)c5ccc2[nH]5)C=C4)C=C3)cc1
REMARK SMILES IDX 20 1 19 2 18 3 1 4 2 5 3 7 4 8 5 9 17 10 6 11 16 12 15 13
REMARK SMILES IDX 7 14 8 15 9 16 10 17 13 18 11 19 12 20 14 21 21 22 22 23
REMARK SMILES IDX 23 24 24 25 25 27 26 28 27 29 88 30 28 31 87 32 29 33 30 34
REMARK SMILES IDX 31 35 81 36 32 37 86 38 80 39 82 40 33 41 85 42 79 43 78 44
REMARK SMILES IDX 34 46 66 47 46 48 65 49 47 50 50 51 64 52 83 53 48 54 49 55
REMARK SMILES IDX 63 57 84 58 51 59 35 60 36 61 44 62 37 63 39 64 45 65 38 66
REMARK SMILES IDX 40 67 41 68 42 69 43 70 67 71 68 72 76 73 69 74 71 75 77 76
REMARK SMILES IDX 70 77 72 78 73 79 74 80 75 81 52 82 53 83 61 84 54 85 56 86
REMARK SMILES IDX 62 87 55 88 57 89 58 90 59 91 60 92
REMARK H PARENT 18 6 23 26 82 45 50 56
REMARK Flexibility Score: inf
ROOT
ATOM      1  C   UNL A   1      34.489  20.893  25.685  1.00  0.00     0.023 C 
ENDROOT
BRANCH   1   2
ATOM      2  C   UNL A   1      33.769  20.950  24.339  1.00  0.00     0.116 C 
BRANCH   2   3
ATOM      3  N   UNL A   1      33.254  22.275  24.060  1.00  0.00    -0.356 N 
ATOM      4  O   UNL A   1      31.719  21.544  22.533  1.00  0.00    -0.275 OA
ATOM      5  C   UNL A   1      32.248  22.467  23.151  1.00  0.00     0.222 C 
ATOM      6  H   UNL A   1      33.634  23.051  24.532  1.00  0.00     0.163 HD
BRANCH   5   7
ATOM      7  C   UNL A   1      31.874  23.899  22.865  1.00  0.00     0.133 C 
BRANCH   7   8
ATOM      8  C   UNL A   1      32.844  24.729  22.020  1.00  0.00     0.147 C 
ATOM      9  C   UNL A   1      32.265  26.150  21.772  1.00  0.00     0.152 C 
ATOM     10  O   UNL A   1      34.163  24.819  22.588  1.00  0.00    -0.374 OA
ATOM     11  N   UNL A   1      32.311  26.936  23.012  1.00  0.00    -0.333 N 
ATOM     12  C   UNL A   1      34.205  25.573  23.810  1.00  0.00     0.182 C 
ATOM     13  C   UNL A   1      33.641  26.982  23.623  1.00  0.00     0.148 C 
BRANCH  11  14
ATOM     14  C   UNL A   1      31.237  27.557  23.652  1.00  0.00     0.265 C 
ATOM     15  O   UNL A   1      30.171  27.741  23.060  1.00  0.00    -0.268 OA
BRANCH  14  16
ATOM     16  C   UNL A   1      31.384  27.924  25.044  1.00  0.00     0.106 A 
ATOM     17  S   UNL A   1      31.719  29.572  25.400  1.00  0.00    -0.137 S 
ATOM     18  C   UNL A   1      31.435  27.158  26.187  1.00  0.00     0.041 A 
ATOM     19  C   UNL A   1      31.893  29.247  27.071  1.00  0.00     0.067 A 
ATOM     20  C   UNL A   1      31.682  27.918  27.363  1.00  0.00     0.028 A 
ATOM     21  Br  UNL A   1      31.268  25.283  26.316  1.00  0.00    -0.049 Br
ENDBRANCH  14  16
ENDBRANCH  11  14
ENDBRANCH   7   8
ENDBRANCH   5   7
ENDBRANCH   2   3
ENDBRANCH   1   2
BRANCH   1  22
ATOM     22  C   UNL A   1      35.471  22.042  25.928  1.00  0.00     0.023 C 
BRANCH  22  23
ATOM     23  C   UNL A   1      36.714  22.029  25.047  1.00  0.00     0.116 C 
BRANCH  23  24
ATOM     24  N   UNL A   1      37.638  20.958  25.385  1.00  0.00    -0.352 N 
ATOM     25  C   UNL A   1      38.886  21.042  25.951  1.00  0.00     0.251 C 
ATOM     26  H   UNL A   1      37.325  20.047  25.181  1.00  0.00     0.163 HD
ATOM     27  O   UNL A   1      39.591  20.036  26.034  1.00  0.00    -0.269 OA
BRANCH  25  28
ATOM     28  C   UNL A   1      39.395  22.345  26.431  1.00  0.00     0.039 A 
ATOM     29  C   UNL A   1      40.465  22.363  27.328  1.00  0.00     0.014 A 
ATOM     30  C   UNL A   1      38.831  23.543  25.985  1.00  0.00     0.014 A 
ATOM     31  C   UNL A   1      41.012  23.585  27.728  1.00  0.00     0.010 A 
ATOM     32  C   UNL A   1      39.428  24.756  26.322  1.00  0.00     0.010 A 
ATOM     33  C   UNL A   1      40.523  24.791  27.199  1.00  0.00    -0.014 A 
BRANCH  33  34
ATOM     34  C   UNL A   1      41.154  26.093  27.538  1.00  0.00     0.031 A 
ATOM     35  C   UNL A   1      42.571  26.385  27.123  1.00  0.00     0.074 A 
ATOM     36  C   UNL A   1      40.480  26.984  28.293  1.00  0.00     0.049 A 
ATOM     37  N   UNL A   1      43.301  27.442  27.368  1.00  0.00    -0.248 NA
ATOM     38  C   UNL A   1      43.270  25.343  26.352  1.00  0.00     0.031 C 
ATOM     39  C   UNL A   1      39.128  26.793  28.822  1.00  0.00     0.029 A 
ATOM     40  N   UNL A   1      40.847  28.220  28.768  1.00  0.00    -0.354 N 
ATOM     41  C   UNL A   1      44.551  27.180  26.821  1.00  0.00     0.074 A 
ATOM     42  C   UNL A   1      44.491  25.850  26.256  1.00  0.00     0.031 C 
ATOM     43  C   UNL A   1      38.777  27.872  29.538  1.00  0.00     0.029 A 
ATOM     44  C   UNL A   1      39.889  28.818  29.552  1.00  0.00     0.049 A 
ATOM     45  H   UNL A   1      41.716  28.637  28.566  1.00  0.00     0.167 HD
ATOM     46  C   UNL A   1      45.642  27.981  26.768  1.00  0.00     0.034 A 
ATOM     47  C   UNL A   1      39.904  29.991  30.216  1.00  0.00     0.034 A 
ATOM     48  C   UNL A   1      45.688  29.317  27.298  1.00  0.00     0.049 A 
ATOM     49  C   UNL A   1      41.120  30.872  30.118  1.00  0.00     0.074 A 
ATOM     50  C   UNL A   1      46.714  30.241  27.210  1.00  0.00     0.029 A 
ATOM     51  N   UNL A   1      44.671  29.918  28.024  1.00  0.00    -0.354 N 
ATOM     52  N   UNL A   1      42.235  30.671  29.459  1.00  0.00    -0.248 NA
ATOM     53  C   UNL A   1      41.067  32.158  30.830  1.00  0.00     0.031 C 
ATOM     54  C   UNL A   1      46.334  31.386  27.919  1.00  0.00     0.029 A 
ATOM     55  C   UNL A   1      45.053  31.191  28.410  1.00  0.00     0.049 A 
ATOM     56  H   UNL A   1      43.805  29.499  28.236  1.00  0.00     0.167 HD
ATOM     57  C   UNL A   1      42.998  31.819  29.641  1.00  0.00     0.074 A 
ATOM     58  C   UNL A   1      42.210  32.718  30.458  1.00  0.00     0.031 C 
ATOM     59  C   UNL A   1      44.243  32.098  29.181  1.00  0.00     0.034 A 
BRANCH  46  60
ATOM     60  C   UNL A   1      46.873  27.446  26.083  1.00  0.00     0.023 A 
ATOM     61  C   UNL A   1      47.714  26.538  26.758  1.00  0.00     0.012 A 
ATOM     62  C   UNL A   1      47.164  27.793  24.748  1.00  0.00     0.148 A 
ATOM     63  C   UNL A   1      48.843  26.014  26.131  1.00  0.00     0.002 A 
ATOM     64  C   UNL A   1      48.264  27.229  24.114  1.00  0.00     0.091 A 
ATOM     65  F   UNL A   1      46.365  28.673  24.128  1.00  0.00    -0.205 F 
ATOM     66  C   UNL A   1      49.113  26.350  24.807  1.00  0.00     0.022 A 
BRANCH  64  67
ATOM     67  S   UNL A   1      48.648  27.534  22.387  1.00  0.00     0.127 S 
ATOM     68  O   UNL A   1      47.472  28.286  21.950  1.00  0.00    -0.237 OA
ATOM     69  O   UNL A   1      49.877  28.323  22.480  1.00  0.00    -0.237 OA
ATOM     70  O   UNL A   1      48.813  26.223  21.773  1.00  0.00    -0.744 OA
ENDBRANCH  64  67
ENDBRANCH  46  60
BRANCH  47  71
ATOM     71  C   UNL A   1      38.706  30.429  30.987  1.00  0.00     0.023 A 
ATOM     72  C   UNL A   1      38.626  30.142  32.364  1.00  0.00     0.012 A 
ATOM     73  C   UNL A   1      37.659  31.140  30.372  1.00  0.00     0.148 A 
ATOM     74  C   UNL A   1      37.508  30.522  33.106  1.00  0.00     0.002 A 
ATOM     75  C   UNL A   1      36.574  31.566  31.129  1.00  0.00     0.091 A 
ATOM     76  F   UNL A   1      37.751  31.395  29.059  1.00  0.00    -0.205 F 
ATOM     77  C   UNL A   1      36.486  31.242  32.492  1.00  0.00     0.022 A 
BRANCH  75  78
ATOM     78  S   UNL A   1      35.276  32.608  30.452  1.00  0.00     0.127 S 
ATOM     79  O   UNL A   1      34.781  31.790  29.348  1.00  0.00    -0.237 OA
ATOM     80  O   UNL A   1      34.362  32.725  31.589  1.00  0.00    -0.237 OA
ATOM     81  O   UNL A   1      35.926  33.854  30.073  1.00  0.00    -0.744 OA
ENDBRANCH  75  78
ENDBRANCH  47  71
BRANCH  59  82
ATOM     82  C   UNL A   1      44.824  33.449  29.508  1.00  0.00     0.023 A 
ATOM     83  C   UNL A   1      45.566  33.633  30.691  1.00  0.00     0.012 A 
ATOM     84  C   UNL A   1      44.694  34.521  28.601  1.00  0.00     0.148 A 
ATOM     85  C   UNL A   1      46.139  34.871  30.985  1.00  0.00     0.002 A 
ATOM     86  C   UNL A   1      45.312  35.735  28.874  1.00  0.00     0.091 A 
ATOM     87  F   UNL A   1      43.970  34.332  27.488  1.00  0.00    -0.205 F 
ATOM     88  C   UNL A   1      46.023  35.916  30.071  1.00  0.00     0.022 A 
BRANCH  86  89
ATOM     89  S   UNL A   1      45.302  37.104  27.711  1.00  0.00     0.127 S 
ATOM     90  O   UNL A   1      43.875  37.399  27.612  1.00  0.00    -0.237 OA
ATOM     91  O   UNL A   1      46.087  38.116  28.420  1.00  0.00    -0.237 OA
ATOM     92  O   UNL A   1      45.923  36.604  26.492  1.00  0.00    -0.744 OA
ENDBRANCH  86  89
ENDBRANCH  59  82
ENDBRANCH  33  34
ENDBRANCH  25  28
ENDBRANCH  23  24
ENDBRANCH  22  23
ENDBRANCH   1  22
TORSDOF 17
ENDMDL
