MODEL 1
REMARK VINA RESULT:     -11.6      0.000      0.000
REMARK SMILES C[C@H](NC(=O)OCc1ccccc1)C(=O)NCC(=O)N1CCC[C@H]1C(=O)NCCCCNC(=O)c1ccc(-c2c3nc(c(-c4cccc(S(=O)(=O)[O-])c4F)c4ccc([nH]4)c(-c4cccc(S(=O)(=O)[O-])c4F)c4nc(c(-c5cccc(S(=O)(=O)[O-])c5F)c5ccc2[nH]5)C=C4)C=C3)cc1
REMARK SMILES IDX 25 1 26 2 27 3 24 5 20 6 21 7 22 8 23 9 18 10 19 11 17 12
REMARK SMILES IDX 16 13 14 14 15 15 2 17 1 18 3 19 4 20 5 22 6 23 7 24 8 25
REMARK SMILES IDX 9 26 13 27 10 28 12 29 11 30 28 31 29 32 30 33 31 34 32 35
REMARK SMILES IDX 33 36 34 38 35 39 36 40 97 41 37 42 96 43 38 44 39 45 40 46
REMARK SMILES IDX 90 47 41 48 95 49 89 50 91 51 42 52 94 53 88 54 87 55 43 57
REMARK SMILES IDX 75 58 55 59 74 60 56 61 59 62 73 63 92 64 57 65 58 66 72 68
REMARK SMILES IDX 93 69 60 70 44 71 45 72 53 73 46 74 48 75 54 76 47 77 49 78
REMARK SMILES IDX 50 79 51 80 52 81 76 82 77 83 85 84 78 85 80 86 86 87 79 88
REMARK SMILES IDX 81 89 82 90 83 91 84 92 61 93 62 94 70 95 63 96 65 97 71 98
REMARK SMILES IDX 64 99 66 100 67 101 68 102 69 103
REMARK H PARENT 27 4 16 16 3 21 32 37 91 56 59 67
REMARK Flexibility Score: inf
ROOT
ATOM      1  C   UNL A   1      32.188  28.370  27.092  1.00  0.00     0.242 C 
ATOM      2  O   UNL A   1      31.229  27.797  27.612  1.00  0.00    -0.273 OA
ATOM      3  N   UNL A   1      33.178  28.837  27.917  1.00  0.00    -0.354 N 
ATOM      4  H   UNL A   1      32.936  28.933  28.867  1.00  0.00     0.163 HD
ENDROOT
BRANCH   1   5
ATOM      5  C   UNL A   1      32.327  28.550  25.559  1.00  0.00     0.174 C 
ATOM      6  N   UNL A   1      31.721  27.479  24.760  1.00  0.00    -0.329 N 
ATOM      7  C   UNL A   1      30.409  27.869  24.306  1.00  0.00     0.120 C 
ATOM      8  C   UNL A   1      30.557  29.354  24.054  1.00  0.00     0.024 C 
ATOM      9  C   UNL A   1      31.557  29.818  25.114  1.00  0.00     0.037 C 
BRANCH   6  10
ATOM     10  C   UNL A   1      32.085  26.157  24.842  1.00  0.00     0.242 C 
ATOM     11  O   UNL A   1      33.191  25.790  25.228  1.00  0.00    -0.273 OA
BRANCH  10  12
ATOM     12  C   UNL A   1      30.967  25.151  24.554  1.00  0.00     0.216 C 
BRANCH  12  13
ATOM     13  N   UNL A   1      30.419  24.643  25.800  1.00  0.00    -0.345 N 
ATOM     14  C   UNL A   1      30.695  23.500  26.485  1.00  0.00     0.242 C 
ATOM     15  O   UNL A   1      29.994  23.235  27.465  1.00  0.00    -0.273 OA
ATOM     16  H   UNL A   1      29.739  25.220  26.216  1.00  0.00     0.164 HD
BRANCH  14  17
ATOM     17  C   UNL A   1      31.906  22.610  26.127  1.00  0.00     0.171 C 
ATOM     18  C   UNL A   1      33.006  22.820  27.159  1.00  0.00     0.042 C 
BRANCH  17  19
ATOM     19  N   UNL A   1      32.235  22.774  24.714  1.00  0.00    -0.310 N 
ATOM     20  C   UNL A   1      32.980  22.036  23.855  1.00  0.00     0.408 C 
ATOM     21  H   UNL A   1      31.837  23.576  24.305  1.00  0.00     0.167 HD
ATOM     22  O   UNL A   1      33.303  22.506  22.765  1.00  0.00    -0.225 OA
BRANCH  20  23
ATOM     23  O   UNL A   1      33.341  20.823  24.321  1.00  0.00    -0.445 OA
BRANCH  23  24
ATOM     24  C   UNL A   1      32.293  19.841  24.356  1.00  0.00     0.270 C 
BRANCH  24  25
ATOM     25  C   UNL A   1      32.840  18.441  24.475  1.00  0.00    -0.011 A 
ATOM     26  C   UNL A   1      33.537  17.863  23.404  1.00  0.00     0.007 A 
ATOM     27  C   UNL A   1      32.624  17.684  25.635  1.00  0.00     0.007 A 
ATOM     28  C   UNL A   1      33.983  16.545  23.481  1.00  0.00     0.000 A 
ATOM     29  C   UNL A   1      33.070  16.365  25.708  1.00  0.00     0.000 A 
ATOM     30  C   UNL A   1      33.744  15.794  24.629  1.00  0.00     0.000 A 
ENDBRANCH  24  25
ENDBRANCH  23  24
ENDBRANCH  20  23
ENDBRANCH  17  19
ENDBRANCH  14  17
ENDBRANCH  12  13
ENDBRANCH  10  12
ENDBRANCH   6  10
ENDBRANCH   1   5
BRANCH   3  31
ATOM     31  C   UNL A   1      34.533  29.209  27.567  1.00  0.00     0.116 C 
BRANCH  31  32
ATOM     32  C   UNL A   1      34.886  30.648  27.918  1.00  0.00     0.023 C 
BRANCH  32  33
ATOM     33  C   UNL A   1      34.099  31.718  27.162  1.00  0.00     0.023 C 
BRANCH  33  34
ATOM     34  C   UNL A   1      32.850  32.245  27.863  1.00  0.00     0.116 C 
BRANCH  34  35
ATOM     35  N   UNL A   1      32.751  33.698  27.846  1.00  0.00    -0.352 N 
ATOM     36  C   UNL A   1      33.481  34.632  28.545  1.00  0.00     0.251 C 
ATOM     37  H   UNL A   1      32.062  34.066  27.248  1.00  0.00     0.163 HD
ATOM     38  O   UNL A   1      33.164  35.818  28.500  1.00  0.00    -0.269 OA
BRANCH  36  39
ATOM     39  C   UNL A   1      34.625  34.200  29.378  1.00  0.00     0.039 A 
ATOM     40  C   UNL A   1      34.377  33.510  30.567  1.00  0.00     0.014 A 
ATOM     41  C   UNL A   1      35.938  34.444  28.970  1.00  0.00     0.014 A 
ATOM     42  C   UNL A   1      35.446  32.989  31.300  1.00  0.00     0.010 A 
ATOM     43  C   UNL A   1      36.996  33.852  29.656  1.00  0.00     0.010 A 
ATOM     44  C   UNL A   1      36.763  33.115  30.827  1.00  0.00    -0.014 A 
BRANCH  44  45
ATOM     45  C   UNL A   1      37.901  32.458  31.523  1.00  0.00     0.031 A 
ATOM     46  C   UNL A   1      38.617  31.296  30.886  1.00  0.00     0.074 A 
ATOM     47  C   UNL A   1      38.232  32.846  32.772  1.00  0.00     0.049 A 
ATOM     48  N   UNL A   1      39.589  30.564  31.367  1.00  0.00    -0.248 NA
ATOM     49  C   UNL A   1      38.168  30.885  29.545  1.00  0.00     0.031 C 
ATOM     50  C   UNL A   1      37.561  33.901  33.537  1.00  0.00     0.029 A 
ATOM     51  N   UNL A   1      39.196  32.380  33.632  1.00  0.00    -0.354 N 
ATOM     52  C   UNL A   1      39.841  29.588  30.410  1.00  0.00     0.074 A 
ATOM     53  C   UNL A   1      38.900  29.801  29.332  1.00  0.00     0.031 C 
ATOM     54  C   UNL A   1      38.135  34.004  34.746  1.00  0.00     0.029 A 
ATOM     55  C   UNL A   1      39.189  33.002  34.861  1.00  0.00     0.049 A 
ATOM     56  H   UNL A   1      39.832  31.668  33.393  1.00  0.00     0.167 HD
ATOM     57  C   UNL A   1      40.787  28.620  30.412  1.00  0.00     0.034 A 
ATOM     58  C   UNL A   1      39.937  32.781  35.960  1.00  0.00     0.034 A 
ATOM     59  C   UNL A   1      41.750  28.435  31.465  1.00  0.00     0.049 A 
ATOM     60  C   UNL A   1      41.006  31.721  35.920  1.00  0.00     0.074 A 
ATOM     61  C   UNL A   1      42.807  27.543  31.513  1.00  0.00     0.029 A 
ATOM     62  N   UNL A   1      41.768  29.142  32.656  1.00  0.00    -0.354 N 
ATOM     63  N   UNL A   1      41.338  30.922  34.936  1.00  0.00    -0.248 NA
ATOM     64  C   UNL A   1      41.827  31.556  37.129  1.00  0.00     0.031 C 
ATOM     65  C   UNL A   1      43.445  27.688  32.749  1.00  0.00     0.029 A 
ATOM     66  C   UNL A   1      42.809  28.698  33.453  1.00  0.00     0.049 A 
ATOM     67  H   UNL A   1      41.134  29.855  32.899  1.00  0.00     0.167 HD
ATOM     68  C   UNL A   1      42.429  30.189  35.391  1.00  0.00     0.074 A 
ATOM     69  C   UNL A   1      42.715  30.655  36.732  1.00  0.00     0.031 C 
ATOM     70  C   UNL A   1      43.121  29.208  34.764  1.00  0.00     0.034 A 
BRANCH  57  71
ATOM     71  C   UNL A   1      40.866  27.707  29.216  1.00  0.00     0.023 A 
ATOM     72  C   UNL A   1      40.005  26.593  29.130  1.00  0.00     0.012 A 
ATOM     73  C   UNL A   1      41.728  27.998  28.140  1.00  0.00     0.148 A 
ATOM     74  C   UNL A   1      40.022  25.766  28.009  1.00  0.00     0.002 A 
ATOM     75  C   UNL A   1      41.705  27.197  27.004  1.00  0.00     0.091 A 
ATOM     76  F   UNL A   1      42.550  29.051  28.247  1.00  0.00    -0.205 F 
ATOM     77  C   UNL A   1      40.862  26.075  26.942  1.00  0.00     0.022 A 
BRANCH  75  78
ATOM     78  S   UNL A   1      42.684  27.555  25.542  1.00  0.00     0.127 S 
ATOM     79  O   UNL A   1      42.057  28.786  25.061  1.00  0.00    -0.237 OA
ATOM     80  O   UNL A   1      44.022  27.734  26.107  1.00  0.00    -0.237 OA
ATOM     81  O   UNL A   1      42.541  26.401  24.667  1.00  0.00    -0.744 OA
ENDBRANCH  75  78
ENDBRANCH  57  71
BRANCH  58  82
ATOM     82  C   UNL A   1      39.739  33.612  37.184  1.00  0.00     0.023 A 
ATOM     83  C   UNL A   1      38.740  33.255  38.112  1.00  0.00     0.012 A 
ATOM     84  C   UNL A   1      40.533  34.748  37.435  1.00  0.00     0.148 A 
ATOM     85  C   UNL A   1      38.506  34.039  39.242  1.00  0.00     0.002 A 
ATOM     86  C   UNL A   1      40.334  35.490  38.592  1.00  0.00     0.091 A 
ATOM     87  F   UNL A   1      41.470  35.078  36.535  1.00  0.00    -0.205 F 
ATOM     88  C   UNL A   1      39.307  35.151  39.487  1.00  0.00     0.022 A 
BRANCH  86  89
ATOM     89  S   UNL A   1      41.404  36.857  39.054  1.00  0.00     0.127 S 
ATOM     90  O   UNL A   1      40.435  37.905  39.361  1.00  0.00    -0.237 OA
ATOM     91  O   UNL A   1      42.110  36.310  40.213  1.00  0.00    -0.237 OA
ATOM     92  O   UNL A   1      42.254  37.097  37.895  1.00  0.00    -0.744 OA
ENDBRANCH  86  89
ENDBRANCH  58  82
BRANCH  70  93
ATOM     93  C   UNL A   1      44.290  28.597  35.490  1.00  0.00     0.023 A 
ATOM     94  C   UNL A   1      45.594  29.079  35.261  1.00  0.00     0.012 A 
ATOM     95  C   UNL A   1      44.085  27.591  36.456  1.00  0.00     0.148 A 
ATOM     96  C   UNL A   1      46.679  28.546  35.955  1.00  0.00     0.002 A 
ATOM     97  C   UNL A   1      45.164  27.102  37.182  1.00  0.00     0.091 A 
ATOM     98  F   UNL A   1      42.839  27.134  36.648  1.00  0.00    -0.205 F 
ATOM     99  C   UNL A   1      46.463  27.567  36.923  1.00  0.00     0.022 A 
BRANCH  97 100
ATOM    100  S   UNL A   1      44.970  25.915  38.515  1.00  0.00     0.127 S 
ATOM    101  O   UNL A   1      44.418  24.761  37.809  1.00  0.00    -0.237 OA
ATOM    102  O   UNL A   1      46.348  25.744  38.981  1.00  0.00    -0.237 OA
ATOM    103  O   UNL A   1      44.079  26.538  39.484  1.00  0.00    -0.744 OA
ENDBRANCH  97 100
ENDBRANCH  70  93
ENDBRANCH  44  45
ENDBRANCH  36  39
ENDBRANCH  34  35
ENDBRANCH  33  34
ENDBRANCH  32  33
ENDBRANCH  31  32
ENDBRANCH   3  31
TORSDOF 22
ENDMDL
MODEL 2
REMARK VINA RESULT:     -11.6      1.094      7.359
REMARK SMILES C[C@H](NC(=O)OCc1ccccc1)C(=O)NCC(=O)N1CCC[C@H]1C(=O)NCCCCNC(=O)c1ccc(-c2c3nc(c(-c4cccc(S(=O)(=O)[O-])c4F)c4ccc([nH]4)c(-c4cccc(S(=O)(=O)[O-])c4F)c4nc(c(-c5cccc(S(=O)(=O)[O-])c5F)c5ccc2[nH]5)C=C4)C=C3)cc1
REMARK SMILES IDX 25 1 26 2 27 3 24 5 20 6 21 7 22 8 23 9 18 10 19 11 17 12
REMARK SMILES IDX 16 13 14 14 15 15 2 17 1 18 3 19 4 20 5 22 6 23 7 24 8 25
REMARK SMILES IDX 9 26 13 27 10 28 12 29 11 30 28 31 29 32 30 33 31 34 32 35
REMARK SMILES IDX 33 36 34 38 35 39 36 40 97 41 37 42 96 43 38 44 39 45 40 46
REMARK SMILES IDX 90 47 41 48 95 49 89 50 91 51 42 52 94 53 88 54 87 55 43 57
REMARK SMILES IDX 75 58 55 59 74 60 56 61 59 62 73 63 92 64 57 65 58 66 72 68
REMARK SMILES IDX 93 69 60 70 44 71 45 72 53 73 46 74 48 75 54 76 47 77 49 78
REMARK SMILES IDX 50 79 51 80 52 81 76 82 77 83 85 84 78 85 80 86 86 87 79 88
REMARK SMILES IDX 81 89 82 90 83 91 84 92 61 93 62 94 70 95 63 96 65 97 71 98
REMARK SMILES IDX 64 99 66 100 67 101 68 102 69 103
REMARK H PARENT 27 4 16 16 3 21 32 37 91 56 59 67
REMARK Flexibility Score: inf
ROOT
ATOM      1  C   UNL A   1      32.019  28.073  26.768  1.00  0.00     0.242 C 
ATOM      2  O   UNL A   1      31.073  27.438  27.238  1.00  0.00    -0.273 OA
ATOM      3  N   UNL A   1      32.956  28.563  27.637  1.00  0.00    -0.354 N 
ATOM      4  H   UNL A   1      32.680  28.618  28.581  1.00  0.00     0.163 HD
ENDROOT
BRANCH   1   5
ATOM      5  C   UNL A   1      32.198  28.305  25.245  1.00  0.00     0.174 C 
ATOM      6  N   UNL A   1      31.547  27.303  24.393  1.00  0.00    -0.329 N 
ATOM      7  C   UNL A   1      30.269  27.786  23.933  1.00  0.00     0.120 C 
ATOM      8  C   UNL A   1      30.506  29.268  23.745  1.00  0.00     0.024 C 
ATOM      9  C   UNL A   1      31.509  29.631  24.839  1.00  0.00     0.037 C 
BRANCH   6  10
ATOM     10  C   UNL A   1      31.834  25.960  24.427  1.00  0.00     0.242 C 
ATOM     11  O   UNL A   1      32.963  25.522  24.629  1.00  0.00    -0.273 OA
BRANCH  10  12
ATOM     12  C   UNL A   1      30.623  25.029  24.339  1.00  0.00     0.216 C 
BRANCH  12  13
ATOM     13  N   UNL A   1      30.109  24.750  25.668  1.00  0.00    -0.345 N 
ATOM     14  C   UNL A   1      30.321  23.688  26.493  1.00  0.00     0.242 C 
ATOM     15  O   UNL A   1      29.662  23.628  27.534  1.00  0.00    -0.273 OA
ATOM     16  H   UNL A   1      29.510  25.442  26.032  1.00  0.00     0.164 HD
BRANCH  14  17
ATOM     17  C   UNL A   1      31.423  22.643  26.204  1.00  0.00     0.171 C 
ATOM     18  C   UNL A   1      32.627  22.924  27.093  1.00  0.00     0.042 C 
BRANCH  17  19
ATOM     19  N   UNL A   1      31.630  22.534  24.763  1.00  0.00    -0.310 N 
ATOM     20  C   UNL A   1      32.164  21.561  23.986  1.00  0.00     0.408 C 
ATOM     21  H   UNL A   1      31.319  23.319  24.257  1.00  0.00     0.167 HD
ATOM     22  O   UNL A   1      32.445  21.799  22.812  1.00  0.00    -0.225 OA
BRANCH  20  23
ATOM     23  O   UNL A   1      32.382  20.390  24.619  1.00  0.00    -0.445 OA
BRANCH  23  24
ATOM     24  C   UNL A   1      33.655  19.778  24.360  1.00  0.00     0.270 C 
BRANCH  24  25
ATOM     25  C   UNL A   1      33.637  18.299  24.655  1.00  0.00    -0.011 A 
ATOM     26  C   UNL A   1      32.543  17.727  25.319  1.00  0.00     0.007 A 
ATOM     27  C   UNL A   1      34.727  17.488  24.312  1.00  0.00     0.007 A 
ATOM     28  C   UNL A   1      32.551  16.375  25.659  1.00  0.00     0.000 A 
ATOM     29  C   UNL A   1      34.734  16.136  24.655  1.00  0.00     0.000 A 
ATOM     30  C   UNL A   1      33.649  15.581  25.333  1.00  0.00     0.000 A 
ENDBRANCH  24  25
ENDBRANCH  23  24
ENDBRANCH  20  23
ENDBRANCH  17  19
ENDBRANCH  14  17
ENDBRANCH  12  13
ENDBRANCH  10  12
ENDBRANCH   6  10
ENDBRANCH   1   5
BRANCH   3  31
ATOM     31  C   UNL A   1      34.302  29.012  27.344  1.00  0.00     0.116 C 
BRANCH  31  32
ATOM     32  C   UNL A   1      34.653  30.354  27.972  1.00  0.00     0.023 C 
BRANCH  32  33
ATOM     33  C   UNL A   1      34.112  31.581  27.239  1.00  0.00     0.023 C 
BRANCH  33  34
ATOM     34  C   UNL A   1      32.741  32.075  27.691  1.00  0.00     0.116 C 
BRANCH  34  35
ATOM     35  N   UNL A   1      32.649  33.527  27.767  1.00  0.00    -0.352 N 
ATOM     36  C   UNL A   1      33.397  34.413  28.507  1.00  0.00     0.251 C 
ATOM     37  H   UNL A   1      31.949  33.933  27.207  1.00  0.00     0.163 HD
ATOM     38  O   UNL A   1      33.085  35.600  28.543  1.00  0.00    -0.269 OA
BRANCH  36  39
ATOM     39  C   UNL A   1      34.556  33.925  29.287  1.00  0.00     0.039 A 
ATOM     40  C   UNL A   1      34.329  33.151  30.428  1.00  0.00     0.014 A 
ATOM     41  C   UNL A   1      35.862  34.201  28.875  1.00  0.00     0.014 A 
ATOM     42  C   UNL A   1      35.412  32.582  31.104  1.00  0.00     0.010 A 
ATOM     43  C   UNL A   1      36.932  33.565  29.498  1.00  0.00     0.010 A 
ATOM     44  C   UNL A   1      36.721  32.745  30.617  1.00  0.00    -0.014 A 
BRANCH  44  45
ATOM     45  C   UNL A   1      37.871  32.043  31.246  1.00  0.00     0.031 A 
ATOM     46  C   UNL A   1      38.494  32.578  32.509  1.00  0.00     0.074 A 
ATOM     47  C   UNL A   1      38.417  30.974  30.630  1.00  0.00     0.049 A 
ATOM     48  N   UNL A   1      39.535  32.134  33.166  1.00  0.00    -0.248 NA
ATOM     49  C   UNL A   1      37.885  33.781  33.099  1.00  0.00     0.031 C 
ATOM     50  C   UNL A   1      37.964  30.407  29.357  1.00  0.00     0.029 A 
ATOM     51  N   UNL A   1      39.491  30.190  30.975  1.00  0.00    -0.354 N 
ATOM     52  C   UNL A   1      39.727  33.021  34.218  1.00  0.00     0.074 A 
ATOM     53  C   UNL A   1      38.715  34.046  34.097  1.00  0.00     0.031 C 
ATOM     54  C   UNL A   1      38.748  29.367  29.031  1.00  0.00     0.029 A 
ATOM     55  C   UNL A   1      39.782  29.212  30.049  1.00  0.00     0.049 A 
ATOM     56  H   UNL A   1      40.004  30.314  31.805  1.00  0.00     0.167 HD
ATOM     57  C   UNL A   1      40.645  32.972  35.212  1.00  0.00     0.034 A 
ATOM     58  C   UNL A   1      40.777  28.303  30.016  1.00  0.00     0.034 A 
ATOM     59  C   UNL A   1      41.625  31.929  35.356  1.00  0.00     0.049 A 
ATOM     60  C   UNL A   1      41.761  28.251  31.154  1.00  0.00     0.074 A 
ATOM     61  C   UNL A   1      42.535  31.742  36.382  1.00  0.00     0.029 A 
ATOM     62  N   UNL A   1      41.834  30.906  34.446  1.00  0.00    -0.354 N 
ATOM     63  N   UNL A   1      41.819  28.998  32.229  1.00  0.00    -0.248 NA
ATOM     64  C   UNL A   1      42.796  27.208  31.093  1.00  0.00     0.031 C 
ATOM     65  C   UNL A   1      43.316  30.623  36.076  1.00  0.00     0.029 A 
ATOM     66  C   UNL A   1      42.866  30.091  34.878  1.00  0.00     0.049 A 
ATOM     67  H   UNL A   1      41.322  30.777  33.614  1.00  0.00     0.167 HD
ATOM     68  C   UNL A   1      42.867  28.492  32.990  1.00  0.00     0.074 A 
ATOM     69  C   UNL A   1      43.402  27.360  32.262  1.00  0.00     0.031 C 
ATOM     70  C   UNL A   1      43.354  28.933  34.175  1.00  0.00     0.034 A 
BRANCH  57  71
ATOM     71  C   UNL A   1      40.609  34.055  36.260  1.00  0.00     0.023 A 
ATOM     72  C   UNL A   1      41.141  35.327  35.967  1.00  0.00     0.012 A 
ATOM     73  C   UNL A   1      39.974  33.840  37.500  1.00  0.00     0.148 A 
ATOM     74  C   UNL A   1      41.070  36.360  36.900  1.00  0.00     0.002 A 
ATOM     75  C   UNL A   1      39.864  34.888  38.406  1.00  0.00     0.091 A 
ATOM     76  F   UNL A   1      39.489  32.620  37.766  1.00  0.00    -0.205 F 
ATOM     77  C   UNL A   1      40.421  36.144  38.113  1.00  0.00     0.022 A 
BRANCH  75  78
ATOM     78  S   UNL A   1      38.974  34.740  39.959  1.00  0.00     0.127 S 
ATOM     79  O   UNL A   1      38.524  36.115  40.173  1.00  0.00    -0.237 OA
ATOM     80  O   UNL A   1      37.910  33.798  39.613  1.00  0.00    -0.237 OA
ATOM     81  O   UNL A   1      39.937  34.243  40.930  1.00  0.00    -0.744 OA
ENDBRANCH  75  78
ENDBRANCH  57  71
BRANCH  58  82
ATOM     82  C   UNL A   1      40.870  27.330  28.888  1.00  0.00     0.023 A 
ATOM     83  C   UNL A   1      40.009  26.215  28.859  1.00  0.00     0.012 A 
ATOM     84  C   UNL A   1      41.803  27.503  27.847  1.00  0.00     0.148 A 
ATOM     85  C   UNL A   1      40.106  25.268  27.839  1.00  0.00     0.002 A 
ATOM     86  C   UNL A   1      41.853  26.588  26.803  1.00  0.00     0.091 A 
ATOM     87  F   UNL A   1      42.621  28.563  27.898  1.00  0.00    -0.205 F 
ATOM     88  C   UNL A   1      41.020  25.458  26.808  1.00  0.00     0.022 A 
BRANCH  86  89
ATOM     89  S   UNL A   1      42.906  26.823  25.368  1.00  0.00     0.127 S 
ATOM     90  O   UNL A   1      42.288  27.982  24.729  1.00  0.00    -0.237 OA
ATOM     91  O   UNL A   1      44.207  27.080  25.986  1.00  0.00    -0.237 OA
ATOM     92  O   UNL A   1      42.836  25.574  24.621  1.00  0.00    -0.744 OA
ENDBRANCH  86  89
ENDBRANCH  58  82
BRANCH  70  93
ATOM     93  C   UNL A   1      44.493  28.169  34.795  1.00  0.00     0.023 A 
ATOM     94  C   UNL A   1      45.824  28.561  34.549  1.00  0.00     0.012 A 
ATOM     95  C   UNL A   1      44.240  27.102  35.681  1.00  0.00     0.148 A 
ATOM     96  C   UNL A   1      46.886  27.882  35.147  1.00  0.00     0.002 A 
ATOM     97  C   UNL A   1      45.300  26.465  36.315  1.00  0.00     0.091 A 
ATOM     98  F   UNL A   1      42.968  26.733  35.890  1.00  0.00    -0.205 F 
ATOM     99  C   UNL A   1      46.623  26.844  36.038  1.00  0.00     0.022 A 
BRANCH  97 100
ATOM    100  S   UNL A   1      45.056  25.186  37.551  1.00  0.00     0.127 S 
ATOM    101  O   UNL A   1      44.478  24.106  36.753  1.00  0.00    -0.237 OA
ATOM    102  O   UNL A   1      46.422  24.939  38.015  1.00  0.00    -0.237 OA
ATOM    103  O   UNL A   1      44.172  25.760  38.557  1.00  0.00    -0.744 OA
ENDBRANCH  97 100
ENDBRANCH  70  93
ENDBRANCH  44  45
ENDBRANCH  36  39
ENDBRANCH  34  35
ENDBRANCH  33  34
ENDBRANCH  32  33
ENDBRANCH  31  32
ENDBRANCH   3  31
TORSDOF 22
ENDMDL
MODEL 3
REMARK VINA RESULT:     -11.4      2.168      7.978
REMARK SMILES C[C@H](NC(=O)OCc1ccccc1)C(=O)NCC(=O)N1CCC[C@H]1C(=O)NCCCCNC(=O)c1ccc(-c2c3nc(c(-c4cccc(S(=O)(=O)[O-])c4F)c4ccc([nH]4)c(-c4cccc(S(=O)(=O)[O-])c4F)c4nc(c(-c5cccc(S(=O)(=O)[O-])c5F)c5ccc2[nH]5)C=C4)C=C3)cc1
REMARK SMILES IDX 25 1 26 2 27 3 24 5 20 6 21 7 22 8 23 9 18 10 19 11 17 12
REMARK SMILES IDX 16 13 14 14 15 15 2 17 1 18 3 19 4 20 5 22 6 23 7 24 8 25
REMARK SMILES IDX 9 26 13 27 10 28 12 29 11 30 28 31 29 32 30 33 31 34 32 35
REMARK SMILES IDX 33 36 34 38 35 39 36 40 97 41 37 42 96 43 38 44 39 45 40 46
REMARK SMILES IDX 90 47 41 48 95 49 89 50 91 51 42 52 94 53 88 54 87 55 43 57
REMARK SMILES IDX 75 58 55 59 74 60 56 61 59 62 73 63 92 64 57 65 58 66 72 68
REMARK SMILES IDX 93 69 60 70 44 71 45 72 53 73 46 74 48 75 54 76 47 77 49 78
REMARK SMILES IDX 50 79 51 80 52 81 76 82 77 83 85 84 78 85 80 86 86 87 79 88
REMARK SMILES IDX 81 89 82 90 83 91 84 92 61 93 62 94 70 95 63 96 65 97 71 98
REMARK SMILES IDX 64 99 66 100 67 101 68 102 69 103
REMARK H PARENT 27 4 16 16 3 21 32 37 91 56 59 67
REMARK Flexibility Score: inf
ROOT
ATOM      1  C   UNL A   1      30.831  26.197  23.622  1.00  0.00     0.242 C 
ATOM      2  O   UNL A   1      30.072  25.226  23.631  1.00  0.00    -0.273 OA
ATOM      3  N   UNL A   1      30.388  27.361  24.195  1.00  0.00    -0.354 N 
ATOM      4  H   UNL A   1      29.415  27.432  24.326  1.00  0.00     0.163 HD
ENDROOT
BRANCH   1   5
ATOM      5  C   UNL A   1      32.259  26.140  23.023  1.00  0.00     0.174 C 
ATOM      6  N   UNL A   1      33.041  24.962  23.417  1.00  0.00    -0.329 N 
ATOM      7  C   UNL A   1      32.978  23.950  22.393  1.00  0.00     0.120 C 
ATOM      8  C   UNL A   1      32.944  24.753  21.111  1.00  0.00     0.024 C 
ATOM      9  C   UNL A   1      32.169  26.018  21.481  1.00  0.00     0.037 C 
BRANCH   6  10
ATOM     10  C   UNL A   1      33.355  24.647  24.716  1.00  0.00     0.242 C 
ATOM     11  O   UNL A   1      34.332  25.108  25.299  1.00  0.00    -0.273 OA
BRANCH  10  12
ATOM     12  C   UNL A   1      32.323  23.787  25.449  1.00  0.00     0.216 C 
BRANCH  12  13
ATOM     13  N   UNL A   1      32.967  23.019  26.500  1.00  0.00    -0.345 N 
ATOM     14  C   UNL A   1      33.432  21.740  26.501  1.00  0.00     0.242 C 
ATOM     15  O   UNL A   1      33.830  21.275  27.573  1.00  0.00    -0.273 OA
ATOM     16  H   UNL A   1      33.087  23.503  27.349  1.00  0.00     0.164 HD
BRANCH  14  17
ATOM     17  C   UNL A   1      33.566  20.923  25.197  1.00  0.00     0.171 C 
ATOM     18  C   UNL A   1      32.270  20.164  24.945  1.00  0.00     0.042 C 
BRANCH  17  19
ATOM     19  N   UNL A   1      34.820  20.176  25.212  1.00  0.00    -0.310 N 
ATOM     20  C   UNL A   1      36.117  20.563  25.144  1.00  0.00     0.408 C 
ATOM     21  H   UNL A   1      34.701  19.202  25.286  1.00  0.00     0.167 HD
ATOM     22  O   UNL A   1      36.996  19.728  24.938  1.00  0.00    -0.225 OA
BRANCH  20  23
ATOM     23  O   UNL A   1      36.317  21.891  25.275  1.00  0.00    -0.445 OA
BRANCH  23  24
ATOM     24  C   UNL A   1      37.576  22.375  24.782  1.00  0.00     0.270 C 
BRANCH  24  25
ATOM     25  C   UNL A   1      38.476  22.838  25.900  1.00  0.00    -0.011 A 
ATOM     26  C   UNL A   1      38.307  24.113  26.458  1.00  0.00     0.007 A 
ATOM     27  C   UNL A   1      39.516  22.023  26.365  1.00  0.00     0.007 A 
ATOM     28  C   UNL A   1      39.180  24.575  27.442  1.00  0.00     0.000 A 
ATOM     29  C   UNL A   1      40.389  22.487  27.348  1.00  0.00     0.000 A 
ATOM     30  C   UNL A   1      40.225  23.765  27.882  1.00  0.00     0.000 A 
ENDBRANCH  24  25
ENDBRANCH  23  24
ENDBRANCH  20  23
ENDBRANCH  17  19
ENDBRANCH  14  17
ENDBRANCH  12  13
ENDBRANCH  10  12
ENDBRANCH   6  10
ENDBRANCH   1   5
BRANCH   3  31
ATOM     31  C   UNL A   1      31.171  28.499  24.631  1.00  0.00     0.116 C 
BRANCH  31  32
ATOM     32  C   UNL A   1      31.503  28.484  26.117  1.00  0.00     0.023 C 
BRANCH  32  33
ATOM     33  C   UNL A   1      32.950  28.129  26.460  1.00  0.00     0.023 C 
BRANCH  33  34
ATOM     34  C   UNL A   1      33.999  29.165  26.069  1.00  0.00     0.116 C 
BRANCH  34  35
ATOM     35  N   UNL A   1      33.668  30.514  26.508  1.00  0.00    -0.352 N 
ATOM     36  C   UNL A   1      34.258  31.285  27.482  1.00  0.00     0.251 C 
ATOM     37  H   UNL A   1      32.912  30.935  26.039  1.00  0.00     0.163 HD
ATOM     38  O   UNL A   1      33.754  32.358  27.805  1.00  0.00    -0.269 OA
BRANCH  36  39
ATOM     39  C   UNL A   1      35.480  30.804  28.164  1.00  0.00     0.039 A 
ATOM     40  C   UNL A   1      36.660  31.540  28.042  1.00  0.00     0.014 A 
ATOM     41  C   UNL A   1      35.451  29.649  28.949  1.00  0.00     0.014 A 
ATOM     42  C   UNL A   1      37.788  31.166  28.777  1.00  0.00     0.010 A 
ATOM     43  C   UNL A   1      36.548  29.329  29.745  1.00  0.00     0.010 A 
ATOM     44  C   UNL A   1      37.728  30.084  29.672  1.00  0.00    -0.014 A 
BRANCH  44  45
ATOM     45  C   UNL A   1      38.875  29.750  30.559  1.00  0.00     0.031 A 
ATOM     46  C   UNL A   1      39.018  30.414  31.903  1.00  0.00     0.074 A 
ATOM     47  C   UNL A   1      39.839  28.918  30.115  1.00  0.00     0.049 A 
ATOM     48  N   UNL A   1      39.978  30.292  32.783  1.00  0.00    -0.248 NA
ATOM     49  C   UNL A   1      37.959  31.356  32.302  1.00  0.00     0.031 C 
ATOM     50  C   UNL A   1      39.865  28.275  28.798  1.00  0.00     0.029 A 
ATOM     51  N   UNL A   1      41.001  28.491  30.711  1.00  0.00    -0.354 N 
ATOM     52  C   UNL A   1      39.661  31.165  33.817  1.00  0.00     0.074 A 
ATOM     53  C   UNL A   1      38.435  31.834  33.443  1.00  0.00     0.031 C 
ATOM     54  C   UNL A   1      40.980  27.536  28.689  1.00  0.00     0.029 A 
ATOM     55  C   UNL A   1      41.767  27.676  29.908  1.00  0.00     0.049 A 
ATOM     56  H   UNL A   1      41.261  28.743  31.626  1.00  0.00     0.167 HD
ATOM     57  C   UNL A   1      40.314  31.372  34.985  1.00  0.00     0.034 A 
ATOM     58  C   UNL A   1      42.975  27.117  30.123  1.00  0.00     0.034 A 
ATOM     59  C   UNL A   1      41.510  30.675  35.375  1.00  0.00     0.049 A 
ATOM     60  C   UNL A   1      43.660  27.336  31.446  1.00  0.00     0.074 A 
ATOM     61  C   UNL A   1      42.191  30.747  36.578  1.00  0.00     0.029 A 
ATOM     62  N   UNL A   1      42.211  29.791  34.571  1.00  0.00    -0.354 N 
ATOM     63  N   UNL A   1      43.255  28.035  32.478  1.00  0.00    -0.248 NA
ATOM     64  C   UNL A   1      44.951  26.662  31.648  1.00  0.00     0.031 C 
ATOM     65  C   UNL A   1      43.323  29.930  36.488  1.00  0.00     0.029 A 
ATOM     66  C   UNL A   1      43.324  29.320  35.245  1.00  0.00     0.049 A 
ATOM     67  H   UNL A   1      41.954  29.536  33.655  1.00  0.00     0.167 HD
ATOM     68  C   UNL A   1      44.219  27.852  33.464  1.00  0.00     0.074 A 
ATOM     69  C   UNL A   1      45.217  26.960  32.912  1.00  0.00     0.031 C 
ATOM     70  C   UNL A   1      44.282  28.388  34.707  1.00  0.00     0.034 A 
BRANCH  57  71
ATOM     71  C   UNL A   1      39.725  32.361  35.958  1.00  0.00     0.023 A 
ATOM     72  C   UNL A   1      38.795  31.921  36.922  1.00  0.00     0.012 A 
ATOM     73  C   UNL A   1      40.156  33.703  35.974  1.00  0.00     0.148 A 
ATOM     74  C   UNL A   1      38.279  32.806  37.867  1.00  0.00     0.002 A 
ATOM     75  C   UNL A   1      39.673  34.567  36.950  1.00  0.00     0.091 A 
ATOM     76  F   UNL A   1      41.028  34.105  35.040  1.00  0.00    -0.205 F 
ATOM     77  C   UNL A   1      38.727  34.124  37.888  1.00  0.00     0.022 A 
BRANCH  75  78
ATOM     78  S   UNL A   1      40.249  36.260  37.118  1.00  0.00     0.127 S 
ATOM     79  O   UNL A   1      39.877  36.829  35.823  1.00  0.00    -0.237 OA
ATOM     80  O   UNL A   1      39.453  36.743  38.247  1.00  0.00    -0.237 OA
ATOM     81  O   UNL A   1      41.680  36.177  37.373  1.00  0.00    -0.744 OA
ENDBRANCH  75  78
ENDBRANCH  57  71
BRANCH  58  82
ATOM     82  C   UNL A   1      43.600  26.252  29.080  1.00  0.00     0.023 A 
ATOM     83  C   UNL A   1      43.468  24.852  29.168  1.00  0.00     0.012 A 
ATOM     84  C   UNL A   1      44.322  26.806  28.006  1.00  0.00     0.148 A 
ATOM     85  C   UNL A   1      44.080  24.019  28.231  1.00  0.00     0.002 A 
ATOM     86  C   UNL A   1      44.878  25.973  27.042  1.00  0.00     0.091 A 
ATOM     87  F   UNL A   1      44.447  28.139  27.945  1.00  0.00    -0.205 F 
ATOM     88  C   UNL A   1      44.777  24.578  27.164  1.00  0.00     0.022 A 
BRANCH  86  89
ATOM     89  S   UNL A   1      45.678  26.611  25.566  1.00  0.00     0.127 S 
ATOM     90  O   UNL A   1      45.763  25.416  24.731  1.00  0.00    -0.237 OA
ATOM     91  O   UNL A   1      44.716  27.615  25.111  1.00  0.00    -0.237 OA
ATOM     92  O   UNL A   1      46.949  27.162  26.016  1.00  0.00    -0.744 OA
ENDBRANCH  86  89
ENDBRANCH  58  82
BRANCH  70  93
ATOM     93  C   UNL A   1      45.439  27.991  35.585  1.00  0.00     0.023 A 
ATOM     94  C   UNL A   1      46.626  28.751  35.576  1.00  0.00     0.012 A 
ATOM     95  C   UNL A   1      45.322  26.905  36.475  1.00  0.00     0.148 A 
ATOM     96  C   UNL A   1      47.690  28.414  36.411  1.00  0.00     0.002 A 
ATOM     97  C   UNL A   1      46.366  26.608  37.343  1.00  0.00     0.091 A 
ATOM     98  F   UNL A   1      44.191  26.184  36.459  1.00  0.00    -0.205 F 
ATOM     99  C   UNL A   1      47.556  27.352  37.302  1.00  0.00     0.022 A 
BRANCH  97 100
ATOM    100  S   UNL A   1      46.246  25.322  38.591  1.00  0.00     0.127 S 
ATOM    101  O   UNL A   1      47.423  24.508  38.294  1.00  0.00    -0.237 OA
ATOM    102  O   UNL A   1      46.332  26.090  39.835  1.00  0.00    -0.237 OA
ATOM    103  O   UNL A   1      44.963  24.668  38.374  1.00  0.00    -0.744 OA
ENDBRANCH  97 100
ENDBRANCH  70  93
ENDBRANCH  44  45
ENDBRANCH  36  39
ENDBRANCH  34  35
ENDBRANCH  33  34
ENDBRANCH  32  33
ENDBRANCH  31  32
ENDBRANCH   3  31
TORSDOF 22
ENDMDL
