MODEL 1
REMARK VINA RESULT:     -12.6      0.000      0.000
REMARK SMILES C[C@@H]1CN(C(=O)N2CCC(CC(=O)NCCCCNC(=O)c3ccc(-c4c5nc(c(-c6cccc(S(=O)(=O)[O-])c6F)c6ccc([nH]6)c(-c6cccc(S(=O)(=O)[O-])c6F)c6nc(c(-c7cccc(S(=O)(=O)[O-])c7F)c7ccc4[nH]7)C=C6)C=C5)cc3)CC2)C[C@@H](C)S1
REMARK SMILES IDX 17 1 16 2 15 3 14 4 12 5 13 6 11 8 10 9 1 10 2 11 3 12 90 13
REMARK SMILES IDX 4 14 88 15 5 16 87 17 89 18 6 19 7 20 8 21 86 22 9 23 85 24
REMARK SMILES IDX 18 25 19 26 20 27 21 29 22 30 23 31 84 32 24 33 83 34 25 35
REMARK SMILES IDX 26 36 27 37 77 38 28 39 82 40 76 41 78 42 29 43 81 44 75 45
REMARK SMILES IDX 74 46 30 48 62 49 42 50 61 51 43 52 46 53 60 54 79 55 44 56
REMARK SMILES IDX 45 57 59 59 80 60 47 61 31 62 32 63 40 64 33 65 35 66 41 67
REMARK SMILES IDX 34 68 36 69 37 70 38 71 39 72 63 73 64 74 72 75 65 76 67 77
REMARK SMILES IDX 73 78 66 79 68 80 69 81 70 82 71 83 48 84 49 85 57 86 50 87
REMARK SMILES IDX 52 88 58 89 51 90 53 91 54 92 55 93 56 94
REMARK H PARENT 14 7 19 28 78 47 46 58
REMARK Flexibility Score: inf
ROOT
ATOM      1  C   UNL A   1      32.007  31.539  26.890  1.00  0.00     0.023 C 
ENDROOT
BRANCH   1   2
ATOM      2  C   UNL A   1      32.252  30.053  27.082  1.00  0.00     0.023 C 
BRANCH   2   3
ATOM      3  C   UNL A   1      33.529  29.497  26.439  1.00  0.00     0.116 C 
BRANCH   3   4
ATOM      4  N   UNL A   1      33.525  29.689  24.997  1.00  0.00    -0.356 N 
ATOM      5  C   UNL A   1      33.604  28.794  23.969  1.00  0.00     0.220 C 
ATOM      6  O   UNL A   1      33.659  29.228  22.817  1.00  0.00    -0.275 OA
ATOM      7  H   UNL A   1      33.453  30.629  24.713  1.00  0.00     0.163 HD
BRANCH   5   8
ATOM      8  C   UNL A   1      33.609  27.294  24.221  1.00  0.00     0.103 C 
BRANCH   8   9
ATOM      9  C   UNL A   1      32.203  26.641  24.310  1.00  0.00     0.002 C 
ATOM     10  C   UNL A   1      34.635  22.854  25.836  1.00  0.00     0.021 C 
ATOM     11  C   UNL A   1      34.678  22.021  24.558  1.00  0.00     0.063 C 
ATOM     12  C   UNL A   1      33.471  22.281  23.633  1.00  0.00     0.135 C 
ATOM     13  S   UNL A   1      34.867  20.242  24.966  1.00  0.00    -0.152 SA
ATOM     14  N   UNL A   1      32.203  21.801  24.187  1.00  0.00    -0.322 N 
ATOM     15  C   UNL A   1      33.124  19.842  25.412  1.00  0.00     0.063 C 
ATOM     16  C   UNL A   1      31.351  22.574  24.967  1.00  0.00     0.320 C 
ATOM     17  C   UNL A   1      32.141  20.347  24.342  1.00  0.00     0.135 C 
ATOM     18  C   UNL A   1      33.016  18.331  25.581  1.00  0.00     0.021 C 
ATOM     19  O   UNL A   1      30.729  22.083  25.910  1.00  0.00    -0.248 OA
ATOM     20  N   UNL A   1      31.285  23.922  24.691  1.00  0.00    -0.325 N 
ATOM     21  C   UNL A   1      30.991  24.876  25.746  1.00  0.00     0.121 C 
ATOM     22  C   UNL A   1      31.098  24.466  23.361  1.00  0.00     0.121 C 
ATOM     23  C   UNL A   1      32.027  25.996  25.702  1.00  0.00     0.026 C 
ATOM     24  C   UNL A   1      32.016  25.654  23.152  1.00  0.00     0.026 C 
ENDBRANCH   8   9
ENDBRANCH   5   8
ENDBRANCH   3   4
ENDBRANCH   2   3
ENDBRANCH   1   2
BRANCH   1  25
ATOM     25  C   UNL A   1      33.077  32.427  27.490  1.00  0.00     0.116 C 
BRANCH  25  26
ATOM     26  N   UNL A   1      32.650  33.809  27.678  1.00  0.00    -0.352 N 
ATOM     27  C   UNL A   1      33.128  34.743  28.575  1.00  0.00     0.251 C 
ATOM     28  H   UNL A   1      31.924  34.117  27.087  1.00  0.00     0.163 HD
ATOM     29  O   UNL A   1      32.601  35.835  28.677  1.00  0.00    -0.269 OA
BRANCH  27  30
ATOM     30  C   UNL A   1      34.270  34.364  29.436  1.00  0.00     0.039 A 
ATOM     31  C   UNL A   1      34.020  33.743  30.662  1.00  0.00     0.014 A 
ATOM     32  C   UNL A   1      35.576  34.528  28.975  1.00  0.00     0.014 A 
ATOM     33  C   UNL A   1      35.088  33.210  31.386  1.00  0.00     0.010 A 
ATOM     34  C   UNL A   1      36.619  33.900  29.640  1.00  0.00     0.010 A 
ATOM     35  C   UNL A   1      36.389  33.244  30.858  1.00  0.00    -0.014 A 
BRANCH  35  36
ATOM     36  C   UNL A   1      37.537  32.617  31.558  1.00  0.00     0.031 A 
ATOM     37  C   UNL A   1      38.250  31.456  30.917  1.00  0.00     0.074 A 
ATOM     38  C   UNL A   1      37.862  33.012  32.805  1.00  0.00     0.049 A 
ATOM     39  N   UNL A   1      39.199  30.702  31.403  1.00  0.00    -0.248 NA
ATOM     40  C   UNL A   1      37.806  31.061  29.568  1.00  0.00     0.031 C 
ATOM     41  C   UNL A   1      37.178  34.055  33.573  1.00  0.00     0.029 A 
ATOM     42  N   UNL A   1      38.834  32.557  33.661  1.00  0.00    -0.354 N 
ATOM     43  C   UNL A   1      39.430  29.722  30.445  1.00  0.00     0.074 A 
ATOM     44  C   UNL A   1      38.490  29.946  29.372  1.00  0.00     0.031 C 
ATOM     45  C   UNL A   1      37.755  34.165  34.781  1.00  0.00     0.029 A 
ATOM     46  C   UNL A   1      38.833  33.187  34.885  1.00  0.00     0.049 A 
ATOM     47  H   UNL A   1      39.472  31.847  33.422  1.00  0.00     0.167 HD
ATOM     48  C   UNL A   1      40.371  28.749  30.438  1.00  0.00     0.034 A 
ATOM     49  C   UNL A   1      39.614  32.995  35.965  1.00  0.00     0.034 A 
ATOM     50  C   UNL A   1      41.354  28.580  31.470  1.00  0.00     0.049 A 
ATOM     51  C   UNL A   1      40.712  31.967  35.894  1.00  0.00     0.074 A 
ATOM     52  C   UNL A   1      42.413  27.693  31.514  1.00  0.00     0.029 A 
ATOM     53  N   UNL A   1      41.405  29.326  32.637  1.00  0.00    -0.354 N 
ATOM     54  N   UNL A   1      41.019  31.156  34.910  1.00  0.00    -0.248 NA
ATOM     55  C   UNL A   1      41.595  31.853  37.063  1.00  0.00     0.031 C 
ATOM     56  C   UNL A   1      43.104  27.901  32.712  1.00  0.00     0.029 A 
ATOM     57  C   UNL A   1      42.480  28.925  33.407  1.00  0.00     0.049 A 
ATOM     58  H   UNL A   1      40.768  30.037  32.882  1.00  0.00     0.167 HD
ATOM     59  C   UNL A   1      42.149  30.463  35.326  1.00  0.00     0.074 A 
ATOM     60  C   UNL A   1      42.487  30.965  36.641  1.00  0.00     0.031 C 
ATOM     61  C   UNL A   1      42.836  29.484  34.685  1.00  0.00     0.034 A 
BRANCH  48  62
ATOM     62  C   UNL A   1      40.431  27.848  29.232  1.00  0.00     0.023 A 
ATOM     63  C   UNL A   1      39.521  26.775  29.127  1.00  0.00     0.012 A 
ATOM     64  C   UNL A   1      41.346  28.084  28.188  1.00  0.00     0.148 A 
ATOM     65  C   UNL A   1      39.546  25.928  28.021  1.00  0.00     0.002 A 
ATOM     66  C   UNL A   1      41.334  27.261  27.067  1.00  0.00     0.091 A 
ATOM     67  F   UNL A   1      42.219  29.093  28.317  1.00  0.00    -0.205 F 
ATOM     68  C   UNL A   1      40.444  26.177  26.988  1.00  0.00     0.022 A 
BRANCH  66  69
ATOM     69  S   UNL A   1      42.398  27.540  25.648  1.00  0.00     0.127 S 
ATOM     70  O   UNL A   1      43.726  27.458  26.254  1.00  0.00    -0.237 OA
ATOM     71  O   UNL A   1      42.055  26.415  24.779  1.00  0.00    -0.237 OA
ATOM     72  O   UNL A   1      42.029  28.848  25.123  1.00  0.00    -0.744 OA
ENDBRANCH  66  69
ENDBRANCH  48  62
BRANCH  49  73
ATOM     73  C   UNL A   1      39.444  33.853  37.173  1.00  0.00     0.023 A 
ATOM     74  C   UNL A   1      39.909  35.183  37.144  1.00  0.00     0.012 A 
ATOM     75  C   UNL A   1      38.802  33.378  38.332  1.00  0.00     0.148 A 
ATOM     76  C   UNL A   1      39.770  36.012  38.257  1.00  0.00     0.002 A 
ATOM     77  C   UNL A   1      38.620  34.225  39.420  1.00  0.00     0.091 A 
ATOM     78  F   UNL A   1      38.378  32.106  38.348  1.00  0.00    -0.205 F 
ATOM     79  C   UNL A   1      39.117  35.537  39.391  1.00  0.00     0.022 A 
BRANCH  77  80
ATOM     80  S   UNL A   1      37.670  33.735  40.865  1.00  0.00     0.127 S 
ATOM     81  O   UNL A   1      38.575  32.789  41.511  1.00  0.00    -0.237 OA
ATOM     82  O   UNL A   1      37.501  35.007  41.567  1.00  0.00    -0.237 OA
ATOM     83  O   UNL A   1      36.430  33.176  40.340  1.00  0.00    -0.744 OA
ENDBRANCH  77  80
ENDBRANCH  49  73
BRANCH  61  84
ATOM     84  C   UNL A   1      44.042  28.910  35.377  1.00  0.00     0.023 A 
ATOM     85  C   UNL A   1      45.309  29.487  35.161  1.00  0.00     0.012 A 
ATOM     86  C   UNL A   1      43.905  27.860  36.306  1.00  0.00     0.148 A 
ATOM     87  C   UNL A   1      46.428  29.009  35.841  1.00  0.00     0.002 A 
ATOM     88  C   UNL A   1      45.018  27.420  37.014  1.00  0.00     0.091 A 
ATOM     89  F   UNL A   1      42.694  27.313  36.482  1.00  0.00    -0.205 F 
ATOM     90  C   UNL A   1      46.280  27.986  36.775  1.00  0.00     0.022 A 
BRANCH  88  91
ATOM     91  S   UNL A   1      44.902  26.176  38.303  1.00  0.00     0.127 S 
ATOM     92  O   UNL A   1      46.246  26.214  38.876  1.00  0.00    -0.237 OA
ATOM     93  O   UNL A   1      43.854  26.718  39.168  1.00  0.00    -0.237 OA
ATOM     94  O   UNL A   1      44.542  24.936  37.629  1.00  0.00    -0.744 OA
ENDBRANCH  88  91
ENDBRANCH  61  84
ENDBRANCH  35  36
ENDBRANCH  27  30
ENDBRANCH  25  26
ENDBRANCH   1  25
TORSDOF 15
ENDMDL
MODEL 2
REMARK VINA RESULT:     -12.5      2.507      8.018
REMARK SMILES C[C@@H]1CN(C(=O)N2CCC(CC(=O)NCCCCNC(=O)c3ccc(-c4c5nc(c(-c6cccc(S(=O)(=O)[O-])c6F)c6ccc([nH]6)c(-c6cccc(S(=O)(=O)[O-])c6F)c6nc(c(-c7cccc(S(=O)(=O)[O-])c7F)c7ccc4[nH]7)C=C6)C=C5)cc3)CC2)C[C@@H](C)S1
REMARK SMILES IDX 17 1 16 2 15 3 14 4 12 5 13 6 11 8 10 9 1 10 2 11 3 12 90 13
REMARK SMILES IDX 4 14 88 15 5 16 87 17 89 18 6 19 7 20 8 21 86 22 9 23 85 24
REMARK SMILES IDX 18 25 19 26 20 27 21 29 22 30 23 31 84 32 24 33 83 34 25 35
REMARK SMILES IDX 26 36 27 37 77 38 28 39 82 40 76 41 78 42 29 43 81 44 75 45
REMARK SMILES IDX 74 46 30 48 62 49 42 50 61 51 43 52 46 53 60 54 79 55 44 56
REMARK SMILES IDX 45 57 59 59 80 60 47 61 31 62 32 63 40 64 33 65 35 66 41 67
REMARK SMILES IDX 34 68 36 69 37 70 38 71 39 72 63 73 64 74 72 75 65 76 67 77
REMARK SMILES IDX 73 78 66 79 68 80 69 81 70 82 71 83 48 84 49 85 57 86 50 87
REMARK SMILES IDX 52 88 58 89 51 90 53 91 54 92 55 93 56 94
REMARK H PARENT 14 7 19 28 78 47 46 58
REMARK Flexibility Score: inf
ROOT
ATOM      1  C   UNL A   1      32.298  29.558  25.267  1.00  0.00     0.023 C 
ENDROOT
BRANCH   1   2
ATOM      2  C   UNL A   1      31.007  29.937  24.565  1.00  0.00     0.023 C 
BRANCH   2   3
ATOM      3  C   UNL A   1      30.678  29.143  23.295  1.00  0.00     0.116 C 
BRANCH   3   4
ATOM      4  N   UNL A   1      29.575  28.221  23.515  1.00  0.00    -0.356 N 
ATOM      5  C   UNL A   1      29.555  26.932  23.964  1.00  0.00     0.220 C 
ATOM      6  O   UNL A   1      28.477  26.336  23.987  1.00  0.00    -0.275 OA
ATOM      7  H   UNL A   1      28.688  28.591  23.304  1.00  0.00     0.163 HD
BRANCH   5   8
ATOM      8  C   UNL A   1      30.822  26.237  24.441  1.00  0.00     0.103 C 
BRANCH   8   9
ATOM      9  C   UNL A   1      30.587  24.950  25.276  1.00  0.00     0.002 C 
ATOM     10  C   UNL A   1      35.285  24.414  24.804  1.00  0.00     0.021 C 
ATOM     11  C   UNL A   1      35.333  23.386  23.676  1.00  0.00     0.063 C 
ATOM     12  C   UNL A   1      34.091  22.472  23.646  1.00  0.00     0.135 C 
ATOM     13  S   UNL A   1      36.896  22.429  23.756  1.00  0.00    -0.152 SA
ATOM     14  N   UNL A   1      34.013  21.563  24.792  1.00  0.00    -0.322 N 
ATOM     15  C   UNL A   1      36.460  21.241  25.097  1.00  0.00     0.063 C 
ATOM     16  C   UNL A   1      33.356  21.861  25.980  1.00  0.00     0.320 C 
ATOM     17  C   UNL A   1      35.096  20.580  24.839  1.00  0.00     0.135 C 
ATOM     18  C   UNL A   1      37.566  20.194  25.176  1.00  0.00     0.021 C 
ATOM     19  O   UNL A   1      33.803  21.491  27.067  1.00  0.00    -0.248 OA
ATOM     20  N   UNL A   1      32.227  22.648  25.902  1.00  0.00    -0.325 N 
ATOM     21  C   UNL A   1      31.859  23.519  27.003  1.00  0.00     0.121 C 
ATOM     22  C   UNL A   1      31.140  22.409  24.975  1.00  0.00     0.121 C 
ATOM     23  C   UNL A   1      31.583  24.917  26.456  1.00  0.00     0.026 C 
ATOM     24  C   UNL A   1      30.677  23.718  24.367  1.00  0.00     0.026 C 
ENDBRANCH   8   9
ENDBRANCH   5   8
ENDBRANCH   3   4
ENDBRANCH   2   3
ENDBRANCH   1   2
BRANCH   1  25
ATOM     25  C   UNL A   1      32.377  30.012  26.711  1.00  0.00     0.116 C 
BRANCH  25  26
ATOM     26  N   UNL A   1      32.310  31.461  26.870  1.00  0.00    -0.352 N 
ATOM     27  C   UNL A   1      33.248  32.309  27.426  1.00  0.00     0.251 C 
ATOM     28  H   UNL A   1      31.489  31.891  26.538  1.00  0.00     0.163 HD
ATOM     29  O   UNL A   1      33.005  33.491  27.575  1.00  0.00    -0.269 OA
BRANCH  27  30
ATOM     30  C   UNL A   1      34.535  31.731  27.873  1.00  0.00     0.039 A 
ATOM     31  C   UNL A   1      35.639  32.571  28.029  1.00  0.00     0.014 A 
ATOM     32  C   UNL A   1      34.607  30.385  28.234  1.00  0.00     0.014 A 
ATOM     33  C   UNL A   1      36.795  32.072  28.632  1.00  0.00     0.010 A 
ATOM     34  C   UNL A   1      35.713  29.925  28.932  1.00  0.00     0.010 A 
ATOM     35  C   UNL A   1      36.824  30.758  29.130  1.00  0.00    -0.014 A 
BRANCH  35  36
ATOM     36  C   UNL A   1      38.002  30.217  29.849  1.00  0.00     0.031 A 
ATOM     37  C   UNL A   1      38.293  30.683  31.251  1.00  0.00     0.074 A 
ATOM     38  C   UNL A   1      38.865  29.402  29.209  1.00  0.00     0.049 A 
ATOM     39  N   UNL A   1      39.322  30.419  32.010  1.00  0.00    -0.248 NA
ATOM     40  C   UNL A   1      37.320  31.605  31.864  1.00  0.00     0.031 C 
ATOM     41  C   UNL A   1      38.748  28.963  27.817  1.00  0.00     0.029 A 
ATOM     42  N   UNL A   1      40.033  28.824  29.639  1.00  0.00    -0.354 N 
ATOM     43  C   UNL A   1      39.145  31.175  33.163  1.00  0.00     0.074 A 
ATOM     44  C   UNL A   1      37.936  31.945  32.984  1.00  0.00     0.031 C 
ATOM     45  C   UNL A   1      39.795  28.180  27.510  1.00  0.00     0.029 A 
ATOM     46  C   UNL A   1      40.671  28.079  28.673  1.00  0.00     0.049 A 
ATOM     47  H   UNL A   1      40.382  28.931  30.553  1.00  0.00     0.167 HD
ATOM     48  C   UNL A   1      39.895  31.194  34.289  1.00  0.00     0.034 A 
ATOM     49  C   UNL A   1      41.830  27.395  28.723  1.00  0.00     0.034 A 
ATOM     50  C   UNL A   1      41.051  30.368  34.491  1.00  0.00     0.049 A 
ATOM     51  C   UNL A   1      42.597  27.360  30.017  1.00  0.00     0.074 A 
ATOM     52  C   UNL A   1      41.825  30.234  35.630  1.00  0.00     0.029 A 
ATOM     53  N   UNL A   1      41.592  29.523  33.535  1.00  0.00    -0.354 N 
ATOM     54  N   UNL A   1      42.324  27.955  31.154  1.00  0.00    -0.248 NA
ATOM     55  C   UNL A   1      43.809  26.529  30.053  1.00  0.00     0.031 C 
ATOM     56  C   UNL A   1      42.838  29.308  35.359  1.00  0.00     0.029 A 
ATOM     57  C   UNL A   1      42.687  28.859  34.056  1.00  0.00     0.049 A 
ATOM     58  H   UNL A   1      41.248  29.413  32.618  1.00  0.00     0.167 HD
ATOM     59  C   UNL A   1      43.307  27.544  32.046  1.00  0.00     0.074 A 
ATOM     60  C   UNL A   1      44.169  26.630  31.326  1.00  0.00     0.031 C 
ATOM     61  C   UNL A   1      43.492  27.904  33.340  1.00  0.00     0.034 A 
BRANCH  48  62
ATOM     62  C   UNL A   1      39.434  32.077  35.418  1.00  0.00     0.023 A 
ATOM     63  C   UNL A   1      38.544  31.558  36.381  1.00  0.00     0.012 A 
ATOM     64  C   UNL A   1      39.910  33.396  35.555  1.00  0.00     0.148 A 
ATOM     65  C   UNL A   1      38.104  32.348  37.442  1.00  0.00     0.002 A 
ATOM     66  C   UNL A   1      39.502  34.162  36.641  1.00  0.00     0.091 A 
ATOM     67  F   UNL A   1      40.735  33.880  34.617  1.00  0.00    -0.205 F 
ATOM     68  C   UNL A   1      38.591  33.644  37.577  1.00  0.00     0.022 A 
BRANCH  66  69
ATOM     69  S   UNL A   1      40.126  35.817  36.949  1.00  0.00     0.127 S 
ATOM     70  O   UNL A   1      39.647  36.538  35.771  1.00  0.00    -0.237 OA
ATOM     71  O   UNL A   1      39.453  36.174  38.198  1.00  0.00    -0.237 OA
ATOM     72  O   UNL A   1      41.574  35.685  37.056  1.00  0.00    -0.744 OA
ENDBRANCH  66  69
ENDBRANCH  48  62
BRANCH  49  73
ATOM     73  C   UNL A   1      42.289  26.615  27.537  1.00  0.00     0.023 A 
ATOM     74  C   UNL A   1      43.065  27.256  26.551  1.00  0.00     0.012 A 
ATOM     75  C   UNL A   1      41.993  25.246  27.393  1.00  0.00     0.148 A 
ATOM     76  C   UNL A   1      43.507  26.559  25.426  1.00  0.00     0.002 A 
ATOM     77  C   UNL A   1      42.481  24.544  26.296  1.00  0.00     0.091 A 
ATOM     78  F   UNL A   1      41.243  24.656  28.334  1.00  0.00    -0.205 F 
ATOM     79  C   UNL A   1      43.224  25.202  25.303  1.00  0.00     0.022 A 
BRANCH  77  80
ATOM     80  S   UNL A   1      42.278  22.767  26.132  1.00  0.00     0.127 S 
ATOM     81  O   UNL A   1      43.002  22.273  27.300  1.00  0.00    -0.237 OA
ATOM     82  O   UNL A   1      40.824  22.616  26.198  1.00  0.00    -0.237 OA
ATOM     83  O   UNL A   1      42.853  22.431  24.835  1.00  0.00    -0.744 OA
ENDBRANCH  77  80
ENDBRANCH  49  73
BRANCH  61  84
ATOM     84  C   UNL A   1      44.650  27.289  34.078  1.00  0.00     0.023 A 
ATOM     85  C   UNL A   1      45.920  27.895  34.010  1.00  0.00     0.012 A 
ATOM     86  C   UNL A   1      44.459  26.166  34.905  1.00  0.00     0.148 A 
ATOM     87  C   UNL A   1      46.990  27.376  34.736  1.00  0.00     0.002 A 
ATOM     88  C   UNL A   1      45.520  25.682  35.662  1.00  0.00     0.091 A 
ATOM     89  F   UNL A   1      43.247  25.593  34.939  1.00  0.00    -0.205 F 
ATOM     90  C   UNL A   1      46.787  26.279  35.571  1.00  0.00     0.022 A 
BRANCH  88  91
ATOM     91  S   UNL A   1      45.324  24.335  36.834  1.00  0.00     0.127 S 
ATOM     92  O   UNL A   1      45.009  23.215  35.950  1.00  0.00    -0.237 OA
ATOM     93  O   UNL A   1      46.646  24.267  37.457  1.00  0.00    -0.237 OA
ATOM     94  O   UNL A   1      44.255  24.743  37.736  1.00  0.00    -0.744 OA
ENDBRANCH  88  91
ENDBRANCH  61  84
ENDBRANCH  35  36
ENDBRANCH  27  30
ENDBRANCH  25  26
ENDBRANCH   1  25
TORSDOF 15
ENDMDL
MODEL 3
REMARK VINA RESULT:     -12.5      3.447      8.716
REMARK SMILES C[C@@H]1CN(C(=O)N2CCC(CC(=O)NCCCCNC(=O)c3ccc(-c4c5nc(c(-c6cccc(S(=O)(=O)[O-])c6F)c6ccc([nH]6)c(-c6cccc(S(=O)(=O)[O-])c6F)c6nc(c(-c7cccc(S(=O)(=O)[O-])c7F)c7ccc4[nH]7)C=C6)C=C5)cc3)CC2)C[C@@H](C)S1
REMARK SMILES IDX 17 1 16 2 15 3 14 4 12 5 13 6 11 8 10 9 1 10 2 11 3 12 90 13
REMARK SMILES IDX 4 14 88 15 5 16 87 17 89 18 6 19 7 20 8 21 86 22 9 23 85 24
REMARK SMILES IDX 18 25 19 26 20 27 21 29 22 30 23 31 84 32 24 33 83 34 25 35
REMARK SMILES IDX 26 36 27 37 77 38 28 39 82 40 76 41 78 42 29 43 81 44 75 45
REMARK SMILES IDX 74 46 30 48 62 49 42 50 61 51 43 52 46 53 60 54 79 55 44 56
REMARK SMILES IDX 45 57 59 59 80 60 47 61 31 62 32 63 40 64 33 65 35 66 41 67
REMARK SMILES IDX 34 68 36 69 37 70 38 71 39 72 63 73 64 74 72 75 65 76 67 77
REMARK SMILES IDX 73 78 66 79 68 80 69 81 70 82 71 83 48 84 49 85 57 86 50 87
REMARK SMILES IDX 52 88 58 89 51 90 53 91 54 92 55 93 56 94
REMARK H PARENT 14 7 19 28 78 47 46 58
REMARK Flexibility Score: inf
ROOT
ATOM      1  C   UNL A   1      33.129  29.135  24.919  1.00  0.00     0.023 C 
ENDROOT
BRANCH   1   2
ATOM      2  C   UNL A   1      33.891  28.673  23.690  1.00  0.00     0.023 C 
BRANCH   2   3
ATOM      3  C   UNL A   1      33.250  27.527  22.898  1.00  0.00     0.116 C 
BRANCH   3   4
ATOM      4  N   UNL A   1      31.980  27.929  22.314  1.00  0.00    -0.356 N 
ATOM      5  C   UNL A   1      30.711  27.909  22.817  1.00  0.00     0.220 C 
ATOM      6  O   UNL A   1      29.782  28.238  22.077  1.00  0.00    -0.275 OA
ATOM      7  H   UNL A   1      32.047  28.276  21.395  1.00  0.00     0.163 HD
BRANCH   5   8
ATOM      8  C   UNL A   1      30.434  27.508  24.258  1.00  0.00     0.103 C 
BRANCH   8   9
ATOM      9  C   UNL A   1      29.921  26.055  24.446  1.00  0.00     0.002 C 
ATOM     10  C   UNL A   1      34.446  25.163  25.591  1.00  0.00     0.021 C 
ATOM     11  C   UNL A   1      34.949  24.562  24.281  1.00  0.00     0.063 C 
ATOM     12  C   UNL A   1      33.835  23.858  23.479  1.00  0.00     0.135 C 
ATOM     13  S   UNL A   1      36.379  23.457  24.598  1.00  0.00    -0.152 SA
ATOM     14  N   UNL A   1      33.339  22.640  24.124  1.00  0.00    -0.322 N 
ATOM     15  C   UNL A   1      35.483  21.955  25.181  1.00  0.00     0.063 C 
ATOM     16  C   UNL A   1      32.267  22.608  25.008  1.00  0.00     0.320 C 
ATOM     17  C   UNL A   1      34.340  21.577  24.225  1.00  0.00     0.135 C 
ATOM     18  C   UNL A   1      36.494  20.819  25.296  1.00  0.00     0.021 C 
ATOM     19  O   UNL A   1      32.266  21.854  25.983  1.00  0.00    -0.248 OA
ATOM     20  N   UNL A   1      31.241  23.501  24.795  1.00  0.00    -0.325 N 
ATOM     21  C   UNL A   1      30.456  24.001  25.910  1.00  0.00     0.121 C 
ATOM     22  C   UNL A   1      30.602  23.706  23.511  1.00  0.00     0.121 C 
ATOM     23  C   UNL A   1      30.384  25.524  25.820  1.00  0.00     0.026 C 
ATOM     24  C   UNL A   1      30.383  25.187  23.269  1.00  0.00     0.026 C 
ENDBRANCH   8   9
ENDBRANCH   5   8
ENDBRANCH   3   4
ENDBRANCH   2   3
ENDBRANCH   1   2
BRANCH   1  25
ATOM     25  C   UNL A   1      33.968  29.212  26.178  1.00  0.00     0.116 C 
BRANCH  25  26
ATOM     26  N   UNL A   1      33.913  30.512  26.837  1.00  0.00    -0.352 N 
ATOM     27  C   UNL A   1      34.791  31.047  27.759  1.00  0.00     0.251 C 
ATOM     28  H   UNL A   1      33.149  31.084  26.593  1.00  0.00     0.163 HD
ATOM     29  O   UNL A   1      34.557  32.115  28.293  1.00  0.00    -0.269 OA
BRANCH  27  30
ATOM     30  C   UNL A   1      35.999  30.267  28.108  1.00  0.00     0.039 A 
ATOM     31  C   UNL A   1      37.120  30.342  27.280  1.00  0.00     0.014 A 
ATOM     32  C   UNL A   1      36.045  29.554  29.306  1.00  0.00     0.014 A 
ATOM     33  C   UNL A   1      38.320  29.767  27.703  1.00  0.00     0.010 A 
ATOM     34  C   UNL A   1      37.263  29.083  29.773  1.00  0.00     0.010 A 
ATOM     35  C   UNL A   1      38.412  29.174  28.973  1.00  0.00    -0.014 A 
BRANCH  35  36
ATOM     36  C   UNL A   1      39.688  28.625  29.492  1.00  0.00     0.031 A 
ATOM     37  C   UNL A   1      40.399  29.337  30.612  1.00  0.00     0.074 A 
ATOM     38  C   UNL A   1      40.259  27.564  28.889  1.00  0.00     0.049 A 
ATOM     39  N   UNL A   1      41.569  29.088  31.136  1.00  0.00    -0.248 NA
ATOM     40  C   UNL A   1      39.725  30.513  31.191  1.00  0.00     0.031 C 
ATOM     41  C   UNL A   1      39.719  26.853  27.727  1.00  0.00     0.029 A 
ATOM     42  N   UNL A   1      41.441  26.917  29.149  1.00  0.00    -0.354 N 
ATOM     43  C   UNL A   1      41.790  30.098  32.064  1.00  0.00     0.074 A 
ATOM     44  C   UNL A   1      40.656  30.991  32.000  1.00  0.00     0.031 C 
ATOM     45  C   UNL A   1      40.562  25.866  27.381  1.00  0.00     0.029 A 
ATOM     46  C   UNL A   1      41.713  25.887  28.278  1.00  0.00     0.049 A 
ATOM     47  H   UNL A   1      42.039  27.167  29.890  1.00  0.00     0.167 HD
ATOM     48  C   UNL A   1      42.822  30.245  32.927  1.00  0.00     0.034 A 
ATOM     49  C   UNL A   1      42.772  25.056  28.213  1.00  0.00     0.034 A 
ATOM     50  C   UNL A   1      43.906  29.312  33.042  1.00  0.00     0.049 A 
ATOM     51  C   UNL A   1      43.862  25.186  29.243  1.00  0.00     0.074 A 
ATOM     52  C   UNL A   1      44.950  29.312  33.949  1.00  0.00     0.029 A 
ATOM     53  N   UNL A   1      44.080  28.203  32.229  1.00  0.00    -0.354 N 
ATOM     54  N   UNL A   1      43.971  26.053  30.221  1.00  0.00    -0.248 NA
ATOM     55  C   UNL A   1      44.952  24.203  29.188  1.00  0.00     0.031 C 
ATOM     56  C   UNL A   1      45.757  28.201  33.682  1.00  0.00     0.029 A 
ATOM     57  C   UNL A   1      45.209  27.506  32.615  1.00  0.00     0.049 A 
ATOM     58  H   UNL A   1      43.485  27.949  31.485  1.00  0.00     0.167 HD
ATOM     59  C   UNL A   1      45.121  25.699  30.918  1.00  0.00     0.074 A 
ATOM     60  C   UNL A   1      45.659  24.524  30.264  1.00  0.00     0.031 C 
ATOM     61  C   UNL A   1      45.691  26.301  31.990  1.00  0.00     0.034 A 
BRANCH  48  62
ATOM     62  C   UNL A   1      42.777  31.417  33.872  1.00  0.00     0.023 A 
ATOM     63  C   UNL A   1      43.345  32.646  33.474  1.00  0.00     0.012 A 
ATOM     64  C   UNL A   1      42.142  31.323  35.125  1.00  0.00     0.148 A 
ATOM     65  C   UNL A   1      43.313  33.752  34.321  1.00  0.00     0.002 A 
ATOM     66  C   UNL A   1      42.075  32.443  35.946  1.00  0.00     0.091 A 
ATOM     67  F   UNL A   1      41.631  30.141  35.496  1.00  0.00    -0.205 F 
ATOM     68  C   UNL A   1      42.670  33.653  35.551  1.00  0.00     0.022 A 
BRANCH  66  69
ATOM     69  S   UNL A   1      41.205  32.443  37.517  1.00  0.00     0.127 S 
ATOM     70  O   UNL A   1      42.042  31.550  38.318  1.00  0.00    -0.237 OA
ATOM     71  O   UNL A   1      41.271  33.852  37.906  1.00  0.00    -0.237 OA
ATOM     72  O   UNL A   1      39.863  31.954  37.231  1.00  0.00    -0.744 OA
ENDBRANCH  66  69
ENDBRANCH  48  62
BRANCH  49  73
ATOM     73  C   UNL A   1      42.809  23.972  27.189  1.00  0.00     0.023 A 
ATOM     74  C   UNL A   1      43.562  24.161  26.014  1.00  0.00     0.012 A 
ATOM     75  C   UNL A   1      42.134  22.751  27.381  1.00  0.00     0.148 A 
ATOM     76  C   UNL A   1      43.614  23.170  25.033  1.00  0.00     0.002 A 
ATOM     77  C   UNL A   1      42.233  21.747  26.424  1.00  0.00     0.091 A 
ATOM     78  F   UNL A   1      41.411  22.593  28.499  1.00  0.00    -0.205 F 
ATOM     79  C   UNL A   1      42.959  21.960  25.242  1.00  0.00     0.022 A 
BRANCH  77  80
ATOM     80  S   UNL A   1      41.533  20.112  26.678  1.00  0.00     0.127 S 
ATOM     81  O   UNL A   1      40.112  20.415  26.830  1.00  0.00    -0.237 OA
ATOM     82  O   UNL A   1      41.888  19.429  25.435  1.00  0.00    -0.237 OA
ATOM     83  O   UNL A   1      42.204  19.584  27.860  1.00  0.00    -0.744 OA
ENDBRANCH  77  80
ENDBRANCH  49  73
BRANCH  61  84
ATOM     84  C   UNL A   1      46.945  25.689  32.551  1.00  0.00     0.023 A 
ATOM     85  C   UNL A   1      48.200  26.097  32.058  1.00  0.00     0.012 A 
ATOM     86  C   UNL A   1      46.882  24.778  33.623  1.00  0.00     0.148 A 
ATOM     87  C   UNL A   1      49.375  25.587  32.607  1.00  0.00     0.002 A 
ATOM     88  C   UNL A   1      48.059  24.310  34.196  1.00  0.00     0.091 A 
ATOM     89  F   UNL A   1      45.678  24.388  34.064  1.00  0.00    -0.205 F 
ATOM     90  C   UNL A   1      49.305  24.705  33.683  1.00  0.00     0.022 A 
BRANCH  88  91
ATOM     91  S   UNL A   1      48.062  23.248  35.645  1.00  0.00     0.127 S 
ATOM     92  O   UNL A   1      47.320  24.057  36.609  1.00  0.00    -0.237 OA
ATOM     93  O   UNL A   1      47.350  22.063  35.166  1.00  0.00    -0.237 OA
ATOM     94  O   UNL A   1      49.464  23.016  35.966  1.00  0.00    -0.744 OA
ENDBRANCH  88  91
ENDBRANCH  61  84
ENDBRANCH  35  36
ENDBRANCH  27  30
ENDBRANCH  25  26
ENDBRANCH   1  25
TORSDOF 15
ENDMDL
