MODEL 1
REMARK VINA RESULT:     -12.2      0.000      0.000
REMARK SMILES C[C@@H](C(=O)NCCCCNC(=O)c1ccc(-c2c3nc(c(-c4cccc(S(=O)(=O)[O-])c4F)c4ccc([nH]4)c(-c4cccc(S(=O)(=O)[O-])c4F)c4nc(c(-c5cccc(S(=O)(=O)[O-])c5F)c5ccc2[nH]5)C=C4)C=C3)cc1)c1ccc(-c2ccccc2)c(F)c1
REMARK SMILES IDX 8 1 7 2 6 3 5 4 3 5 4 6 2 8 1 9 76 10 77 11 88 12 78 13
REMARK SMILES IDX 86 14 79 15 87 16 80 17 81 18 85 19 82 20 84 21 83 22 9 23
REMARK SMILES IDX 10 24 11 25 12 27 13 28 14 29 75 30 15 31 74 32 16 33 17 34
REMARK SMILES IDX 18 35 68 36 19 37 73 38 67 39 69 40 20 41 72 42 66 43 65 44
REMARK SMILES IDX 21 46 53 47 33 48 52 49 34 50 37 51 51 52 70 53 35 54 36 55
REMARK SMILES IDX 50 57 71 58 38 59 22 60 23 61 31 62 24 63 26 64 32 65 25 66
REMARK SMILES IDX 27 67 28 68 29 69 30 70 54 71 55 72 63 73 56 74 58 75 64 76
REMARK SMILES IDX 57 77 59 78 60 79 61 80 62 81 39 82 40 83 48 84 41 85 43 86
REMARK SMILES IDX 49 87 42 88 44 89 45 90 46 91 47 92
REMARK H PARENT 5 7 10 26 69 45 37 56
REMARK Flexibility Score: inf
ROOT
ATOM      1  C   UNL A   1      36.174  21.778  24.255  1.00  0.00     0.023 C 
ENDROOT
BRANCH   1   2
ATOM      2  C   UNL A   1      36.364  23.054  23.431  1.00  0.00     0.023 C 
BRANCH   2   3
ATOM      3  C   UNL A   1      35.103  23.905  23.268  1.00  0.00     0.116 C 
BRANCH   3   4
ATOM      4  N   UNL A   1      34.735  24.541  24.516  1.00  0.00    -0.356 N 
ATOM      5  C   UNL A   1      33.521  24.623  25.136  1.00  0.00     0.227 C 
ATOM      6  O   UNL A   1      33.461  25.304  26.161  1.00  0.00    -0.274 OA
ATOM      7  H   UNL A   1      35.475  24.983  24.991  1.00  0.00     0.163 HD
BRANCH   5   8
ATOM      8  C   UNL A   1      32.315  23.846  24.580  1.00  0.00     0.105 C 
ATOM      9  C   UNL A   1      30.999  24.259  25.252  1.00  0.00     0.023 C 
BRANCH   8  10
ATOM     10  C   UNL A   1      32.536  22.335  24.667  1.00  0.00    -0.033 A 
ATOM     11  C   UNL A   1      32.995  21.764  25.865  1.00  0.00     0.005 A 
ATOM     12  C   UNL A   1      32.263  21.482  23.589  1.00  0.00     0.044 A 
ATOM     13  C   UNL A   1      33.214  20.384  25.964  1.00  0.00     0.012 A 
ATOM     14  C   UNL A   1      32.500  20.113  23.691  1.00  0.00     0.131 A 
ATOM     15  C   UNL A   1      32.986  19.534  24.870  1.00  0.00     0.017 A 
ATOM     16  F   UNL A   1      32.251  19.350  22.614  1.00  0.00    -0.206 F 
BRANCH  15  17
ATOM     17  C   UNL A   1      33.256  18.093  24.955  1.00  0.00    -0.015 A 
ATOM     18  C   UNL A   1      34.472  17.554  24.507  1.00  0.00     0.009 A 
ATOM     19  C   UNL A   1      32.302  17.217  25.498  1.00  0.00     0.009 A 
ATOM     20  C   UNL A   1      34.727  16.183  24.607  1.00  0.00     0.001 A 
ATOM     21  C   UNL A   1      32.553  15.847  25.594  1.00  0.00     0.001 A 
ATOM     22  C   UNL A   1      33.767  15.331  25.149  1.00  0.00     0.000 A 
ENDBRANCH  15  17
ENDBRANCH   8  10
ENDBRANCH   5   8
ENDBRANCH   3   4
ENDBRANCH   2   3
ENDBRANCH   1   2
BRANCH   1  23
ATOM     23  C   UNL A   1      36.841  21.783  25.625  1.00  0.00     0.116 C 
BRANCH  23  24
ATOM     24  N   UNL A   1      37.897  20.788  25.747  1.00  0.00    -0.352 N 
ATOM     25  C   UNL A   1      39.207  20.967  26.118  1.00  0.00     0.251 C 
ATOM     26  H   UNL A   1      37.636  19.862  25.534  1.00  0.00     0.163 HD
ATOM     27  O   UNL A   1      39.998  20.030  26.050  1.00  0.00    -0.269 OA
BRANCH  25  28
ATOM     28  C   UNL A   1      39.663  22.299  26.567  1.00  0.00     0.039 A 
ATOM     29  C   UNL A   1      40.682  22.378  27.521  1.00  0.00     0.014 A 
ATOM     30  C   UNL A   1      39.108  23.465  26.032  1.00  0.00     0.014 A 
ATOM     31  C   UNL A   1      41.190  23.625  27.887  1.00  0.00     0.010 A 
ATOM     32  C   UNL A   1      39.663  24.701  26.346  1.00  0.00     0.010 A 
ATOM     33  C   UNL A   1      40.707  24.796  27.278  1.00  0.00    -0.014 A 
BRANCH  33  34
ATOM     34  C   UNL A   1      41.292  26.126  27.585  1.00  0.00     0.031 A 
ATOM     35  C   UNL A   1      42.702  26.448  27.173  1.00  0.00     0.074 A 
ATOM     36  C   UNL A   1      40.585  27.008  28.320  1.00  0.00     0.049 A 
ATOM     37  N   UNL A   1      43.404  27.526  27.409  1.00  0.00    -0.248 NA
ATOM     38  C   UNL A   1      43.430  25.412  26.421  1.00  0.00     0.031 C 
ATOM     39  C   UNL A   1      39.239  26.781  28.850  1.00  0.00     0.029 A 
ATOM     40  N   UNL A   1      40.913  28.261  28.773  1.00  0.00    -0.354 N 
ATOM     41  C   UNL A   1      44.662  27.286  26.870  1.00  0.00     0.074 A 
ATOM     42  C   UNL A   1      44.638  25.947  26.324  1.00  0.00     0.031 C 
ATOM     43  C   UNL A   1      38.856  27.859  29.554  1.00  0.00     0.029 A 
ATOM     44  C   UNL A   1      39.936  28.842  29.549  1.00  0.00     0.049 A 
ATOM     45  H   UNL A   1      41.767  28.704  28.564  1.00  0.00     0.167 HD
ATOM     46  C   UNL A   1      45.730  28.115  26.808  1.00  0.00     0.034 A 
ATOM     47  C   UNL A   1      39.913  30.028  30.187  1.00  0.00     0.034 A 
ATOM     48  C   UNL A   1      45.735  29.463  27.309  1.00  0.00     0.049 A 
ATOM     49  C   UNL A   1      41.097  30.948  30.062  1.00  0.00     0.074 A 
ATOM     50  C   UNL A   1      46.735  30.414  27.210  1.00  0.00     0.029 A 
ATOM     51  N   UNL A   1      44.691  30.051  28.006  1.00  0.00    -0.354 N 
ATOM     52  N   UNL A   1      42.217  30.767  29.405  1.00  0.00    -0.248 NA
ATOM     53  C   UNL A   1      41.000  32.253  30.733  1.00  0.00     0.031 C 
ATOM     54  C   UNL A   1      46.303  31.573  27.864  1.00  0.00     0.029 A 
ATOM     55  C   UNL A   1      45.023  31.350  28.350  1.00  0.00     0.049 A 
ATOM     56  H   UNL A   1      43.838  29.610  28.224  1.00  0.00     0.167 HD
ATOM     57  C   UNL A   1      42.940  31.946  29.552  1.00  0.00     0.074 A 
ATOM     58  C   UNL A   1      42.122  32.842  30.344  1.00  0.00     0.031 C 
ATOM     59  C   UNL A   1      44.177  32.252  29.088  1.00  0.00     0.034 A 
BRANCH  46  60
ATOM     60  C   UNL A   1      46.971  27.608  26.118  1.00  0.00     0.023 A 
ATOM     61  C   UNL A   1      47.881  26.804  26.833  1.00  0.00     0.012 A 
ATOM     62  C   UNL A   1      47.208  27.876  24.756  1.00  0.00     0.148 A 
ATOM     63  C   UNL A   1      49.024  26.301  26.215  1.00  0.00     0.002 A 
ATOM     64  C   UNL A   1      48.328  27.336  24.134  1.00  0.00     0.091 A 
ATOM     65  F   UNL A   1      46.343  28.662  24.098  1.00  0.00    -0.205 F 
ATOM     66  C   UNL A   1      49.242  26.558  24.865  1.00  0.00     0.022 A 
BRANCH  64  67
ATOM     67  S   UNL A   1      48.658  27.544  22.381  1.00  0.00     0.127 S 
ATOM     68  O   UNL A   1      48.690  26.156  21.920  1.00  0.00    -0.237 OA
ATOM     69  O   UNL A   1      47.490  28.306  21.935  1.00  0.00    -0.237 OA
ATOM     70  O   UNL A   1      49.921  28.263  22.293  1.00  0.00    -0.744 OA
ENDBRANCH  64  67
ENDBRANCH  46  60
BRANCH  47  71
ATOM     71  C   UNL A   1      38.696  30.444  30.941  1.00  0.00     0.023 A 
ATOM     72  C   UNL A   1      38.616  30.175  32.321  1.00  0.00     0.012 A 
ATOM     73  C   UNL A   1      37.637  31.125  30.311  1.00  0.00     0.148 A 
ATOM     74  C   UNL A   1      37.490  30.549  33.055  1.00  0.00     0.002 A 
ATOM     75  C   UNL A   1      36.542  31.543  31.059  1.00  0.00     0.091 A 
ATOM     76  F   UNL A   1      37.726  31.360  28.994  1.00  0.00    -0.205 F 
ATOM     77  C   UNL A   1      36.458  31.241  32.427  1.00  0.00     0.022 A 
BRANCH  75  78
ATOM     78  S   UNL A   1      35.230  32.553  30.362  1.00  0.00     0.127 S 
ATOM     79  O   UNL A   1      34.310  32.669  31.490  1.00  0.00    -0.237 OA
ATOM     80  O   UNL A   1      35.945  33.783  30.020  1.00  0.00    -0.237 OA
ATOM     81  O   UNL A   1      34.735  31.810  29.211  1.00  0.00    -0.744 OA
ENDBRANCH  75  78
ENDBRANCH  47  71
BRANCH  59  82
ATOM     82  C   UNL A   1      44.717  33.625  29.389  1.00  0.00     0.023 A 
ATOM     83  C   UNL A   1      45.396  33.860  30.601  1.00  0.00     0.012 A 
ATOM     84  C   UNL A   1      44.621  34.659  28.437  1.00  0.00     0.148 A 
ATOM     85  C   UNL A   1      45.945  35.112  30.873  1.00  0.00     0.002 A 
ATOM     86  C   UNL A   1      45.212  35.891  28.696  1.00  0.00     0.091 A 
ATOM     87  F   UNL A   1      43.954  34.422  27.299  1.00  0.00    -0.205 F 
ATOM     88  C   UNL A   1      45.864  36.122  29.917  1.00  0.00     0.022 A 
BRANCH  86  89
ATOM     89  S   UNL A   1      45.240  37.216  27.483  1.00  0.00     0.127 S 
ATOM     90  O   UNL A   1      45.879  38.294  28.237  1.00  0.00    -0.237 OA
ATOM     91  O   UNL A   1      46.064  36.646  26.418  1.00  0.00    -0.237 OA
ATOM     92  O   UNL A   1      43.852  37.450  27.113  1.00  0.00    -0.744 OA
ENDBRANCH  86  89
ENDBRANCH  59  82
ENDBRANCH  33  34
ENDBRANCH  25  28
ENDBRANCH  23  24
ENDBRANCH   1  23
TORSDOF 16
ENDMDL
MODEL 2
REMARK VINA RESULT:     -12.2      5.733     10.911
REMARK SMILES C[C@@H](C(=O)NCCCCNC(=O)c1ccc(-c2c3nc(c(-c4cccc(S(=O)(=O)[O-])c4F)c4ccc([nH]4)c(-c4cccc(S(=O)(=O)[O-])c4F)c4nc(c(-c5cccc(S(=O)(=O)[O-])c5F)c5ccc2[nH]5)C=C4)C=C3)cc1)c1ccc(-c2ccccc2)c(F)c1
REMARK SMILES IDX 8 1 7 2 6 3 5 4 3 5 4 6 2 8 1 9 76 10 77 11 88 12 78 13
REMARK SMILES IDX 86 14 79 15 87 16 80 17 81 18 85 19 82 20 84 21 83 22 9 23
REMARK SMILES IDX 10 24 11 25 12 27 13 28 14 29 75 30 15 31 74 32 16 33 17 34
REMARK SMILES IDX 18 35 68 36 19 37 73 38 67 39 69 40 20 41 72 42 66 43 65 44
REMARK SMILES IDX 21 46 53 47 33 48 52 49 34 50 37 51 51 52 70 53 35 54 36 55
REMARK SMILES IDX 50 57 71 58 38 59 22 60 23 61 31 62 24 63 26 64 32 65 25 66
REMARK SMILES IDX 27 67 28 68 29 69 30 70 54 71 55 72 63 73 56 74 58 75 64 76
REMARK SMILES IDX 57 77 59 78 60 79 61 80 62 81 39 82 40 83 48 84 41 85 43 86
REMARK SMILES IDX 49 87 42 88 44 89 45 90 46 91 47 92
REMARK H PARENT 5 7 10 26 69 45 37 56
REMARK Flexibility Score: inf
ROOT
ATOM      1  C   UNL A   1      31.546  28.883  26.107  1.00  0.00     0.023 C 
ENDROOT
BRANCH   1   2
ATOM      2  C   UNL A   1      31.825  27.616  26.920  1.00  0.00     0.023 C 
BRANCH   2   3
ATOM      3  C   UNL A   1      32.704  26.583  26.213  1.00  0.00     0.116 C 
BRANCH   3   4
ATOM      4  N   UNL A   1      32.057  25.288  26.166  1.00  0.00    -0.356 N 
ATOM      5  C   UNL A   1      31.618  24.563  25.096  1.00  0.00     0.227 C 
ATOM      6  O   UNL A   1      31.017  23.516  25.338  1.00  0.00    -0.274 OA
ATOM      7  H   UNL A   1      31.910  24.865  27.043  1.00  0.00     0.163 HD
BRANCH   5   8
ATOM      8  C   UNL A   1      31.924  25.037  23.663  1.00  0.00     0.105 C 
ATOM      9  C   UNL A   1      33.431  25.126  23.392  1.00  0.00     0.023 C 
BRANCH   8  10
ATOM     10  C   UNL A   1      31.221  26.358  23.350  1.00  0.00    -0.033 A 
ATOM     11  C   UNL A   1      31.950  27.425  22.803  1.00  0.00     0.005 A 
ATOM     12  C   UNL A   1      29.847  26.535  23.561  1.00  0.00     0.044 A 
ATOM     13  C   UNL A   1      31.328  28.648  22.517  1.00  0.00     0.012 A 
ATOM     14  C   UNL A   1      29.240  27.759  23.291  1.00  0.00     0.131 A 
ATOM     15  C   UNL A   1      29.962  28.842  22.773  1.00  0.00     0.017 A 
ATOM     16  F   UNL A   1      27.927  27.881  23.546  1.00  0.00    -0.206 F 
BRANCH  15  17
ATOM     17  C   UNL A   1      29.315  30.135  22.517  1.00  0.00    -0.015 A 
ATOM     18  C   UNL A   1      29.198  31.103  23.527  1.00  0.00     0.009 A 
ATOM     19  C   UNL A   1      28.803  30.440  21.244  1.00  0.00     0.009 A 
ATOM     20  C   UNL A   1      28.595  32.337  23.270  1.00  0.00     0.001 A 
ATOM     21  C   UNL A   1      28.197  31.671  20.987  1.00  0.00     0.001 A 
ATOM     22  C   UNL A   1      28.094  32.620  22.000  1.00  0.00     0.000 A 
ENDBRANCH  15  17
ENDBRANCH   8  10
ENDBRANCH   5   8
ENDBRANCH   3   4
ENDBRANCH   2   3
ENDBRANCH   1   2
BRANCH   1  23
ATOM     23  C   UNL A   1      32.748  29.794  25.889  1.00  0.00     0.116 C 
BRANCH  23  24
ATOM     24  N   UNL A   1      32.504  31.167  26.306  1.00  0.00    -0.352 N 
ATOM     25  C   UNL A   1      33.219  31.936  27.192  1.00  0.00     0.251 C 
ATOM     26  H   UNL A   1      31.721  31.603  25.899  1.00  0.00     0.163 HD
ATOM     27  O   UNL A   1      32.800  33.041  27.524  1.00  0.00    -0.269 OA
BRANCH  25  28
ATOM     28  C   UNL A   1      34.476  31.410  27.767  1.00  0.00     0.039 A 
ATOM     29  C   UNL A   1      35.549  32.285  27.956  1.00  0.00     0.014 A 
ATOM     30  C   UNL A   1      34.585  30.068  28.142  1.00  0.00     0.014 A 
ATOM     31  C   UNL A   1      36.710  31.827  28.583  1.00  0.00     0.010 A 
ATOM     32  C   UNL A   1      35.714  29.634  28.829  1.00  0.00     0.010 A 
ATOM     33  C   UNL A   1      36.789  30.506  29.055  1.00  0.00    -0.014 A 
BRANCH  33  34
ATOM     34  C   UNL A   1      37.977  30.022  29.804  1.00  0.00     0.031 A 
ATOM     35  C   UNL A   1      38.243  30.510  31.201  1.00  0.00     0.074 A 
ATOM     36  C   UNL A   1      38.867  29.218  29.188  1.00  0.00     0.049 A 
ATOM     37  N   UNL A   1      39.258  30.252  31.985  1.00  0.00    -0.248 NA
ATOM     38  C   UNL A   1      37.253  31.430  31.786  1.00  0.00     0.031 C 
ATOM     39  C   UNL A   1      38.764  28.743  27.807  1.00  0.00     0.029 A 
ATOM     40  N   UNL A   1      40.048  28.683  29.636  1.00  0.00    -0.354 N 
ATOM     41  C   UNL A   1      39.050  31.003  33.135  1.00  0.00     0.074 A 
ATOM     42  C   UNL A   1      37.829  31.753  32.935  1.00  0.00     0.031 C 
ATOM     43  C   UNL A   1      39.836  27.986  27.521  1.00  0.00     0.029 A 
ATOM     44  C   UNL A   1      40.714  27.942  28.686  1.00  0.00     0.049 A 
ATOM     45  H   UNL A   1      40.389  28.815  30.550  1.00  0.00     0.167 HD
ATOM     46  C   UNL A   1      39.791  31.042  34.268  1.00  0.00     0.034 A 
ATOM     47  C   UNL A   1      41.900  27.305  28.745  1.00  0.00     0.034 A 
ATOM     48  C   UNL A   1      40.977  30.258  34.483  1.00  0.00     0.049 A 
ATOM     49  C   UNL A   1      42.679  27.328  30.032  1.00  0.00     0.074 A 
ATOM     50  C   UNL A   1      41.745  30.157  35.629  1.00  0.00     0.029 A 
ATOM     51  N   UNL A   1      41.570  29.445  33.530  1.00  0.00    -0.354 N 
ATOM     52  N   UNL A   1      42.381  27.911  31.167  1.00  0.00    -0.248 NA
ATOM     53  C   UNL A   1      43.940  26.572  30.060  1.00  0.00     0.031 C 
ATOM     54  C   UNL A   1      42.814  29.294  35.364  1.00  0.00     0.029 A 
ATOM     55  C   UNL A   1      42.698  28.842  34.059  1.00  0.00     0.049 A 
ATOM     56  H   UNL A   1      41.238  29.315  32.613  1.00  0.00     0.167 HD
ATOM     57  C   UNL A   1      43.395  27.564  32.053  1.00  0.00     0.074 A 
ATOM     58  C   UNL A   1      44.305  26.702  31.328  1.00  0.00     0.031 C 
ATOM     59  C   UNL A   1      43.564  27.939  33.345  1.00  0.00     0.034 A 
BRANCH  46  60
ATOM     60  C   UNL A   1      39.304  31.920  35.393  1.00  0.00     0.023 A 
ATOM     61  C   UNL A   1      38.400  31.395  36.338  1.00  0.00     0.012 A 
ATOM     62  C   UNL A   1      39.781  33.235  35.550  1.00  0.00     0.148 A 
ATOM     63  C   UNL A   1      37.950  32.175  37.402  1.00  0.00     0.002 A 
ATOM     64  C   UNL A   1      39.363  33.993  36.638  1.00  0.00     0.091 A 
ATOM     65  F   UNL A   1      40.624  33.725  34.628  1.00  0.00    -0.205 F 
ATOM     66  C   UNL A   1      38.440  33.468  37.558  1.00  0.00     0.022 A 
BRANCH  64  67
ATOM     67  S   UNL A   1      39.994  35.642  36.970  1.00  0.00     0.127 S 
ATOM     68  O   UNL A   1      41.427  35.388  37.099  1.00  0.00    -0.237 OA
ATOM     69  O   UNL A   1      39.611  36.369  35.758  1.00  0.00    -0.237 OA
ATOM     70  O   UNL A   1      39.324  36.090  38.183  1.00  0.00    -0.744 OA
ENDBRANCH  64  67
ENDBRANCH  46  60
BRANCH  47  71
ATOM     71  C   UNL A   1      42.386  26.528  27.570  1.00  0.00     0.023 A 
ATOM     72  C   UNL A   1      43.227  27.155  26.630  1.00  0.00     0.012 A 
ATOM     73  C   UNL A   1      42.047  25.173  27.391  1.00  0.00     0.148 A 
ATOM     74  C   UNL A   1      43.698  26.457  25.517  1.00  0.00     0.002 A 
ATOM     75  C   UNL A   1      42.563  24.468  26.309  1.00  0.00     0.091 A 
ATOM     76  F   UNL A   1      41.234  24.597  28.289  1.00  0.00    -0.205 F 
ATOM     77  C   UNL A   1      43.374  25.112  25.362  1.00  0.00     0.022 A 
BRANCH  75  78
ATOM     78  S   UNL A   1      42.306  22.702  26.101  1.00  0.00     0.127 S 
ATOM     79  O   UNL A   1      42.959  22.454  24.818  1.00  0.00    -0.237 OA
ATOM     80  O   UNL A   1      43.006  22.156  27.265  1.00  0.00    -0.237 OA
ATOM     81  O   UNL A   1      40.862  22.512  26.129  1.00  0.00    -0.744 OA
ENDBRANCH  75  78
ENDBRANCH  47  71
BRANCH  59  82
ATOM     82  C   UNL A   1      44.762  27.395  34.080  1.00  0.00     0.023 A 
ATOM     83  C   UNL A   1      45.977  28.107  34.063  1.00  0.00     0.012 A 
ATOM     84  C   UNL A   1      44.658  26.220  34.851  1.00  0.00     0.148 A 
ATOM     85  C   UNL A   1      47.080  27.642  34.778  1.00  0.00     0.002 A 
ATOM     86  C   UNL A   1      45.747  25.789  35.599  1.00  0.00     0.091 A 
ATOM     87  F   UNL A   1      43.499  25.546  34.838  1.00  0.00    -0.205 F 
ATOM     88  C   UNL A   1      46.961  26.492  35.554  1.00  0.00     0.022 A 
BRANCH  86  89
ATOM     89  S   UNL A   1      45.655  24.373  36.702  1.00  0.00     0.127 S 
ATOM     90  O   UNL A   1      44.598  24.784  37.625  1.00  0.00    -0.237 OA
ATOM     91  O   UNL A   1      45.283  23.292  35.790  1.00  0.00    -0.237 OA
ATOM     92  O   UNL A   1      46.981  24.238  37.289  1.00  0.00    -0.744 OA
ENDBRANCH  86  89
ENDBRANCH  59  82
ENDBRANCH  33  34
ENDBRANCH  25  28
ENDBRANCH  23  24
ENDBRANCH   1  23
TORSDOF 16
ENDMDL
MODEL 3
REMARK VINA RESULT:     -11.9      4.373      7.286
REMARK SMILES C[C@@H](C(=O)NCCCCNC(=O)c1ccc(-c2c3nc(c(-c4cccc(S(=O)(=O)[O-])c4F)c4ccc([nH]4)c(-c4cccc(S(=O)(=O)[O-])c4F)c4nc(c(-c5cccc(S(=O)(=O)[O-])c5F)c5ccc2[nH]5)C=C4)C=C3)cc1)c1ccc(-c2ccccc2)c(F)c1
REMARK SMILES IDX 8 1 7 2 6 3 5 4 3 5 4 6 2 8 1 9 76 10 77 11 88 12 78 13
REMARK SMILES IDX 86 14 79 15 87 16 80 17 81 18 85 19 82 20 84 21 83 22 9 23
REMARK SMILES IDX 10 24 11 25 12 27 13 28 14 29 75 30 15 31 74 32 16 33 17 34
REMARK SMILES IDX 18 35 68 36 19 37 73 38 67 39 69 40 20 41 72 42 66 43 65 44
REMARK SMILES IDX 21 46 53 47 33 48 52 49 34 50 37 51 51 52 70 53 35 54 36 55
REMARK SMILES IDX 50 57 71 58 38 59 22 60 23 61 31 62 24 63 26 64 32 65 25 66
REMARK SMILES IDX 27 67 28 68 29 69 30 70 54 71 55 72 63 73 56 74 58 75 64 76
REMARK SMILES IDX 57 77 59 78 60 79 61 80 62 81 39 82 40 83 48 84 41 85 43 86
REMARK SMILES IDX 49 87 42 88 44 89 45 90 46 91 47 92
REMARK H PARENT 5 7 10 26 69 45 37 56
REMARK Flexibility Score: inf
ROOT
ATOM      1  C   UNL A   1      41.016  19.928  27.301  1.00  0.00     0.023 C 
ENDROOT
BRANCH   1   2
ATOM      2  C   UNL A   1      42.338  19.613  26.596  1.00  0.00     0.023 C 
BRANCH   2   3
ATOM      3  C   UNL A   1      42.844  20.714  25.662  1.00  0.00     0.116 C 
BRANCH   3   4
ATOM      4  N   UNL A   1      44.292  20.757  25.639  1.00  0.00    -0.356 N 
ATOM      5  C   UNL A   1      45.139  21.826  25.607  1.00  0.00     0.227 C 
ATOM      6  O   UNL A   1      46.343  21.584  25.506  1.00  0.00    -0.274 OA
ATOM      7  H   UNL A   1      44.733  19.876  25.647  1.00  0.00     0.163 HD
BRANCH   5   8
ATOM      8  C   UNL A   1      44.585  23.256  25.747  1.00  0.00     0.105 C 
ATOM      9  C   UNL A   1      45.351  24.262  24.878  1.00  0.00     0.023 C 
BRANCH   8  10
ATOM     10  C   UNL A   1      44.546  23.698  27.211  1.00  0.00    -0.033 A 
ATOM     11  C   UNL A   1      43.373  23.523  27.962  1.00  0.00     0.005 A 
ATOM     12  C   UNL A   1      45.665  24.252  27.849  1.00  0.00     0.044 A 
ATOM     13  C   UNL A   1      43.312  23.930  29.302  1.00  0.00     0.012 A 
ATOM     14  C   UNL A   1      45.589  24.670  29.175  1.00  0.00     0.131 A 
ATOM     15  C   UNL A   1      44.417  24.529  29.928  1.00  0.00     0.017 A 
ATOM     16  F   UNL A   1      46.683  25.224  29.724  1.00  0.00    -0.206 F 
BRANCH  15  17
ATOM     17  C   UNL A   1      44.344  24.997  31.318  1.00  0.00    -0.015 A 
ATOM     18  C   UNL A   1      44.423  24.098  32.393  1.00  0.00     0.009 A 
ATOM     19  C   UNL A   1      44.203  26.364  31.607  1.00  0.00     0.009 A 
ATOM     20  C   UNL A   1      44.369  24.553  33.713  1.00  0.00     0.001 A 
ATOM     21  C   UNL A   1      44.145  26.821  32.924  1.00  0.00     0.001 A 
ATOM     22  C   UNL A   1      44.228  25.914  33.978  1.00  0.00     0.000 A 
ENDBRANCH  15  17
ENDBRANCH   8  10
ENDBRANCH   5   8
ENDBRANCH   3   4
ENDBRANCH   2   3
ENDBRANCH   1   2
BRANCH   1  23
ATOM     23  C   UNL A   1      40.617  21.399  27.306  1.00  0.00     0.116 C 
BRANCH  23  24
ATOM     24  N   UNL A   1      39.405  21.661  26.544  1.00  0.00    -0.352 N 
ATOM     25  C   UNL A   1      38.755  22.856  26.347  1.00  0.00     0.251 C 
ATOM     26  H   UNL A   1      38.995  20.877  26.111  1.00  0.00     0.163 HD
ATOM     27  O   UNL A   1      37.670  22.878  25.774  1.00  0.00    -0.269 OA
BRANCH  25  28
ATOM     28  C   UNL A   1      39.356  24.107  26.858  1.00  0.00     0.039 A 
ATOM     29  C   UNL A   1      40.074  24.920  25.978  1.00  0.00     0.014 A 
ATOM     30  C   UNL A   1      39.188  24.488  28.193  1.00  0.00     0.014 A 
ATOM     31  C   UNL A   1      40.567  26.149  26.420  1.00  0.00     0.010 A 
ATOM     32  C   UNL A   1      39.619  25.742  28.611  1.00  0.00     0.010 A 
ATOM     33  C   UNL A   1      40.314  26.585  27.732  1.00  0.00    -0.014 A 
BRANCH  33  34
ATOM     34  C   UNL A   1      40.751  27.926  28.198  1.00  0.00     0.031 A 
ATOM     35  C   UNL A   1      42.214  28.270  28.254  1.00  0.00     0.074 A 
ATOM     36  C   UNL A   1      39.835  28.800  28.661  1.00  0.00     0.049 A 
ATOM     37  N   UNL A   1      42.789  29.360  28.692  1.00  0.00    -0.248 NA
ATOM     38  C   UNL A   1      43.159  27.243  27.782  1.00  0.00     0.031 C 
ATOM     39  C   UNL A   1      38.393  28.552  28.737  1.00  0.00     0.029 A 
ATOM     40  N   UNL A   1      39.983  30.059  29.184  1.00  0.00    -0.354 N 
ATOM     41  C   UNL A   1      44.156  29.138  28.584  1.00  0.00     0.074 A 
ATOM     42  C   UNL A   1      44.327  27.797  28.071  1.00  0.00     0.031 C 
ATOM     43  C   UNL A   1      37.790  29.627  29.272  1.00  0.00     0.029 A 
ATOM     44  C   UNL A   1      38.801  30.627  29.603  1.00  0.00     0.049 A 
ATOM     45  H   UNL A   1      40.852  30.516  29.255  1.00  0.00     0.167 HD
ATOM     46  C   UNL A   1      45.177  29.985  28.859  1.00  0.00     0.034 A 
ATOM     47  C   UNL A   1      38.558  31.815  30.190  1.00  0.00     0.034 A 
ATOM     48  C   UNL A   1      45.002  31.335  29.323  1.00  0.00     0.049 A 
ATOM     49  C   UNL A   1      39.708  32.754  30.441  1.00  0.00     0.074 A 
ATOM     50  C   UNL A   1      45.968  32.301  29.540  1.00  0.00     0.029 A 
ATOM     51  N   UNL A   1      43.782  31.908  29.646  1.00  0.00    -0.354 N 
ATOM     52  N   UNL A   1      40.981  32.589  30.177  1.00  0.00    -0.248 NA
ATOM     53  C   UNL A   1      39.382  34.059  31.034  1.00  0.00     0.031 C 
ATOM     54  C   UNL A   1      45.332  33.456  30.011  1.00  0.00     0.029 A 
ATOM     55  C   UNL A   1      43.968  33.214  30.066  1.00  0.00     0.049 A 
ATOM     56  H   UNL A   1      42.911  31.454  29.584  1.00  0.00     0.167 HD
ATOM     57  C   UNL A   1      41.602  33.780  30.537  1.00  0.00     0.074 A 
ATOM     58  C   UNL A   1      40.562  34.665  31.018  1.00  0.00     0.031 C 
ATOM     59  C   UNL A   1      42.918  34.104  30.488  1.00  0.00     0.034 A 
BRANCH  46  60
ATOM     60  C   UNL A   1      46.579  29.496  28.604  1.00  0.00     0.023 A 
ATOM     61  C   UNL A   1      47.161  29.693  27.336  1.00  0.00     0.012 A 
ATOM     62  C   UNL A   1      47.340  28.898  29.627  1.00  0.00     0.148 A 
ATOM     63  C   UNL A   1      48.465  29.273  27.077  1.00  0.00     0.002 A 
ATOM     64  C   UNL A   1      48.655  28.521  29.376  1.00  0.00     0.091 A 
ATOM     65  F   UNL A   1      46.763  28.699  30.822  1.00  0.00    -0.205 F 
ATOM     66  C   UNL A   1      49.214  28.698  28.099  1.00  0.00     0.022 A 
BRANCH  64  67
ATOM     67  S   UNL A   1      49.728  27.843  30.646  1.00  0.00     0.127 S 
ATOM     68  O   UNL A   1      49.955  29.012  31.495  1.00  0.00    -0.237 OA
ATOM     69  O   UNL A   1      48.882  26.811  31.247  1.00  0.00    -0.237 OA
ATOM     70  O   UNL A   1      50.902  27.336  29.950  1.00  0.00    -0.744 OA
ENDBRANCH  64  67
ENDBRANCH  46  60
BRANCH  47  71
ATOM     71  C   UNL A   1      37.159  32.214  30.513  1.00  0.00     0.023 A 
ATOM     72  C   UNL A   1      36.668  32.007  31.817  1.00  0.00     0.012 A 
ATOM     73  C   UNL A   1      36.325  32.818  29.553  1.00  0.00     0.148 A 
ATOM     74  C   UNL A   1      35.362  32.367  32.151  1.00  0.00     0.002 A 
ATOM     75  C   UNL A   1      35.043  33.224  29.906  1.00  0.00     0.091 A 
ATOM     76  F   UNL A   1      36.807  32.994  28.313  1.00  0.00    -0.205 F 
ATOM     77  C   UNL A   1      34.553  32.984  31.200  1.00  0.00     0.022 A 
BRANCH  75  78
ATOM     78  S   UNL A   1      33.981  34.143  28.786  1.00  0.00     0.127 S 
ATOM     79  O   UNL A   1      34.883  35.188  28.310  1.00  0.00    -0.237 OA
ATOM     80  O   UNL A   1      33.637  33.125  27.793  1.00  0.00    -0.237 OA
ATOM     81  O   UNL A   1      32.857  34.592  29.596  1.00  0.00    -0.744 OA
ENDBRANCH  75  78
ENDBRANCH  47  71
BRANCH  59  82
ATOM     82  C   UNL A   1      43.314  35.487  30.934  1.00  0.00     0.023 A 
ATOM     83  C   UNL A   1      43.699  35.709  32.270  1.00  0.00     0.012 A 
ATOM     84  C   UNL A   1      43.380  36.548  30.008  1.00  0.00     0.148 A 
ATOM     85  C   UNL A   1      44.116  36.972  32.687  1.00  0.00     0.002 A 
ATOM     86  C   UNL A   1      43.842  37.793  30.420  1.00  0.00     0.091 A 
ATOM     87  F   UNL A   1      42.991  36.322  28.746  1.00  0.00    -0.205 F 
ATOM     88  C   UNL A   1      44.199  38.010  31.761  1.00  0.00     0.022 A 
BRANCH  86  89
ATOM     89  S   UNL A   1      44.073  39.159  29.276  1.00  0.00     0.127 S 
ATOM     90  O   UNL A   1      44.974  38.569  28.287  1.00  0.00    -0.237 OA
ATOM     91  O   UNL A   1      42.712  39.397  28.796  1.00  0.00    -0.237 OA
ATOM     92  O   UNL A   1      44.635  40.248  30.063  1.00  0.00    -0.744 OA
ENDBRANCH  86  89
ENDBRANCH  59  82
ENDBRANCH  33  34
ENDBRANCH  25  28
ENDBRANCH  23  24
ENDBRANCH   1  23
TORSDOF 16
ENDMDL
