MODEL 1
REMARK VINA RESULT:     -11.4      0.000      0.000
REMARK SMILES C[C@@H]1CN(C(=O)NC(=O)CCCCC(=O)NCCCCNC(=O)c2ccc(-c3c4nc(c(-c5cccc(S(=O)(=O)[O-])c5F)c5ccc([nH]5)c(-c5cccc(S(=O)(=O)[O-])c5F)c5nc(c(-c6cccc(S(=O)(=O)[O-])c6F)c6ccc3[nH]6)C=C5)C=C4)cc2)CCO1
REMARK SMILES IDX 17 1 16 2 14 3 15 4 13 6 12 7 11 8 10 9 8 10 5 11 6 12 7 13
REMARK SMILES IDX 9 15 4 16 1 17 2 18 3 19 89 20 88 21 87 22 18 23 19 24 20 25
REMARK SMILES IDX 21 26 22 27 23 29 24 30 25 31 86 32 26 33 85 34 27 35 28 36
REMARK SMILES IDX 29 37 79 38 30 39 84 40 78 41 80 42 31 43 83 44 77 45 76 46
REMARK SMILES IDX 32 48 64 49 44 50 63 51 45 52 48 53 62 54 81 55 46 56 47 57
REMARK SMILES IDX 61 59 82 60 49 61 33 62 34 63 42 64 35 65 37 66 43 67 36 68
REMARK SMILES IDX 38 69 39 70 40 71 41 72 65 73 66 74 74 75 67 76 69 77 75 78
REMARK SMILES IDX 68 79 70 80 71 81 72 82 73 83 50 84 51 85 59 86 52 87 54 88
REMARK SMILES IDX 60 89 53 90 55 91 56 92 57 93 58 94
REMARK H PARENT 16 5 7 14 21 28 80 47 48 58
REMARK Flexibility Score: inf
ROOT
ATOM      1  C   UNL A   1      33.064  27.565  25.778  1.00  0.00     0.116 C 
ENDROOT
BRANCH   1   2
ATOM      2  N   UNL A   1      31.667  27.389  25.473  1.00  0.00    -0.356 N 
ATOM      3  C   UNL A   1      31.071  26.421  24.722  1.00  0.00     0.219 C 
ATOM      4  O   UNL A   1      29.867  26.510  24.485  1.00  0.00    -0.275 OA
ATOM      5  H   UNL A   1      31.060  28.061  25.859  1.00  0.00     0.163 HD
BRANCH   3   6
ATOM      6  C   UNL A   1      31.869  25.216  24.264  1.00  0.00     0.100 C 
BRANCH   6   7
ATOM      7  C   UNL A   1      32.130  24.103  25.274  1.00  0.00     0.010 C 
BRANCH   7   8
ATOM      8  C   UNL A   1      33.500  24.051  25.967  1.00  0.00     0.010 C 
BRANCH   8   9
ATOM      9  C   UNL A   1      34.732  23.687  25.136  1.00  0.00     0.100 C 
BRANCH   9  10
ATOM     10  C   UNL A   1      35.900  23.072  25.870  1.00  0.00     0.227 C 
ATOM     11  C   UNL A   1      35.882  20.752  25.244  1.00  0.00     0.324 C 
ATOM     12  O   UNL A   1      36.971  20.457  24.753  1.00  0.00    -0.248 OA
ATOM     13  N   UNL A   1      35.822  21.735  26.192  1.00  0.00    -0.278 N 
ATOM     14  H   UNL A   1      35.720  21.479  27.138  1.00  0.00     0.174 HD
ATOM     15  O   UNL A   1      36.842  23.753  26.274  1.00  0.00    -0.275 OA
BRANCH  11  16
ATOM     16  N   UNL A   1      34.735  20.010  25.008  1.00  0.00    -0.320 N 
ATOM     17  C   UNL A   1      33.377  16.589  23.940  1.00  0.00     0.040 C 
ATOM     18  C   UNL A   1      33.356  18.112  24.037  1.00  0.00     0.134 C 
ATOM     19  C   UNL A   1      34.724  18.628  24.509  1.00  0.00     0.153 C 
ATOM     20  O   UNL A   1      32.332  18.455  24.979  1.00  0.00    -0.375 OA
ATOM     21  C   UNL A   1      32.219  19.874  25.095  1.00  0.00     0.182 C 
ATOM     22  C   UNL A   1      33.502  20.488  25.649  1.00  0.00     0.150 C 
ENDBRANCH  11  16
ENDBRANCH   9  10
ENDBRANCH   8   9
ENDBRANCH   7   8
ENDBRANCH   6   7
ENDBRANCH   3   6
ENDBRANCH   1   2
BRANCH   1  23
ATOM     23  C   UNL A   1      33.552  28.950  25.373  1.00  0.00     0.023 C 
BRANCH  23  24
ATOM     24  C   UNL A   1      32.500  30.031  25.584  1.00  0.00     0.023 C 
BRANCH  24  25
ATOM     25  C   UNL A   1      32.412  30.537  27.019  1.00  0.00     0.116 C 
BRANCH  25  26
ATOM     26  N   UNL A   1      32.454  31.993  27.113  1.00  0.00    -0.352 N 
ATOM     27  C   UNL A   1      33.483  32.775  27.592  1.00  0.00     0.251 C 
ATOM     28  H   UNL A   1      31.654  32.473  26.799  1.00  0.00     0.163 HD
ATOM     29  O   UNL A   1      33.367  33.980  27.722  1.00  0.00    -0.269 OA
BRANCH  27  30
ATOM     30  C   UNL A   1      34.730  32.080  27.963  1.00  0.00     0.039 A 
ATOM     31  C   UNL A   1      35.910  32.815  28.080  1.00  0.00     0.014 A 
ATOM     32  C   UNL A   1      34.658  30.747  28.372  1.00  0.00     0.014 A 
ATOM     33  C   UNL A   1      37.019  32.222  28.685  1.00  0.00     0.010 A 
ATOM     34  C   UNL A   1      35.735  30.193  29.045  1.00  0.00     0.010 A 
ATOM     35  C   UNL A   1      36.926  30.922  29.207  1.00  0.00    -0.014 A 
BRANCH  35  36
ATOM     36  C   UNL A   1      38.054  30.276  29.920  1.00  0.00     0.031 A 
ATOM     37  C   UNL A   1      38.336  30.672  31.343  1.00  0.00     0.074 A 
ATOM     38  C   UNL A   1      38.892  29.450  29.262  1.00  0.00     0.049 A 
ATOM     39  N   UNL A   1      39.361  30.374  32.095  1.00  0.00    -0.248 NA
ATOM     40  C   UNL A   1      37.356  31.566  31.985  1.00  0.00     0.031 C 
ATOM     41  C   UNL A   1      38.770  29.055  27.858  1.00  0.00     0.029 A 
ATOM     42  N   UNL A   1      40.041  28.826  29.682  1.00  0.00    -0.354 N 
ATOM     43  C   UNL A   1      39.182  31.092  33.270  1.00  0.00     0.074 A 
ATOM     44  C   UNL A   1      37.969  31.864  33.120  1.00  0.00     0.031 C 
ATOM     45  C   UNL A   1      39.801  28.258  27.533  1.00  0.00     0.029 A 
ATOM     46  C   UNL A   1      40.675  28.110  28.693  1.00  0.00     0.049 A 
ATOM     47  H   UNL A   1      40.380  28.887  30.604  1.00  0.00     0.167 HD
ATOM     48  C   UNL A   1      39.942  31.086  34.390  1.00  0.00     0.034 A 
ATOM     49  C   UNL A   1      41.831  27.418  28.721  1.00  0.00     0.034 A 
ATOM     50  C   UNL A   1      41.097  30.251  34.565  1.00  0.00     0.049 A 
ATOM     51  C   UNL A   1      42.609  27.349  30.009  1.00  0.00     0.074 A 
ATOM     52  C   UNL A   1      41.878  30.088  35.693  1.00  0.00     0.029 A 
ATOM     53  N   UNL A   1      41.627  29.427  33.585  1.00  0.00    -0.354 N 
ATOM     54  N   UNL A   1      42.346  27.920  31.160  1.00  0.00    -0.248 NA
ATOM     55  C   UNL A   1      43.820  26.515  30.016  1.00  0.00     0.031 C 
ATOM     56  C   UNL A   1      42.883  29.163  35.395  1.00  0.00     0.029 A 
ATOM     57  C   UNL A   1      42.721  28.743  34.084  1.00  0.00     0.049 A 
ATOM     58  H   UNL A   1      41.278  29.341  32.668  1.00  0.00     0.167 HD
ATOM     59  C   UNL A   1      43.331  27.480  32.039  1.00  0.00     0.074 A 
ATOM     60  C   UNL A   1      44.190  26.588  31.288  1.00  0.00     0.031 C 
ATOM     61  C   UNL A   1      43.514  27.797  33.343  1.00  0.00     0.034 A 
BRANCH  48  62
ATOM     62  C   UNL A   1      39.501  31.959  35.533  1.00  0.00     0.023 A 
ATOM     63  C   UNL A   1      39.900  33.312  35.565  1.00  0.00     0.012 A 
ATOM     64  C   UNL A   1      38.678  31.456  36.557  1.00  0.00     0.148 A 
ATOM     65  C   UNL A   1      39.521  34.139  36.621  1.00  0.00     0.002 A 
ATOM     66  C   UNL A   1      38.267  32.299  37.584  1.00  0.00     0.091 A 
ATOM     67  F   UNL A   1      38.332  30.161  36.526  1.00  0.00    -0.205 F 
ATOM     68  C   UNL A   1      38.697  33.636  37.624  1.00  0.00     0.022 A 
BRANCH  66  69
ATOM     69  S   UNL A   1      37.142  31.760  38.876  1.00  0.00     0.127 S 
ATOM     70  O   UNL A   1      37.962  31.938  40.074  1.00  0.00    -0.237 OA
ATOM     71  O   UNL A   1      36.038  32.713  38.746  1.00  0.00    -0.237 OA
ATOM     72  O   UNL A   1      36.793  30.384  38.548  1.00  0.00    -0.744 OA
ENDBRANCH  66  69
ENDBRANCH  48  62
BRANCH  49  73
ATOM     73  C   UNL A   1      42.274  26.661  27.516  1.00  0.00     0.023 A 
ATOM     74  C   UNL A   1      43.001  27.334  26.514  1.00  0.00     0.012 A 
ATOM     75  C   UNL A   1      42.020  25.284  27.370  1.00  0.00     0.148 A 
ATOM     76  C   UNL A   1      43.443  26.658  25.377  1.00  0.00     0.002 A 
ATOM     77  C   UNL A   1      42.506  24.605  26.257  1.00  0.00     0.091 A 
ATOM     78  F   UNL A   1      41.318  24.662  28.328  1.00  0.00    -0.205 F 
ATOM     79  C   UNL A   1      43.204  25.293  25.253  1.00  0.00     0.022 A 
BRANCH  77  80
ATOM     80  S   UNL A   1      42.359  22.823  26.075  1.00  0.00     0.127 S 
ATOM     81  O   UNL A   1      43.113  22.341  27.228  1.00  0.00    -0.237 OA
ATOM     82  O   UNL A   1      40.911  22.629  26.160  1.00  0.00    -0.237 OA
ATOM     83  O   UNL A   1      42.928  22.516  24.770  1.00  0.00    -0.744 OA
ENDBRANCH  77  80
ENDBRANCH  49  73
BRANCH  61  84
ATOM     84  C   UNL A   1      44.651  27.142  34.077  1.00  0.00     0.023 A 
ATOM     85  C   UNL A   1      45.912  27.766  34.113  1.00  0.00     0.012 A 
ATOM     86  C   UNL A   1      44.433  25.971  34.830  1.00  0.00     0.148 A 
ATOM     87  C   UNL A   1      46.945  27.226  34.877  1.00  0.00     0.002 A 
ATOM     88  C   UNL A   1      45.454  25.463  35.623  1.00  0.00     0.091 A 
ATOM     89  F   UNL A   1      43.229  25.383  34.763  1.00  0.00    -0.205 F 
ATOM     90  C   UNL A   1      46.713  26.085  35.642  1.00  0.00     0.022 A 
BRANCH  88  91
ATOM     91  S   UNL A   1      45.212  24.057  36.714  1.00  0.00     0.127 S 
ATOM     92  O   UNL A   1      46.576  23.788  37.162  1.00  0.00    -0.237 OA
ATOM     93  O   UNL A   1      44.329  24.609  37.743  1.00  0.00    -0.237 OA
ATOM     94  O   UNL A   1      44.604  23.015  35.896  1.00  0.00    -0.744 OA
ENDBRANCH  88  91
ENDBRANCH  61  84
ENDBRANCH  35  36
ENDBRANCH  27  30
ENDBRANCH  25  26
ENDBRANCH  24  25
ENDBRANCH  23  24
ENDBRANCH   1  23
TORSDOF 19
ENDMDL
MODEL 2
REMARK VINA RESULT:     -11.3      1.950      7.938
REMARK SMILES C[C@@H]1CN(C(=O)NC(=O)CCCCC(=O)NCCCCNC(=O)c2ccc(-c3c4nc(c(-c5cccc(S(=O)(=O)[O-])c5F)c5ccc([nH]5)c(-c5cccc(S(=O)(=O)[O-])c5F)c5nc(c(-c6cccc(S(=O)(=O)[O-])c6F)c6ccc3[nH]6)C=C5)C=C4)cc2)CCO1
REMARK SMILES IDX 17 1 16 2 14 3 15 4 13 6 12 7 11 8 10 9 8 10 5 11 6 12 7 13
REMARK SMILES IDX 9 15 4 16 1 17 2 18 3 19 89 20 88 21 87 22 18 23 19 24 20 25
REMARK SMILES IDX 21 26 22 27 23 29 24 30 25 31 86 32 26 33 85 34 27 35 28 36
REMARK SMILES IDX 29 37 79 38 30 39 84 40 78 41 80 42 31 43 83 44 77 45 76 46
REMARK SMILES IDX 32 48 64 49 44 50 63 51 45 52 48 53 62 54 81 55 46 56 47 57
REMARK SMILES IDX 61 59 82 60 49 61 33 62 34 63 42 64 35 65 37 66 43 67 36 68
REMARK SMILES IDX 38 69 39 70 40 71 41 72 65 73 66 74 74 75 67 76 69 77 75 78
REMARK SMILES IDX 68 79 70 80 71 81 72 82 73 83 50 84 51 85 59 86 52 87 54 88
REMARK SMILES IDX 60 89 53 90 55 91 56 92 57 93 58 94
REMARK H PARENT 16 5 7 14 21 28 80 47 48 58
REMARK Flexibility Score: inf
ROOT
ATOM      1  C   UNL A   1      32.805  29.246  25.048  1.00  0.00     0.116 C 
ENDROOT
BRANCH   1   2
ATOM      2  N   UNL A   1      32.016  28.652  23.999  1.00  0.00    -0.356 N 
ATOM      3  C   UNL A   1      32.265  27.525  23.275  1.00  0.00     0.219 C 
ATOM      4  O   UNL A   1      31.519  27.243  22.339  1.00  0.00    -0.275 OA
ATOM      5  H   UNL A   1      31.183  29.126  23.773  1.00  0.00     0.163 HD
BRANCH   3   6
ATOM      6  C   UNL A   1      33.394  26.596  23.679  1.00  0.00     0.100 C 
BRANCH   6   7
ATOM      7  C   UNL A   1      33.140  25.610  24.814  1.00  0.00     0.010 C 
BRANCH   7   8
ATOM      8  C   UNL A   1      34.345  25.079  25.606  1.00  0.00     0.010 C 
BRANCH   8   9
ATOM      9  C   UNL A   1      35.344  24.161  24.898  1.00  0.00     0.100 C 
BRANCH   9  10
ATOM     10  C   UNL A   1      36.351  23.442  25.764  1.00  0.00     0.227 C 
ATOM     11  C   UNL A   1      35.969  21.105  25.361  1.00  0.00     0.324 C 
ATOM     12  O   UNL A   1      37.014  20.584  24.975  1.00  0.00    -0.248 OA
ATOM     13  N   UNL A   1      36.029  22.178  26.206  1.00  0.00    -0.278 N 
ATOM     14  H   UNL A   1      35.837  22.042  27.162  1.00  0.00     0.174 HD
ATOM     15  O   UNL A   1      37.373  23.998  26.164  1.00  0.00    -0.275 OA
BRANCH  11  16
ATOM     16  N   UNL A   1      34.724  20.541  25.119  1.00  0.00    -0.320 N 
ATOM     17  C   UNL A   1      32.870  17.326  24.167  1.00  0.00     0.040 C 
ATOM     18  C   UNL A   1      33.089  18.836  24.190  1.00  0.00     0.134 C 
ATOM     19  C   UNL A   1      34.508  19.154  24.686  1.00  0.00     0.153 C 
ATOM     20  O   UNL A   1      32.107  19.385  25.078  1.00  0.00    -0.375 OA
ATOM     21  C   UNL A   1      32.218  20.808  25.122  1.00  0.00     0.182 C 
ATOM     22  C   UNL A   1      33.566  21.241  25.692  1.00  0.00     0.150 C 
ENDBRANCH  11  16
ENDBRANCH   9  10
ENDBRANCH   8   9
ENDBRANCH   7   8
ENDBRANCH   6   7
ENDBRANCH   3   6
ENDBRANCH   1   2
BRANCH   1  23
ATOM     23  C   UNL A   1      32.027  30.331  25.782  1.00  0.00     0.023 C 
BRANCH  23  24
ATOM     24  C   UNL A   1      32.517  30.545  27.208  1.00  0.00     0.023 C 
BRANCH  24  25
ATOM     25  C   UNL A   1      33.536  31.669  27.351  1.00  0.00     0.116 C 
BRANCH  25  26
ATOM     26  N   UNL A   1      32.919  32.987  27.463  1.00  0.00    -0.352 N 
ATOM     27  C   UNL A   1      33.202  33.973  28.384  1.00  0.00     0.251 C 
ATOM     28  H   UNL A   1      32.217  33.196  26.805  1.00  0.00     0.163 HD
ATOM     29  O   UNL A   1      32.549  34.998  28.449  1.00  0.00    -0.269 OA
BRANCH  27  30
ATOM     30  C   UNL A   1      34.324  33.719  29.306  1.00  0.00     0.039 A 
ATOM     31  C   UNL A   1      34.128  32.880  30.404  1.00  0.00     0.014 A 
ATOM     32  C   UNL A   1      35.599  34.169  28.952  1.00  0.00     0.014 A 
ATOM     33  C   UNL A   1      35.238  32.427  31.117  1.00  0.00     0.010 A 
ATOM     34  C   UNL A   1      36.701  33.650  29.612  1.00  0.00     0.010 A 
ATOM     35  C   UNL A   1      36.533  32.776  30.701  1.00  0.00    -0.014 A 
BRANCH  35  36
ATOM     36  C   UNL A   1      37.746  32.262  31.383  1.00  0.00     0.031 A 
ATOM     37  C   UNL A   1      38.526  31.152  30.736  1.00  0.00     0.074 A 
ATOM     38  C   UNL A   1      38.064  32.690  32.620  1.00  0.00     0.049 A 
ATOM     39  N   UNL A   1      39.504  30.437  31.225  1.00  0.00    -0.248 NA
ATOM     40  C   UNL A   1      38.116  30.762  29.376  1.00  0.00     0.031 C 
ATOM     41  C   UNL A   1      37.335  33.704  33.384  1.00  0.00     0.029 A 
ATOM     42  N   UNL A   1      39.064  32.291  33.472  1.00  0.00    -0.354 N 
ATOM     43  C   UNL A   1      39.779  29.474  30.262  1.00  0.00     0.074 A 
ATOM     44  C   UNL A   1      38.848  29.677  29.176  1.00  0.00     0.031 C 
ATOM     45  C   UNL A   1      37.911  33.847  34.590  1.00  0.00     0.029 A 
ATOM     46  C   UNL A   1      39.029  32.915  34.698  1.00  0.00     0.049 A 
ATOM     47  H   UNL A   1      39.743  31.621  33.228  1.00  0.00     0.167 HD
ATOM     48  C   UNL A   1      40.744  28.526  30.266  1.00  0.00     0.034 A 
ATOM     49  C   UNL A   1      39.808  32.747  35.785  1.00  0.00     0.034 A 
ATOM     50  C   UNL A   1      41.721  28.387  31.309  1.00  0.00     0.049 A 
ATOM     51  C   UNL A   1      40.936  31.750  35.728  1.00  0.00     0.074 A 
ATOM     52  C   UNL A   1      42.804  27.530  31.364  1.00  0.00     0.029 A 
ATOM     53  N   UNL A   1      41.740  29.136  32.474  1.00  0.00    -0.354 N 
ATOM     54  N   UNL A   1      41.275  30.948  34.748  1.00  0.00    -0.248 NA
ATOM     55  C   UNL A   1      41.811  31.661  36.906  1.00  0.00     0.031 C 
ATOM     56  C   UNL A   1      43.480  27.762  32.566  1.00  0.00     0.029 A 
ATOM     57  C   UNL A   1      42.822  28.770  33.253  1.00  0.00     0.049 A 
ATOM     58  H   UNL A   1      41.080  29.826  32.713  1.00  0.00     0.167 HD
ATOM     59  C   UNL A   1      42.425  30.290  35.172  1.00  0.00     0.074 A 
ATOM     60  C   UNL A   1      42.729  30.797  36.495  1.00  0.00     0.031 C 
ATOM     61  C   UNL A   1      43.154  29.344  34.532  1.00  0.00     0.034 A 
BRANCH  48  62
ATOM     62  C   UNL A   1      40.828  27.616  29.071  1.00  0.00     0.023 A 
ATOM     63  C   UNL A   1      40.005  26.472  29.013  1.00  0.00     0.012 A 
ATOM     64  C   UNL A   1      41.694  27.900  27.999  1.00  0.00     0.148 A 
ATOM     65  C   UNL A   1      40.074  25.602  27.926  1.00  0.00     0.002 A 
ATOM     66  C   UNL A   1      41.725  27.051  26.898  1.00  0.00     0.091 A 
ATOM     67  F   UNL A   1      42.489  28.976  28.083  1.00  0.00    -0.205 F 
ATOM     68  C   UNL A   1      40.925  25.897  26.865  1.00  0.00     0.022 A 
BRANCH  66  69
ATOM     69  S   UNL A   1      42.732  27.392  25.451  1.00  0.00     0.127 S 
ATOM     70  O   UNL A   1      44.051  27.596  26.050  1.00  0.00    -0.237 OA
ATOM     71  O   UNL A   1      42.598  26.155  24.679  1.00  0.00    -0.237 OA
ATOM     72  O   UNL A   1      42.137  28.563  24.820  1.00  0.00    -0.744 OA
ENDBRANCH  66  69
ENDBRANCH  48  62
BRANCH  49  73
ATOM     73  C   UNL A   1      39.603  33.606  36.986  1.00  0.00     0.023 A 
ATOM     74  C   UNL A   1      40.078  34.932  36.968  1.00  0.00     0.012 A 
ATOM     75  C   UNL A   1      38.915  33.140  38.122  1.00  0.00     0.148 A 
ATOM     76  C   UNL A   1      39.895  35.770  38.069  1.00  0.00     0.002 A 
ATOM     77  C   UNL A   1      38.692  33.996  39.197  1.00  0.00     0.091 A 
ATOM     78  F   UNL A   1      38.479  31.872  38.126  1.00  0.00    -0.205 F 
ATOM     79  C   UNL A   1      39.195  35.306  39.178  1.00  0.00     0.022 A 
BRANCH  77  80
ATOM     80  S   UNL A   1      37.691  33.526  40.612  1.00  0.00     0.127 S 
ATOM     81  O   UNL A   1      37.625  34.777  41.361  1.00  0.00    -0.237 OA
ATOM     82  O   UNL A   1      36.437  33.121  39.975  1.00  0.00    -0.237 OA
ATOM     83  O   UNL A   1      38.413  32.437  41.257  1.00  0.00    -0.744 OA
ENDBRANCH  77  80
ENDBRANCH  49  73
BRANCH  61  84
ATOM     84  C   UNL A   1      44.389  28.823  35.211  1.00  0.00     0.023 A 
ATOM     85  C   UNL A   1      45.636  29.420  34.948  1.00  0.00     0.012 A 
ATOM     86  C   UNL A   1      44.291  27.823  36.199  1.00  0.00     0.148 A 
ATOM     87  C   UNL A   1      46.772  29.019  35.649  1.00  0.00     0.002 A 
ATOM     88  C   UNL A   1      45.419  27.461  36.924  1.00  0.00     0.091 A 
ATOM     89  F   UNL A   1      43.095  27.256  36.418  1.00  0.00    -0.205 F 
ATOM     90  C   UNL A   1      46.662  28.052  36.645  1.00  0.00     0.022 A 
BRANCH  88  91
ATOM     91  S   UNL A   1      45.347  26.296  38.291  1.00  0.00     0.127 S 
ATOM     92  O   UNL A   1      46.627  26.536  38.954  1.00  0.00    -0.237 OA
ATOM     93  O   UNL A   1      44.177  26.761  39.035  1.00  0.00    -0.237 OA
ATOM     94  O   UNL A   1      45.192  24.979  37.686  1.00  0.00    -0.744 OA
ENDBRANCH  88  91
ENDBRANCH  61  84
ENDBRANCH  35  36
ENDBRANCH  27  30
ENDBRANCH  25  26
ENDBRANCH  24  25
ENDBRANCH  23  24
ENDBRANCH   1  23
TORSDOF 19
ENDMDL
MODEL 3
REMARK VINA RESULT:     -11.2      2.884      4.444
REMARK SMILES C[C@@H]1CN(C(=O)NC(=O)CCCCC(=O)NCCCCNC(=O)c2ccc(-c3c4nc(c(-c5cccc(S(=O)(=O)[O-])c5F)c5ccc([nH]5)c(-c5cccc(S(=O)(=O)[O-])c5F)c5nc(c(-c6cccc(S(=O)(=O)[O-])c6F)c6ccc3[nH]6)C=C5)C=C4)cc2)CCO1
REMARK SMILES IDX 17 1 16 2 14 3 15 4 13 6 12 7 11 8 10 9 8 10 5 11 6 12 7 13
REMARK SMILES IDX 9 15 4 16 1 17 2 18 3 19 89 20 88 21 87 22 18 23 19 24 20 25
REMARK SMILES IDX 21 26 22 27 23 29 24 30 25 31 86 32 26 33 85 34 27 35 28 36
REMARK SMILES IDX 29 37 79 38 30 39 84 40 78 41 80 42 31 43 83 44 77 45 76 46
REMARK SMILES IDX 32 48 64 49 44 50 63 51 45 52 48 53 62 54 81 55 46 56 47 57
REMARK SMILES IDX 61 59 82 60 49 61 33 62 34 63 42 64 35 65 37 66 43 67 36 68
REMARK SMILES IDX 38 69 39 70 40 71 41 72 65 73 66 74 74 75 67 76 69 77 75 78
REMARK SMILES IDX 68 79 70 80 71 81 72 82 73 83 50 84 51 85 59 86 52 87 54 88
REMARK SMILES IDX 60 89 53 90 55 91 56 92 57 93 58 94
REMARK H PARENT 16 5 7 14 21 28 80 47 48 58
REMARK Flexibility Score: inf
ROOT
ATOM      1  C   UNL A   1      34.623  31.339  28.164  1.00  0.00     0.116 C 
ENDROOT
BRANCH   1   2
ATOM      2  N   UNL A   1      33.451  31.371  27.326  1.00  0.00    -0.356 N 
ATOM      3  C   UNL A   1      32.662  30.338  26.920  1.00  0.00     0.219 C 
ATOM      4  O   UNL A   1      31.765  30.559  26.107  1.00  0.00    -0.275 OA
ATOM      5  H   UNL A   1      33.185  32.262  27.003  1.00  0.00     0.163 HD
BRANCH   3   6
ATOM      6  C   UNL A   1      32.840  28.961  27.528  1.00  0.00     0.100 C 
BRANCH   6   7
ATOM      7  C   UNL A   1      33.167  27.801  26.594  1.00  0.00     0.010 C 
BRANCH   7   8
ATOM      8  C   UNL A   1      32.220  26.591  26.569  1.00  0.00     0.010 C 
BRANCH   8   9
ATOM      9  C   UNL A   1      31.737  26.064  25.216  1.00  0.00     0.100 C 
BRANCH   9  10
ATOM     10  C   UNL A   1      30.363  25.439  25.172  1.00  0.00     0.227 C 
ATOM     11  C   UNL A   1      30.564  23.395  26.419  1.00  0.00     0.324 C 
ATOM     12  O   UNL A   1      29.740  23.395  27.333  1.00  0.00    -0.248 OA
ATOM     13  N   UNL A   1      30.279  24.067  25.263  1.00  0.00    -0.278 N 
ATOM     14  H   UNL A   1      30.005  23.553  24.469  1.00  0.00     0.174 HD
ATOM     15  O   UNL A   1      29.354  26.108  24.948  1.00  0.00    -0.275 OA
BRANCH  11  16
ATOM     16  N   UNL A   1      31.696  22.594  26.440  1.00  0.00    -0.320 N 
ATOM     17  C   UNL A   1      33.696  19.940  24.533  1.00  0.00     0.040 C 
ATOM     18  C   UNL A   1      33.161  20.627  25.786  1.00  0.00     0.134 C 
ATOM     19  C   UNL A   1      32.034  21.602  25.411  1.00  0.00     0.153 C 
ATOM     20  O   UNL A   1      34.263  21.329  26.377  1.00  0.00    -0.375 OA
ATOM     21  C   UNL A   1      33.852  21.967  27.587  1.00  0.00     0.182 C 
ATOM     22  C   UNL A   1      32.790  23.031  27.319  1.00  0.00     0.150 C 
ENDBRANCH  11  16
ENDBRANCH   9  10
ENDBRANCH   8   9
ENDBRANCH   7   8
ENDBRANCH   6   7
ENDBRANCH   3   6
ENDBRANCH   1   2
BRANCH   1  23
ATOM     23  C   UNL A   1      34.621  32.486  29.167  1.00  0.00     0.023 C 
BRANCH  23  24
ATOM     24  C   UNL A   1      33.637  33.589  28.798  1.00  0.00     0.023 C 
BRANCH  24  25
ATOM     25  C   UNL A   1      34.055  34.975  29.275  1.00  0.00     0.116 C 
BRANCH  25  26
ATOM     26  N   UNL A   1      33.027  35.638  30.071  1.00  0.00    -0.352 N 
ATOM     27  C   UNL A   1      32.889  35.629  31.443  1.00  0.00     0.251 C 
ATOM     28  H   UNL A   1      32.351  36.150  29.570  1.00  0.00     0.163 HD
ATOM     29  O   UNL A   1      31.928  36.133  31.995  1.00  0.00    -0.269 OA
BRANCH  27  30
ATOM     30  C   UNL A   1      33.953  34.959  32.214  1.00  0.00     0.039 A 
ATOM     31  C   UNL A   1      33.700  33.709  32.779  1.00  0.00     0.014 A 
ATOM     32  C   UNL A   1      35.239  35.505  32.196  1.00  0.00     0.014 A 
ATOM     33  C   UNL A   1      34.769  32.960  33.272  1.00  0.00     0.010 A 
ATOM     34  C   UNL A   1      36.305  34.723  32.611  1.00  0.00     0.010 A 
ATOM     35  C   UNL A   1      36.082  33.445  33.154  1.00  0.00    -0.014 A 
BRANCH  35  36
ATOM     36  C   UNL A   1      37.257  32.656  33.598  1.00  0.00     0.031 A 
ATOM     37  C   UNL A   1      37.987  33.081  34.842  1.00  0.00     0.074 A 
ATOM     38  C   UNL A   1      37.740  31.662  32.829  1.00  0.00     0.049 A 
ATOM     39  N   UNL A   1      39.127  32.655  35.316  1.00  0.00    -0.248 NA
ATOM     40  C   UNL A   1      37.375  34.167  35.628  1.00  0.00     0.031 C 
ATOM     41  C   UNL A   1      37.167  31.211  31.559  1.00  0.00     0.029 A 
ATOM     42  N   UNL A   1      38.855  30.875  32.985  1.00  0.00    -0.354 N 
ATOM     43  C   UNL A   1      39.400  33.462  36.413  1.00  0.00     0.074 A 
ATOM     44  C   UNL A   1      38.323  34.421  36.517  1.00  0.00     0.031 C 
ATOM     45  C   UNL A   1      37.932  30.230  31.052  1.00  0.00     0.029 A 
ATOM     46  C   UNL A   1      39.067  30.002  31.942  1.00  0.00     0.049 A 
ATOM     47  H   UNL A   1      39.447  30.930  33.769  1.00  0.00     0.167 HD
ATOM     48  C   UNL A   1      40.436  33.391  37.279  1.00  0.00     0.034 A 
ATOM     49  C   UNL A   1      40.067  29.124  31.728  1.00  0.00     0.034 A 
ATOM     50  C   UNL A   1      41.455  32.381  37.221  1.00  0.00     0.049 A 
ATOM     51  C   UNL A   1      41.160  28.999  32.757  1.00  0.00     0.074 A 
ATOM     52  C   UNL A   1      42.491  32.153  38.107  1.00  0.00     0.029 A 
ATOM     53  N   UNL A   1      41.556  31.422  36.227  1.00  0.00    -0.354 N 
ATOM     54  N   UNL A   1      41.323  29.673  33.870  1.00  0.00    -0.248 NA
ATOM     55  C   UNL A   1      42.184  27.970  32.523  1.00  0.00     0.031 C 
ATOM     56  C   UNL A   1      43.221  31.052  37.647  1.00  0.00     0.029 A 
ATOM     57  C   UNL A   1      42.632  30.590  36.480  1.00  0.00     0.049 A 
ATOM     58  H   UNL A   1      40.952  31.343  35.453  1.00  0.00     0.167 HD
ATOM     59  C   UNL A   1      42.440  29.123  34.490  1.00  0.00     0.074 A 
ATOM     60  C   UNL A   1      42.908  28.053  33.632  1.00  0.00     0.031 C 
ATOM     61  C   UNL A   1      43.032  29.480  35.655  1.00  0.00     0.034 A 
BRANCH  48  62
ATOM     62  C   UNL A   1      40.474  34.393  38.401  1.00  0.00     0.023 A 
ATOM     63  C   UNL A   1      41.250  35.562  38.260  1.00  0.00     0.012 A 
ATOM     64  C   UNL A   1      39.729  34.195  39.578  1.00  0.00     0.148 A 
ATOM     65  C   UNL A   1      41.317  36.498  39.290  1.00  0.00     0.002 A 
ATOM     66  C   UNL A   1      39.765  35.155  40.583  1.00  0.00     0.091 A 
ATOM     67  F   UNL A   1      39.020  33.065  39.708  1.00  0.00    -0.205 F 
ATOM     68  C   UNL A   1      40.568  36.300  40.446  1.00  0.00     0.022 A 
BRANCH  66  69
ATOM     69  S   UNL A   1      38.773  35.023  42.074  1.00  0.00     0.127 S 
ATOM     70  O   UNL A   1      39.303  33.800  42.674  1.00  0.00    -0.237 OA
ATOM     71  O   UNL A   1      39.121  36.252  42.790  1.00  0.00    -0.237 OA
ATOM     72  O   UNL A   1      37.389  34.959  41.624  1.00  0.00    -0.744 OA
ENDBRANCH  66  69
ENDBRANCH  48  62
BRANCH  49  73
ATOM     73  C   UNL A   1      40.032  28.233  30.533  1.00  0.00     0.023 A 
ATOM     74  C   UNL A   1      39.124  27.155  30.511  1.00  0.00     0.012 A 
ATOM     75  C   UNL A   1      40.852  28.462  29.413  1.00  0.00     0.148 A 
ATOM     76  C   UNL A   1      39.054  26.306  29.406  1.00  0.00     0.002 A 
ATOM     77  C   UNL A   1      40.742  27.641  28.295  1.00  0.00     0.091 A 
ATOM     78  F   UNL A   1      41.717  29.486  29.457  1.00  0.00    -0.205 F 
ATOM     79  C   UNL A   1      39.854  26.554  28.295  1.00  0.00     0.022 A 
BRANCH  77  80
ATOM     80  S   UNL A   1      41.639  27.961  26.772  1.00  0.00     0.127 S 
ATOM     81  O   UNL A   1      43.027  27.853  27.213  1.00  0.00    -0.237 OA
ATOM     82  O   UNL A   1      41.178  26.869  25.913  1.00  0.00    -0.237 OA
ATOM     83  O   UNL A   1      41.212  29.284  26.338  1.00  0.00    -0.744 OA
ENDBRANCH  77  80
ENDBRANCH  49  73
BRANCH  61  84
ATOM     84  C   UNL A   1      44.219  28.682  36.118  1.00  0.00     0.023 A 
ATOM     85  C   UNL A   1      45.520  29.110  35.789  1.00  0.00     0.012 A 
ATOM     86  C   UNL A   1      44.046  27.581  36.980  1.00  0.00     0.148 A 
ATOM     87  C   UNL A   1      46.632  28.442  36.299  1.00  0.00     0.002 A 
ATOM     88  C   UNL A   1      45.159  26.949  37.520  1.00  0.00     0.091 A 
ATOM     89  F   UNL A   1      42.798  27.181  37.263  1.00  0.00    -0.205 F 
ATOM     90  C   UNL A   1      46.453  27.374  37.175  1.00  0.00     0.022 A 
BRANCH  88  91
ATOM     91  S   UNL A   1      45.020  25.630  38.731  1.00  0.00     0.127 S 
ATOM     92  O   UNL A   1      44.238  26.273  39.785  1.00  0.00    -0.237 OA
ATOM     93  O   UNL A   1      44.304  24.595  37.984  1.00  0.00    -0.237 OA
ATOM     94  O   UNL A   1      46.386  25.274  39.094  1.00  0.00    -0.744 OA
ENDBRANCH  88  91
ENDBRANCH  61  84
ENDBRANCH  35  36
ENDBRANCH  27  30
ENDBRANCH  25  26
ENDBRANCH  24  25
ENDBRANCH  23  24
ENDBRANCH   1  23
TORSDOF 19
ENDMDL
