MODEL 1
REMARK VINA RESULT:     -12.7      0.000      0.000
REMARK SMILES Cc1ccc(S(=O)(=O)n2cc(C(=O)C(=O)N[C@@H](Cc3c[nH]c4ccccc34)C(=O)NCC(=O)NCCCCNC(=O)c3ccc(-c4c5nc(c(-c6cccc(S(=O)(=O)[O-])c6F)c6ccc([nH]6)c(-c6cccc(S(=O)(=O)[O-])c6F)c6nc(c(-c7cccc(S(=O)(=O)[O-])c7F)c7ccc4[nH]7)C=C6)C=C5)cc3)c3ccccc32)cc1
REMARK SMILES IDX 32 1 33 2 34 3 31 5 30 6 28 7 29 8 17 10 16 11 14 12 15 13
REMARK SMILES IDX 12 15 13 16 11 17 9 18 10 19 110 20 105 21 109 22 106 23
REMARK SMILES IDX 108 24 107 25 6 26 7 27 8 28 5 29 1 30 2 31 3 32 112 33 4 34
REMARK SMILES IDX 111 35 18 36 19 37 20 38 27 39 21 40 22 41 26 42 23 44 25 45
REMARK SMILES IDX 24 46 35 47 36 48 37 49 38 50 39 51 40 52 41 54 42 55 43 56
REMARK SMILES IDX 104 57 44 58 103 59 45 60 46 61 47 62 97 63 48 64 102 65
REMARK SMILES IDX 96 66 98 67 49 68 101 69 95 70 94 71 50 73 82 74 62 75 81 76
REMARK SMILES IDX 63 77 66 78 80 79 99 80 64 81 65 82 79 84 100 85 67 86 51 87
REMARK SMILES IDX 52 88 60 89 53 90 55 91 61 92 54 93 56 94 57 95 58 96 59 97
REMARK SMILES IDX 83 98 84 99 92 100 85 101 87 102 93 103 86 104 88 105 89 106
REMARK SMILES IDX 90 107 91 108 68 109 69 110 77 111 70 112 72 113 78 114
REMARK SMILES IDX 71 115 73 116 74 117 75 118 76 119
REMARK H PARENT 34 4 30 9 16 14 21 43 39 53 98 72 66 83
REMARK Flexibility Score: inf
ROOT
ATOM      1  C   UNL A   1      34.625  30.470  27.835  1.00  0.00     0.239 C 
ATOM      2  O   UNL A   1      35.615  29.975  28.376  1.00  0.00    -0.273 OA
ATOM      3  N   UNL A   1      34.281  31.760  28.118  1.00  0.00    -0.355 N 
ATOM      4  H   UNL A   1      34.887  32.259  28.712  1.00  0.00     0.163 HD
ENDROOT
BRANCH   1   5
ATOM      5  C   UNL A   1      33.898  29.769  26.688  1.00  0.00     0.216 C 
BRANCH   5   6
ATOM      6  N   UNL A   1      32.745  28.923  26.942  1.00  0.00    -0.345 N 
ATOM      7  C   UNL A   1      31.780  28.442  26.104  1.00  0.00     0.243 C 
ATOM      8  O   UNL A   1      31.109  27.511  26.573  1.00  0.00    -0.273 OA
ATOM      9  H   UNL A   1      32.642  28.648  27.881  1.00  0.00     0.164 HD
BRANCH   7  10
ATOM     10  C   UNL A   1      31.498  28.932  24.631  1.00  0.00     0.176 C 
BRANCH  10  11
ATOM     11  N   UNL A   1      32.671  29.097  23.733  1.00  0.00    -0.337 N 
ATOM     12  C   UNL A   1      33.385  28.197  22.931  1.00  0.00     0.293 C 
ATOM     13  O   UNL A   1      34.380  28.599  22.332  1.00  0.00    -0.265 OA
ATOM     14  H   UNL A   1      33.013  30.020  23.694  1.00  0.00     0.164 HD
BRANCH  12  15
ATOM     15  C   UNL A   1      32.930  26.733  22.734  1.00  0.00     0.252 C 
ATOM     16  O   UNL A   1      32.157  26.560  21.789  1.00  0.00    -0.283 OA
BRANCH  15  17
ATOM     17  C   UNL A   1      33.324  25.580  23.608  1.00  0.00     0.054 A 
ATOM     18  N   UNL A   1      34.440  23.968  24.828  1.00  0.00    -0.240 N 
ATOM     19  C   UNL A   1      34.541  24.907  23.796  1.00  0.00     0.117 A 
ATOM     20  C   UNL A   1      33.189  24.229  25.429  1.00  0.00     0.065 A 
ATOM     21  C   UNL A   1      32.418  24.902  24.480  1.00  0.00     0.012 A 
ATOM     22  C   UNL A   1      32.615  23.700  26.601  1.00  0.00     0.028 A 
ATOM     23  C   UNL A   1      31.014  24.852  24.611  1.00  0.00     0.011 A 
ATOM     24  C   UNL A   1      31.232  23.599  26.666  1.00  0.00     0.002 A 
ATOM     25  C   UNL A   1      30.439  24.128  25.660  1.00  0.00     0.001 A 
BRANCH  18  26
ATOM     26  S   UNL A   1      34.860  22.248  25.028  1.00  0.00     0.268 S 
ATOM     27  O   UNL A   1      35.362  22.258  26.397  1.00  0.00    -0.201 OA
ATOM     28  O   UNL A   1      35.789  22.138  23.903  1.00  0.00    -0.201 OA
BRANCH  26  29
ATOM     29  C   UNL A   1      34.167  20.621  24.901  1.00  0.00     0.088 A 
ATOM     30  C   UNL A   1      33.384  16.337  24.475  1.00  0.00     0.044 C 
ATOM     31  C   UNL A   1      33.645  17.809  24.632  1.00  0.00    -0.051 A 
ATOM     32  C   UNL A   1      34.946  18.281  24.571  1.00  0.00     0.005 A 
ATOM     33  C   UNL A   1      32.616  18.745  24.810  1.00  0.00     0.005 A 
ATOM     34  C   UNL A   1      35.193  19.647  24.731  1.00  0.00     0.022 A 
ATOM     35  C   UNL A   1      32.876  20.143  24.886  1.00  0.00     0.022 A 
ENDBRANCH  26  29
ENDBRANCH  18  26
ENDBRANCH  15  17
ENDBRANCH  12  15
ENDBRANCH  10  11
BRANCH  10  36
ATOM     36  C   UNL A   1      30.273  28.254  23.936  1.00  0.00     0.072 C 
BRANCH  36  37
ATOM     37  C   UNL A   1      29.214  29.115  23.288  1.00  0.00    -0.020 A 
ATOM     38  C   UNL A   1      28.243  28.660  22.407  1.00  0.00     0.087 A 
ATOM     39  C   UNL A   1      29.031  30.542  23.380  1.00  0.00     0.003 A 
ATOM     40  N   UNL A   1      27.588  29.743  21.881  1.00  0.00    -0.361 N 
ATOM     41  C   UNL A   1      28.133  30.905  22.371  1.00  0.00     0.046 A 
ATOM     42  C   UNL A   1      29.654  31.575  24.110  1.00  0.00     0.010 A 
ATOM     43  H   UNL A   1      26.838  29.695  21.244  1.00  0.00     0.166 HD
ATOM     44  C   UNL A   1      27.932  32.231  21.970  1.00  0.00     0.026 A 
ATOM     45  C   UNL A   1      29.482  32.906  23.708  1.00  0.00     0.001 A 
ATOM     46  C   UNL A   1      28.655  33.224  22.634  1.00  0.00     0.002 A 
ENDBRANCH  36  37
ENDBRANCH  10  36
ENDBRANCH   7  10
ENDBRANCH   5   6
ENDBRANCH   1   5
BRANCH   3  47
ATOM     47  C   UNL A   1      33.120  32.466  27.633  1.00  0.00     0.116 C 
BRANCH  47  48
ATOM     48  C   UNL A   1      33.155  33.938  28.037  1.00  0.00     0.023 C 
BRANCH  48  49
ATOM     49  C   UNL A   1      34.277  34.273  29.022  1.00  0.00     0.023 C 
BRANCH  49  50
ATOM     50  C   UNL A   1      33.751  34.512  30.422  1.00  0.00     0.116 C 
BRANCH  50  51
ATOM     51  N   UNL A   1      34.737  35.071  31.311  1.00  0.00    -0.352 N 
ATOM     52  C   UNL A   1      35.688  34.441  32.076  1.00  0.00     0.251 C 
ATOM     53  H   UNL A   1      34.727  36.053  31.381  1.00  0.00     0.163 HD
ATOM     54  O   UNL A   1      36.215  35.120  32.963  1.00  0.00    -0.269 OA
BRANCH  52  55
ATOM     55  C   UNL A   1      36.207  33.080  31.752  1.00  0.00     0.039 A 
ATOM     56  C   UNL A   1      36.595  32.278  32.835  1.00  0.00     0.014 A 
ATOM     57  C   UNL A   1      36.632  32.726  30.475  1.00  0.00     0.014 A 
ATOM     58  C   UNL A   1      37.643  31.380  32.685  1.00  0.00     0.010 A 
ATOM     59  C   UNL A   1      37.742  31.937  30.339  1.00  0.00     0.010 A 
ATOM     60  C   UNL A   1      38.306  31.364  31.471  1.00  0.00    -0.014 A 
BRANCH  60  61
ATOM     61  C   UNL A   1      39.602  30.778  31.228  1.00  0.00     0.031 A 
ATOM     62  C   UNL A   1      39.690  29.332  31.048  1.00  0.00     0.074 A 
ATOM     63  C   UNL A   1      40.572  31.648  30.870  1.00  0.00     0.049 A 
ATOM     64  N   UNL A   1      40.790  28.688  30.908  1.00  0.00    -0.248 NA
ATOM     65  C   UNL A   1      38.500  28.487  31.012  1.00  0.00     0.031 C 
ATOM     66  C   UNL A   1      41.840  31.421  30.185  1.00  0.00     0.029 A 
ATOM     67  N   UNL A   1      40.712  32.942  31.393  1.00  0.00    -0.354 N 
ATOM     68  C   UNL A   1      40.445  27.463  30.380  1.00  0.00     0.074 A 
ATOM     69  C   UNL A   1      39.038  27.323  30.642  1.00  0.00     0.031 C 
ATOM     70  C   UNL A   1      42.731  32.329  30.635  1.00  0.00     0.029 A 
ATOM     71  C   UNL A   1      42.072  32.979  31.759  1.00  0.00     0.049 A 
ATOM     72  H   UNL A   1      40.031  33.646  31.483  1.00  0.00     0.167 HD
ATOM     73  C   UNL A   1      41.359  26.847  29.582  1.00  0.00     0.034 A 
ATOM     74  C   UNL A   1      42.405  32.786  33.077  1.00  0.00     0.034 A 
ATOM     75  C   UNL A   1      42.669  27.501  29.724  1.00  0.00     0.049 A 
ATOM     76  C   UNL A   1      43.449  31.733  33.284  1.00  0.00     0.074 A 
ATOM     77  C   UNL A   1      43.382  28.389  28.935  1.00  0.00     0.029 A 
ATOM     78  N   UNL A   1      43.275  27.508  30.975  1.00  0.00    -0.354 N 
ATOM     79  N   UNL A   1      43.535  30.672  32.538  1.00  0.00    -0.248 NA
ATOM     80  C   UNL A   1      44.543  31.840  34.244  1.00  0.00     0.031 C 
ATOM     81  C   UNL A   1      44.346  29.028  29.768  1.00  0.00     0.029 A 
ATOM     82  C   UNL A   1      44.234  28.499  31.044  1.00  0.00     0.049 A 
ATOM     83  H   UNL A   1      43.051  26.892  31.709  1.00  0.00     0.167 HD
ATOM     84  C   UNL A   1      44.635  29.947  32.898  1.00  0.00     0.074 A 
ATOM     85  C   UNL A   1      45.247  30.730  33.958  1.00  0.00     0.031 C 
ATOM     86  C   UNL A   1      44.922  28.753  32.302  1.00  0.00     0.034 A 
BRANCH  73  87
ATOM     87  C   UNL A   1      41.054  25.859  28.469  1.00  0.00     0.023 A 
ATOM     88  C   UNL A   1      39.820  26.028  27.801  1.00  0.00     0.012 A 
ATOM     89  C   UNL A   1      41.809  24.723  28.084  1.00  0.00     0.148 A 
ATOM     90  C   UNL A   1      39.337  25.116  26.856  1.00  0.00     0.002 A 
ATOM     91  C   UNL A   1      41.342  23.823  27.121  1.00  0.00     0.091 A 
ATOM     92  F   UNL A   1      42.984  24.466  28.651  1.00  0.00    -0.205 F 
ATOM     93  C   UNL A   1      40.099  24.010  26.516  1.00  0.00     0.022 A 
BRANCH  91  94
ATOM     94  S   UNL A   1      42.280  22.369  26.610  1.00  0.00     0.127 S 
ATOM     95  O   UNL A   1      41.377  21.748  25.641  1.00  0.00    -0.237 OA
ATOM     96  O   UNL A   1      43.481  22.968  26.026  1.00  0.00    -0.237 OA
ATOM     97  O   UNL A   1      42.513  21.578  27.812  1.00  0.00    -0.744 OA
ENDBRANCH  91  94
ENDBRANCH  73  87
BRANCH  74  98
ATOM     98  C   UNL A   1      41.304  33.170  34.019  1.00  0.00     0.023 A 
ATOM     99  C   UNL A   1      40.842  34.492  33.844  1.00  0.00     0.012 A 
ATOM    100  C   UNL A   1      40.554  32.349  34.861  1.00  0.00     0.148 A 
ATOM    101  C   UNL A   1      39.649  34.988  34.352  1.00  0.00     0.002 A 
ATOM    102  C   UNL A   1      39.367  32.852  35.427  1.00  0.00     0.091 A 
ATOM    103  F   UNL A   1      40.982  31.104  35.096  1.00  0.00    -0.205 F 
ATOM    104  C   UNL A   1      38.893  34.147  35.135  1.00  0.00     0.022 A 
BRANCH 102 105
ATOM    105  S   UNL A   1      38.347  31.866  36.530  1.00  0.00     0.127 S 
ATOM    106  O   UNL A   1      37.067  32.563  36.430  1.00  0.00    -0.237 OA
ATOM    107  O   UNL A   1      38.377  30.541  35.911  1.00  0.00    -0.237 OA
ATOM    108  O   UNL A   1      39.019  31.936  37.819  1.00  0.00    -0.744 OA
ENDBRANCH 102 105
ENDBRANCH  74  98
BRANCH  86 109
ATOM    109  C   UNL A   1      45.819  27.682  32.881  1.00  0.00     0.023 A 
ATOM    110  C   UNL A   1      45.314  26.617  33.651  1.00  0.00     0.012 A 
ATOM    111  C   UNL A   1      47.171  27.586  32.467  1.00  0.00     0.148 A 
ATOM    112  C   UNL A   1      46.109  25.523  34.008  1.00  0.00     0.002 A 
ATOM    113  C   UNL A   1      47.916  26.439  32.714  1.00  0.00     0.091 A 
ATOM    114  F   UNL A   1      47.753  28.610  31.825  1.00  0.00    -0.205 F 
ATOM    115  C   UNL A   1      47.399  25.416  33.509  1.00  0.00     0.022 A 
BRANCH 113 116
ATOM    116  S   UNL A   1      49.468  26.159  31.852  1.00  0.00     0.127 S 
ATOM    117  O   UNL A   1      50.351  27.127  32.496  1.00  0.00    -0.237 OA
ATOM    118  O   UNL A   1      49.759  24.760  32.172  1.00  0.00    -0.237 OA
ATOM    119  O   UNL A   1      49.165  26.395  30.447  1.00  0.00    -0.744 OA
ENDBRANCH 113 116
ENDBRANCH  86 109
ENDBRANCH  60  61
ENDBRANCH  52  55
ENDBRANCH  50  51
ENDBRANCH  49  50
ENDBRANCH  48  49
ENDBRANCH  47  48
ENDBRANCH   3  47
TORSDOF 23
ENDMDL
MODEL 2
REMARK VINA RESULT:     -12.7      1.913      2.573
REMARK SMILES Cc1ccc(S(=O)(=O)n2cc(C(=O)C(=O)N[C@@H](Cc3c[nH]c4ccccc34)C(=O)NCC(=O)NCCCCNC(=O)c3ccc(-c4c5nc(c(-c6cccc(S(=O)(=O)[O-])c6F)c6ccc([nH]6)c(-c6cccc(S(=O)(=O)[O-])c6F)c6nc(c(-c7cccc(S(=O)(=O)[O-])c7F)c7ccc4[nH]7)C=C6)C=C5)cc3)c3ccccc32)cc1
REMARK SMILES IDX 32 1 33 2 34 3 31 5 30 6 28 7 29 8 17 10 16 11 14 12 15 13
REMARK SMILES IDX 12 15 13 16 11 17 9 18 10 19 110 20 105 21 109 22 106 23
REMARK SMILES IDX 108 24 107 25 6 26 7 27 8 28 5 29 1 30 2 31 3 32 112 33 4 34
REMARK SMILES IDX 111 35 18 36 19 37 20 38 27 39 21 40 22 41 26 42 23 44 25 45
REMARK SMILES IDX 24 46 35 47 36 48 37 49 38 50 39 51 40 52 41 54 42 55 43 56
REMARK SMILES IDX 104 57 44 58 103 59 45 60 46 61 47 62 97 63 48 64 102 65
REMARK SMILES IDX 96 66 98 67 49 68 101 69 95 70 94 71 50 73 82 74 62 75 81 76
REMARK SMILES IDX 63 77 66 78 80 79 99 80 64 81 65 82 79 84 100 85 67 86 51 87
REMARK SMILES IDX 52 88 60 89 53 90 55 91 61 92 54 93 56 94 57 95 58 96 59 97
REMARK SMILES IDX 83 98 84 99 92 100 85 101 87 102 93 103 86 104 88 105 89 106
REMARK SMILES IDX 90 107 91 108 68 109 69 110 77 111 70 112 72 113 78 114
REMARK SMILES IDX 71 115 73 116 74 117 75 118 76 119
REMARK H PARENT 34 4 30 9 16 14 21 43 39 53 98 72 66 83
REMARK Flexibility Score: inf
ROOT
ATOM      1  C   UNL A   1      34.234  31.192  27.793  1.00  0.00     0.239 C 
ATOM      2  O   UNL A   1      35.118  30.379  28.066  1.00  0.00    -0.273 OA
ATOM      3  N   UNL A   1      34.384  32.496  28.166  1.00  0.00    -0.355 N 
ATOM      4  H   UNL A   1      35.235  32.738  28.596  1.00  0.00     0.163 HD
ENDROOT
BRANCH   1   5
ATOM      5  C   UNL A   1      33.078  30.842  26.855  1.00  0.00     0.216 C 
BRANCH   5   6
ATOM      6  N   UNL A   1      32.246  29.678  27.098  1.00  0.00    -0.345 N 
ATOM      7  C   UNL A   1      31.602  28.836  26.237  1.00  0.00     0.243 C 
ATOM      8  O   UNL A   1      31.222  27.771  26.746  1.00  0.00    -0.273 OA
ATOM      9  H   UNL A   1      32.125  29.456  28.050  1.00  0.00     0.164 HD
BRANCH   7  10
ATOM     10  C   UNL A   1      31.356  29.088  24.699  1.00  0.00     0.176 C 
BRANCH  10  11
ATOM     11  N   UNL A   1      32.551  29.114  23.815  1.00  0.00    -0.337 N 
ATOM     12  C   UNL A   1      33.711  28.329  23.765  1.00  0.00     0.293 C 
ATOM     13  O   UNL A   1      34.589  28.623  22.957  1.00  0.00    -0.265 OA
ATOM     14  H   UNL A   1      32.520  29.821  23.130  1.00  0.00     0.164 HD
BRANCH  12  15
ATOM     15  C   UNL A   1      33.895  27.079  24.655  1.00  0.00     0.252 C 
ATOM     16  O   UNL A   1      34.232  27.322  25.816  1.00  0.00    -0.283 OA
BRANCH  15  17
ATOM     17  C   UNL A   1      33.737  25.661  24.197  1.00  0.00     0.054 A 
ATOM     18  N   UNL A   1      33.109  23.694  23.161  1.00  0.00    -0.240 N 
ATOM     19  C   UNL A   1      32.744  25.014  23.444  1.00  0.00     0.117 A 
ATOM     20  C   UNL A   1      34.459  23.601  23.567  1.00  0.00     0.065 A 
ATOM     21  C   UNL A   1      34.673  24.623  24.493  1.00  0.00     0.012 A 
ATOM     22  C   UNL A   1      35.391  22.560  23.393  1.00  0.00     0.028 A 
ATOM     23  C   UNL A   1      35.738  24.477  25.407  1.00  0.00     0.011 A 
ATOM     24  C   UNL A   1      36.384  22.401  24.351  1.00  0.00     0.002 A 
ATOM     25  C   UNL A   1      36.528  23.324  25.374  1.00  0.00     0.001 A 
BRANCH  18  26
ATOM     26  S   UNL A   1      32.325  22.100  23.298  1.00  0.00     0.268 S 
ATOM     27  O   UNL A   1      32.182  21.757  21.888  1.00  0.00    -0.201 OA
ATOM     28  O   UNL A   1      31.160  22.518  24.077  1.00  0.00    -0.201 OA
BRANCH  26  29
ATOM     29  C   UNL A   1      32.531  20.506  24.047  1.00  0.00     0.088 A 
ATOM     30  C   UNL A   1      32.890  16.249  24.991  1.00  0.00     0.044 C 
ATOM     31  C   UNL A   1      32.777  17.713  24.674  1.00  0.00    -0.051 A 
ATOM     32  C   UNL A   1      32.525  18.111  23.371  1.00  0.00     0.005 A 
ATOM     33  C   UNL A   1      32.889  18.711  25.653  1.00  0.00     0.005 A 
ATOM     34  C   UNL A   1      32.434  19.473  23.071  1.00  0.00     0.022 A 
ATOM     35  C   UNL A   1      32.709  20.089  25.347  1.00  0.00     0.022 A 
ENDBRANCH  26  29
ENDBRANCH  18  26
ENDBRANCH  15  17
ENDBRANCH  12  15
ENDBRANCH  10  11
BRANCH  10  36
ATOM     36  C   UNL A   1      30.147  28.306  24.091  1.00  0.00     0.072 C 
BRANCH  36  37
ATOM     37  C   UNL A   1      29.063  29.062  23.360  1.00  0.00    -0.020 A 
ATOM     38  C   UNL A   1      28.098  28.489  22.544  1.00  0.00     0.087 A 
ATOM     39  C   UNL A   1      28.843  30.486  23.295  1.00  0.00     0.003 A 
ATOM     40  N   UNL A   1      27.411  29.489  21.908  1.00  0.00    -0.361 N 
ATOM     41  C   UNL A   1      27.930  30.712  22.260  1.00  0.00     0.046 A 
ATOM     42  C   UNL A   1      29.445  31.610  23.899  1.00  0.00     0.010 A 
ATOM     43  H   UNL A   1      26.658  29.352  21.287  1.00  0.00     0.166 HD
ATOM     44  C   UNL A   1      27.692  31.979  21.716  1.00  0.00     0.026 A 
ATOM     45  C   UNL A   1      29.235  32.883  23.354  1.00  0.00     0.001 A 
ATOM     46  C   UNL A   1      28.393  33.058  22.259  1.00  0.00     0.002 A 
ENDBRANCH  36  37
ENDBRANCH  10  36
ENDBRANCH   7  10
ENDBRANCH   5   6
ENDBRANCH   1   5
BRANCH   3  47
ATOM     47  C   UNL A   1      33.420  33.557  27.992  1.00  0.00     0.116 C 
BRANCH  47  48
ATOM     48  C   UNL A   1      33.545  34.607  29.092  1.00  0.00     0.023 C 
BRANCH  48  49
ATOM     49  C   UNL A   1      34.847  34.504  29.889  1.00  0.00     0.023 C 
BRANCH  49  50
ATOM     50  C   UNL A   1      34.602  34.528  31.382  1.00  0.00     0.116 C 
BRANCH  50  51
ATOM     51  N   UNL A   1      35.713  35.054  32.132  1.00  0.00    -0.352 N 
ATOM     52  C   UNL A   1      36.912  34.466  32.457  1.00  0.00     0.251 C 
ATOM     53  H   UNL A   1      35.597  35.975  32.462  1.00  0.00     0.163 HD
ATOM     54  O   UNL A   1      37.570  35.018  33.344  1.00  0.00    -0.269 OA
BRANCH  52  55
ATOM     55  C   UNL A   1      37.492  33.339  31.669  1.00  0.00     0.039 A 
ATOM     56  C   UNL A   1      37.135  32.042  32.065  1.00  0.00     0.014 A 
ATOM     57  C   UNL A   1      38.591  33.501  30.830  1.00  0.00     0.014 A 
ATOM     58  C   UNL A   1      38.044  31.003  31.917  1.00  0.00     0.010 A 
ATOM     59  C   UNL A   1      39.543  32.519  30.786  1.00  0.00     0.010 A 
ATOM     60  C   UNL A   1      39.302  31.315  31.434  1.00  0.00    -0.014 A 
BRANCH  60  61
ATOM     61  C   UNL A   1      40.472  30.475  31.530  1.00  0.00     0.031 A 
ATOM     62  C   UNL A   1      40.453  29.176  30.865  1.00  0.00     0.074 A 
ATOM     63  C   UNL A   1      41.595  31.095  31.955  1.00  0.00     0.049 A 
ATOM     64  N   UNL A   1      41.396  28.311  30.946  1.00  0.00    -0.248 NA
ATOM     65  C   UNL A   1      39.330  28.753  30.034  1.00  0.00     0.031 C 
ATOM     66  C   UNL A   1      42.996  30.716  31.809  1.00  0.00     0.029 A 
ATOM     67  N   UNL A   1      41.628  32.092  32.940  1.00  0.00    -0.354 N 
ATOM     68  C   UNL A   1      41.194  27.436  29.900  1.00  0.00     0.074 A 
ATOM     69  C   UNL A   1      39.828  27.637  29.499  1.00  0.00     0.031 C 
ATOM     70  C   UNL A   1      43.670  31.167  32.888  1.00  0.00     0.029 A 
ATOM     71  C   UNL A   1      42.640  31.635  33.806  1.00  0.00     0.049 A 
ATOM     72  H   UNL A   1      41.082  32.908  33.009  1.00  0.00     0.167 HD
ATOM     73  C   UNL A   1      42.293  26.834  29.370  1.00  0.00     0.034 A 
ATOM     74  C   UNL A   1      42.276  30.992  34.963  1.00  0.00     0.034 A 
ATOM     75  C   UNL A   1      43.446  27.018  30.265  1.00  0.00     0.049 A 
ATOM     76  C   UNL A   1      42.953  29.671  35.155  1.00  0.00     0.074 A 
ATOM     77  C   UNL A   1      44.554  27.849  30.234  1.00  0.00     0.029 A 
ATOM     78  N   UNL A   1      43.376  26.499  31.552  1.00  0.00    -0.354 N 
ATOM     79  N   UNL A   1      43.251  28.883  34.164  1.00  0.00    -0.248 NA
ATOM     80  C   UNL A   1      43.458  29.185  36.435  1.00  0.00     0.031 C 
ATOM     81  C   UNL A   1      45.074  27.923  31.558  1.00  0.00     0.029 A 
ATOM     82  C   UNL A   1      44.301  27.113  32.374  1.00  0.00     0.049 A 
ATOM     83  H   UNL A   1      42.754  25.792  31.838  1.00  0.00     0.167 HD
ATOM     84  C   UNL A   1      43.945  27.803  34.630  1.00  0.00     0.074 A 
ATOM     85  C   UNL A   1      44.068  28.047  36.058  1.00  0.00     0.031 C 
ATOM     86  C   UNL A   1      44.330  26.794  33.795  1.00  0.00     0.034 A 
BRANCH  73  87
ATOM     87  C   UNL A   1      42.437  26.329  27.944  1.00  0.00     0.023 A 
ATOM     88  C   UNL A   1      42.204  27.273  26.918  1.00  0.00     0.012 A 
ATOM     89  C   UNL A   1      42.676  25.001  27.512  1.00  0.00     0.148 A 
ATOM     90  C   UNL A   1      42.158  26.926  25.563  1.00  0.00     0.002 A 
ATOM     91  C   UNL A   1      42.657  24.654  26.157  1.00  0.00     0.091 A 
ATOM     92  F   UNL A   1      42.904  24.032  28.394  1.00  0.00    -0.205 F 
ATOM     93  C   UNL A   1      42.384  25.614  25.182  1.00  0.00     0.022 A 
BRANCH  91  94
ATOM     94  S   UNL A   1      42.959  22.973  25.577  1.00  0.00     0.127 S 
ATOM     95  O   UNL A   1      44.055  22.543  26.446  1.00  0.00    -0.237 OA
ATOM     96  O   UNL A   1      41.677  22.321  25.846  1.00  0.00    -0.237 OA
ATOM     97  O   UNL A   1      43.310  23.074  24.166  1.00  0.00    -0.744 OA
ENDBRANCH  91  94
ENDBRANCH  73  87
BRANCH  74  98
ATOM     98  C   UNL A   1      40.917  31.395  35.451  1.00  0.00     0.023 A 
ATOM     99  C   UNL A   1      39.888  30.514  35.053  1.00  0.00     0.012 A 
ATOM    100  C   UNL A   1      40.583  32.363  36.397  1.00  0.00     0.148 A 
ATOM    101  C   UNL A   1      38.619  30.473  35.614  1.00  0.00     0.002 A 
ATOM    102  C   UNL A   1      39.284  32.370  36.940  1.00  0.00     0.091 A 
ATOM    103  F   UNL A   1      41.513  33.252  36.766  1.00  0.00    -0.205 F 
ATOM    104  C   UNL A   1      38.324  31.401  36.587  1.00  0.00     0.022 A 
BRANCH 102 105
ATOM    105  S   UNL A   1      38.768  33.589  38.155  1.00  0.00     0.127 S 
ATOM    106  O   UNL A   1      39.841  33.480  39.139  1.00  0.00    -0.237 OA
ATOM    107  O   UNL A   1      38.759  34.835  37.389  1.00  0.00    -0.237 OA
ATOM    108  O   UNL A   1      37.451  33.148  38.588  1.00  0.00    -0.744 OA
ENDBRANCH 102 105
ENDBRANCH  74  98
BRANCH  86 109
ATOM    109  C   UNL A   1      44.698  25.394  34.229  1.00  0.00     0.023 A 
ATOM    110  C   UNL A   1      43.833  24.299  34.043  1.00  0.00     0.012 A 
ATOM    111  C   UNL A   1      46.027  25.099  34.623  1.00  0.00     0.148 A 
ATOM    112  C   UNL A   1      44.254  22.982  34.254  1.00  0.00     0.002 A 
ATOM    113  C   UNL A   1      46.475  23.785  34.704  1.00  0.00     0.091 A 
ATOM    114  F   UNL A   1      46.877  26.092  34.925  1.00  0.00    -0.205 F 
ATOM    115  C   UNL A   1      45.585  22.722  34.548  1.00  0.00     0.022 A 
BRANCH 113 116
ATOM    116  S   UNL A   1      48.234  23.427  34.805  1.00  0.00     0.127 S 
ATOM    117  O   UNL A   1      48.264  21.988  34.563  1.00  0.00    -0.237 OA
ATOM    118  O   UNL A   1      48.783  24.241  33.718  1.00  0.00    -0.237 OA
ATOM    119  O   UNL A   1      48.631  23.868  36.135  1.00  0.00    -0.744 OA
ENDBRANCH 113 116
ENDBRANCH  86 109
ENDBRANCH  60  61
ENDBRANCH  52  55
ENDBRANCH  50  51
ENDBRANCH  49  50
ENDBRANCH  48  49
ENDBRANCH  47  48
ENDBRANCH   3  47
TORSDOF 23
ENDMDL
MODEL 3
REMARK VINA RESULT:     -12.7      2.139      3.054
REMARK SMILES Cc1ccc(S(=O)(=O)n2cc(C(=O)C(=O)N[C@@H](Cc3c[nH]c4ccccc34)C(=O)NCC(=O)NCCCCNC(=O)c3ccc(-c4c5nc(c(-c6cccc(S(=O)(=O)[O-])c6F)c6ccc([nH]6)c(-c6cccc(S(=O)(=O)[O-])c6F)c6nc(c(-c7cccc(S(=O)(=O)[O-])c7F)c7ccc4[nH]7)C=C6)C=C5)cc3)c3ccccc32)cc1
REMARK SMILES IDX 32 1 33 2 34 3 31 5 30 6 28 7 29 8 17 10 16 11 14 12 15 13
REMARK SMILES IDX 12 15 13 16 11 17 9 18 10 19 110 20 105 21 109 22 106 23
REMARK SMILES IDX 108 24 107 25 6 26 7 27 8 28 5 29 1 30 2 31 3 32 112 33 4 34
REMARK SMILES IDX 111 35 18 36 19 37 20 38 27 39 21 40 22 41 26 42 23 44 25 45
REMARK SMILES IDX 24 46 35 47 36 48 37 49 38 50 39 51 40 52 41 54 42 55 43 56
REMARK SMILES IDX 104 57 44 58 103 59 45 60 46 61 47 62 97 63 48 64 102 65
REMARK SMILES IDX 96 66 98 67 49 68 101 69 95 70 94 71 50 73 82 74 62 75 81 76
REMARK SMILES IDX 63 77 66 78 80 79 99 80 64 81 65 82 79 84 100 85 67 86 51 87
REMARK SMILES IDX 52 88 60 89 53 90 55 91 61 92 54 93 56 94 57 95 58 96 59 97
REMARK SMILES IDX 83 98 84 99 92 100 85 101 87 102 93 103 86 104 88 105 89 106
REMARK SMILES IDX 90 107 91 108 68 109 69 110 77 111 70 112 72 113 78 114
REMARK SMILES IDX 71 115 73 116 74 117 75 118 76 119
REMARK H PARENT 34 4 30 9 16 14 21 43 39 53 98 72 66 83
REMARK Flexibility Score: inf
ROOT
ATOM      1  C   UNL A   1      35.683  30.178  27.591  1.00  0.00     0.239 C 
ATOM      2  O   UNL A   1      36.784  29.628  27.532  1.00  0.00    -0.273 OA
ATOM      3  N   UNL A   1      35.618  31.540  27.653  1.00  0.00    -0.355 N 
ATOM      4  H   UNL A   1      36.471  32.027  27.590  1.00  0.00     0.163 HD
ENDROOT
BRANCH   1   5
ATOM      5  C   UNL A   1      34.382  29.406  27.373  1.00  0.00     0.216 C 
BRANCH   5   6
ATOM      6  N   UNL A   1      33.296  29.980  26.599  1.00  0.00    -0.345 N 
ATOM      7  C   UNL A   1      32.276  29.393  25.906  1.00  0.00     0.243 C 
ATOM      8  O   UNL A   1      31.350  30.159  25.604  1.00  0.00    -0.273 OA
ATOM      9  H   UNL A   1      33.293  30.964  26.570  1.00  0.00     0.164 HD
BRANCH   7  10
ATOM     10  C   UNL A   1      32.174  27.867  25.517  1.00  0.00     0.176 C 
BRANCH  10  11
ATOM     11  N   UNL A   1      31.151  27.052  26.225  1.00  0.00    -0.337 N 
ATOM     12  C   UNL A   1      30.677  25.748  26.029  1.00  0.00     0.293 C 
ATOM     13  O   UNL A   1      29.756  25.341  26.733  1.00  0.00    -0.265 OA
ATOM     14  H   UNL A   1      30.724  27.520  26.979  1.00  0.00     0.164 HD
BRANCH  12  15
ATOM     15  C   UNL A   1      31.311  24.790  24.994  1.00  0.00     0.252 C 
ATOM     16  O   UNL A   1      30.650  24.640  23.964  1.00  0.00    -0.283 OA
BRANCH  15  17
ATOM     17  C   UNL A   1      32.595  24.041  25.182  1.00  0.00     0.054 A 
ATOM     18  N   UNL A   1      34.701  23.314  25.795  1.00  0.00    -0.240 N 
ATOM     19  C   UNL A   1      33.841  24.415  25.711  1.00  0.00     0.117 A 
ATOM     20  C   UNL A   1      33.883  22.199  25.514  1.00  0.00     0.065 A 
ATOM     21  C   UNL A   1      32.779  22.675  24.804  1.00  0.00     0.012 A 
ATOM     22  C   UNL A   1      34.163  20.821  25.596  1.00  0.00     0.028 A 
ATOM     23  C   UNL A   1      32.073  21.767  23.988  1.00  0.00     0.011 A 
ATOM     24  C   UNL A   1      33.502  19.963  24.727  1.00  0.00     0.002 A 
ATOM     25  C   UNL A   1      32.498  20.438  23.898  1.00  0.00     0.001 A 
BRANCH  18  26
ATOM     26  S   UNL A   1      36.380  22.972  25.309  1.00  0.00     0.268 S 
ATOM     27  O   UNL A   1      37.055  24.144  25.853  1.00  0.00    -0.201 OA
ATOM     28  O   UNL A   1      36.150  22.856  23.869  1.00  0.00    -0.201 OA
BRANCH  26  29
ATOM     29  C   UNL A   1      37.640  21.730  25.431  1.00  0.00     0.088 A 
ATOM     30  C   UNL A   1      41.255  19.377  26.162  1.00  0.00     0.044 C 
ATOM     31  C   UNL A   1      40.007  20.175  25.916  1.00  0.00    -0.051 A 
ATOM     32  C   UNL A   1      39.956  21.502  26.312  1.00  0.00     0.005 A 
ATOM     33  C   UNL A   1      38.883  19.642  25.268  1.00  0.00     0.005 A 
ATOM     34  C   UNL A   1      38.790  22.243  26.097  1.00  0.00     0.022 A 
ATOM     35  C   UNL A   1      37.735  20.433  24.979  1.00  0.00     0.022 A 
ENDBRANCH  26  29
ENDBRANCH  18  26
ENDBRANCH  15  17
ENDBRANCH  12  15
ENDBRANCH  10  11
BRANCH  10  36
ATOM     36  C   UNL A   1      32.253  27.573  23.984  1.00  0.00     0.072 C 
BRANCH  36  37
ATOM     37  C   UNL A   1      31.407  28.379  23.027  1.00  0.00    -0.020 A 
ATOM     38  C   UNL A   1      31.888  29.339  22.149  1.00  0.00     0.087 A 
ATOM     39  C   UNL A   1      29.973  28.381  22.871  1.00  0.00     0.003 A 
ATOM     40  N   UNL A   1      30.823  29.990  21.583  1.00  0.00    -0.361 N 
ATOM     41  C   UNL A   1      29.648  29.502  22.101  1.00  0.00     0.046 A 
ATOM     42  C   UNL A   1      28.915  27.640  23.436  1.00  0.00     0.010 A 
ATOM     43  H   UNL A   1      30.890  30.704  20.908  1.00  0.00     0.166 HD
ATOM     44  C   UNL A   1      28.341  29.991  21.980  1.00  0.00     0.026 A 
ATOM     45  C   UNL A   1      27.604  28.126  23.343  1.00  0.00     0.001 A 
ATOM     46  C   UNL A   1      27.328  29.301  22.650  1.00  0.00     0.002 A 
ENDBRANCH  36  37
ENDBRANCH  10  36
ENDBRANCH   7  10
ENDBRANCH   5   6
ENDBRANCH   1   5
BRANCH   3  47
ATOM     47  C   UNL A   1      34.423  32.338  27.800  1.00  0.00     0.116 C 
BRANCH  47  48
ATOM     48  C   UNL A   1      34.760  33.818  27.960  1.00  0.00     0.023 C 
BRANCH  48  49
ATOM     49  C   UNL A   1      33.925  34.521  29.032  1.00  0.00     0.023 C 
BRANCH  49  50
ATOM     50  C   UNL A   1      34.579  34.457  30.396  1.00  0.00     0.116 C 
BRANCH  50  51
ATOM     51  N   UNL A   1      34.470  33.162  31.017  1.00  0.00    -0.352 N 
ATOM     52  C   UNL A   1      35.440  32.219  31.259  1.00  0.00     0.251 C 
ATOM     53  H   UNL A   1      33.564  32.915  31.313  1.00  0.00     0.163 HD
ATOM     54  O   UNL A   1      35.041  31.084  31.541  1.00  0.00    -0.269 OA
BRANCH  52  55
ATOM     55  C   UNL A   1      36.887  32.565  31.369  1.00  0.00     0.039 A 
ATOM     56  C   UNL A   1      37.576  32.782  30.167  1.00  0.00     0.014 A 
ATOM     57  C   UNL A   1      37.622  32.346  32.529  1.00  0.00     0.014 A 
ATOM     58  C   UNL A   1      38.919  32.441  30.074  1.00  0.00     0.010 A 
ATOM     59  C   UNL A   1      38.909  31.893  32.425  1.00  0.00     0.010 A 
ATOM     60  C   UNL A   1      39.506  31.837  31.172  1.00  0.00    -0.014 A 
BRANCH  60  61
ATOM     61  C   UNL A   1      40.752  31.108  31.165  1.00  0.00     0.031 A 
ATOM     62  C   UNL A   1      40.731  29.699  30.788  1.00  0.00     0.074 A 
ATOM     63  C   UNL A   1      41.868  31.870  31.197  1.00  0.00     0.049 A 
ATOM     64  N   UNL A   1      41.755  28.928  30.822  1.00  0.00    -0.248 NA
ATOM     65  C   UNL A   1      39.510  29.043  30.328  1.00  0.00     0.031 C 
ATOM     66  C   UNL A   1      43.240  31.552  30.818  1.00  0.00     0.029 A 
ATOM     67  N   UNL A   1      42.000  33.055  31.936  1.00  0.00    -0.354 N 
ATOM     68  C   UNL A   1      41.434  27.839  30.040  1.00  0.00     0.074 A 
ATOM     69  C   UNL A   1      40.001  27.870  29.923  1.00  0.00     0.031 C 
ATOM     70  C   UNL A   1      44.071  32.262  31.609  1.00  0.00     0.029 A 
ATOM     71  C   UNL A   1      43.211  32.853  32.626  1.00  0.00     0.049 A 
ATOM     72  H   UNL A   1      41.397  33.832  31.966  1.00  0.00     0.167 HD
ATOM     73  C   UNL A   1      42.456  27.205  29.404  1.00  0.00     0.034 A 
ATOM     74  C   UNL A   1      43.164  32.452  33.937  1.00  0.00     0.034 A 
ATOM     75  C   UNL A   1      43.743  27.644  29.964  1.00  0.00     0.049 A 
ATOM     76  C   UNL A   1      44.000  31.243  34.226  1.00  0.00     0.074 A 
ATOM     77  C   UNL A   1      44.728  28.512  29.524  1.00  0.00     0.029 A 
ATOM     78  N   UNL A   1      43.996  27.407  31.310  1.00  0.00    -0.354 N 
ATOM     79  N   UNL A   1      44.166  30.282  33.367  1.00  0.00    -0.248 NA
ATOM     80  C   UNL A   1      44.807  31.073  35.430  1.00  0.00     0.031 C 
ATOM     81  C   UNL A   1      45.500  28.898  30.657  1.00  0.00     0.029 A 
ATOM     82  C   UNL A   1      45.002  28.236  31.767  1.00  0.00     0.049 A 
ATOM     83  H   UNL A   1      43.523  26.742  31.861  1.00  0.00     0.167 HD
ATOM     84  C   UNL A   1      45.051  29.369  33.867  1.00  0.00     0.074 A 
ATOM     85  C   UNL A   1      45.441  29.919  35.155  1.00  0.00     0.031 C 
ATOM     86  C   UNL A   1      45.357  28.230  33.180  1.00  0.00     0.034 A 
BRANCH  73  87
ATOM     87  C   UNL A   1      42.353  26.416  28.109  1.00  0.00     0.023 A 
ATOM     88  C   UNL A   1      41.418  26.890  27.160  1.00  0.00     0.012 A 
ATOM     89  C   UNL A   1      43.005  25.204  27.774  1.00  0.00     0.148 A 
ATOM     90  C   UNL A   1      41.108  26.193  25.987  1.00  0.00     0.002 A 
ATOM     91  C   UNL A   1      42.718  24.517  26.591  1.00  0.00     0.091 A 
ATOM     92  F   UNL A   1      43.901  24.667  28.598  1.00  0.00    -0.205 F 
ATOM     93  C   UNL A   1      41.758  25.003  25.702  1.00  0.00     0.022 A 
BRANCH  91  94
ATOM     94  S   UNL A   1      43.533  22.973  26.138  1.00  0.00     0.127 S 
ATOM     95  O   UNL A   1      43.127  22.084  27.228  1.00  0.00    -0.237 OA
ATOM     96  O   UNL A   1      42.920  22.669  24.845  1.00  0.00    -0.237 OA
ATOM     97  O   UNL A   1      44.962  23.253  26.087  1.00  0.00    -0.744 OA
ENDBRANCH  91  94
ENDBRANCH  73  87
BRANCH  74  98
ATOM     98  C   UNL A   1      41.900  32.867  34.629  1.00  0.00     0.023 A 
ATOM     99  C   UNL A   1      41.565  34.224  34.432  1.00  0.00     0.012 A 
ATOM    100  C   UNL A   1      40.933  32.063  35.231  1.00  0.00     0.148 A 
ATOM    101  C   UNL A   1      40.318  34.777  34.687  1.00  0.00     0.002 A 
ATOM    102  C   UNL A   1      39.679  32.619  35.544  1.00  0.00     0.091 A 
ATOM    103  F   UNL A   1      41.226  30.781  35.483  1.00  0.00    -0.205 F 
ATOM    104  C   UNL A   1      39.357  33.955  35.229  1.00  0.00     0.022 A 
BRANCH 102 105
ATOM    105  S   UNL A   1      38.380  31.657  36.330  1.00  0.00     0.127 S 
ATOM    106  O   UNL A   1      37.192  32.406  35.929  1.00  0.00    -0.237 OA
ATOM    107  O   UNL A   1      38.519  30.342  35.704  1.00  0.00    -0.237 OA
ATOM    108  O   UNL A   1      38.707  31.679  37.747  1.00  0.00    -0.744 OA
ENDBRANCH 102 105
ENDBRANCH  74  98
BRANCH  86 109
ATOM    109  C   UNL A   1      45.952  26.979  33.785  1.00  0.00     0.023 A 
ATOM    110  C   UNL A   1      47.338  26.822  33.975  1.00  0.00     0.012 A 
ATOM    111  C   UNL A   1      45.110  26.017  34.399  1.00  0.00     0.148 A 
ATOM    112  C   UNL A   1      47.866  25.762  34.717  1.00  0.00     0.002 A 
ATOM    113  C   UNL A   1      45.633  25.043  35.242  1.00  0.00     0.091 A 
ATOM    114  F   UNL A   1      43.788  26.036  34.173  1.00  0.00    -0.205 F 
ATOM    115  C   UNL A   1      47.013  24.893  35.382  1.00  0.00     0.022 A 
BRANCH 113 116
ATOM    116  S   UNL A   1      44.550  24.097  36.321  1.00  0.00     0.127 S 
ATOM    117  O   UNL A   1      43.791  23.298  35.363  1.00  0.00    -0.237 OA
ATOM    118  O   UNL A   1      45.501  23.335  37.133  1.00  0.00    -0.237 OA
ATOM    119  O   UNL A   1      43.799  25.096  37.068  1.00  0.00    -0.744 OA
ENDBRANCH 113 116
ENDBRANCH  86 109
ENDBRANCH  60  61
ENDBRANCH  52  55
ENDBRANCH  50  51
ENDBRANCH  49  50
ENDBRANCH  48  49
ENDBRANCH  47  48
ENDBRANCH   3  47
TORSDOF 23
ENDMDL
