MODEL 1
REMARK VINA RESULT:     -11.6      0.000      0.000
REMARK SMILES Cc1ccccc1N(CCC(=O)NCCCCNC(=O)c1ccc(-c2c3nc(c(-c4cccc(S(=O)(=O)[O-])c4F)c4ccc([nH]4)c(-c4cccc(S(=O)(=O)[O-])c4F)c4nc(c(-c5cccc(S(=O)(=O)[O-])c5F)c5ccc2[nH]5)C=C4)C=C3)cc1)C(=O)[C@@H]1C=C[C@H]([NH3+])C1
REMARK SMILES IDX 14 1 13 2 11 3 12 4 10 6 9 7 8 8 7 9 1 10 2 11 3 12 4 13
REMARK SMILES IDX 6 14 5 15 84 16 85 17 86 18 87 19 91 20 88 21 89 22 90 23
REMARK SMILES IDX 15 27 16 28 17 29 18 30 19 31 20 33 21 34 22 35 83 36 23 37
REMARK SMILES IDX 82 38 24 39 25 40 26 41 76 42 27 43 81 44 75 45 77 46 28 47
REMARK SMILES IDX 80 48 74 49 73 50 29 52 61 53 41 54 60 55 42 56 45 57 59 58
REMARK SMILES IDX 78 59 43 60 44 61 58 63 79 64 46 65 30 66 31 67 39 68 32 69
REMARK SMILES IDX 34 70 40 71 33 72 35 73 36 74 37 75 38 76 62 77 63 78 71 79
REMARK SMILES IDX 64 80 66 81 72 82 65 83 67 84 68 85 69 86 70 87 47 88 48 89
REMARK SMILES IDX 56 90 49 91 51 92 57 93 50 94 52 95 53 96 54 97 55 98
REMARK H PARENT 13 5 90 24 90 25 90 26 18 32 77 51 45 62
REMARK Flexibility Score: inf
ROOT
ATOM      1  C   UNL A   1      36.189  20.773  25.158  1.00  0.00     0.116 C 
ENDROOT
BRANCH   1   2
ATOM      2  N   UNL A   1      35.577  21.411  26.332  1.00  0.00    -0.356 N 
ATOM      3  C   UNL A   1      34.916  22.590  26.497  1.00  0.00     0.221 C 
ATOM      4  O   UNL A   1      34.460  22.857  27.614  1.00  0.00    -0.275 OA
ATOM      5  H   UNL A   1      35.659  20.882  27.159  1.00  0.00     0.163 HD
BRANCH   3   6
ATOM      6  C   UNL A   1      34.764  23.593  25.377  1.00  0.00     0.122 C 
BRANCH   6   7
ATOM      7  C   UNL A   1      34.217  24.930  25.911  1.00  0.00     0.135 C 
BRANCH   7   8
ATOM      8  N   UNL A   1      33.807  25.842  24.802  1.00  0.00    -0.311 N 
BRANCH   8   9
ATOM      9  C   UNL A   1      33.702  27.285  25.188  1.00  0.00     0.047 A 
ATOM     10  C   UNL A   1      33.108  28.466  22.914  1.00  0.00     0.046 C 
ATOM     11  C   UNL A   1      33.264  28.383  24.405  1.00  0.00    -0.027 A 
ATOM     12  C   UNL A   1      32.907  29.612  25.040  1.00  0.00     0.005 A 
ATOM     13  C   UNL A   1      33.116  29.849  26.387  1.00  0.00     0.000 A 
ATOM     14  C   UNL A   1      34.022  27.631  26.534  1.00  0.00     0.026 A 
ATOM     15  C   UNL A   1      33.737  28.872  27.127  1.00  0.00     0.002 A 
ENDBRANCH   8   9
BRANCH   8  16
ATOM     16  C   UNL A   1      33.271  25.258  23.623  1.00  0.00     0.234 C 
ATOM     17  O   UNL A   1      33.804  25.305  22.513  1.00  0.00    -0.274 OA
BRANCH  16  18
ATOM     18  C   UNL A   1      31.922  24.480  23.672  1.00  0.00     0.108 C 
ATOM     19  C   UNL A   1      30.902  25.258  22.885  1.00  0.00    -0.012 C 
ATOM     20  C   UNL A   1      31.285  24.462  25.079  1.00  0.00     0.087 C 
ATOM     21  C   UNL A   1      30.000  25.855  23.675  1.00  0.00     0.033 C 
ATOM     22  C   UNL A   1      30.222  25.568  25.120  1.00  0.00     0.205 C 
BRANCH  22  23
ATOM     23  N   UNL A   1      30.658  26.776  25.800  1.00  0.00    -0.352 N 
ATOM     24  H   UNL A   1      29.925  27.093  26.433  1.00  0.00     0.345 HD
ATOM     25  H   UNL A   1      30.850  27.504  25.111  1.00  0.00     0.345 HD
ATOM     26  H   UNL A   1      31.506  26.580  26.331  1.00  0.00     0.345 HD
ENDBRANCH  22  23
ENDBRANCH  16  18
ENDBRANCH   8  16
ENDBRANCH   7   8
ENDBRANCH   6   7
ENDBRANCH   3   6
ENDBRANCH   1   2
BRANCH   1  27
ATOM     27  C   UNL A   1      37.527  21.391  24.736  1.00  0.00     0.023 C 
BRANCH  27  28
ATOM     28  C   UNL A   1      38.645  21.579  25.775  1.00  0.00     0.023 C 
BRANCH  28  29
ATOM     29  C   UNL A   1      38.670  22.945  26.462  1.00  0.00     0.116 C 
BRANCH  29  30
ATOM     30  N   UNL A   1      39.945  23.194  27.169  1.00  0.00    -0.352 N 
ATOM     31  C   UNL A   1      40.461  24.344  27.769  1.00  0.00     0.251 C 
ATOM     32  H   UNL A   1      40.535  22.409  27.227  1.00  0.00     0.163 HD
ATOM     33  O   UNL A   1      41.521  24.334  28.353  1.00  0.00    -0.269 OA
BRANCH  31  34
ATOM     34  C   UNL A   1      39.621  25.561  27.729  1.00  0.00     0.039 A 
ATOM     35  C   UNL A   1      40.083  26.575  26.885  1.00  0.00     0.014 A 
ATOM     36  C   UNL A   1      38.889  25.838  28.875  1.00  0.00     0.014 A 
ATOM     37  C   UNL A   1      40.169  27.864  27.386  1.00  0.00     0.010 A 
ATOM     38  C   UNL A   1      39.031  27.106  29.398  1.00  0.00     0.010 A 
ATOM     39  C   UNL A   1      39.782  28.072  28.703  1.00  0.00    -0.014 A 
BRANCH  39  40
ATOM     40  C   UNL A   1      40.067  29.285  29.445  1.00  0.00     0.031 A 
ATOM     41  C   UNL A   1      39.133  30.410  29.219  1.00  0.00     0.074 A 
ATOM     42  C   UNL A   1      41.047  29.359  30.382  1.00  0.00     0.049 A 
ATOM     43  N   UNL A   1      39.366  31.621  29.583  1.00  0.00    -0.248 NA
ATOM     44  C   UNL A   1      37.858  30.258  28.508  1.00  0.00     0.031 C 
ATOM     45  C   UNL A   1      41.179  30.400  31.405  1.00  0.00     0.029 A 
ATOM     46  N   UNL A   1      42.242  28.635  30.521  1.00  0.00    -0.354 N 
ATOM     47  C   UNL A   1      38.164  32.281  29.508  1.00  0.00     0.074 A 
ATOM     48  C   UNL A   1      37.312  31.461  28.695  1.00  0.00     0.031 C 
ATOM     49  C   UNL A   1      42.456  30.453  31.814  1.00  0.00     0.029 A 
ATOM     50  C   UNL A   1      43.206  29.583  30.932  1.00  0.00     0.049 A 
ATOM     51  H   UNL A   1      42.379  27.672  30.368  1.00  0.00     0.167 HD
ATOM     52  C   UNL A   1      37.969  33.354  30.313  1.00  0.00     0.034 A 
ATOM     53  C   UNL A   1      44.280  29.983  30.180  1.00  0.00     0.034 A 
ATOM     54  C   UNL A   1      39.242  33.866  30.826  1.00  0.00     0.049 A 
ATOM     55  C   UNL A   1      44.330  31.489  29.920  1.00  0.00     0.074 A 
ATOM     56  C   UNL A   1      39.853  33.856  32.066  1.00  0.00     0.029 A 
ATOM     57  N   UNL A   1      40.224  34.246  29.911  1.00  0.00    -0.354 N 
ATOM     58  N   UNL A   1      43.383  32.322  30.264  1.00  0.00    -0.248 NA
ATOM     59  C   UNL A   1      45.422  32.174  29.227  1.00  0.00     0.031 C 
ATOM     60  C   UNL A   1      41.247  34.082  31.861  1.00  0.00     0.029 A 
ATOM     61  C   UNL A   1      41.472  34.289  30.509  1.00  0.00     0.049 A 
ATOM     62  H   UNL A   1      40.051  34.456  28.964  1.00  0.00     0.167 HD
ATOM     63  C   UNL A   1      43.619  33.557  29.717  1.00  0.00     0.074 A 
ATOM     64  C   UNL A   1      44.956  33.436  29.162  1.00  0.00     0.031 C 
ATOM     65  C   UNL A   1      42.665  34.543  29.699  1.00  0.00     0.034 A 
BRANCH  52  66
ATOM     66  C   UNL A   1      36.605  33.820  30.768  1.00  0.00     0.023 A 
ATOM     67  C   UNL A   1      36.268  33.617  32.119  1.00  0.00     0.012 A 
ATOM     68  C   UNL A   1      35.578  34.336  29.932  1.00  0.00     0.148 A 
ATOM     69  C   UNL A   1      34.996  33.926  32.620  1.00  0.00     0.002 A 
ATOM     70  C   UNL A   1      34.343  34.729  30.450  1.00  0.00     0.091 A 
ATOM     71  F   UNL A   1      35.731  34.348  28.603  1.00  0.00    -0.205 F 
ATOM     72  C   UNL A   1      34.041  34.509  31.794  1.00  0.00     0.022 A 
BRANCH  70  73
ATOM     73  S   UNL A   1      33.105  35.562  29.438  1.00  0.00     0.127 S 
ATOM     74  O   UNL A   1      32.138  36.012  30.438  1.00  0.00    -0.237 OA
ATOM     75  O   UNL A   1      33.878  36.635  28.812  1.00  0.00    -0.237 OA
ATOM     76  O   UNL A   1      32.615  34.558  28.500  1.00  0.00    -0.744 OA
ENDBRANCH  70  73
ENDBRANCH  52  66
BRANCH  53  77
ATOM     77  C   UNL A   1      44.796  28.922  29.268  1.00  0.00     0.023 A 
ATOM     78  C   UNL A   1      45.341  27.774  29.892  1.00  0.00     0.012 A 
ATOM     79  C   UNL A   1      44.407  28.843  27.921  1.00  0.00     0.148 A 
ATOM     80  C   UNL A   1      45.315  26.534  29.254  1.00  0.00     0.002 A 
ATOM     81  C   UNL A   1      44.413  27.604  27.279  1.00  0.00     0.091 A 
ATOM     82  F   UNL A   1      43.975  29.953  27.309  1.00  0.00    -0.205 F 
ATOM     83  C   UNL A   1      44.807  26.443  27.964  1.00  0.00     0.022 A 
BRANCH  81  84
ATOM     84  S   UNL A   1      43.821  27.406  25.592  1.00  0.00     0.127 S 
ATOM     85  O   UNL A   1      45.043  27.624  24.827  1.00  0.00    -0.237 OA
ATOM     86  O   UNL A   1      43.335  26.026  25.593  1.00  0.00    -0.237 OA
ATOM     87  O   UNL A   1      42.776  28.407  25.443  1.00  0.00    -0.744 OA
ENDBRANCH  81  84
ENDBRANCH  53  77
BRANCH  65  88
ATOM     88  C   UNL A   1      42.751  35.827  28.884  1.00  0.00     0.023 A 
ATOM     89  C   UNL A   1      42.098  35.982  27.644  1.00  0.00     0.012 A 
ATOM     90  C   UNL A   1      43.380  36.986  29.411  1.00  0.00     0.148 A 
ATOM     91  C   UNL A   1      42.130  37.186  26.929  1.00  0.00     0.002 A 
ATOM     92  C   UNL A   1      43.315  38.212  28.748  1.00  0.00     0.091 A 
ATOM     93  F   UNL A   1      44.068  36.906  30.560  1.00  0.00    -0.205 F 
ATOM     94  C   UNL A   1      42.721  38.308  27.489  1.00  0.00     0.022 A 
BRANCH  92  95
ATOM     95  S   UNL A   1      43.848  39.730  29.555  1.00  0.00     0.127 S 
ATOM     96  O   UNL A   1      45.298  39.559  29.601  1.00  0.00    -0.237 OA
ATOM     97  O   UNL A   1      43.387  40.764  28.626  1.00  0.00    -0.237 OA
ATOM     98  O   UNL A   1      43.158  39.735  30.838  1.00  0.00    -0.744 OA
ENDBRANCH  92  95
ENDBRANCH  65  88
ENDBRANCH  39  40
ENDBRANCH  31  34
ENDBRANCH  29  30
ENDBRANCH  28  29
ENDBRANCH  27  28
ENDBRANCH   1  27
TORSDOF 20
ENDMDL
MODEL 2
REMARK VINA RESULT:     -11.4      4.175      9.621
REMARK SMILES Cc1ccccc1N(CCC(=O)NCCCCNC(=O)c1ccc(-c2c3nc(c(-c4cccc(S(=O)(=O)[O-])c4F)c4ccc([nH]4)c(-c4cccc(S(=O)(=O)[O-])c4F)c4nc(c(-c5cccc(S(=O)(=O)[O-])c5F)c5ccc2[nH]5)C=C4)C=C3)cc1)C(=O)[C@@H]1C=C[C@H]([NH3+])C1
REMARK SMILES IDX 14 1 13 2 11 3 12 4 10 6 9 7 8 8 7 9 1 10 2 11 3 12 4 13
REMARK SMILES IDX 6 14 5 15 84 16 85 17 86 18 87 19 91 20 88 21 89 22 90 23
REMARK SMILES IDX 15 27 16 28 17 29 18 30 19 31 20 33 21 34 22 35 83 36 23 37
REMARK SMILES IDX 82 38 24 39 25 40 26 41 76 42 27 43 81 44 75 45 77 46 28 47
REMARK SMILES IDX 80 48 74 49 73 50 29 52 61 53 41 54 60 55 42 56 45 57 59 58
REMARK SMILES IDX 78 59 43 60 44 61 58 63 79 64 46 65 30 66 31 67 39 68 32 69
REMARK SMILES IDX 34 70 40 71 33 72 35 73 36 74 37 75 38 76 62 77 63 78 71 79
REMARK SMILES IDX 64 80 66 81 72 82 65 83 67 84 68 85 69 86 70 87 47 88 48 89
REMARK SMILES IDX 56 90 49 91 51 92 57 93 50 94 52 95 53 96 54 97 55 98
REMARK H PARENT 13 5 90 24 90 25 90 26 18 32 77 51 45 62
REMARK Flexibility Score: inf
ROOT
ATOM      1  C   UNL A   1      34.369  30.233  27.111  1.00  0.00     0.116 C 
ENDROOT
BRANCH   1   2
ATOM      2  N   UNL A   1      33.237  29.481  27.671  1.00  0.00    -0.356 N 
ATOM      3  C   UNL A   1      32.647  28.307  27.313  1.00  0.00     0.221 C 
ATOM      4  O   UNL A   1      31.718  27.880  28.007  1.00  0.00    -0.275 OA
ATOM      5  H   UNL A   1      32.828  29.908  28.458  1.00  0.00     0.163 HD
BRANCH   3   6
ATOM      6  C   UNL A   1      33.061  27.540  26.079  1.00  0.00     0.122 C 
BRANCH   6   7
ATOM      7  C   UNL A   1      32.781  28.359  24.805  1.00  0.00     0.135 C 
BRANCH   7   8
ATOM      8  N   UNL A   1      31.501  27.951  24.155  1.00  0.00    -0.311 N 
BRANCH   8   9
ATOM      9  C   UNL A   1      31.479  26.541  23.651  1.00  0.00     0.047 A 
ATOM     10  C   UNL A   1      33.356  26.543  21.806  1.00  0.00     0.046 C 
ATOM     11  C   UNL A   1      32.371  25.910  22.746  1.00  0.00    -0.027 A 
ATOM     12  C   UNL A   1      32.397  24.485  22.653  1.00  0.00     0.005 A 
ATOM     13  C   UNL A   1      31.475  23.673  23.292  1.00  0.00     0.000 A 
ATOM     14  C   UNL A   1      30.477  25.671  24.172  1.00  0.00     0.026 A 
ATOM     15  C   UNL A   1      30.469  24.277  24.007  1.00  0.00     0.002 A 
ENDBRANCH   8   9
BRANCH   8  16
ATOM     16  C   UNL A   1      30.578  28.972  23.802  1.00  0.00     0.234 C 
ATOM     17  O   UNL A   1      30.447  30.038  24.408  1.00  0.00    -0.274 OA
BRANCH  16  18
ATOM     18  C   UNL A   1      29.645  28.800  22.566  1.00  0.00     0.108 C 
ATOM     19  C   UNL A   1      29.851  29.979  21.654  1.00  0.00    -0.012 C 
ATOM     20  C   UNL A   1      28.146  28.933  22.916  1.00  0.00     0.087 C 
ATOM     21  C   UNL A   1      28.814  30.826  21.679  1.00  0.00     0.033 C 
ATOM     22  C   UNL A   1      27.717  30.366  22.575  1.00  0.00     0.205 C 
BRANCH  22  23
ATOM     23  N   UNL A   1      27.626  31.242  23.731  1.00  0.00    -0.352 N 
ATOM     24  H   UNL A   1      26.673  31.597  23.814  1.00  0.00     0.345 HD
ATOM     25  H   UNL A   1      28.271  32.023  23.616  1.00  0.00     0.345 HD
ATOM     26  H   UNL A   1      27.869  30.721  24.573  1.00  0.00     0.345 HD
ENDBRANCH  22  23
ENDBRANCH  16  18
ENDBRANCH   8  16
ENDBRANCH   7   8
ENDBRANCH   6   7
ENDBRANCH   3   6
ENDBRANCH   1   2
BRANCH   1  27
ATOM     27  C   UNL A   1      35.721  29.900  27.753  1.00  0.00     0.023 C 
BRANCH  27  28
ATOM     28  C   UNL A   1      35.790  29.526  29.243  1.00  0.00     0.023 C 
BRANCH  28  29
ATOM     29  C   UNL A   1      36.087  30.688  30.192  1.00  0.00     0.116 C 
BRANCH  29  30
ATOM     30  N   UNL A   1      35.042  31.732  30.146  1.00  0.00    -0.352 N 
ATOM     31  C   UNL A   1      35.110  33.117  30.306  1.00  0.00     0.251 C 
ATOM     32  H   UNL A   1      34.136  31.390  29.970  1.00  0.00     0.163 HD
ATOM     33  O   UNL A   1      34.132  33.820  30.180  1.00  0.00    -0.269 OA
BRANCH  31  34
ATOM     34  C   UNL A   1      36.445  33.703  30.562  1.00  0.00     0.039 A 
ATOM     35  C   UNL A   1      37.275  33.802  29.442  1.00  0.00     0.014 A 
ATOM     36  C   UNL A   1      36.955  33.527  31.840  1.00  0.00     0.014 A 
ATOM     37  C   UNL A   1      38.573  33.326  29.538  1.00  0.00     0.010 A 
ATOM     38  C   UNL A   1      38.224  32.996  31.922  1.00  0.00     0.010 A 
ATOM     39  C   UNL A   1      38.973  32.782  30.750  1.00  0.00    -0.014 A 
BRANCH  39  40
ATOM     40  C   UNL A   1      40.186  32.006  30.924  1.00  0.00     0.031 A 
ATOM     41  C   UNL A   1      40.184  30.664  30.301  1.00  0.00     0.074 A 
ATOM     42  C   UNL A   1      41.302  32.510  31.511  1.00  0.00     0.049 A 
ATOM     43  N   UNL A   1      41.051  29.751  30.559  1.00  0.00    -0.248 NA
ATOM     44  C   UNL A   1      39.154  30.228  29.351  1.00  0.00     0.031 C 
ATOM     45  C   UNL A   1      42.651  31.942  31.420  1.00  0.00     0.029 A 
ATOM     46  N   UNL A   1      41.460  33.530  32.463  1.00  0.00    -0.354 N 
ATOM     47  C   UNL A   1      40.923  28.809  29.568  1.00  0.00     0.074 A 
ATOM     48  C   UNL A   1      39.650  29.056  28.950  1.00  0.00     0.031 C 
ATOM     49  C   UNL A   1      43.377  32.369  32.464  1.00  0.00     0.029 A 
ATOM     50  C   UNL A   1      42.461  33.063  33.345  1.00  0.00     0.049 A 
ATOM     51  H   UNL A   1      40.977  34.386  32.508  1.00  0.00     0.167 HD
ATOM     52  C   UNL A   1      42.003  28.053  29.257  1.00  0.00     0.034 A 
ATOM     53  C   UNL A   1      42.256  32.737  34.661  1.00  0.00     0.034 A 
ATOM     54  C   UNL A   1      43.004  28.098  30.326  1.00  0.00     0.049 A 
ATOM     55  C   UNL A   1      42.645  31.301  35.013  1.00  0.00     0.074 A 
ATOM     56  C   UNL A   1      44.251  28.680  30.451  1.00  0.00     0.029 A 
ATOM     57  N   UNL A   1      42.622  27.711  31.610  1.00  0.00    -0.354 N 
ATOM     58  N   UNL A   1      43.022  30.410  34.134  1.00  0.00    -0.248 NA
ATOM     59  C   UNL A   1      42.610  30.741  36.365  1.00  0.00     0.031 C 
ATOM     60  C   UNL A   1      44.542  28.778  31.845  1.00  0.00     0.029 A 
ATOM     61  C   UNL A   1      43.502  28.202  32.560  1.00  0.00     0.049 A 
ATOM     62  H   UNL A   1      41.831  27.162  31.815  1.00  0.00     0.167 HD
ATOM     63  C   UNL A   1      43.102  29.173  34.721  1.00  0.00     0.074 A 
ATOM     64  C   UNL A   1      42.931  29.453  36.137  1.00  0.00     0.031 C 
ATOM     65  C   UNL A   1      43.220  28.020  33.985  1.00  0.00     0.034 A 
BRANCH  52  66
ATOM     66  C   UNL A   1      42.216  27.420  27.900  1.00  0.00     0.023 A 
ATOM     67  C   UNL A   1      42.189  28.268  26.777  1.00  0.00     0.012 A 
ATOM     68  C   UNL A   1      42.322  26.027  27.637  1.00  0.00     0.148 A 
ATOM     69  C   UNL A   1      42.282  27.769  25.471  1.00  0.00     0.002 A 
ATOM     70  C   UNL A   1      42.506  25.540  26.343  1.00  0.00     0.091 A 
ATOM     71  F   UNL A   1      42.127  25.138  28.618  1.00  0.00    -0.205 F 
ATOM     72  C   UNL A   1      42.470  26.409  25.252  1.00  0.00     0.022 A 
BRANCH  70  73
ATOM     73  S   UNL A   1      42.833  23.797  26.016  1.00  0.00     0.127 S 
ATOM     74  O   UNL A   1      43.283  23.822  24.626  1.00  0.00    -0.237 OA
ATOM     75  O   UNL A   1      43.880  23.485  26.990  1.00  0.00    -0.237 OA
ATOM     76  O   UNL A   1      41.573  23.103  26.256  1.00  0.00    -0.744 OA
ENDBRANCH  70  73
ENDBRANCH  52  66
BRANCH  53  77
ATOM     77  C   UNL A   1      41.174  33.532  35.309  1.00  0.00     0.023 A 
ATOM     78  C   UNL A   1      41.348  34.938  35.311  1.00  0.00     0.012 A 
ATOM     79  C   UNL A   1      39.889  33.007  35.524  1.00  0.00     0.148 A 
ATOM     80  C   UNL A   1      40.247  35.794  35.330  1.00  0.00     0.002 A 
ATOM     81  C   UNL A   1      38.796  33.872  35.573  1.00  0.00     0.091 A 
ATOM     82  F   UNL A   1      39.743  31.678  35.610  1.00  0.00    -0.205 F 
ATOM     83  C   UNL A   1      38.969  35.256  35.413  1.00  0.00     0.022 A 
BRANCH  81  84
ATOM     84  S   UNL A   1      37.110  33.264  35.732  1.00  0.00     0.127 S 
ATOM     85  O   UNL A   1      36.358  34.307  35.044  1.00  0.00    -0.237 OA
ATOM     86  O   UNL A   1      37.172  31.984  35.027  1.00  0.00    -0.237 OA
ATOM     87  O   UNL A   1      36.890  33.147  37.165  1.00  0.00    -0.744 OA
ENDBRANCH  81  84
ENDBRANCH  53  77
BRANCH  65  88
ATOM     88  C   UNL A   1      43.045  26.610  34.535  1.00  0.00     0.023 A 
ATOM     89  C   UNL A   1      41.847  26.179  35.140  1.00  0.00     0.012 A 
ATOM     90  C   UNL A   1      44.039  25.618  34.329  1.00  0.00     0.148 A 
ATOM     91  C   UNL A   1      41.670  24.863  35.589  1.00  0.00     0.002 A 
ATOM     92  C   UNL A   1      43.814  24.285  34.676  1.00  0.00     0.091 A 
ATOM     93  F   UNL A   1      45.225  25.960  33.808  1.00  0.00    -0.205 F 
ATOM     94  C   UNL A   1      42.645  23.909  35.339  1.00  0.00     0.022 A 
BRANCH  92  95
ATOM     95  S   UNL A   1      44.944  22.988  34.145  1.00  0.00     0.127 S 
ATOM     96  O   UNL A   1      44.317  21.790  34.699  1.00  0.00    -0.237 OA
ATOM     97  O   UNL A   1      44.880  23.087  32.685  1.00  0.00    -0.237 OA
ATOM     98  O   UNL A   1      46.235  23.361  34.709  1.00  0.00    -0.744 OA
ENDBRANCH  92  95
ENDBRANCH  65  88
ENDBRANCH  39  40
ENDBRANCH  31  34
ENDBRANCH  29  30
ENDBRANCH  28  29
ENDBRANCH  27  28
ENDBRANCH   1  27
TORSDOF 20
ENDMDL
MODEL 3
REMARK VINA RESULT:     -11.1      6.612     11.431
REMARK SMILES Cc1ccccc1N(CCC(=O)NCCCCNC(=O)c1ccc(-c2c3nc(c(-c4cccc(S(=O)(=O)[O-])c4F)c4ccc([nH]4)c(-c4cccc(S(=O)(=O)[O-])c4F)c4nc(c(-c5cccc(S(=O)(=O)[O-])c5F)c5ccc2[nH]5)C=C4)C=C3)cc1)C(=O)[C@@H]1C=C[C@H]([NH3+])C1
REMARK SMILES IDX 14 1 13 2 11 3 12 4 10 6 9 7 8 8 7 9 1 10 2 11 3 12 4 13
REMARK SMILES IDX 6 14 5 15 84 16 85 17 86 18 87 19 91 20 88 21 89 22 90 23
REMARK SMILES IDX 15 27 16 28 17 29 18 30 19 31 20 33 21 34 22 35 83 36 23 37
REMARK SMILES IDX 82 38 24 39 25 40 26 41 76 42 27 43 81 44 75 45 77 46 28 47
REMARK SMILES IDX 80 48 74 49 73 50 29 52 61 53 41 54 60 55 42 56 45 57 59 58
REMARK SMILES IDX 78 59 43 60 44 61 58 63 79 64 46 65 30 66 31 67 39 68 32 69
REMARK SMILES IDX 34 70 40 71 33 72 35 73 36 74 37 75 38 76 62 77 63 78 71 79
REMARK SMILES IDX 64 80 66 81 72 82 65 83 67 84 68 85 69 86 70 87 47 88 48 89
REMARK SMILES IDX 56 90 49 91 51 92 57 93 50 94 52 95 53 96 54 97 55 98
REMARK H PARENT 13 5 90 24 90 25 90 26 18 32 77 51 45 62
REMARK Flexibility Score: inf
ROOT
ATOM      1  C   UNL A   1      35.850  23.917  25.160  1.00  0.00     0.116 C 
ENDROOT
BRANCH   1   2
ATOM      2  N   UNL A   1      35.202  23.861  23.841  1.00  0.00    -0.356 N 
ATOM      3  C   UNL A   1      34.090  24.464  23.337  1.00  0.00     0.221 C 
ATOM      4  O   UNL A   1      33.798  24.264  22.154  1.00  0.00    -0.275 OA
ATOM      5  H   UNL A   1      35.662  23.274  23.198  1.00  0.00     0.163 HD
BRANCH   3   6
ATOM      6  C   UNL A   1      33.188  25.329  24.186  1.00  0.00     0.122 C 
BRANCH   6   7
ATOM      7  C   UNL A   1      32.066  25.951  23.333  1.00  0.00     0.135 C 
BRANCH   7   8
ATOM      8  N   UNL A   1      31.144  26.789  24.156  1.00  0.00    -0.311 N 
BRANCH   8   9
ATOM      9  C   UNL A   1      30.231  27.673  23.364  1.00  0.00     0.047 A 
ATOM     10  C   UNL A   1      27.848  26.694  23.901  1.00  0.00     0.046 C 
ATOM     11  C   UNL A   1      28.813  27.715  23.371  1.00  0.00    -0.027 A 
ATOM     12  C   UNL A   1      28.133  28.843  22.817  1.00  0.00     0.005 A 
ATOM     13  C   UNL A   1      28.786  29.845  22.119  1.00  0.00     0.000 A 
ATOM     14  C   UNL A   1      30.831  28.654  22.522  1.00  0.00     0.026 A 
ATOM     15  C   UNL A   1      30.138  29.716  21.917  1.00  0.00     0.002 A 
ENDBRANCH   8   9
BRANCH   8  16
ATOM     16  C   UNL A   1      31.416  26.910  25.546  1.00  0.00     0.234 C 
ATOM     17  O   UNL A   1      30.716  26.432  26.440  1.00  0.00    -0.274 OA
BRANCH  16  18
ATOM     18  C   UNL A   1      32.678  27.678  26.038  1.00  0.00     0.108 C 
ATOM     19  C   UNL A   1      32.345  28.335  27.351  1.00  0.00    -0.012 C 
ATOM     20  C   UNL A   1      33.025  28.899  25.158  1.00  0.00     0.087 C 
ATOM     21  C   UNL A   1      32.209  29.662  27.234  1.00  0.00     0.033 C 
ATOM     22  C   UNL A   1      32.452  30.145  25.846  1.00  0.00     0.205 C 
BRANCH  22  23
ATOM     23  N   UNL A   1      31.208  30.618  25.264  1.00  0.00    -0.352 N 
ATOM     24  H   UNL A   1      30.893  29.958  24.553  1.00  0.00     0.345 HD
ATOM     25  H   UNL A   1      31.358  31.532  24.837  1.00  0.00     0.345 HD
ATOM     26  H   UNL A   1      30.499  30.696  25.993  1.00  0.00     0.345 HD
ENDBRANCH  22  23
ENDBRANCH  16  18
ENDBRANCH   8  16
ENDBRANCH   7   8
ENDBRANCH   6   7
ENDBRANCH   3   6
ENDBRANCH   1   2
BRANCH   1  27
ATOM     27  C   UNL A   1      37.274  23.349  25.183  1.00  0.00     0.023 C 
BRANCH  27  28
ATOM     28  C   UNL A   1      38.329  23.966  26.117  1.00  0.00     0.023 C 
BRANCH  28  29
ATOM     29  C   UNL A   1      39.210  22.959  26.857  1.00  0.00     0.116 C 
BRANCH  29  30
ATOM     30  N   UNL A   1      40.479  22.695  26.146  1.00  0.00    -0.352 N 
ATOM     31  C   UNL A   1      41.794  23.062  26.434  1.00  0.00     0.251 C 
ATOM     32  H   UNL A   1      40.378  22.165  25.323  1.00  0.00     0.163 HD
ATOM     33  O   UNL A   1      42.721  22.699  25.743  1.00  0.00    -0.269 OA
BRANCH  31  34
ATOM     34  C   UNL A   1      42.022  23.851  27.664  1.00  0.00     0.039 A 
ATOM     35  C   UNL A   1      42.138  25.231  27.472  1.00  0.00     0.014 A 
ATOM     36  C   UNL A   1      42.674  23.197  28.699  1.00  0.00     0.014 A 
ATOM     37  C   UNL A   1      43.211  25.890  28.052  1.00  0.00     0.010 A 
ATOM     38  C   UNL A   1      43.776  23.836  29.226  1.00  0.00     0.010 A 
ATOM     39  C   UNL A   1      44.105  25.136  28.798  1.00  0.00    -0.014 A 
BRANCH  39  40
ATOM     40  C   UNL A   1      45.404  25.619  29.230  1.00  0.00     0.031 A 
ATOM     41  C   UNL A   1      46.565  25.104  28.471  1.00  0.00     0.074 A 
ATOM     42  C   UNL A   1      45.551  26.574  30.184  1.00  0.00     0.049 A 
ATOM     43  N   UNL A   1      47.784  25.216  28.862  1.00  0.00    -0.248 NA
ATOM     44  C   UNL A   1      46.430  24.368  27.208  1.00  0.00     0.031 C 
ATOM     45  C   UNL A   1      46.764  27.359  30.432  1.00  0.00     0.029 A 
ATOM     46  N   UNL A   1      44.723  26.934  31.260  1.00  0.00    -0.354 N 
ATOM     47  C   UNL A   1      48.564  24.932  27.768  1.00  0.00     0.074 A 
ATOM     48  C   UNL A   1      47.705  24.263  26.832  1.00  0.00     0.031 C 
ATOM     49  C   UNL A   1      46.736  27.820  31.692  1.00  0.00     0.029 A 
ATOM     50  C   UNL A   1      45.604  27.189  32.336  1.00  0.00     0.049 A 
ATOM     51  H   UNL A   1      43.741  26.997  31.264  1.00  0.00     0.167 HD
ATOM     52  C   UNL A   1      49.803  25.477  27.704  1.00  0.00     0.034 A 
ATOM     53  C   UNL A   1      45.685  26.433  33.477  1.00  0.00     0.034 A 
ATOM     54  C   UNL A   1      50.242  25.943  29.021  1.00  0.00     0.049 A 
ATOM     55  C   UNL A   1      47.077  25.862  33.746  1.00  0.00     0.074 A 
ATOM     56  C   UNL A   1      50.424  27.191  29.589  1.00  0.00     0.029 A 
ATOM     57  N   UNL A   1      50.281  25.027  30.072  1.00  0.00    -0.354 N 
ATOM     58  N   UNL A   1      48.082  25.965  32.917  1.00  0.00    -0.248 NA
ATOM     59  C   UNL A   1      47.444  25.103  34.944  1.00  0.00     0.031 C 
ATOM     60  C   UNL A   1      50.415  27.023  31.006  1.00  0.00     0.029 A 
ATOM     61  C   UNL A   1      50.289  25.674  31.296  1.00  0.00     0.049 A 
ATOM     62  H   UNL A   1      50.299  24.049  29.958  1.00  0.00     0.167 HD
ATOM     63  C   UNL A   1      49.126  25.183  33.341  1.00  0.00     0.074 A 
ATOM     64  C   UNL A   1      48.711  24.745  34.663  1.00  0.00     0.031 C 
ATOM     65  C   UNL A   1      50.201  24.899  32.536  1.00  0.00     0.034 A 
BRANCH  52  66
ATOM     66  C   UNL A   1      50.533  25.742  26.406  1.00  0.00     0.023 A 
ATOM     67  C   UNL A   1      51.913  25.467  26.371  1.00  0.00     0.012 A 
ATOM     68  C   UNL A   1      49.982  26.359  25.251  1.00  0.00     0.148 A 
ATOM     69  C   UNL A   1      52.698  25.766  25.249  1.00  0.00     0.002 A 
ATOM     70  C   UNL A   1      50.746  26.572  24.102  1.00  0.00     0.091 A 
ATOM     71  F   UNL A   1      48.742  26.861  25.279  1.00  0.00    -0.205 F 
ATOM     72  C   UNL A   1      52.112  26.291  24.103  1.00  0.00     0.022 A 
BRANCH  70  73
ATOM     73  S   UNL A   1      50.014  27.174  22.567  1.00  0.00     0.127 S 
ATOM     74  O   UNL A   1      51.043  26.843  21.583  1.00  0.00    -0.237 OA
ATOM     75  O   UNL A   1      48.793  26.375  22.465  1.00  0.00    -0.237 OA
ATOM     76  O   UNL A   1      49.777  28.599  22.772  1.00  0.00    -0.744 OA
ENDBRANCH  70  73
ENDBRANCH  52  66
BRANCH  53  77
ATOM     77  C   UNL A   1      44.391  25.800  33.864  1.00  0.00     0.023 A 
ATOM     78  C   UNL A   1      44.222  24.445  33.486  1.00  0.00     0.012 A 
ATOM     79  C   UNL A   1      43.574  26.330  34.876  1.00  0.00     0.148 A 
ATOM     80  C   UNL A   1      43.404  23.594  34.228  1.00  0.00     0.002 A 
ATOM     81  C   UNL A   1      42.735  25.477  35.593  1.00  0.00     0.091 A 
ATOM     82  F   UNL A   1      43.675  27.633  35.168  1.00  0.00    -0.205 F 
ATOM     83  C   UNL A   1      42.697  24.102  35.311  1.00  0.00     0.022 A 
BRANCH  81  84
ATOM     84  S   UNL A   1      41.745  26.062  36.977  1.00  0.00     0.127 S 
ATOM     85  O   UNL A   1      40.924  24.891  37.263  1.00  0.00    -0.237 OA
ATOM     86  O   UNL A   1      42.762  26.361  37.985  1.00  0.00    -0.237 OA
ATOM     87  O   UNL A   1      41.046  27.232  36.467  1.00  0.00    -0.744 OA
ENDBRANCH  81  84
ENDBRANCH  53  77
BRANCH  65  88
ATOM     88  C   UNL A   1      51.253  23.836  32.826  1.00  0.00     0.023 A 
ATOM     89  C   UNL A   1      50.941  22.463  32.893  1.00  0.00     0.012 A 
ATOM     90  C   UNL A   1      52.630  24.173  32.897  1.00  0.00     0.148 A 
ATOM     91  C   UNL A   1      51.923  21.485  33.099  1.00  0.00     0.002 A 
ATOM     92  C   UNL A   1      53.613  23.187  32.989  1.00  0.00     0.091 A 
ATOM     93  F   UNL A   1      53.003  25.461  32.893  1.00  0.00    -0.205 F 
ATOM     94  C   UNL A   1      53.263  21.843  33.127  1.00  0.00     0.022 A 
BRANCH  92  95
ATOM     95  S   UNL A   1      55.354  23.593  32.778  1.00  0.00     0.127 S 
ATOM     96  O   UNL A   1      55.970  22.893  33.902  1.00  0.00    -0.237 OA
ATOM     97  O   UNL A   1      55.659  23.021  31.465  1.00  0.00    -0.237 OA
ATOM     98  O   UNL A   1      55.407  25.049  32.817  1.00  0.00    -0.744 OA
ENDBRANCH  92  95
ENDBRANCH  65  88
ENDBRANCH  39  40
ENDBRANCH  31  34
ENDBRANCH  29  30
ENDBRANCH  28  29
ENDBRANCH  27  28
ENDBRANCH   1  27
TORSDOF 20
ENDMDL
