MODEL 1
REMARK VINA RESULT:     -11.5      0.000      0.000
REMARK SMILES CCc1ccc(C(=O)N2CSC[C@H]2C(=O)NCCCCNC(=O)c2ccc(-c3c4nc(c(-c5cccc(S(=O)(=O)[O-])c5F)c5ccc([nH]5)c(-c5cccc(S(=O)(=O)[O-])c5F)c5nc(c(-c6cccc(S(=O)(=O)[O-])c6F)c6ccc3[nH]6)C=C5)C=C4)cc2)o1
REMARK SMILES IDX 18 1 17 2 16 3 14 4 15 5 13 7 9 8 10 9 11 10 12 11 7 12 8 13
REMARK SMILES IDX 6 14 3 15 4 16 87 17 5 18 2 19 1 20 19 21 20 22 21 23 22 24
REMARK SMILES IDX 23 26 24 27 25 28 86 29 26 30 85 31 27 32 28 33 29 34 79 35
REMARK SMILES IDX 30 36 84 37 78 38 80 39 31 40 83 41 77 42 76 43 32 45 64 46
REMARK SMILES IDX 44 47 63 48 45 49 48 50 62 51 81 52 46 53 47 54 61 56 82 57
REMARK SMILES IDX 49 58 33 59 34 60 42 61 35 62 37 63 43 64 36 65 38 66 39 67
REMARK SMILES IDX 40 68 41 69 65 70 66 71 74 72 67 73 69 74 75 75 68 76 70 77
REMARK SMILES IDX 71 78 72 79 73 80 50 81 51 82 59 83 52 84 54 85 60 86 53 87
REMARK SMILES IDX 55 88 56 89 57 90 58 91
REMARK H PARENT 16 6 21 25 80 44 48 55
REMARK Flexibility Score: inf
ROOT
ATOM      1  C   UNL A   1      32.181  30.344  27.115  1.00  0.00     0.023 C 
ENDROOT
BRANCH   1   2
ATOM      2  C   UNL A   1      31.807  29.578  25.852  1.00  0.00     0.116 C 
BRANCH   2   3
ATOM      3  N   UNL A   1      31.448  28.207  26.127  1.00  0.00    -0.354 N 
ATOM      4  C   UNL A   1      31.699  27.067  25.429  1.00  0.00     0.243 C 
ATOM      5  O   UNL A   1      31.514  25.999  26.026  1.00  0.00    -0.273 OA
ATOM      6  H   UNL A   1      30.935  28.076  26.958  1.00  0.00     0.163 HD
BRANCH   4   7
ATOM      7  C   UNL A   1      32.376  27.058  24.041  1.00  0.00     0.185 C 
ATOM      8  N   UNL A   1      31.842  27.928  22.985  1.00  0.00    -0.314 N 
ATOM      9  C   UNL A   1      32.707  29.000  22.563  1.00  0.00     0.191 C 
ATOM     10  S   UNL A   1      34.386  28.427  22.862  1.00  0.00    -0.138 SA
ATOM     11  C   UNL A   1      33.888  27.261  24.169  1.00  0.00     0.106 C 
BRANCH   8  12
ATOM     12  C   UNL A   1      30.702  27.490  22.314  1.00  0.00     0.290 C 
ATOM     13  O   UNL A   1      30.775  26.499  21.585  1.00  0.00    -0.265 OA
BRANCH  12  14
ATOM     14  C   UNL A   1      29.502  28.313  22.383  1.00  0.00     0.191 A 
ATOM     15  C   UNL A   1      28.307  30.125  21.958  1.00  0.00     0.104 A 
ATOM     16  C   UNL A   1      27.605  29.417  22.906  1.00  0.00     0.046 A 
ATOM     17  O   UNL A   1      29.450  29.458  21.629  1.00  0.00    -0.456 OA
ATOM     18  C   UNL A   1      28.380  28.271  23.196  1.00  0.00     0.056 A 
BRANCH  15  19
ATOM     19  C   UNL A   1      28.104  31.448  21.312  1.00  0.00     0.072 C 
ATOM     20  C   UNL A   1      28.601  32.599  22.172  1.00  0.00     0.012 C 
ENDBRANCH  15  19
ENDBRANCH  12  14
ENDBRANCH   8  12
ENDBRANCH   4   7
ENDBRANCH   2   3
ENDBRANCH   1   2
BRANCH   1  21
ATOM     21  C   UNL A   1      31.853  31.838  27.066  1.00  0.00     0.023 C 
BRANCH  21  22
ATOM     22  C   UNL A   1      33.013  32.776  27.396  1.00  0.00     0.116 C 
BRANCH  22  23
ATOM     23  N   UNL A   1      32.594  34.135  27.712  1.00  0.00    -0.352 N 
ATOM     24  C   UNL A   1      33.103  34.979  28.672  1.00  0.00     0.251 C 
ATOM     25  H   UNL A   1      31.853  34.494  27.173  1.00  0.00     0.163 HD
ATOM     26  O   UNL A   1      32.578  36.066  28.884  1.00  0.00    -0.269 OA
BRANCH  24  27
ATOM     27  C   UNL A   1      34.267  34.538  29.469  1.00  0.00     0.039 A 
ATOM     28  C   UNL A   1      34.049  33.946  30.715  1.00  0.00     0.014 A 
ATOM     29  C   UNL A   1      35.561  34.662  28.958  1.00  0.00     0.014 A 
ATOM     30  C   UNL A   1      35.129  33.410  31.420  1.00  0.00     0.010 A 
ATOM     31  C   UNL A   1      36.624  34.067  29.629  1.00  0.00     0.010 A 
ATOM     32  C   UNL A   1      36.420  33.434  30.865  1.00  0.00    -0.014 A 
BRANCH  32  33
ATOM     33  C   UNL A   1      37.568  32.787  31.550  1.00  0.00     0.031 A 
ATOM     34  C   UNL A   1      38.277  31.629  30.903  1.00  0.00     0.074 A 
ATOM     35  C   UNL A   1      37.905  33.175  32.796  1.00  0.00     0.049 A 
ATOM     36  N   UNL A   1      39.250  30.893  31.373  1.00  0.00    -0.248 NA
ATOM     37  C   UNL A   1      37.812  31.225  29.566  1.00  0.00     0.031 C 
ATOM     38  C   UNL A   1      37.234  34.228  33.565  1.00  0.00     0.029 A 
ATOM     39  N   UNL A   1      38.875  32.710  33.648  1.00  0.00    -0.354 N 
ATOM     40  C   UNL A   1      39.486  29.917  30.413  1.00  0.00     0.074 A 
ATOM     41  C   UNL A   1      38.533  30.135  29.347  1.00  0.00     0.031 C 
ATOM     42  C   UNL A   1      37.813  34.326  34.773  1.00  0.00     0.029 A 
ATOM     43  C   UNL A   1      38.877  33.332  34.875  1.00  0.00     0.049 A 
ATOM     44  H   UNL A   1      39.508  31.997  33.404  1.00  0.00     0.167 HD
ATOM     45  C   UNL A   1      40.431  28.948  30.402  1.00  0.00     0.034 A 
ATOM     46  C   UNL A   1      39.648  33.122  35.961  1.00  0.00     0.034 A 
ATOM     47  C   UNL A   1      41.412  28.770  31.438  1.00  0.00     0.049 A 
ATOM     48  C   UNL A   1      40.730  32.078  35.899  1.00  0.00     0.074 A 
ATOM     49  C   UNL A   1      42.473  27.884  31.474  1.00  0.00     0.029 A 
ATOM     50  N   UNL A   1      41.451  29.490  32.622  1.00  0.00    -0.354 N 
ATOM     51  N   UNL A   1      41.049  31.280  34.910  1.00  0.00    -0.248 NA
ATOM     52  C   UNL A   1      41.583  31.933  37.088  1.00  0.00     0.031 C 
ATOM     53  C   UNL A   1      43.147  28.058  32.688  1.00  0.00     0.029 A 
ATOM     54  C   UNL A   1      42.515  29.065  33.399  1.00  0.00     0.049 A 
ATOM     55  H   UNL A   1      40.816  30.198  32.874  1.00  0.00     0.167 HD
ATOM     56  C   UNL A   1      42.159  30.563  35.341  1.00  0.00     0.074 A 
ATOM     57  C   UNL A   1      42.471  31.039  36.673  1.00  0.00     0.031 C 
ATOM     58  C   UNL A   1      42.849  29.589  34.699  1.00  0.00     0.034 A 
BRANCH  45  59
ATOM     59  C   UNL A   1      40.492  28.045  29.199  1.00  0.00     0.023 A 
ATOM     60  C   UNL A   1      39.580  26.976  29.088  1.00  0.00     0.012 A 
ATOM     61  C   UNL A   1      41.411  28.280  28.157  1.00  0.00     0.148 A 
ATOM     62  C   UNL A   1      39.601  26.136  27.977  1.00  0.00     0.002 A 
ATOM     63  C   UNL A   1      41.396  27.464  27.031  1.00  0.00     0.091 A 
ATOM     64  F   UNL A   1      42.286  29.287  28.290  1.00  0.00    -0.205 F 
ATOM     65  C   UNL A   1      40.501  26.386  26.944  1.00  0.00     0.022 A 
BRANCH  63  66
ATOM     66  S   UNL A   1      42.464  27.749  25.615  1.00  0.00     0.127 S 
ATOM     67  O   UNL A   1      42.244  26.536  24.830  1.00  0.00    -0.237 OA
ATOM     68  O   UNL A   1      41.889  28.963  25.035  1.00  0.00    -0.237 OA
ATOM     69  O   UNL A   1      43.808  27.913  26.153  1.00  0.00    -0.744 OA
ENDBRANCH  63  66
ENDBRANCH  45  59
BRANCH  46  70
ATOM     70  C   UNL A   1      39.473  33.974  37.172  1.00  0.00     0.023 A 
ATOM     71  C   UNL A   1      39.914  35.312  37.141  1.00  0.00     0.012 A 
ATOM     72  C   UNL A   1      38.851  33.483  38.335  1.00  0.00     0.148 A 
ATOM     73  C   UNL A   1      39.767  36.136  38.257  1.00  0.00     0.002 A 
ATOM     74  C   UNL A   1      38.659  34.326  39.425  1.00  0.00     0.091 A 
ATOM     75  F   UNL A   1      38.449  32.204  38.350  1.00  0.00    -0.205 F 
ATOM     76  C   UNL A   1      39.131  35.647  39.394  1.00  0.00     0.022 A 
BRANCH  74  77
ATOM     77  S   UNL A   1      37.735  33.820  40.880  1.00  0.00     0.127 S 
ATOM     78  O   UNL A   1      36.555  33.199  40.284  1.00  0.00    -0.237 OA
ATOM     79  O   UNL A   1      38.664  32.888  41.522  1.00  0.00    -0.237 OA
ATOM     80  O   UNL A   1      37.498  35.043  41.636  1.00  0.00    -0.744 OA
ENDBRANCH  74  77
ENDBRANCH  46  70
BRANCH  58  81
ATOM     81  C   UNL A   1      44.033  28.987  35.408  1.00  0.00     0.023 A 
ATOM     82  C   UNL A   1      45.304  29.579  35.272  1.00  0.00     0.012 A 
ATOM     83  C   UNL A   1      43.870  27.886  36.273  1.00  0.00     0.148 A 
ATOM     84  C   UNL A   1      46.401  29.067  35.963  1.00  0.00     0.002 A 
ATOM     85  C   UNL A   1      44.959  27.411  36.995  1.00  0.00     0.091 A 
ATOM     86  F   UNL A   1      42.658  27.324  36.373  1.00  0.00    -0.205 F 
ATOM     87  C   UNL A   1      46.227  27.994  36.833  1.00  0.00     0.022 A 
BRANCH  85  88
ATOM     88  S   UNL A   1      44.805  26.095  38.208  1.00  0.00     0.127 S 
ATOM     89  O   UNL A   1      44.419  24.961  37.371  1.00  0.00    -0.237 OA
ATOM     90  O   UNL A   1      46.161  26.016  38.754  1.00  0.00    -0.237 OA
ATOM     91  O   UNL A   1      43.799  26.545  39.160  1.00  0.00    -0.744 OA
ENDBRANCH  85  88
ENDBRANCH  58  81
ENDBRANCH  32  33
ENDBRANCH  24  27
ENDBRANCH  22  23
ENDBRANCH  21  22
ENDBRANCH   1  21
TORSDOF 17
ENDMDL
MODEL 2
REMARK VINA RESULT:     -11.5      1.658      2.073
REMARK SMILES CCc1ccc(C(=O)N2CSC[C@H]2C(=O)NCCCCNC(=O)c2ccc(-c3c4nc(c(-c5cccc(S(=O)(=O)[O-])c5F)c5ccc([nH]5)c(-c5cccc(S(=O)(=O)[O-])c5F)c5nc(c(-c6cccc(S(=O)(=O)[O-])c6F)c6ccc3[nH]6)C=C5)C=C4)cc2)o1
REMARK SMILES IDX 18 1 17 2 16 3 14 4 15 5 13 7 9 8 10 9 11 10 12 11 7 12 8 13
REMARK SMILES IDX 6 14 3 15 4 16 87 17 5 18 2 19 1 20 19 21 20 22 21 23 22 24
REMARK SMILES IDX 23 26 24 27 25 28 86 29 26 30 85 31 27 32 28 33 29 34 79 35
REMARK SMILES IDX 30 36 84 37 78 38 80 39 31 40 83 41 77 42 76 43 32 45 64 46
REMARK SMILES IDX 44 47 63 48 45 49 48 50 62 51 81 52 46 53 47 54 61 56 82 57
REMARK SMILES IDX 49 58 33 59 34 60 42 61 35 62 37 63 43 64 36 65 38 66 39 67
REMARK SMILES IDX 40 68 41 69 65 70 66 71 74 72 67 73 69 74 75 75 68 76 70 77
REMARK SMILES IDX 71 78 72 79 73 80 50 81 51 82 59 83 52 84 54 85 60 86 53 87
REMARK SMILES IDX 55 88 56 89 57 90 58 91
REMARK H PARENT 16 6 21 25 80 44 48 55
REMARK Flexibility Score: inf
ROOT
ATOM      1  C   UNL A   1      31.930  30.137  26.593  1.00  0.00     0.023 C 
ENDROOT
BRANCH   1   2
ATOM      2  C   UNL A   1      31.692  29.690  25.156  1.00  0.00     0.116 C 
BRANCH   2   3
ATOM      3  N   UNL A   1      32.921  29.576  24.406  1.00  0.00    -0.354 N 
ATOM      4  C   UNL A   1      33.550  28.483  23.896  1.00  0.00     0.243 C 
ATOM      5  O   UNL A   1      34.441  28.695  23.065  1.00  0.00    -0.273 OA
ATOM      6  H   UNL A   1      33.378  30.431  24.235  1.00  0.00     0.163 HD
BRANCH   4   7
ATOM      7  C   UNL A   1      33.074  27.037  24.153  1.00  0.00     0.185 C 
ATOM      8  N   UNL A   1      33.085  26.078  23.041  1.00  0.00    -0.314 N 
ATOM      9  C   UNL A   1      34.020  24.988  23.166  1.00  0.00     0.191 C 
ATOM     10  S   UNL A   1      34.241  24.728  24.932  1.00  0.00    -0.138 SA
ATOM     11  C   UNL A   1      33.786  26.436  25.368  1.00  0.00     0.106 C 
BRANCH   8  12
ATOM     12  C   UNL A   1      32.035  26.147  22.127  1.00  0.00     0.290 C 
ATOM     13  O   UNL A   1      32.226  25.794  20.962  1.00  0.00    -0.265 OA
BRANCH  12  14
ATOM     14  C   UNL A   1      30.792  26.776  22.551  1.00  0.00     0.191 A 
ATOM     15  C   UNL A   1      29.350  28.449  22.667  1.00  0.00     0.104 A 
ATOM     16  C   UNL A   1      28.929  27.515  23.587  1.00  0.00     0.046 A 
ATOM     17  O   UNL A   1      30.469  28.004  22.029  1.00  0.00    -0.456 OA
ATOM     18  C   UNL A   1      29.864  26.458  23.531  1.00  0.00     0.056 A 
BRANCH  15  19
ATOM     19  C   UNL A   1      28.882  29.814  22.309  1.00  0.00     0.072 C 
ATOM     20  C   UNL A   1      27.688  30.257  23.140  1.00  0.00     0.012 C 
ENDBRANCH  15  19
ENDBRANCH  12  14
ENDBRANCH   8  12
ENDBRANCH   4   7
ENDBRANCH   2   3
ENDBRANCH   1   2
BRANCH   1  21
ATOM     21  C   UNL A   1      31.653  31.620  26.847  1.00  0.00     0.023 C 
BRANCH  21  22
ATOM     22  C   UNL A   1      32.877  32.468  27.186  1.00  0.00     0.116 C 
BRANCH  22  23
ATOM     23  N   UNL A   1      32.559  33.857  27.490  1.00  0.00    -0.352 N 
ATOM     24  C   UNL A   1      33.124  34.667  28.449  1.00  0.00     0.251 C 
ATOM     25  H   UNL A   1      31.853  34.268  26.942  1.00  0.00     0.163 HD
ATOM     26  O   UNL A   1      32.681  35.793  28.650  1.00  0.00    -0.269 OA
BRANCH  24  27
ATOM     27  C   UNL A   1      34.245  34.146  29.259  1.00  0.00     0.039 A 
ATOM     28  C   UNL A   1      34.005  33.099  30.151  1.00  0.00     0.014 A 
ATOM     29  C   UNL A   1      35.535  34.655  29.092  1.00  0.00     0.014 A 
ATOM     30  C   UNL A   1      35.077  32.512  30.827  1.00  0.00     0.010 A 
ATOM     31  C   UNL A   1      36.608  34.025  29.712  1.00  0.00     0.010 A 
ATOM     32  C   UNL A   1      36.391  32.947  30.584  1.00  0.00    -0.014 A 
BRANCH  32  33
ATOM     33  C   UNL A   1      37.557  32.277  31.216  1.00  0.00     0.031 A 
ATOM     34  C   UNL A   1      38.341  31.247  30.451  1.00  0.00     0.074 A 
ATOM     35  C   UNL A   1      37.843  32.521  32.511  1.00  0.00     0.049 A 
ATOM     36  N   UNL A   1      39.341  30.507  30.854  1.00  0.00    -0.248 NA
ATOM     37  C   UNL A   1      37.929  30.992  29.060  1.00  0.00     0.031 C 
ATOM     38  C   UNL A   1      37.100  33.432  33.385  1.00  0.00     0.029 A 
ATOM     39  N   UNL A   1      38.817  32.001  33.326  1.00  0.00    -0.354 N 
ATOM     40  C   UNL A   1      39.651  29.674  29.786  1.00  0.00     0.074 A 
ATOM     41  C   UNL A   1      38.712  29.976  28.728  1.00  0.00     0.031 C 
ATOM     42  C   UNL A   1      37.644  33.406  34.612  1.00  0.00     0.029 A 
ATOM     43  C   UNL A   1      38.757  32.461  34.620  1.00  0.00     0.049 A 
ATOM     44  H   UNL A   1      39.493  31.357  33.013  1.00  0.00     0.167 HD
ATOM     45  C   UNL A   1      40.647  28.762  29.682  1.00  0.00     0.034 A 
ATOM     46  C   UNL A   1      39.513  32.156  35.694  1.00  0.00     0.034 A 
ATOM     47  C   UNL A   1      41.612  28.505  30.716  1.00  0.00     0.049 A 
ATOM     48  C   UNL A   1      40.651  31.184  35.533  1.00  0.00     0.074 A 
ATOM     49  C   UNL A   1      42.718  27.676  30.672  1.00  0.00     0.029 A 
ATOM     50  N   UNL A   1      41.586  29.070  31.981  1.00  0.00    -0.354 N 
ATOM     51  N   UNL A   1      41.035  30.534  34.462  1.00  0.00    -0.248 NA
ATOM     52  C   UNL A   1      41.483  30.932  36.720  1.00  0.00     0.031 C 
ATOM     53  C   UNL A   1      43.354  27.729  31.918  1.00  0.00     0.029 A 
ATOM     54  C   UNL A   1      42.652  28.604  32.730  1.00  0.00     0.049 A 
ATOM     55  H   UNL A   1      40.907  29.708  32.301  1.00  0.00     0.167 HD
ATOM     56  C   UNL A   1      42.172  29.825  34.833  1.00  0.00     0.074 A 
ATOM     57  C   UNL A   1      42.427  30.143  36.223  1.00  0.00     0.031 C 
ATOM     58  C   UNL A   1      42.928  28.976  34.095  1.00  0.00     0.034 A 
BRANCH  45  59
ATOM     59  C   UNL A   1      40.784  28.023  28.378  1.00  0.00     0.023 A 
ATOM     60  C   UNL A   1      41.448  28.640  27.298  1.00  0.00     0.012 A 
ATOM     61  C   UNL A   1      40.308  26.706  28.233  1.00  0.00     0.148 A 
ATOM     62  C   UNL A   1      41.607  27.973  26.086  1.00  0.00     0.002 A 
ATOM     63  C   UNL A   1      40.509  26.030  27.034  1.00  0.00     0.091 A 
ATOM     64  F   UNL A   1      39.658  26.143  29.262  1.00  0.00    -0.205 F 
ATOM     65  C   UNL A   1      41.147  26.665  25.957  1.00  0.00     0.022 A 
BRANCH  63  66
ATOM     66  S   UNL A   1      40.021  24.318  26.794  1.00  0.00     0.127 S 
ATOM     67  O   UNL A   1      40.943  23.893  25.742  1.00  0.00    -0.237 OA
ATOM     68  O   UNL A   1      40.287  23.734  28.109  1.00  0.00    -0.237 OA
ATOM     69  O   UNL A   1      38.614  24.351  26.419  1.00  0.00    -0.744 OA
ENDBRANCH  63  66
ENDBRANCH  45  59
BRANCH  46  70
ATOM     70  C   UNL A   1      39.265  32.837  36.996  1.00  0.00     0.023 A 
ATOM     71  C   UNL A   1      39.999  33.997  37.316  1.00  0.00     0.012 A 
ATOM     72  C   UNL A   1      38.296  32.368  37.901  1.00  0.00     0.148 A 
ATOM     73  C   UNL A   1      39.793  34.659  38.526  1.00  0.00     0.002 A 
ATOM     74  C   UNL A   1      38.058  33.063  39.082  1.00  0.00     0.091 A 
ATOM     75  F   UNL A   1      37.616  31.256  37.586  1.00  0.00    -0.205 F 
ATOM     76  C   UNL A   1      38.815  34.198  39.404  1.00  0.00     0.022 A 
BRANCH  74  77
ATOM     77  S   UNL A   1      36.731  32.617  40.209  1.00  0.00     0.127 S 
ATOM     78  O   UNL A   1      37.195  31.332  40.725  1.00  0.00    -0.237 OA
ATOM     79  O   UNL A   1      36.768  33.719  41.172  1.00  0.00    -0.237 OA
ATOM     80  O   UNL A   1      35.524  32.578  39.393  1.00  0.00    -0.744 OA
ENDBRANCH  74  77
ENDBRANCH  46  70
BRANCH  58  81
ATOM     81  C   UNL A   1      44.126  28.349  34.757  1.00  0.00     0.023 A 
ATOM     82  C   UNL A   1      45.351  29.045  34.788  1.00  0.00     0.012 A 
ATOM     83  C   UNL A   1      44.015  27.111  35.421  1.00  0.00     0.148 A 
ATOM     84  C   UNL A   1      46.456  28.504  35.443  1.00  0.00     0.002 A 
ATOM     85  C   UNL A   1      45.108  26.601  36.112  1.00  0.00     0.091 A 
ATOM     86  F   UNL A   1      42.848  26.456  35.363  1.00  0.00    -0.205 F 
ATOM     87  C   UNL A   1      46.331  27.290  36.115  1.00  0.00     0.022 A 
BRANCH  85  88
ATOM     88  S   UNL A   1      45.009  25.093  37.084  1.00  0.00     0.127 S 
ATOM     89  O   UNL A   1      46.405  24.897  37.473  1.00  0.00    -0.237 OA
ATOM     90  O   UNL A   1      44.121  25.485  38.179  1.00  0.00    -0.237 OA
ATOM     91  O   UNL A   1      44.457  24.080  36.194  1.00  0.00    -0.744 OA
ENDBRANCH  85  88
ENDBRANCH  58  81
ENDBRANCH  32  33
ENDBRANCH  24  27
ENDBRANCH  22  23
ENDBRANCH  21  22
ENDBRANCH   1  21
TORSDOF 17
ENDMDL
MODEL 3
REMARK VINA RESULT:     -11.4      6.989     12.170
REMARK SMILES CCc1ccc(C(=O)N2CSC[C@H]2C(=O)NCCCCNC(=O)c2ccc(-c3c4nc(c(-c5cccc(S(=O)(=O)[O-])c5F)c5ccc([nH]5)c(-c5cccc(S(=O)(=O)[O-])c5F)c5nc(c(-c6cccc(S(=O)(=O)[O-])c6F)c6ccc3[nH]6)C=C5)C=C4)cc2)o1
REMARK SMILES IDX 18 1 17 2 16 3 14 4 15 5 13 7 9 8 10 9 11 10 12 11 7 12 8 13
REMARK SMILES IDX 6 14 3 15 4 16 87 17 5 18 2 19 1 20 19 21 20 22 21 23 22 24
REMARK SMILES IDX 23 26 24 27 25 28 86 29 26 30 85 31 27 32 28 33 29 34 79 35
REMARK SMILES IDX 30 36 84 37 78 38 80 39 31 40 83 41 77 42 76 43 32 45 64 46
REMARK SMILES IDX 44 47 63 48 45 49 48 50 62 51 81 52 46 53 47 54 61 56 82 57
REMARK SMILES IDX 49 58 33 59 34 60 42 61 35 62 37 63 43 64 36 65 38 66 39 67
REMARK SMILES IDX 40 68 41 69 65 70 66 71 74 72 67 73 69 74 75 75 68 76 70 77
REMARK SMILES IDX 71 78 72 79 73 80 50 81 51 82 59 83 52 84 54 85 60 86 53 87
REMARK SMILES IDX 55 88 56 89 57 90 58 91
REMARK H PARENT 16 6 21 25 80 44 48 55
REMARK Flexibility Score: inf
ROOT
ATOM      1  C   UNL A   1      37.827  21.844  25.005  1.00  0.00     0.023 C 
ENDROOT
BRANCH   1   2
ATOM      2  C   UNL A   1      36.327  22.105  24.934  1.00  0.00     0.116 C 
BRANCH   2   3
ATOM      3  N   UNL A   1      35.744  22.313  26.239  1.00  0.00    -0.354 N 
ATOM      4  C   UNL A   1      34.586  22.927  26.604  1.00  0.00     0.243 C 
ATOM      5  O   UNL A   1      34.194  22.726  27.760  1.00  0.00    -0.273 OA
ATOM      6  H   UNL A   1      36.271  21.950  26.987  1.00  0.00     0.163 HD
BRANCH   4   7
ATOM      7  C   UNL A   1      33.673  23.672  25.607  1.00  0.00     0.185 C 
ATOM      8  N   UNL A   1      32.462  23.003  25.116  1.00  0.00    -0.314 N 
ATOM      9  C   UNL A   1      31.212  23.587  25.532  1.00  0.00     0.191 C 
ATOM     10  S   UNL A   1      31.550  25.334  25.800  1.00  0.00    -0.138 SA
ATOM     11  C   UNL A   1      33.322  25.069  26.127  1.00  0.00     0.106 C 
BRANCH   8  12
ATOM     12  C   UNL A   1      32.620  22.060  24.102  1.00  0.00     0.290 C 
ATOM     13  O   UNL A   1      32.469  22.406  22.929  1.00  0.00    -0.265 OA
BRANCH  12  14
ATOM     14  C   UNL A   1      32.813  20.666  24.479  1.00  0.00     0.191 A 
ATOM     15  C   UNL A   1      32.917  18.495  24.074  1.00  0.00     0.104 A 
ATOM     16  C   UNL A   1      32.903  18.629  25.443  1.00  0.00     0.046 A 
ATOM     17  O   UNL A   1      32.874  19.723  23.484  1.00  0.00    -0.456 OA
ATOM     18  C   UNL A   1      32.811  20.015  25.702  1.00  0.00     0.056 A 
BRANCH  15  19
ATOM     19  C   UNL A   1      32.895  17.321  23.162  1.00  0.00     0.072 C 
ATOM     20  C   UNL A   1      34.224  16.581  23.132  1.00  0.00     0.012 C 
ENDBRANCH  15  19
ENDBRANCH  12  14
ENDBRANCH   8  12
ENDBRANCH   4   7
ENDBRANCH   2   3
ENDBRANCH   1   2
BRANCH   1  21
ATOM     21  C   UNL A   1      38.212  20.364  24.978  1.00  0.00     0.023 C 
BRANCH  21  22
ATOM     22  C   UNL A   1      38.820  19.820  26.269  1.00  0.00     0.116 C 
BRANCH  22  23
ATOM     23  N   UNL A   1      40.045  19.059  26.063  1.00  0.00    -0.352 N 
ATOM     24  C   UNL A   1      41.343  19.513  26.095  1.00  0.00     0.251 C 
ATOM     25  H   UNL A   1      39.930  18.099  25.876  1.00  0.00     0.163 HD
ATOM     26  O   UNL A   1      42.270  18.765  25.805  1.00  0.00    -0.269 OA
BRANCH  24  27
ATOM     27  C   UNL A   1      41.599  20.926  26.445  1.00  0.00     0.039 A 
ATOM     28  C   UNL A   1      42.014  21.237  27.742  1.00  0.00     0.014 A 
ATOM     29  C   UNL A   1      41.483  21.927  25.478  1.00  0.00     0.014 A 
ATOM     30  C   UNL A   1      42.383  22.548  28.050  1.00  0.00     0.010 A 
ATOM     31  C   UNL A   1      41.916  23.216  25.768  1.00  0.00     0.010 A 
ATOM     32  C   UNL A   1      42.371  23.540  27.055  1.00  0.00    -0.014 A 
BRANCH  32  33
ATOM     33  C   UNL A   1      42.849  24.919  27.332  1.00  0.00     0.031 A 
ATOM     34  C   UNL A   1      41.935  25.918  27.986  1.00  0.00     0.074 A 
ATOM     35  C   UNL A   1      44.068  25.300  26.901  1.00  0.00     0.049 A 
ATOM     36  N   UNL A   1      42.145  27.182  28.243  1.00  0.00    -0.248 NA
ATOM     37  C   UNL A   1      40.596  25.442  28.373  1.00  0.00     0.031 C 
ATOM     38  C   UNL A   1      45.014  24.448  26.174  1.00  0.00     0.029 A 
ATOM     39  N   UNL A   1      44.710  26.510  26.983  1.00  0.00    -0.354 N 
ATOM     40  C   UNL A   1      40.959  27.663  28.784  1.00  0.00     0.074 A 
ATOM     41  C   UNL A   1      40.020  26.562  28.787  1.00  0.00     0.031 C 
ATOM     42  C   UNL A   1      46.111  25.162  25.878  1.00  0.00     0.029 A 
ATOM     43  C   UNL A   1      45.941  26.525  26.371  1.00  0.00     0.049 A 
ATOM     44  H   UNL A   1      44.324  27.294  27.438  1.00  0.00     0.167 HD
ATOM     45  C   UNL A   1      40.684  28.898  29.264  1.00  0.00     0.034 A 
ATOM     46  C   UNL A   1      46.832  27.526  26.221  1.00  0.00     0.034 A 
ATOM     47  C   UNL A   1      41.638  29.974  29.309  1.00  0.00     0.049 A 
ATOM     48  C   UNL A   1      46.525  28.873  26.817  1.00  0.00     0.074 A 
ATOM     49  C   UNL A   1      41.489  31.231  29.867  1.00  0.00     0.029 A 
ATOM     50  N   UNL A   1      42.915  29.920  28.775  1.00  0.00    -0.354 N 
ATOM     51  N   UNL A   1      45.462  29.258  27.479  1.00  0.00    -0.248 NA
ATOM     52  C   UNL A   1      47.556  29.912  26.680  1.00  0.00     0.031 C 
ATOM     53  C   UNL A   1      42.675  31.944  29.656  1.00  0.00     0.029 A 
ATOM     54  C   UNL A   1      43.565  31.124  28.983  1.00  0.00     0.049 A 
ATOM     55  H   UNL A   1      43.303  29.142  28.313  1.00  0.00     0.167 HD
ATOM     56  C   UNL A   1      45.709  30.570  27.868  1.00  0.00     0.074 A 
ATOM     57  C   UNL A   1      47.033  30.906  27.386  1.00  0.00     0.031 C 
ATOM     58  C   UNL A   1      44.906  31.425  28.549  1.00  0.00     0.034 A 
BRANCH  45  59
ATOM     59  C   UNL A   1      39.314  29.135  29.842  1.00  0.00     0.023 A 
ATOM     60  C   UNL A   1      39.053  28.768  31.177  1.00  0.00     0.012 A 
ATOM     61  C   UNL A   1      38.304  29.764  29.088  1.00  0.00     0.148 A 
ATOM     62  C   UNL A   1      37.801  28.992  31.745  1.00  0.00     0.002 A 
ATOM     63  C   UNL A   1      37.070  30.025  29.676  1.00  0.00     0.091 A 
ATOM     64  F   UNL A   1      38.562  30.086  27.813  1.00  0.00    -0.205 F 
ATOM     65  C   UNL A   1      36.813  29.629  30.998  1.00  0.00     0.022 A 
BRANCH  63  66
ATOM     66  S   UNL A   1      35.759  30.908  28.823  1.00  0.00     0.127 S 
ATOM     67  O   UNL A   1      35.102  29.826  28.091  1.00  0.00    -0.237 OA
ATOM     68  O   UNL A   1      34.980  31.454  29.935  1.00  0.00    -0.237 OA
ATOM     69  O   UNL A   1      36.422  31.910  27.998  1.00  0.00    -0.744 OA
ENDBRANCH  63  66
ENDBRANCH  45  59
BRANCH  46  70
ATOM     70  C   UNL A   1      48.134  27.267  25.541  1.00  0.00     0.023 A 
ATOM     71  C   UNL A   1      49.224  26.797  26.299  1.00  0.00     0.012 A 
ATOM     72  C   UNL A   1      48.291  27.454  24.155  1.00  0.00     0.148 A 
ATOM     73  C   UNL A   1      50.455  26.546  25.696  1.00  0.00     0.002 A 
ATOM     74  C   UNL A   1      49.506  27.151  23.550  1.00  0.00     0.091 A 
ATOM     75  F   UNL A   1      47.246  27.914  23.452  1.00  0.00    -0.205 F 
ATOM     76  C   UNL A   1      50.594  26.712  24.321  1.00  0.00     0.022 A 
BRANCH  74  77
ATOM     77  S   UNL A   1      49.735  27.210  21.769  1.00  0.00     0.127 S 
ATOM     78  O   UNL A   1      51.116  26.756  21.630  1.00  0.00    -0.237 OA
ATOM     79  O   UNL A   1      48.723  26.261  21.301  1.00  0.00    -0.237 OA
ATOM     80  O   UNL A   1      49.478  28.593  21.390  1.00  0.00    -0.744 OA
ENDBRANCH  74  77
ENDBRANCH  46  70
BRANCH  58  81
ATOM     81  C   UNL A   1      45.442  32.799  28.848  1.00  0.00     0.023 A 
ATOM     82  C   UNL A   1      46.188  33.018  30.023  1.00  0.00     0.012 A 
ATOM     83  C   UNL A   1      45.278  33.852  27.925  1.00  0.00     0.148 A 
ATOM     84  C   UNL A   1      46.738  34.271  30.290  1.00  0.00     0.002 A 
ATOM     85  C   UNL A   1      45.868  35.085  28.175  1.00  0.00     0.091 A 
ATOM     86  F   UNL A   1      44.548  33.629  26.824  1.00  0.00    -0.205 F 
ATOM     87  C   UNL A   1      46.589  35.299  29.362  1.00  0.00     0.022 A 
BRANCH  85  88
ATOM     88  S   UNL A   1      45.809  36.435  26.992  1.00  0.00     0.127 S 
ATOM     89  O   UNL A   1      46.409  35.821  25.809  1.00  0.00    -0.237 OA
ATOM     90  O   UNL A   1      44.371  36.690  26.883  1.00  0.00    -0.237 OA
ATOM     91  O   UNL A   1      46.570  37.524  27.589  1.00  0.00    -0.744 OA
ENDBRANCH  85  88
ENDBRANCH  58  81
ENDBRANCH  32  33
ENDBRANCH  24  27
ENDBRANCH  22  23
ENDBRANCH  21  22
ENDBRANCH   1  21
TORSDOF 17
ENDMDL
