MODEL 1
REMARK VINA RESULT:     -10.1      0.000      0.000
REMARK SMILES O=C(NCCCCNC(=O)[C@H](CO)NC(=O)[C@H](CS)NC(=O)[C@H](Cc1ccccc1)NC(=O)c1ccc(F)cc1)c1ccc(-c2c3nc(c(-c4cccc(S(=O)(=O)[O-])c4F)c4ccc([nH]4)c(-c4cccc(S(=O)(=O)[O-])c4F)c4nc(c(-c5cccc(S(=O)(=O)[O-])c5F)c5ccc2[nH]5)C=C4)C=C3)cc1
REMARK SMILES IDX 7 1 6 2 5 3 4 4 3 5 1 6 2 7 41 9 42 10 103 11 43 12 102 13
REMARK SMILES IDX 44 14 45 15 46 16 96 17 47 18 101 19 95 20 97 21 48 22
REMARK SMILES IDX 100 23 94 24 93 25 49 27 81 28 61 29 80 30 62 31 65 32 79 33
REMARK SMILES IDX 98 34 63 35 64 36 78 38 99 39 66 40 50 41 51 42 59 43 52 44
REMARK SMILES IDX 54 45 60 46 53 47 55 48 56 49 57 50 58 51 82 52 83 53 91 54
REMARK SMILES IDX 84 55 86 56 92 57 85 58 87 59 88 60 89 61 90 62 67 63 68 64
REMARK SMILES IDX 76 65 69 66 71 67 77 68 70 69 72 70 73 71 74 72 75 73 8 74
REMARK SMILES IDX 9 75 10 77 11 78 14 79 15 80 16 82 17 83 20 84 21 85 22 87
REMARK SMILES IDX 23 88 31 89 32 90 33 92 34 93 35 94 40 95 36 96 39 97 37 98
REMARK SMILES IDX 38 99 24 100 25 101 26 102 30 103 27 104 29 105 28 106
REMARK SMILES IDX 18 107 19 108 12 110 13 111
REMARK H PARENT 3 8 97 26 65 37 8 76 14 81 20 86 31 91 19 109 13 112
REMARK Flexibility Score: inf
ROOT
ATOM      1  C   UNL A   1      34.173  30.863  27.890  1.00  0.00     0.116 C 
ENDROOT
BRANCH   1   2
ATOM      2  C   UNL A   1      35.344  31.813  27.658  1.00  0.00     0.023 C 
BRANCH   2   3
ATOM      3  C   UNL A   1      34.963  33.282  27.804  1.00  0.00     0.023 C 
BRANCH   3   4
ATOM      4  C   UNL A   1      35.480  33.937  29.076  1.00  0.00     0.116 C 
BRANCH   4   5
ATOM      5  N   UNL A   1      34.743  33.548  30.273  1.00  0.00    -0.352 N 
ATOM      6  O   UNL A   1      34.364  32.316  32.136  1.00  0.00    -0.269 OA
ATOM      7  C   UNL A   1      35.116  32.624  31.228  1.00  0.00     0.251 C 
ATOM      8  H   UNL A   1      33.878  33.998  30.417  1.00  0.00     0.163 HD
BRANCH   7   9
ATOM      9  C   UNL A   1      36.445  32.004  31.076  1.00  0.00     0.039 A 
ATOM     10  C   UNL A   1      36.600  30.664  31.431  1.00  0.00     0.014 A 
ATOM     11  C   UNL A   1      37.547  32.800  30.764  1.00  0.00     0.014 A 
ATOM     12  C   UNL A   1      37.874  30.177  31.665  1.00  0.00     0.010 A 
ATOM     13  C   UNL A   1      38.831  32.265  30.887  1.00  0.00     0.010 A 
ATOM     14  C   UNL A   1      39.007  30.965  31.386  1.00  0.00    -0.014 A 
BRANCH  14  15
ATOM     15  C   UNL A   1      40.349  30.358  31.576  1.00  0.00     0.031 A 
ATOM     16  C   UNL A   1      41.193  30.646  32.787  1.00  0.00     0.074 A 
ATOM     17  C   UNL A   1      40.770  29.477  30.648  1.00  0.00     0.049 A 
ATOM     18  N   UNL A   1      42.347  30.126  33.119  1.00  0.00    -0.248 NA
ATOM     19  C   UNL A   1      40.696  31.648  33.745  1.00  0.00     0.031 C 
ATOM     20  C   UNL A   1      40.054  29.167  29.406  1.00  0.00     0.029 A 
ATOM     21  N   UNL A   1      41.868  28.662  30.608  1.00  0.00    -0.354 N 
ATOM     22  C   UNL A   1      42.738  30.763  34.290  1.00  0.00     0.074 A 
ATOM     23  C   UNL A   1      41.696  31.713  34.617  1.00  0.00     0.031 C 
ATOM     24  C   UNL A   1      40.691  28.183  28.763  1.00  0.00     0.029 A 
ATOM     25  C   UNL A   1      41.898  27.840  29.505  1.00  0.00     0.049 A 
ATOM     26  H   UNL A   1      42.568  28.662  31.300  1.00  0.00     0.167 HD
ATOM     27  C   UNL A   1      43.856  30.563  35.031  1.00  0.00     0.034 A 
ATOM     28  C   UNL A   1      42.798  26.916  29.122  1.00  0.00     0.034 A 
ATOM     29  C   UNL A   1      44.865  29.583  34.719  1.00  0.00     0.049 A 
ATOM     30  C   UNL A   1      43.982  26.663  30.005  1.00  0.00     0.074 A 
ATOM     31  C   UNL A   1      46.022  29.286  35.419  1.00  0.00     0.029 A 
ATOM     32  N   UNL A   1      44.835  28.734  33.623  1.00  0.00    -0.354 N 
ATOM     33  N   UNL A   1      44.283  27.217  31.154  1.00  0.00    -0.248 NA
ATOM     34  C   UNL A   1      44.940  25.647  29.552  1.00  0.00     0.031 C 
ATOM     35  C   UNL A   1      46.690  28.256  34.746  1.00  0.00     0.029 A 
ATOM     36  C   UNL A   1      45.947  27.907  33.630  1.00  0.00     0.049 A 
ATOM     37  H   UNL A   1      44.127  28.721  32.939  1.00  0.00     0.167 HD
ATOM     38  C   UNL A   1      45.469  26.623  31.561  1.00  0.00     0.074 A 
ATOM     39  C   UNL A   1      45.800  25.626  30.560  1.00  0.00     0.031 C 
ATOM     40  C   UNL A   1      46.237  26.900  32.643  1.00  0.00     0.034 A 
BRANCH  27  41
ATOM     41  C   UNL A   1      44.032  31.381  36.285  1.00  0.00     0.023 A 
ATOM     42  C   UNL A   1      43.585  30.861  37.516  1.00  0.00     0.012 A 
ATOM     43  C   UNL A   1      44.716  32.613  36.264  1.00  0.00     0.148 A 
ATOM     44  C   UNL A   1      43.798  31.560  38.704  1.00  0.00     0.002 A 
ATOM     45  C   UNL A   1      44.956  33.289  37.457  1.00  0.00     0.091 A 
ATOM     46  F   UNL A   1      45.116  33.103  35.082  1.00  0.00    -0.205 F 
ATOM     47  C   UNL A   1      44.492  32.767  38.676  1.00  0.00     0.022 A 
BRANCH  45  48
ATOM     48  S   UNL A   1      45.902  34.816  37.534  1.00  0.00     0.127 S 
ATOM     49  O   UNL A   1      47.109  34.450  36.794  1.00  0.00    -0.237 OA
ATOM     50  O   UNL A   1      45.024  35.759  36.841  1.00  0.00    -0.237 OA
ATOM     51  O   UNL A   1      46.094  35.094  38.951  1.00  0.00    -0.744 OA
ENDBRANCH  45  48
ENDBRANCH  27  41
BRANCH  28  52
ATOM     52  C   UNL A   1      42.570  26.150  27.867  1.00  0.00     0.023 A 
ATOM     53  C   UNL A   1      42.947  26.707  26.631  1.00  0.00     0.012 A 
ATOM     54  C   UNL A   1      42.065  24.837  27.902  1.00  0.00     0.148 A 
ATOM     55  C   UNL A   1      42.814  25.971  25.451  1.00  0.00     0.002 A 
ATOM     56  C   UNL A   1      42.003  24.085  26.735  1.00  0.00     0.091 A 
ATOM     57  F   UNL A   1      41.686  24.328  29.084  1.00  0.00    -0.205 F 
ATOM     58  C   UNL A   1      42.360  24.655  25.506  1.00  0.00     0.022 A 
BRANCH  56  59
ATOM     59  S   UNL A   1      41.611  22.333  26.785  1.00  0.00     0.127 S 
ATOM     60  O   UNL A   1      40.173  22.352  27.036  1.00  0.00    -0.237 OA
ATOM     61  O   UNL A   1      41.997  21.885  25.446  1.00  0.00    -0.237 OA
ATOM     62  O   UNL A   1      42.448  21.796  27.850  1.00  0.00    -0.744 OA
ENDBRANCH  56  59
ENDBRANCH  28  52
BRANCH  40  63
ATOM     63  C   UNL A   1      47.515  26.122  32.783  1.00  0.00     0.023 A 
ATOM     64  C   UNL A   1      48.652  26.530  32.055  1.00  0.00     0.012 A 
ATOM     65  C   UNL A   1      47.604  25.014  33.645  1.00  0.00     0.148 A 
ATOM     66  C   UNL A   1      49.848  25.824  32.157  1.00  0.00     0.002 A 
ATOM     67  C   UNL A   1      48.813  24.339  33.772  1.00  0.00     0.091 A 
ATOM     68  F   UNL A   1      46.505  24.625  34.307  1.00  0.00    -0.205 F 
ATOM     69  C   UNL A   1      49.932  24.736  33.022  1.00  0.00     0.022 A 
BRANCH  67  70
ATOM     70  S   UNL A   1      49.018  22.975  34.921  1.00  0.00     0.127 S 
ATOM     71  O   UNL A   1      50.420  22.617  34.713  1.00  0.00    -0.237 OA
ATOM     72  O   UNL A   1      48.735  23.602  36.212  1.00  0.00    -0.237 OA
ATOM     73  O   UNL A   1      48.042  21.973  34.516  1.00  0.00    -0.744 OA
ENDBRANCH  67  70
ENDBRANCH  40  63
ENDBRANCH  14  15
ENDBRANCH   7   9
ENDBRANCH   4   5
ENDBRANCH   3   4
ENDBRANCH   2   3
ENDBRANCH   1   2
BRANCH   1  74
ATOM     74  N   UNL A   1      32.923  31.507  27.538  1.00  0.00    -0.354 N 
ATOM     75  C   UNL A   1      31.938  31.142  26.671  1.00  0.00     0.244 C 
ATOM     76  H   UNL A   1      32.757  32.356  28.007  1.00  0.00     0.163 HD
ATOM     77  O   UNL A   1      31.035  31.959  26.469  1.00  0.00    -0.273 OA
BRANCH  75  78
ATOM     78  C   UNL A   1      31.884  29.724  26.059  1.00  0.00     0.197 C 
BRANCH  78  79
ATOM     79  N   UNL A   1      32.742  29.707  24.864  1.00  0.00    -0.340 N 
ATOM     80  C   UNL A   1      32.810  28.795  23.855  1.00  0.00     0.244 C 
ATOM     81  H   UNL A   1      33.359  30.470  24.782  1.00  0.00     0.164 HD
ATOM     82  O   UNL A   1      33.944  28.491  23.467  1.00  0.00    -0.273 OA
BRANCH  80  83
ATOM     83  C   UNL A   1      31.552  28.403  23.044  1.00  0.00     0.181 C 
BRANCH  83  84
ATOM     84  N   UNL A   1      30.612  27.691  23.927  1.00  0.00    -0.342 N 
ATOM     85  C   UNL A   1      30.434  26.365  24.167  1.00  0.00     0.243 C 
ATOM     86  H   UNL A   1      30.007  28.279  24.434  1.00  0.00     0.164 HD
ATOM     87  O   UNL A   1      29.336  26.022  24.619  1.00  0.00    -0.273 OA
BRANCH  85  88
ATOM     88  C   UNL A   1      31.596  25.347  24.074  1.00  0.00     0.176 C 
BRANCH  88  89
ATOM     89  N   UNL A   1      32.222  25.334  22.746  1.00  0.00    -0.340 N 
ATOM     90  C   UNL A   1      32.874  24.323  22.094  1.00  0.00     0.251 C 
ATOM     91  H   UNL A   1      32.164  26.181  22.250  1.00  0.00     0.164 HD
ATOM     92  O   UNL A   1      33.230  24.487  20.931  1.00  0.00    -0.269 OA
BRANCH  90  93
ATOM     93  C   UNL A   1      33.279  23.107  22.823  1.00  0.00     0.040 A 
ATOM     94  C   UNL A   1      34.630  23.008  23.184  1.00  0.00     0.017 A 
ATOM     95  C   UNL A   1      32.375  22.100  23.176  1.00  0.00     0.017 A 
ATOM     96  C   UNL A   1      35.068  21.928  23.947  1.00  0.00     0.040 A 
ATOM     97  C   UNL A   1      32.818  21.024  23.948  1.00  0.00     0.040 A 
ATOM     98  C   UNL A   1      34.155  20.953  24.333  1.00  0.00     0.123 A 
ATOM     99  F   UNL A   1      34.570  19.928  25.089  1.00  0.00    -0.207 F 
ENDBRANCH  90  93
ENDBRANCH  88  89
BRANCH  88 100
ATOM    100  C   UNL A   1      32.621  25.627  25.194  1.00  0.00     0.070 C 
BRANCH 100 101
ATOM    101  C   UNL A   1      32.877  24.421  26.080  1.00  0.00    -0.045 A 
ATOM    102  C   UNL A   1      34.171  24.078  26.502  1.00  0.00     0.004 A 
ATOM    103  C   UNL A   1      31.809  23.614  26.493  1.00  0.00     0.004 A 
ATOM    104  C   UNL A   1      34.385  22.998  27.358  1.00  0.00     0.000 A 
ATOM    105  C   UNL A   1      32.025  22.522  27.337  1.00  0.00     0.000 A 
ATOM    106  C   UNL A   1      33.311  22.221  27.779  1.00  0.00     0.000 A 
ENDBRANCH 100 101
ENDBRANCH  88 100
ENDBRANCH  85  88
ENDBRANCH  83  84
BRANCH  83 107
ATOM    107  C   UNL A   1      30.756  29.455  22.267  1.00  0.00     0.101 C 
BRANCH 107 108
ATOM    108  S   UNL A   1      29.043  29.681  22.853  1.00  0.00    -0.177 SA
ATOM    109  H   UNL A   1      28.456  30.693  22.160  1.00  0.00     0.102 HD
ENDBRANCH 107 108
ENDBRANCH  83 107
ENDBRANCH  80  83
ENDBRANCH  78  79
BRANCH  78 110
ATOM    110  C   UNL A   1      32.362  28.608  27.005  1.00  0.00     0.191 C 
BRANCH 110 111
ATOM    111  O   UNL A   1      31.252  27.948  27.620  1.00  0.00    -0.394 OA
ATOM    112  H   UNL A   1      30.877  27.301  27.003  1.00  0.00     0.210 HD
ENDBRANCH 110 111
ENDBRANCH  78 110
ENDBRANCH  75  78
ENDBRANCH   1  74
TORSDOF 26
ENDMDL
MODEL 2
REMARK VINA RESULT:      -9.7      1.342      7.339
REMARK SMILES O=C(NCCCCNC(=O)[C@H](CO)NC(=O)[C@H](CS)NC(=O)[C@H](Cc1ccccc1)NC(=O)c1ccc(F)cc1)c1ccc(-c2c3nc(c(-c4cccc(S(=O)(=O)[O-])c4F)c4ccc([nH]4)c(-c4cccc(S(=O)(=O)[O-])c4F)c4nc(c(-c5cccc(S(=O)(=O)[O-])c5F)c5ccc2[nH]5)C=C4)C=C3)cc1
REMARK SMILES IDX 7 1 6 2 5 3 4 4 3 5 1 6 2 7 41 9 42 10 103 11 43 12 102 13
REMARK SMILES IDX 44 14 45 15 46 16 96 17 47 18 101 19 95 20 97 21 48 22
REMARK SMILES IDX 100 23 94 24 93 25 49 27 81 28 61 29 80 30 62 31 65 32 79 33
REMARK SMILES IDX 98 34 63 35 64 36 78 38 99 39 66 40 50 41 51 42 59 43 52 44
REMARK SMILES IDX 54 45 60 46 53 47 55 48 56 49 57 50 58 51 82 52 83 53 91 54
REMARK SMILES IDX 84 55 86 56 92 57 85 58 87 59 88 60 89 61 90 62 67 63 68 64
REMARK SMILES IDX 76 65 69 66 71 67 77 68 70 69 72 70 73 71 74 72 75 73 8 74
REMARK SMILES IDX 9 75 10 77 11 78 14 79 15 80 16 82 17 83 20 84 21 85 22 87
REMARK SMILES IDX 23 88 31 89 32 90 33 92 34 93 35 94 40 95 36 96 39 97 37 98
REMARK SMILES IDX 38 99 24 100 25 101 26 102 30 103 27 104 29 105 28 106
REMARK SMILES IDX 18 107 19 108 12 110 13 111
REMARK H PARENT 3 8 97 26 65 37 8 76 14 81 20 86 31 91 19 109 13 112
REMARK Flexibility Score: inf
ROOT
ATOM      1  C   UNL A   1      34.623  30.659  27.449  1.00  0.00     0.116 C 
ENDROOT
BRANCH   1   2
ATOM      2  C   UNL A   1      35.233  30.789  28.842  1.00  0.00     0.023 C 
BRANCH   2   3
ATOM      3  C   UNL A   1      36.730  31.076  28.817  1.00  0.00     0.023 C 
BRANCH   3   4
ATOM      4  C   UNL A   1      37.156  32.242  29.697  1.00  0.00     0.116 C 
BRANCH   4   5
ATOM      5  N   UNL A   1      36.269  32.473  30.831  1.00  0.00    -0.352 N 
ATOM      6  O   UNL A   1      35.570  32.217  32.970  1.00  0.00    -0.269 OA
ATOM      7  C   UNL A   1      36.436  32.041  32.131  1.00  0.00     0.251 C 
ATOM      8  H   UNL A   1      35.456  32.998  30.647  1.00  0.00     0.163 HD
BRANCH   7   9
ATOM      9  C   UNL A   1      37.688  31.326  32.444  1.00  0.00     0.039 A 
ATOM     10  C   UNL A   1      38.896  32.011  32.314  1.00  0.00     0.014 A 
ATOM     11  C   UNL A   1      37.657  29.952  32.678  1.00  0.00     0.014 A 
ATOM     12  C   UNL A   1      40.070  31.283  32.223  1.00  0.00     0.010 A 
ATOM     13  C   UNL A   1      38.858  29.238  32.704  1.00  0.00     0.010 A 
ATOM     14  C   UNL A   1      40.070  29.891  32.427  1.00  0.00    -0.014 A 
BRANCH  14  15
ATOM     15  C   UNL A   1      41.372  29.177  32.401  1.00  0.00     0.031 A 
ATOM     16  C   UNL A   1      41.865  28.457  31.176  1.00  0.00     0.074 A 
ATOM     17  C   UNL A   1      42.141  29.247  33.504  1.00  0.00     0.049 A 
ATOM     18  N   UNL A   1      43.015  27.860  30.989  1.00  0.00    -0.248 NA
ATOM     19  C   UNL A   1      40.962  28.381  30.016  1.00  0.00     0.031 C 
ATOM     20  C   UNL A   1      41.734  29.873  34.767  1.00  0.00     0.029 A 
ATOM     21  N   UNL A   1      43.422  28.826  33.742  1.00  0.00    -0.354 N 
ATOM     22  C   UNL A   1      42.959  27.300  29.718  1.00  0.00     0.074 A 
ATOM     23  C   UNL A   1      41.659  27.629  29.173  1.00  0.00     0.031 C 
ATOM     24  C   UNL A   1      42.766  29.858  35.619  1.00  0.00     0.029 A 
ATOM     25  C   UNL A   1      43.882  29.160  34.994  1.00  0.00     0.049 A 
ATOM     26  H   UNL A   1      43.961  28.333  33.081  1.00  0.00     0.167 HD
ATOM     27  C   UNL A   1      43.911  26.591  29.063  1.00  0.00     0.034 A 
ATOM     28  C   UNL A   1      45.068  28.925  35.585  1.00  0.00     0.034 A 
ATOM     29  C   UNL A   1      45.218  26.309  29.598  1.00  0.00     0.049 A 
ATOM     30  C   UNL A   1      46.127  28.209  34.804  1.00  0.00     0.074 A 
ATOM     31  C   UNL A   1      46.262  25.619  29.004  1.00  0.00     0.029 A 
ATOM     32  N   UNL A   1      45.666  26.707  30.849  1.00  0.00    -0.354 N 
ATOM     33  N   UNL A   1      46.080  27.768  33.570  1.00  0.00    -0.248 NA
ATOM     34  C   UNL A   1      47.406  27.973  35.484  1.00  0.00     0.031 C 
ATOM     35  C   UNL A   1      47.341  25.603  29.896  1.00  0.00     0.029 A 
ATOM     36  C   UNL A   1      46.973  26.287  31.043  1.00  0.00     0.049 A 
ATOM     37  H   UNL A   1      45.134  27.214  31.504  1.00  0.00     0.167 HD
ATOM     38  C   UNL A   1      47.320  27.196  33.326  1.00  0.00     0.074 A 
ATOM     39  C   UNL A   1      48.115  27.398  34.523  1.00  0.00     0.031 C 
ATOM     40  C   UNL A   1      47.753  26.530  32.228  1.00  0.00     0.034 A 
BRANCH  27  41
ATOM     41  C   UNL A   1      43.602  26.109  27.668  1.00  0.00     0.023 A 
ATOM     42  C   UNL A   1      43.733  27.002  26.586  1.00  0.00     0.012 A 
ATOM     43  C   UNL A   1      43.275  24.762  27.416  1.00  0.00     0.148 A 
ATOM     44  C   UNL A   1      43.525  26.568  25.276  1.00  0.00     0.002 A 
ATOM     45  C   UNL A   1      43.103  24.328  26.105  1.00  0.00     0.091 A 
ATOM     46  F   UNL A   1      43.136  23.931  28.459  1.00  0.00    -0.205 F 
ATOM     47  C   UNL A   1      43.222  25.230  25.035  1.00  0.00     0.022 A 
BRANCH  45  48
ATOM     48  S   UNL A   1      42.780  22.610  25.685  1.00  0.00     0.127 S 
ATOM     49  O   UNL A   1      41.362  22.488  26.022  1.00  0.00    -0.237 OA
ATOM     50  O   UNL A   1      43.071  22.581  24.251  1.00  0.00    -0.237 OA
ATOM     51  O   UNL A   1      43.689  21.821  26.505  1.00  0.00    -0.744 OA
ENDBRANCH  45  48
ENDBRANCH  27  41
BRANCH  28  52
ATOM     52  C   UNL A   1      45.305  29.419  36.969  1.00  0.00     0.023 A 
ATOM     53  C   UNL A   1      45.153  28.542  38.059  1.00  0.00     0.012 A 
ATOM     54  C   UNL A   1      45.768  30.728  37.201  1.00  0.00     0.148 A 
ATOM     55  C   UNL A   1      45.448  28.966  39.357  1.00  0.00     0.002 A 
ATOM     56  C   UNL A   1      46.128  31.120  38.485  1.00  0.00     0.091 A 
ATOM     57  F   UNL A   1      45.885  31.561  36.156  1.00  0.00    -0.205 F 
ATOM     58  C   UNL A   1      45.953  30.248  39.567  1.00  0.00     0.022 A 
BRANCH  56  59
ATOM     59  S   UNL A   1      46.961  32.685  38.773  1.00  0.00     0.127 S 
ATOM     60  O   UNL A   1      45.928  33.649  38.408  1.00  0.00    -0.237 OA
ATOM     61  O   UNL A   1      47.266  32.621  40.203  1.00  0.00    -0.237 OA
ATOM     62  O   UNL A   1      48.139  32.641  37.917  1.00  0.00    -0.744 OA
ENDBRANCH  56  59
ENDBRANCH  28  52
BRANCH  40  63
ATOM     63  C   UNL A   1      49.143  25.961  32.286  1.00  0.00     0.023 A 
ATOM     64  C   UNL A   1      50.208  26.687  31.713  1.00  0.00     0.012 A 
ATOM     65  C   UNL A   1      49.404  24.735  32.924  1.00  0.00     0.148 A 
ATOM     66  C   UNL A   1      51.506  26.182  31.744  1.00  0.00     0.002 A 
ATOM     67  C   UNL A   1      50.708  24.256  32.985  1.00  0.00     0.091 A 
ATOM     68  F   UNL A   1      48.374  24.046  33.438  1.00  0.00    -0.205 F 
ATOM     69  C   UNL A   1      51.758  24.973  32.387  1.00  0.00     0.022 A 
BRANCH  67  70
ATOM     70  S   UNL A   1      51.121  22.744  33.861  1.00  0.00     0.127 S 
ATOM     71  O   UNL A   1      50.194  21.788  33.259  1.00  0.00    -0.237 OA
ATOM     72  O   UNL A   1      52.524  22.542  33.500  1.00  0.00    -0.237 OA
ATOM     73  O   UNL A   1      50.902  23.038  35.271  1.00  0.00    -0.744 OA
ENDBRANCH  67  70
ENDBRANCH  40  63
ENDBRANCH  14  15
ENDBRANCH   7   9
ENDBRANCH   4   5
ENDBRANCH   3   4
ENDBRANCH   2   3
ENDBRANCH   1   2
BRANCH   1  74
ATOM     74  N   UNL A   1      33.400  31.432  27.359  1.00  0.00    -0.354 N 
ATOM     75  C   UNL A   1      32.239  31.200  26.685  1.00  0.00     0.244 C 
ATOM     76  H   UNL A   1      33.410  32.270  27.874  1.00  0.00     0.163 HD
ATOM     77  O   UNL A   1      31.401  32.106  26.681  1.00  0.00    -0.273 OA
BRANCH  75  78
ATOM     78  C   UNL A   1      31.930  29.822  26.056  1.00  0.00     0.197 C 
BRANCH  78  79
ATOM     79  N   UNL A   1      32.694  29.708  24.805  1.00  0.00    -0.340 N 
ATOM     80  C   UNL A   1      32.621  28.764  23.825  1.00  0.00     0.244 C 
ATOM     81  H   UNL A   1      33.356  30.420  24.652  1.00  0.00     0.164 HD
ATOM     82  O   UNL A   1      33.698  28.367  23.367  1.00  0.00    -0.273 OA
BRANCH  80  83
ATOM     83  C   UNL A   1      31.282  28.443  23.120  1.00  0.00     0.181 C 
BRANCH  83  84
ATOM     84  N   UNL A   1      30.421  27.685  24.045  1.00  0.00    -0.342 N 
ATOM     85  C   UNL A   1      30.330  26.353  24.300  1.00  0.00     0.243 C 
ATOM     86  H   UNL A   1      29.803  28.242  24.572  1.00  0.00     0.164 HD
ATOM     87  O   UNL A   1      29.272  25.951  24.797  1.00  0.00    -0.273 OA
BRANCH  85  88
ATOM     88  C   UNL A   1      31.543  25.403  24.166  1.00  0.00     0.176 C 
BRANCH  88  89
ATOM     89  N   UNL A   1      32.182  25.496  22.847  1.00  0.00    -0.340 N 
ATOM     90  C   UNL A   1      32.900  24.560  22.153  1.00  0.00     0.251 C 
ATOM     91  H   UNL A   1      32.079  26.363  22.394  1.00  0.00     0.164 HD
ATOM     92  O   UNL A   1      33.257  24.805  21.005  1.00  0.00    -0.269 OA
BRANCH  90  93
ATOM     93  C   UNL A   1      33.370  23.334  22.824  1.00  0.00     0.040 A 
ATOM     94  C   UNL A   1      34.733  23.274  23.145  1.00  0.00     0.017 A 
ATOM     95  C   UNL A   1      32.514  22.281  23.162  1.00  0.00     0.017 A 
ATOM     96  C   UNL A   1      35.232  22.184  23.855  1.00  0.00     0.040 A 
ATOM     97  C   UNL A   1      33.018  21.195  23.880  1.00  0.00     0.040 A 
ATOM     98  C   UNL A   1      34.367  21.161  24.228  1.00  0.00     0.123 A 
ATOM     99  F   UNL A   1      34.840  20.126  24.933  1.00  0.00    -0.207 F 
ENDBRANCH  90  93
ENDBRANCH  88  89
BRANCH  88 100
ATOM    100  C   UNL A   1      32.542  25.673  25.313  1.00  0.00     0.070 C 
BRANCH 100 101
ATOM    101  C   UNL A   1      32.838  24.439  26.146  1.00  0.00    -0.045 A 
ATOM    102  C   UNL A   1      34.149  24.088  26.502  1.00  0.00     0.004 A 
ATOM    103  C   UNL A   1      31.789  23.614  26.574  1.00  0.00     0.004 A 
ATOM    104  C   UNL A   1      34.401  22.980  27.312  1.00  0.00     0.000 A 
ATOM    105  C   UNL A   1      32.044  22.495  27.371  1.00  0.00     0.000 A 
ATOM    106  C   UNL A   1      33.348  22.185  27.750  1.00  0.00     0.000 A 
ENDBRANCH 100 101
ENDBRANCH  88 100
ENDBRANCH  85  88
ENDBRANCH  83  84
BRANCH  83 107
ATOM    107  C   UNL A   1      30.432  29.554  22.497  1.00  0.00     0.101 C 
BRANCH 107 108
ATOM    108  S   UNL A   1      28.633  29.298  22.655  1.00  0.00    -0.177 SA
ATOM    109  H   UNL A   1      28.278  28.159  22.004  1.00  0.00     0.102 HD
ENDBRANCH 107 108
ENDBRANCH  83 107
ENDBRANCH  80  83
ENDBRANCH  78  79
BRANCH  78 110
ATOM    110  C   UNL A   1      32.295  28.623  26.950  1.00  0.00     0.191 C 
BRANCH 110 111
ATOM    111  O   UNL A   1      31.197  28.256  27.789  1.00  0.00    -0.394 OA
ATOM    112  H   UNL A   1      30.956  29.007  28.354  1.00  0.00     0.210 HD
ENDBRANCH 110 111
ENDBRANCH  78 110
ENDBRANCH  75  78
ENDBRANCH   1  74
TORSDOF 26
ENDMDL
MODEL 3
REMARK VINA RESULT:      -9.7      6.063     12.085
REMARK SMILES O=C(NCCCCNC(=O)[C@H](CO)NC(=O)[C@H](CS)NC(=O)[C@H](Cc1ccccc1)NC(=O)c1ccc(F)cc1)c1ccc(-c2c3nc(c(-c4cccc(S(=O)(=O)[O-])c4F)c4ccc([nH]4)c(-c4cccc(S(=O)(=O)[O-])c4F)c4nc(c(-c5cccc(S(=O)(=O)[O-])c5F)c5ccc2[nH]5)C=C4)C=C3)cc1
REMARK SMILES IDX 7 1 6 2 5 3 4 4 3 5 1 6 2 7 41 9 42 10 103 11 43 12 102 13
REMARK SMILES IDX 44 14 45 15 46 16 96 17 47 18 101 19 95 20 97 21 48 22
REMARK SMILES IDX 100 23 94 24 93 25 49 27 81 28 61 29 80 30 62 31 65 32 79 33
REMARK SMILES IDX 98 34 63 35 64 36 78 38 99 39 66 40 50 41 51 42 59 43 52 44
REMARK SMILES IDX 54 45 60 46 53 47 55 48 56 49 57 50 58 51 82 52 83 53 91 54
REMARK SMILES IDX 84 55 86 56 92 57 85 58 87 59 88 60 89 61 90 62 67 63 68 64
REMARK SMILES IDX 76 65 69 66 71 67 77 68 70 69 72 70 73 71 74 72 75 73 8 74
REMARK SMILES IDX 9 75 10 77 11 78 14 79 15 80 16 82 17 83 20 84 21 85 22 87
REMARK SMILES IDX 23 88 31 89 32 90 33 92 34 93 35 94 40 95 36 96 39 97 37 98
REMARK SMILES IDX 38 99 24 100 25 101 26 102 30 103 27 104 29 105 28 106
REMARK SMILES IDX 18 107 19 108 12 110 13 111
REMARK H PARENT 3 8 97 26 65 37 8 76 14 81 20 86 31 91 19 109 13 112
REMARK Flexibility Score: inf
ROOT
ATOM      1  C   UNL A   1      48.975  25.571  28.919  1.00  0.00     0.116 C 
ENDROOT
BRANCH   1   2
ATOM      2  C   UNL A   1      49.673  26.220  30.110  1.00  0.00     0.023 C 
BRANCH   2   3
ATOM      3  C   UNL A   1      51.180  26.355  29.922  1.00  0.00     0.023 C 
BRANCH   3   4
ATOM      4  C   UNL A   1      51.785  27.577  30.596  1.00  0.00     0.116 C 
BRANCH   4   5
ATOM      5  N   UNL A   1      52.588  28.402  29.700  1.00  0.00    -0.352 N 
ATOM      6  O   UNL A   1      52.919  30.028  28.158  1.00  0.00    -0.269 OA
ATOM      7  C   UNL A   1      52.169  29.479  28.947  1.00  0.00     0.251 C 
ATOM      8  H   UNL A   1      53.540  28.161  29.624  1.00  0.00     0.163 HD
BRANCH   7   9
ATOM      9  C   UNL A   1      50.768  29.908  29.113  1.00  0.00     0.039 A 
ATOM     10  C   UNL A   1      50.443  30.715  30.203  1.00  0.00     0.014 A 
ATOM     11  C   UNL A   1      49.777  29.357  28.300  1.00  0.00     0.014 A 
ATOM     12  C   UNL A   1      49.118  30.808  30.594  1.00  0.00     0.010 A 
ATOM     13  C   UNL A   1      48.435  29.554  28.633  1.00  0.00     0.010 A 
ATOM     14  C   UNL A   1      48.096  30.239  29.811  1.00  0.00    -0.014 A 
BRANCH  14  15
ATOM     15  C   UNL A   1      46.688  30.445  30.237  1.00  0.00     0.031 A 
ATOM     16  C   UNL A   1      46.017  29.549  31.241  1.00  0.00     0.074 A 
ATOM     17  C   UNL A   1      46.037  31.513  29.737  1.00  0.00     0.049 A 
ATOM     18  N   UNL A   1      44.821  29.659  31.762  1.00  0.00    -0.248 NA
ATOM     19  C   UNL A   1      46.767  28.376  31.721  1.00  0.00     0.031 C 
ATOM     20  C   UNL A   1      46.576  32.415  28.713  1.00  0.00     0.029 A 
ATOM     21  N   UNL A   1      44.810  32.044  30.032  1.00  0.00    -0.354 N 
ATOM     22  C   UNL A   1      44.654  28.555  32.588  1.00  0.00     0.074 A 
ATOM     23  C   UNL A   1      45.875  27.781  32.504  1.00  0.00     0.031 C 
ATOM     24  C   UNL A   1      45.719  33.423  28.518  1.00  0.00     0.029 A 
ATOM     25  C   UNL A   1      44.538  33.204  29.345  1.00  0.00     0.049 A 
ATOM     26  H   UNL A   1      44.184  31.636  30.673  1.00  0.00     0.167 HD
ATOM     27  C   UNL A   1      43.587  28.226  33.356  1.00  0.00     0.034 A 
ATOM     28  C   UNL A   1      43.457  34.004  29.367  1.00  0.00     0.034 A 
ATOM     29  C   UNL A   1      42.394  29.027  33.467  1.00  0.00     0.049 A 
ATOM     30  C   UNL A   1      42.327  33.655  30.287  1.00  0.00     0.074 A 
ATOM     31  C   UNL A   1      41.268  28.793  34.236  1.00  0.00     0.029 A 
ATOM     32  N   UNL A   1      42.176  30.221  32.796  1.00  0.00    -0.354 N 
ATOM     33  N   UNL A   1      42.231  32.652  31.125  1.00  0.00    -0.248 NA
ATOM     34  C   UNL A   1      41.167  34.554  30.281  1.00  0.00     0.031 C 
ATOM     35  C   UNL A   1      40.369  29.847  34.031  1.00  0.00     0.029 A 
ATOM     36  C   UNL A   1      40.939  30.742  33.139  1.00  0.00     0.049 A 
ATOM     37  H   UNL A   1      42.809  30.639  32.167  1.00  0.00     0.167 HD
ATOM     38  C   UNL A   1      40.998  32.793  31.744  1.00  0.00     0.074 A 
ATOM     39  C   UNL A   1      40.407  34.011  31.222  1.00  0.00     0.031 C 
ATOM     40  C   UNL A   1      40.389  31.972  32.633  1.00  0.00     0.034 A 
BRANCH  27  41
ATOM     41  C   UNL A   1      43.669  26.969  34.185  1.00  0.00     0.023 A 
ATOM     42  C   UNL A   1      43.479  25.719  33.562  1.00  0.00     0.012 A 
ATOM     43  C   UNL A   1      44.022  27.014  35.549  1.00  0.00     0.148 A 
ATOM     44  C   UNL A   1      43.620  24.535  34.286  1.00  0.00     0.002 A 
ATOM     45  C   UNL A   1      44.195  25.828  36.256  1.00  0.00     0.091 A 
ATOM     46  F   UNL A   1      44.179  28.212  36.130  1.00  0.00    -0.205 F 
ATOM     47  C   UNL A   1      43.989  24.589  35.628  1.00  0.00     0.022 A 
BRANCH  45  48
ATOM     48  S   UNL A   1      44.737  25.789  37.970  1.00  0.00     0.127 S 
ATOM     49  O   UNL A   1      44.776  24.351  38.232  1.00  0.00    -0.237 OA
ATOM     50  O   UNL A   1      46.050  26.431  37.894  1.00  0.00    -0.237 OA
ATOM     51  O   UNL A   1      43.738  26.537  38.721  1.00  0.00    -0.744 OA
ENDBRANCH  45  48
ENDBRANCH  27  41
BRANCH  28  52
ATOM     52  C   UNL A   1      43.434  35.225  28.515  1.00  0.00     0.023 A 
ATOM     53  C   UNL A   1      42.817  35.183  27.251  1.00  0.00     0.012 A 
ATOM     54  C   UNL A   1      43.941  36.449  28.991  1.00  0.00     0.148 A 
ATOM     55  C   UNL A   1      42.717  36.339  26.473  1.00  0.00     0.002 A 
ATOM     56  C   UNL A   1      43.773  37.608  28.244  1.00  0.00     0.091 A 
ATOM     57  F   UNL A   1      44.548  36.468  30.188  1.00  0.00    -0.205 F 
ATOM     58  C   UNL A   1      43.177  37.553  26.977  1.00  0.00     0.022 A 
BRANCH  56  59
ATOM     59  S   UNL A   1      44.174  39.218  28.933  1.00  0.00     0.127 S 
ATOM     60  O   UNL A   1      45.625  39.140  29.058  1.00  0.00    -0.237 OA
ATOM     61  O   UNL A   1      43.692  40.133  27.898  1.00  0.00    -0.237 OA
ATOM     62  O   UNL A   1      43.417  39.286  30.177  1.00  0.00    -0.744 OA
ENDBRANCH  56  59
ENDBRANCH  28  52
BRANCH  40  63
ATOM     63  C   UNL A   1      39.008  32.364  33.080  1.00  0.00     0.023 A 
ATOM     64  C   UNL A   1      38.829  32.899  34.372  1.00  0.00     0.012 A 
ATOM     65  C   UNL A   1      37.899  32.231  32.225  1.00  0.00     0.148 A 
ATOM     66  C   UNL A   1      37.561  33.264  34.818  1.00  0.00     0.002 A 
ATOM     67  C   UNL A   1      36.642  32.634  32.663  1.00  0.00     0.091 A 
ATOM     68  F   UNL A   1      38.085  31.694  31.010  1.00  0.00    -0.205 F 
ATOM     69  C   UNL A   1      36.470  33.140  33.962  1.00  0.00     0.022 A 
BRANCH  67  70
ATOM     70  S   UNL A   1      35.203  32.575  31.591  1.00  0.00     0.127 S 
ATOM     71  O   UNL A   1      35.433  33.725  30.719  1.00  0.00    -0.237 OA
ATOM     72  O   UNL A   1      35.348  31.275  30.936  1.00  0.00    -0.237 OA
ATOM     73  O   UNL A   1      34.052  32.672  32.478  1.00  0.00    -0.744 OA
ENDBRANCH  67  70
ENDBRANCH  40  63
ENDBRANCH  14  15
ENDBRANCH   7   9
ENDBRANCH   4   5
ENDBRANCH   3   4
ENDBRANCH   2   3
ENDBRANCH   1   2
BRANCH   1  74
ATOM     74  N   UNL A   1      49.737  25.790  27.706  1.00  0.00    -0.354 N 
ATOM     75  C   UNL A   1      49.348  25.874  26.403  1.00  0.00     0.244 C 
ATOM     76  H   UNL A   1      50.705  25.897  27.848  1.00  0.00     0.163 HD
ATOM     77  O   UNL A   1      50.240  25.934  25.552  1.00  0.00    -0.273 OA
BRANCH  75  78
ATOM     78  C   UNL A   1      47.859  26.010  26.011  1.00  0.00     0.197 C 
BRANCH  78  79
ATOM     79  N   UNL A   1      47.597  27.422  25.690  1.00  0.00    -0.340 N 
ATOM     80  C   UNL A   1      46.452  28.016  25.254  1.00  0.00     0.244 C 
ATOM     81  H   UNL A   1      48.365  28.027  25.809  1.00  0.00     0.164 HD
ATOM     82  O   UNL A   1      46.578  28.857  24.358  1.00  0.00    -0.273 OA
BRANCH  80  83
ATOM     83  C   UNL A   1      45.127  27.875  26.042  1.00  0.00     0.181 C 
BRANCH  83  84
ATOM     84  N   UNL A   1      44.773  29.181  26.625  1.00  0.00    -0.342 N 
ATOM     85  C   UNL A   1      43.752  29.553  27.442  1.00  0.00     0.243 C 
ATOM     86  H   UNL A   1      45.383  29.913  26.380  1.00  0.00     0.164 HD
ATOM     87  O   UNL A   1      43.449  30.751  27.446  1.00  0.00    -0.273 OA
BRANCH  85  88
ATOM     88  C   UNL A   1      43.119  28.580  28.465  1.00  0.00     0.176 C 
BRANCH  88  89
ATOM     89  N   UNL A   1      44.122  27.744  29.135  1.00  0.00    -0.340 N 
ATOM     90  C   UNL A   1      44.229  26.381  29.193  1.00  0.00     0.251 C 
ATOM     91  H   UNL A   1      44.823  28.238  29.616  1.00  0.00     0.164 HD
ATOM     92  O   UNL A   1      45.217  25.876  29.718  1.00  0.00    -0.269 OA
BRANCH  90  93
ATOM     93  C   UNL A   1      43.106  25.527  28.766  1.00  0.00     0.040 A 
ATOM     94  C   UNL A   1      43.282  24.142  28.897  1.00  0.00     0.017 A 
ATOM     95  C   UNL A   1      41.902  26.047  28.280  1.00  0.00     0.017 A 
ATOM     96  C   UNL A   1      42.232  23.277  28.593  1.00  0.00     0.040 A 
ATOM     97  C   UNL A   1      40.851  25.176  27.985  1.00  0.00     0.040 A 
ATOM     98  C   UNL A   1      41.022  23.803  28.153  1.00  0.00     0.123 A 
ATOM     99  F   UNL A   1      40.004  22.975  27.887  1.00  0.00    -0.207 F 
ENDBRANCH  90  93
ENDBRANCH  88  89
BRANCH  88 100
ATOM    100  C   UNL A   1      42.262  29.376  29.474  1.00  0.00     0.070 C 
BRANCH 100 101
ATOM    101  C   UNL A   1      40.772  29.138  29.305  1.00  0.00    -0.045 A 
ATOM    102  C   UNL A   1      39.969  28.707  30.373  1.00  0.00     0.004 A 
ATOM    103  C   UNL A   1      40.165  29.342  28.058  1.00  0.00     0.004 A 
ATOM    104  C   UNL A   1      38.592  28.544  30.216  1.00  0.00     0.000 A 
ATOM    105  C   UNL A   1      38.790  29.161  27.897  1.00  0.00     0.000 A 
ATOM    106  C   UNL A   1      38.001  28.774  28.978  1.00  0.00     0.000 A 
ENDBRANCH 100 101
ENDBRANCH  88 100
ENDBRANCH  85  88
ENDBRANCH  83  84
BRANCH  83 107
ATOM    107  C   UNL A   1      43.871  27.304  25.378  1.00  0.00     0.101 C 
BRANCH 107 108
ATOM    108  S   UNL A   1      43.885  25.490  25.186  1.00  0.00    -0.177 SA
ATOM    109  H   UNL A   1      43.472  25.164  23.932  1.00  0.00     0.102 HD
ENDBRANCH 107 108
ENDBRANCH  83 107
ENDBRANCH  80  83
ENDBRANCH  78  79
BRANCH  78 110
ATOM    110  C   UNL A   1      47.445  25.160  24.797  1.00  0.00     0.191 C 
BRANCH 110 111
ATOM    111  O   UNL A   1      48.142  25.575  23.619  1.00  0.00    -0.394 OA
ATOM    112  H   UNL A   1      49.097  25.476  23.756  1.00  0.00     0.210 HD
ENDBRANCH 110 111
ENDBRANCH  78 110
ENDBRANCH  75  78
ENDBRANCH   1  74
TORSDOF 26
ENDMDL
