MODEL 1
REMARK VINA RESULT:     -12.2      0.000      0.000
REMARK SMILES CC(=O)N[C@H]1[C@@H](Oc2ccc(C)c(C)c2)O[C@H]2CO[C@H](c3ccco3)O[C@@H]2[C@H]1OCC(=O)NCCCCNC(=O)c1ccc(-c2c3nc(c(-c4cccc(S(=O)(=O)[O-])c4F)c4ccc([nH]4)c(-c4cccc(S(=O)(=O)[O-])c4F)c4nc(c(-c5cccc(S(=O)(=O)[O-])c5F)c5ccc2[nH]5)C=C4)C=C3)cc1
REMARK SMILES IDX 35 1 34 2 33 3 31 4 32 5 30 7 29 8 28 9 5 10 6 11 16 12
REMARK SMILES IDX 27 13 17 14 26 15 18 16 20 17 19 18 4 19 1 20 2 21 3 22 7 24
REMARK SMILES IDX 8 25 9 26 15 27 10 28 13 29 11 30 14 31 12 32 21 33 22 34
REMARK SMILES IDX 25 35 23 36 24 37 36 38 37 39 38 40 39 41 40 43 41 44 42 45
REMARK SMILES IDX 103 46 43 47 102 48 44 49 45 50 46 51 96 52 47 53 101 54
REMARK SMILES IDX 95 55 97 56 48 57 100 58 94 59 93 60 49 62 81 63 61 64 80 65
REMARK SMILES IDX 62 66 65 67 79 68 98 69 63 70 64 71 78 73 99 74 66 75 50 76
REMARK SMILES IDX 51 77 59 78 52 79 54 80 60 81 53 82 55 83 56 84 57 85 58 86
REMARK SMILES IDX 82 87 83 88 91 89 84 90 86 91 92 92 85 93 87 94 88 95 89 96
REMARK SMILES IDX 90 97 67 98 68 99 76 100 69 101 71 102 77 103 70 104 72 105
REMARK SMILES IDX 73 106 74 107 75 108
REMARK H PARENT 33 6 4 23 38 42 97 61 65 72
REMARK Flexibility Score: inf
ROOT
ATOM      1  C   UNL A   1      36.361  20.136  25.045  1.00  0.00     0.023 C 
ENDROOT
BRANCH   1   2
ATOM      2  C   UNL A   1      35.797  21.458  25.575  1.00  0.00     0.116 C 
BRANCH   2   3
ATOM      3  N   UNL A   1      34.996  21.362  26.778  1.00  0.00    -0.354 N 
ATOM      4  C   UNL A   1      34.082  22.258  27.259  1.00  0.00     0.246 C 
ATOM      5  O   UNL A   1      33.355  21.954  28.208  1.00  0.00    -0.272 OA
ATOM      6  H   UNL A   1      35.126  20.549  27.317  1.00  0.00     0.163 HD
BRANCH   4   7
ATOM      7  C   UNL A   1      33.996  23.650  26.627  1.00  0.00     0.260 C 
BRANCH   7   8
ATOM      8  O   UNL A   1      32.701  24.239  26.643  1.00  0.00    -0.363 OA
BRANCH   8   9
ATOM      9  C   UNL A   1      31.960  24.242  25.407  1.00  0.00     0.179 C 
ATOM     10  C   UNL A   1      31.792  25.698  24.839  1.00  0.00     0.182 C 
ATOM     11  C   UNL A   1      31.315  25.689  23.321  1.00  0.00     0.333 C 
ATOM     12  O   UNL A   1      31.686  24.572  22.526  1.00  0.00    -0.332 OA
ATOM     13  C   UNL A   1      32.363  23.176  24.351  1.00  0.00     0.184 C 
ATOM     14  C   UNL A   1      31.457  23.319  23.133  1.00  0.00     0.180 C 
ATOM     15  O   UNL A   1      32.258  21.828  24.847  1.00  0.00    -0.337 OA
ATOM     16  C   UNL A   1      31.790  22.224  22.122  1.00  0.00     0.199 C 
ATOM     17  C   UNL A   1      32.717  20.921  23.827  1.00  0.00     0.319 C 
ATOM     18  O   UNL A   1      31.800  20.947  22.734  1.00  0.00    -0.343 OA
BRANCH  10  19
ATOM     19  N   UNL A   1      32.908  26.638  25.113  1.00  0.00    -0.345 N 
ATOM     20  C   UNL A   1      31.753  28.527  26.248  1.00  0.00     0.114 C 
ATOM     21  C   UNL A   1      32.934  27.921  25.557  1.00  0.00     0.217 C 
ATOM     22  O   UNL A   1      33.977  28.563  25.410  1.00  0.00    -0.275 OA
ATOM     23  H   UNL A   1      33.799  26.259  24.939  1.00  0.00     0.164 HD
ENDBRANCH  10  19
BRANCH  11  24
ATOM     24  O   UNL A   1      31.603  26.908  22.608  1.00  0.00    -0.463 OA
BRANCH  24  25
ATOM     25  C   UNL A   1      30.665  27.912  22.558  1.00  0.00     0.123 A 
ATOM     26  C   UNL A   1      30.907  29.261  22.303  1.00  0.00     0.047 A 
ATOM     27  C   UNL A   1      29.379  27.525  22.937  1.00  0.00     0.050 A 
ATOM     28  C   UNL A   1      29.934  30.220  22.586  1.00  0.00     0.007 A 
ATOM     29  C   UNL A   1      28.369  28.477  23.177  1.00  0.00    -0.045 A 
ATOM     30  C   UNL A   1      28.674  29.845  23.068  1.00  0.00    -0.048 A 
ATOM     31  C   UNL A   1      27.012  27.970  23.579  1.00  0.00     0.045 C 
ATOM     32  C   UNL A   1      27.706  30.924  23.465  1.00  0.00     0.044 C 
ENDBRANCH  24  25
ENDBRANCH  11  24
BRANCH  17  33
ATOM     33  C   UNL A   1      32.776  19.504  24.302  1.00  0.00     0.159 A 
ATOM     34  C   UNL A   1      32.924  18.320  23.597  1.00  0.00     0.051 A 
ATOM     35  O   UNL A   1      32.817  19.235  25.645  1.00  0.00    -0.464 OA
ATOM     36  C   UNL A   1      33.018  17.279  24.544  1.00  0.00     0.042 A 
ATOM     37  C   UNL A   1      32.944  17.886  25.772  1.00  0.00     0.195 A 
ENDBRANCH  17  33
ENDBRANCH   8   9
ENDBRANCH   7   8
ENDBRANCH   4   7
ENDBRANCH   2   3
ENDBRANCH   1   2
BRANCH   1  38
ATOM     38  C   UNL A   1      37.866  20.059  24.776  1.00  0.00     0.023 C 
BRANCH  38  39
ATOM     39  C   UNL A   1      38.787  20.592  25.864  1.00  0.00     0.116 C 
BRANCH  39  40
ATOM     40  N   UNL A   1      39.908  19.715  26.152  1.00  0.00    -0.352 N 
ATOM     41  C   UNL A   1      41.176  20.075  26.546  1.00  0.00     0.251 C 
ATOM     42  H   UNL A   1      39.741  18.750  26.055  1.00  0.00     0.163 HD
ATOM     43  O   UNL A   1      42.065  19.226  26.617  1.00  0.00    -0.269 OA
BRANCH  41  44
ATOM     44  C   UNL A   1      41.479  21.492  26.860  1.00  0.00     0.039 A 
ATOM     45  C   UNL A   1      41.679  21.867  28.192  1.00  0.00     0.014 A 
ATOM     46  C   UNL A   1      41.559  22.452  25.846  1.00  0.00     0.014 A 
ATOM     47  C   UNL A   1      42.002  23.194  28.504  1.00  0.00     0.010 A 
ATOM     48  C   UNL A   1      41.935  23.761  26.155  1.00  0.00     0.010 A 
ATOM     49  C   UNL A   1      42.152  24.150  27.487  1.00  0.00    -0.014 A 
BRANCH  49  50
ATOM     50  C   UNL A   1      42.506  25.566  27.789  1.00  0.00     0.031 A 
ATOM     51  C   UNL A   1      43.936  26.027  27.662  1.00  0.00     0.074 A 
ATOM     52  C   UNL A   1      41.574  26.420  28.257  1.00  0.00     0.049 A 
ATOM     53  N   UNL A   1      44.467  27.176  27.991  1.00  0.00    -0.248 NA
ATOM     54  C   UNL A   1      44.900  25.057  27.115  1.00  0.00     0.031 C 
ATOM     55  C   UNL A   1      40.161  26.099  28.464  1.00  0.00     0.029 A 
ATOM     56  N   UNL A   1      41.682  27.726  28.675  1.00  0.00    -0.354 N 
ATOM     57  C   UNL A   1      45.828  27.055  27.734  1.00  0.00     0.074 A 
ATOM     58  C   UNL A   1      46.045  25.711  27.243  1.00  0.00     0.031 C 
ATOM     59  C   UNL A   1      39.537  27.173  28.978  1.00  0.00     0.029 A 
ATOM     60  C   UNL A   1      40.510  28.245  29.177  1.00  0.00     0.049 A 
ATOM     61  H   UNL A   1      42.519  28.240  28.621  1.00  0.00     0.167 HD
ATOM     62  C   UNL A   1      46.808  27.981  27.873  1.00  0.00     0.034 A 
ATOM     63  C   UNL A   1      40.250  29.436  29.754  1.00  0.00     0.034 A 
ATOM     64  C   UNL A   1      46.590  29.329  28.324  1.00  0.00     0.049 A 
ATOM     65  C   UNL A   1      41.356  30.449  29.896  1.00  0.00     0.074 A 
ATOM     66  C   UNL A   1      47.510  30.358  28.428  1.00  0.00     0.029 A 
ATOM     67  N   UNL A   1      45.374  29.835  28.753  1.00  0.00    -0.354 N 
ATOM     68  N   UNL A   1      42.612  30.355  29.535  1.00  0.00    -0.248 NA
ATOM     69  C   UNL A   1      41.004  31.747  30.496  1.00  0.00     0.031 C 
ATOM     70  C   UNL A   1      46.859  31.475  28.955  1.00  0.00     0.029 A 
ATOM     71  C   UNL A   1      45.522  31.158  29.133  1.00  0.00     0.049 A 
ATOM     72  H   UNL A   1      44.530  29.329  28.784  1.00  0.00     0.167 HD
ATOM     73  C   UNL A   1      43.184  31.593  29.812  1.00  0.00     0.074 A 
ATOM     74  C   UNL A   1      42.139  32.423  30.372  1.00  0.00     0.031 C 
ATOM     75  C   UNL A   1      44.461  32.001  29.622  1.00  0.00     0.034 A 
BRANCH  62  76
ATOM     76  C   UNL A   1      48.213  27.580  27.504  1.00  0.00     0.023 A 
ATOM     77  C   UNL A   1      49.057  27.011  28.480  1.00  0.00     0.012 A 
ATOM     78  C   UNL A   1      48.674  27.703  26.179  1.00  0.00     0.148 A 
ATOM     79  C   UNL A   1      50.351  26.606  28.151  1.00  0.00     0.002 A 
ATOM     80  C   UNL A   1      49.946  27.252  25.848  1.00  0.00     0.091 A 
ATOM     81  F   UNL A   1      47.863  28.260  25.269  1.00  0.00    -0.205 F 
ATOM     82  C   UNL A   1      50.790  26.717  26.835  1.00  0.00     0.022 A 
BRANCH  80  83
ATOM     83  S   UNL A   1      50.573  27.270  24.164  1.00  0.00     0.127 S 
ATOM     84  O   UNL A   1      51.803  26.490  24.300  1.00  0.00    -0.237 OA
ATOM     85  O   UNL A   1      49.503  26.595  23.431  1.00  0.00    -0.237 OA
ATOM     86  O   UNL A   1      50.758  28.672  23.818  1.00  0.00    -0.744 OA
ENDBRANCH  80  83
ENDBRANCH  62  76
BRANCH  63  87
ATOM     87  C   UNL A   1      38.868  29.759  30.214  1.00  0.00     0.023 A 
ATOM     88  C   UNL A   1      38.473  29.414  31.521  1.00  0.00     0.012 A 
ATOM     89  C   UNL A   1      37.949  30.409  29.367  1.00  0.00     0.148 A 
ATOM     90  C   UNL A   1      37.175  29.676  31.965  1.00  0.00     0.002 A 
ATOM     91  C   UNL A   1      36.677  30.718  29.835  1.00  0.00     0.091 A 
ATOM     92  F   UNL A   1      38.342  30.720  28.125  1.00  0.00    -0.205 F 
ATOM     93  C   UNL A   1      36.282  30.335  31.126  1.00  0.00     0.022 A 
BRANCH  91  94
ATOM     94  S   UNL A   1      35.499  31.671  28.871  1.00  0.00     0.127 S 
ATOM     95  O   UNL A   1      34.963  30.658  27.966  1.00  0.00    -0.237 OA
ATOM     96  O   UNL A   1      34.569  32.130  29.903  1.00  0.00    -0.237 OA
ATOM     97  O   UNL A   1      36.271  32.734  28.241  1.00  0.00    -0.744 OA
ENDBRANCH  91  94
ENDBRANCH  63  87
BRANCH  75  98
ATOM     98  C   UNL A   1      44.812  33.432  29.936  1.00  0.00     0.023 A 
ATOM     99  C   UNL A   1      45.388  33.770  31.176  1.00  0.00     0.012 A 
ATOM    100  C   UNL A   1      44.677  34.423  28.941  1.00  0.00     0.148 A 
ATOM    101  C   UNL A   1      45.807  35.077  31.427  1.00  0.00     0.002 A 
ATOM    102  C   UNL A   1      45.144  35.709  29.179  1.00  0.00     0.091 A 
ATOM    103  F   UNL A   1      44.110  34.083  27.775  1.00  0.00    -0.205 F 
ATOM    104  C   UNL A   1      45.699  36.041  30.426  1.00  0.00     0.022 A 
BRANCH 102 105
ATOM    105  S   UNL A   1      45.144  36.987  27.917  1.00  0.00     0.127 S 
ATOM    106  O   UNL A   1      44.567  38.119  28.639  1.00  0.00    -0.237 OA
ATOM    107  O   UNL A   1      46.570  37.119  27.614  1.00  0.00    -0.237 OA
ATOM    108  O   UNL A   1      44.335  36.472  26.821  1.00  0.00    -0.744 OA
ENDBRANCH 102 105
ENDBRANCH  75  98
ENDBRANCH  49  50
ENDBRANCH  41  44
ENDBRANCH  39  40
ENDBRANCH  38  39
ENDBRANCH   1  38
TORSDOF 20
ENDMDL
MODEL 2
REMARK VINA RESULT:     -12.0      5.619     10.994
REMARK SMILES CC(=O)N[C@H]1[C@@H](Oc2ccc(C)c(C)c2)O[C@H]2CO[C@H](c3ccco3)O[C@@H]2[C@H]1OCC(=O)NCCCCNC(=O)c1ccc(-c2c3nc(c(-c4cccc(S(=O)(=O)[O-])c4F)c4ccc([nH]4)c(-c4cccc(S(=O)(=O)[O-])c4F)c4nc(c(-c5cccc(S(=O)(=O)[O-])c5F)c5ccc2[nH]5)C=C4)C=C3)cc1
REMARK SMILES IDX 35 1 34 2 33 3 31 4 32 5 30 7 29 8 28 9 5 10 6 11 16 12
REMARK SMILES IDX 27 13 17 14 26 15 18 16 20 17 19 18 4 19 1 20 2 21 3 22 7 24
REMARK SMILES IDX 8 25 9 26 15 27 10 28 13 29 11 30 14 31 12 32 21 33 22 34
REMARK SMILES IDX 25 35 23 36 24 37 36 38 37 39 38 40 39 41 40 43 41 44 42 45
REMARK SMILES IDX 103 46 43 47 102 48 44 49 45 50 46 51 96 52 47 53 101 54
REMARK SMILES IDX 95 55 97 56 48 57 100 58 94 59 93 60 49 62 81 63 61 64 80 65
REMARK SMILES IDX 62 66 65 67 79 68 98 69 63 70 64 71 78 73 99 74 66 75 50 76
REMARK SMILES IDX 51 77 59 78 52 79 54 80 60 81 53 82 55 83 56 84 57 85 58 86
REMARK SMILES IDX 82 87 83 88 91 89 84 90 86 91 92 92 85 93 87 94 88 95 89 96
REMARK SMILES IDX 90 97 67 98 68 99 76 100 69 101 71 102 77 103 70 104 72 105
REMARK SMILES IDX 73 106 74 107 75 108
REMARK H PARENT 33 6 4 23 38 42 97 61 65 72
REMARK Flexibility Score: inf
ROOT
ATOM      1  C   UNL A   1      32.352  30.255  27.111  1.00  0.00     0.023 C 
ENDROOT
BRANCH   1   2
ATOM      2  C   UNL A   1      31.994  29.380  25.907  1.00  0.00     0.116 C 
BRANCH   2   3
ATOM      3  N   UNL A   1      32.588  29.773  24.646  1.00  0.00    -0.354 N 
ATOM      4  C   UNL A   1      33.373  29.026  23.811  1.00  0.00     0.246 C 
ATOM      5  O   UNL A   1      33.662  29.447  22.688  1.00  0.00    -0.272 OA
ATOM      6  H   UNL A   1      32.403  30.694  24.352  1.00  0.00     0.163 HD
BRANCH   4   7
ATOM      7  C   UNL A   1      33.913  27.679  24.301  1.00  0.00     0.260 C 
BRANCH   7   8
ATOM      8  O   UNL A   1      33.980  26.661  23.310  1.00  0.00    -0.363 OA
BRANCH   8   9
ATOM      9  C   UNL A   1      32.948  25.655  23.323  1.00  0.00     0.179 C 
ATOM     10  C   UNL A   1      33.489  24.283  23.866  1.00  0.00     0.182 C 
ATOM     11  C   UNL A   1      32.305  23.286  24.236  1.00  0.00     0.333 C 
ATOM     12  O   UNL A   1      31.068  23.859  24.636  1.00  0.00    -0.332 OA
ATOM     13  C   UNL A   1      31.568  26.081  23.895  1.00  0.00     0.184 C 
ATOM     14  C   UNL A   1      30.609  24.900  23.803  1.00  0.00     0.180 C 
ATOM     15  O   UNL A   1      30.991  27.199  23.194  1.00  0.00    -0.337 OA
ATOM     16  C   UNL A   1      29.226  25.332  24.288  1.00  0.00     0.199 C 
ATOM     17  C   UNL A   1      29.755  27.563  23.837  1.00  0.00     0.319 C 
ATOM     18  O   UNL A   1      28.803  26.519  23.641  1.00  0.00    -0.343 OA
BRANCH  10  19
ATOM     19  N   UNL A   1      34.552  24.363  24.899  1.00  0.00    -0.345 N 
ATOM     20  C   UNL A   1      36.535  23.456  23.702  1.00  0.00     0.114 C 
ATOM     21  C   UNL A   1      35.819  23.878  24.947  1.00  0.00     0.217 C 
ATOM     22  O   UNL A   1      36.381  23.831  26.044  1.00  0.00    -0.275 OA
ATOM     23  H   UNL A   1      34.287  24.864  25.705  1.00  0.00     0.164 HD
ENDBRANCH  10  19
BRANCH  11  24
ATOM     24  O   UNL A   1      32.680  22.247  25.161  1.00  0.00    -0.463 OA
BRANCH  24  25
ATOM     25  C   UNL A   1      33.066  21.015  24.690  1.00  0.00     0.123 A 
ATOM     26  C   UNL A   1      32.229  20.020  24.185  1.00  0.00     0.047 A 
ATOM     27  C   UNL A   1      34.416  20.717  24.877  1.00  0.00     0.050 A 
ATOM     28  C   UNL A   1      32.694  18.714  24.034  1.00  0.00     0.007 A 
ATOM     29  C   UNL A   1      34.914  19.415  24.679  1.00  0.00    -0.045 A 
ATOM     30  C   UNL A   1      34.024  18.386  24.321  1.00  0.00    -0.048 A 
ATOM     31  C   UNL A   1      36.383  19.187  24.900  1.00  0.00     0.045 C 
ATOM     32  C   UNL A   1      34.442  16.944  24.252  1.00  0.00     0.044 C 
ENDBRANCH  24  25
ENDBRANCH  11  24
BRANCH  17  33
ATOM     33  C   UNL A   1      29.152  28.805  23.262  1.00  0.00     0.159 A 
ATOM     34  C   UNL A   1      27.939  29.008  22.622  1.00  0.00     0.051 A 
ATOM     35  O   UNL A   1      29.766  30.015  23.452  1.00  0.00    -0.464 OA
ATOM     36  C   UNL A   1      27.825  30.392  22.373  1.00  0.00     0.042 A 
ATOM     37  C   UNL A   1      28.961  30.958  22.892  1.00  0.00     0.195 A 
ENDBRANCH  17  33
ENDBRANCH   8   9
ENDBRANCH   7   8
ENDBRANCH   4   7
ENDBRANCH   2   3
ENDBRANCH   1   2
BRANCH   1  38
ATOM     38  C   UNL A   1      31.963  31.734  27.061  1.00  0.00     0.023 C 
BRANCH  38  39
ATOM     39  C   UNL A   1      33.101  32.745  27.089  1.00  0.00     0.116 C 
BRANCH  39  40
ATOM     40  N   UNL A   1      32.731  34.014  27.689  1.00  0.00    -0.352 N 
ATOM     41  C   UNL A   1      33.224  34.573  28.846  1.00  0.00     0.251 C 
ATOM     42  H   UNL A   1      32.047  34.538  27.212  1.00  0.00     0.163 HD
ATOM     43  O   UNL A   1      32.712  35.594  29.305  1.00  0.00    -0.269 OA
BRANCH  41  44
ATOM     44  C   UNL A   1      34.358  33.931  29.552  1.00  0.00     0.039 A 
ATOM     45  C   UNL A   1      34.094  33.007  30.569  1.00  0.00     0.014 A 
ATOM     46  C   UNL A   1      35.680  34.243  29.221  1.00  0.00     0.014 A 
ATOM     47  C   UNL A   1      35.153  32.365  31.221  1.00  0.00     0.010 A 
ATOM     48  C   UNL A   1      36.732  33.560  29.836  1.00  0.00     0.010 A 
ATOM     49  C   UNL A   1      36.482  32.620  30.849  1.00  0.00    -0.014 A 
BRANCH  49  50
ATOM     50  C   UNL A   1      37.628  31.942  31.520  1.00  0.00     0.031 A 
ATOM     51  C   UNL A   1      38.119  32.441  32.855  1.00  0.00     0.074 A 
ATOM     52  C   UNL A   1      38.286  30.939  30.904  1.00  0.00     0.049 A 
ATOM     53  N   UNL A   1      39.169  32.069  33.542  1.00  0.00    -0.248 NA
ATOM     54  C   UNL A   1      37.338  33.515  33.490  1.00  0.00     0.031 C 
ATOM     55  C   UNL A   1      37.944  30.382  29.595  1.00  0.00     0.029 A 
ATOM     56  N   UNL A   1      39.402  30.233  31.283  1.00  0.00    -0.354 N 
ATOM     57  C   UNL A   1      39.201  32.891  34.663  1.00  0.00     0.074 A 
ATOM     58  C   UNL A   1      38.078  33.796  34.553  1.00  0.00     0.031 C 
ATOM     59  C   UNL A   1      38.835  29.428  29.276  1.00  0.00     0.029 A 
ATOM     60  C   UNL A   1      39.837  29.334  30.336  1.00  0.00     0.049 A 
ATOM     61  H   UNL A   1      39.850  30.359  32.151  1.00  0.00     0.167 HD
ATOM     62  C   UNL A   1      40.071  32.882  35.702  1.00  0.00     0.034 A 
ATOM     63  C   UNL A   1      40.928  28.541  30.308  1.00  0.00     0.034 A 
ATOM     64  C   UNL A   1      41.166  31.959  35.833  1.00  0.00     0.049 A 
ATOM     65  C   UNL A   1      41.881  28.549  31.476  1.00  0.00     0.074 A 
ATOM     66  C   UNL A   1      42.057  31.828  36.884  1.00  0.00     0.029 A 
ATOM     67  N   UNL A   1      41.526  31.015  34.884  1.00  0.00    -0.354 N 
ATOM     68  N   UNL A   1      41.824  29.249  32.582  1.00  0.00    -0.248 NA
ATOM     69  C   UNL A   1      43.031  27.632  31.408  1.00  0.00     0.031 C 
ATOM     70  C   UNL A   1      42.979  30.831  36.555  1.00  0.00     0.029 A 
ATOM     71  C   UNL A   1      42.633  30.307  35.320  1.00  0.00     0.049 A 
ATOM     72  H   UNL A   1      41.065  30.871  34.026  1.00  0.00     0.167 HD
ATOM     73  C   UNL A   1      42.895  28.822  33.360  1.00  0.00     0.074 A 
ATOM     74  C   UNL A   1      43.586  27.800  32.602  1.00  0.00     0.031 C 
ATOM     75  C   UNL A   1      43.272  29.241  34.592  1.00  0.00     0.034 A 
BRANCH  62  76
ATOM     76  C   UNL A   1      39.862  33.887  36.804  1.00  0.00     0.023 A 
ATOM     77  C   UNL A   1      40.151  35.248  36.574  1.00  0.00     0.012 A 
ATOM     78  C   UNL A   1      39.316  33.496  38.043  1.00  0.00     0.148 A 
ATOM     79  C   UNL A   1      39.936  36.198  37.573  1.00  0.00     0.002 A 
ATOM     80  C   UNL A   1      39.059  34.456  39.015  1.00  0.00     0.091 A 
ATOM     81  F   UNL A   1      39.062  32.197  38.248  1.00  0.00    -0.205 F 
ATOM     82  C   UNL A   1      39.382  35.803  38.787  1.00  0.00     0.022 A 
BRANCH  80  83
ATOM     83  S   UNL A   1      38.265  34.063  40.578  1.00  0.00     0.127 S 
ATOM     84  O   UNL A   1      37.051  33.381  40.127  1.00  0.00    -0.237 OA
ATOM     85  O   UNL A   1      39.252  33.191  41.213  1.00  0.00    -0.237 OA
ATOM     86  O   UNL A   1      38.052  35.335  41.253  1.00  0.00    -0.744 OA
ENDBRANCH  80  83
ENDBRANCH  62  76
BRANCH  63  87
ATOM     87  C   UNL A   1      41.168  27.638  29.145  1.00  0.00     0.023 A 
ATOM     88  C   UNL A   1      40.519  26.388  29.091  1.00  0.00     0.012 A 
ATOM     89  C   UNL A   1      42.027  28.012  28.094  1.00  0.00     0.148 A 
ATOM     90  C   UNL A   1      40.753  25.510  28.032  1.00  0.00     0.002 A 
ATOM     91  C   UNL A   1      42.210  27.157  27.014  1.00  0.00     0.091 A 
ATOM     92  F   UNL A   1      42.641  29.200  28.169  1.00  0.00    -0.205 F 
ATOM     93  C   UNL A   1      41.590  25.899  26.990  1.00  0.00     0.022 A 
BRANCH  91  94
ATOM     94  S   UNL A   1      43.173  27.619  25.569  1.00  0.00     0.127 S 
ATOM     95  O   UNL A   1      44.205  28.469  26.156  1.00  0.00    -0.237 OA
ATOM     96  O   UNL A   1      43.643  26.317  25.094  1.00  0.00    -0.237 OA
ATOM     97  O   UNL A   1      42.242  28.288  24.671  1.00  0.00    -0.744 OA
ENDBRANCH  91  94
ENDBRANCH  63  87
BRANCH  75  98
ATOM     98  C   UNL A   1      44.436  28.556  35.259  1.00  0.00     0.023 A 
ATOM     99  C   UNL A   1      45.754  28.979  35.005  1.00  0.00     0.012 A 
ATOM    100  C   UNL A   1      44.201  27.565  36.235  1.00  0.00     0.148 A 
ATOM    101  C   UNL A   1      46.824  28.413  35.700  1.00  0.00     0.002 A 
ATOM    102  C   UNL A   1      45.266  27.044  36.961  1.00  0.00     0.091 A 
ATOM    103  F   UNL A   1      42.940  27.165  36.448  1.00  0.00    -0.205 F 
ATOM    104  C   UNL A   1      46.579  27.459  36.686  1.00  0.00     0.022 A 
BRANCH 102 105
ATOM    105  S   UNL A   1      45.038  25.892  38.319  1.00  0.00     0.127 S 
ATOM    106  O   UNL A   1      44.301  24.808  37.669  1.00  0.00    -0.237 OA
ATOM    107  O   UNL A   1      46.417  25.563  38.678  1.00  0.00    -0.237 OA
ATOM    108  O   UNL A   1      44.299  26.616  39.344  1.00  0.00    -0.744 OA
ENDBRANCH 102 105
ENDBRANCH  75  98
ENDBRANCH  49  50
ENDBRANCH  41  44
ENDBRANCH  39  40
ENDBRANCH  38  39
ENDBRANCH   1  38
TORSDOF 20
ENDMDL
MODEL 3
REMARK VINA RESULT:     -11.7      2.049      7.346
REMARK SMILES CC(=O)N[C@H]1[C@@H](Oc2ccc(C)c(C)c2)O[C@H]2CO[C@H](c3ccco3)O[C@@H]2[C@H]1OCC(=O)NCCCCNC(=O)c1ccc(-c2c3nc(c(-c4cccc(S(=O)(=O)[O-])c4F)c4ccc([nH]4)c(-c4cccc(S(=O)(=O)[O-])c4F)c4nc(c(-c5cccc(S(=O)(=O)[O-])c5F)c5ccc2[nH]5)C=C4)C=C3)cc1
REMARK SMILES IDX 35 1 34 2 33 3 31 4 32 5 30 7 29 8 28 9 5 10 6 11 16 12
REMARK SMILES IDX 27 13 17 14 26 15 18 16 20 17 19 18 4 19 1 20 2 21 3 22 7 24
REMARK SMILES IDX 8 25 9 26 15 27 10 28 13 29 11 30 14 31 12 32 21 33 22 34
REMARK SMILES IDX 25 35 23 36 24 37 36 38 37 39 38 40 39 41 40 43 41 44 42 45
REMARK SMILES IDX 103 46 43 47 102 48 44 49 45 50 46 51 96 52 47 53 101 54
REMARK SMILES IDX 95 55 97 56 48 57 100 58 94 59 93 60 49 62 81 63 61 64 80 65
REMARK SMILES IDX 62 66 65 67 79 68 98 69 63 70 64 71 78 73 99 74 66 75 50 76
REMARK SMILES IDX 51 77 59 78 52 79 54 80 60 81 53 82 55 83 56 84 57 85 58 86
REMARK SMILES IDX 82 87 83 88 91 89 84 90 86 91 92 92 85 93 87 94 88 95 89 96
REMARK SMILES IDX 90 97 67 98 68 99 76 100 69 101 71 102 77 103 70 104 72 105
REMARK SMILES IDX 73 106 74 107 75 108
REMARK H PARENT 33 6 4 23 38 42 97 61 65 72
REMARK Flexibility Score: inf
ROOT
ATOM      1  C   UNL A   1      37.019  20.429  25.025  1.00  0.00     0.023 C 
ENDROOT
BRANCH   1   2
ATOM      2  C   UNL A   1      36.104  21.551  25.523  1.00  0.00     0.116 C 
BRANCH   2   3
ATOM      3  N   UNL A   1      35.224  21.204  26.619  1.00  0.00    -0.354 N 
ATOM      4  C   UNL A   1      34.215  21.951  27.163  1.00  0.00     0.246 C 
ATOM      5  O   UNL A   1      33.442  21.447  27.982  1.00  0.00    -0.272 OA
ATOM      6  H   UNL A   1      35.370  20.320  27.025  1.00  0.00     0.163 HD
BRANCH   4   7
ATOM      7  C   UNL A   1      34.078  23.424  26.767  1.00  0.00     0.260 C 
BRANCH   7   8
ATOM      8  O   UNL A   1      32.749  23.929  26.777  1.00  0.00    -0.363 OA
BRANCH   8   9
ATOM      9  C   UNL A   1      32.069  24.029  25.511  1.00  0.00     0.179 C 
ATOM     10  C   UNL A   1      31.899  25.527  25.065  1.00  0.00     0.182 C 
ATOM     11  C   UNL A   1      31.496  25.645  23.531  1.00  0.00     0.333 C 
ATOM     12  O   UNL A   1      31.927  24.608  22.660  1.00  0.00    -0.332 OA
ATOM     13  C   UNL A   1      32.544  23.068  24.388  1.00  0.00     0.184 C 
ATOM     14  C   UNL A   1      31.696  23.304  23.143  1.00  0.00     0.180 C 
ATOM     15  O   UNL A   1      32.443  21.679  24.757  1.00  0.00    -0.337 OA
ATOM     16  C   UNL A   1      32.099  22.308  22.058  1.00  0.00     0.199 C 
ATOM     17  C   UNL A   1      32.969  20.874  23.686  1.00  0.00     0.319 C 
ATOM     18  O   UNL A   1      32.106  20.982  22.555  1.00  0.00    -0.343 OA
BRANCH  10  19
ATOM     19  N   UNL A   1      32.980  26.457  25.476  1.00  0.00    -0.345 N 
ATOM     20  C   UNL A   1      31.827  27.934  27.114  1.00  0.00     0.114 C 
ATOM     21  C   UNL A   1      32.975  27.598  26.213  1.00  0.00     0.217 C 
ATOM     22  O   UNL A   1      33.963  28.333  26.150  1.00  0.00    -0.275 OA
ATOM     23  H   UNL A   1      33.873  26.197  25.152  1.00  0.00     0.164 HD
ENDBRANCH  10  19
BRANCH  11  24
ATOM     24  O   UNL A   1      31.793  26.927  22.943  1.00  0.00    -0.463 OA
BRANCH  24  25
ATOM     25  C   UNL A   1      30.782  27.831  22.722  1.00  0.00     0.123 A 
ATOM     26  C   UNL A   1      30.924  29.134  22.246  1.00  0.00     0.047 A 
ATOM     27  C   UNL A   1      29.523  27.414  23.155  1.00  0.00     0.050 A 
ATOM     28  C   UNL A   1      29.875  30.048  22.361  1.00  0.00     0.007 A 
ATOM     29  C   UNL A   1      28.439  28.310  23.229  1.00  0.00    -0.045 A 
ATOM     30  C   UNL A   1      28.641  29.661  22.894  1.00  0.00    -0.048 A 
ATOM     31  C   UNL A   1      27.119  27.772  23.705  1.00  0.00     0.045 C 
ATOM     32  C   UNL A   1      27.586  30.711  23.102  1.00  0.00     0.044 C 
ENDBRANCH  24  25
ENDBRANCH  11  24
BRANCH  17  33
ATOM     33  C   UNL A   1      33.034  19.422  24.037  1.00  0.00     0.159 A 
ATOM     34  C   UNL A   1      32.152  18.387  23.769  1.00  0.00     0.051 A 
ATOM     35  O   UNL A   1      34.165  18.908  24.615  1.00  0.00    -0.464 OA
ATOM     36  C   UNL A   1      32.749  17.198  24.238  1.00  0.00     0.042 A 
ATOM     37  C   UNL A   1      33.967  17.568  24.747  1.00  0.00     0.195 A 
ENDBRANCH  17  33
ENDBRANCH   8   9
ENDBRANCH   7   8
ENDBRANCH   4   7
ENDBRANCH   2   3
ENDBRANCH   1   2
BRANCH   1  38
ATOM     38  C   UNL A   1      38.519  20.718  24.932  1.00  0.00     0.023 C 
BRANCH  38  39
ATOM     39  C   UNL A   1      39.348  20.455  26.182  1.00  0.00     0.116 C 
BRANCH  39  40
ATOM     40  N   UNL A   1      40.367  19.437  25.995  1.00  0.00    -0.352 N 
ATOM     41  C   UNL A   1      41.732  19.607  25.990  1.00  0.00     0.251 C 
ATOM     42  H   UNL A   1      40.043  18.518  25.857  1.00  0.00     0.163 HD
ATOM     43  O   UNL A   1      42.469  18.671  25.679  1.00  0.00    -0.269 OA
BRANCH  41  44
ATOM     44  C   UNL A   1      42.316  20.926  26.335  1.00  0.00     0.039 A 
ATOM     45  C   UNL A   1      42.545  21.858  25.318  1.00  0.00     0.014 A 
ATOM     46  C   UNL A   1      42.644  21.242  27.656  1.00  0.00     0.014 A 
ATOM     47  C   UNL A   1      43.061  23.120  25.631  1.00  0.00     0.010 A 
ATOM     48  C   UNL A   1      43.107  22.521  27.972  1.00  0.00     0.010 A 
ATOM     49  C   UNL A   1      43.330  23.473  26.963  1.00  0.00    -0.014 A 
BRANCH  49  50
ATOM     50  C   UNL A   1      43.869  24.814  27.326  1.00  0.00     0.031 A 
ATOM     51  C   UNL A   1      42.948  25.869  27.883  1.00  0.00     0.074 A 
ATOM     52  C   UNL A   1      45.159  25.122  27.081  1.00  0.00     0.049 A 
ATOM     53  N   UNL A   1      43.194  27.127  28.147  1.00  0.00    -0.248 NA
ATOM     54  C   UNL A   1      41.561  25.460  28.159  1.00  0.00     0.031 C 
ATOM     55  C   UNL A   1      46.152  24.212  26.510  1.00  0.00     0.029 A 
ATOM     56  N   UNL A   1      45.847  26.300  27.251  1.00  0.00    -0.354 N 
ATOM     57  C   UNL A   1      41.988  27.670  28.575  1.00  0.00     0.074 A 
ATOM     58  C   UNL A   1      41.005  26.609  28.514  1.00  0.00     0.031 C 
ATOM     59  C   UNL A   1      47.318  24.866  26.368  1.00  0.00     0.029 A 
ATOM     60  C   UNL A   1      47.146  26.253  26.797  1.00  0.00     0.049 A 
ATOM     61  H   UNL A   1      45.448  27.103  27.657  1.00  0.00     0.167 HD
ATOM     62  C   UNL A   1      41.722  28.928  29.000  1.00  0.00     0.034 A 
ATOM     63  C   UNL A   1      48.085  27.216  26.711  1.00  0.00     0.034 A 
ATOM     64  C   UNL A   1      42.704  29.974  29.098  1.00  0.00     0.049 A 
ATOM     65  C   UNL A   1      47.766  28.609  27.192  1.00  0.00     0.074 A 
ATOM     66  C   UNL A   1      42.544  31.260  29.585  1.00  0.00     0.029 A 
ATOM     67  N   UNL A   1      44.026  29.861  28.697  1.00  0.00    -0.354 N 
ATOM     68  N   UNL A   1      46.652  29.069  27.705  1.00  0.00    -0.248 NA
ATOM     69  C   UNL A   1      48.844  29.609  27.112  1.00  0.00     0.031 C 
ATOM     70  C   UNL A   1      43.758  31.936  29.444  1.00  0.00     0.029 A 
ATOM     71  C   UNL A   1      44.688  31.057  28.915  1.00  0.00     0.049 A 
ATOM     72  H   UNL A   1      44.433  29.051  28.313  1.00  0.00     0.167 HD
ATOM     73  C   UNL A   1      46.910  30.390  28.057  1.00  0.00     0.074 A 
ATOM     74  C   UNL A   1      48.287  30.659  27.700  1.00  0.00     0.031 C 
ATOM     75  C   UNL A   1      46.078  31.296  28.624  1.00  0.00     0.034 A 
BRANCH  62  76
ATOM     76  C   UNL A   1      40.311  29.245  29.424  1.00  0.00     0.023 A 
ATOM     77  C   UNL A   1      39.360  29.632  28.457  1.00  0.00     0.012 A 
ATOM     78  C   UNL A   1      39.910  29.096  30.766  1.00  0.00     0.148 A 
ATOM     79  C   UNL A   1      38.042  29.901  28.825  1.00  0.00     0.002 A 
ATOM     80  C   UNL A   1      38.584  29.318  31.117  1.00  0.00     0.091 A 
ATOM     81  F   UNL A   1      40.832  28.742  31.673  1.00  0.00    -0.205 F 
ATOM     82  C   UNL A   1      37.653  29.734  30.151  1.00  0.00     0.022 A 
BRANCH  80  83
ATOM     83  S   UNL A   1      37.963  29.045  32.781  1.00  0.00     0.127 S 
ATOM     84  O   UNL A   1      39.006  29.675  33.590  1.00  0.00    -0.237 OA
ATOM     85  O   UNL A   1      36.692  29.768  32.757  1.00  0.00    -0.237 OA
ATOM     86  O   UNL A   1      37.841  27.603  32.933  1.00  0.00    -0.744 OA
ENDBRANCH  80  83
ENDBRANCH  62  76
BRANCH  63  87
ATOM     87  C   UNL A   1      49.441  26.895  26.178  1.00  0.00     0.023 A 
ATOM     88  C   UNL A   1      50.366  26.216  26.996  1.00  0.00     0.012 A 
ATOM     89  C   UNL A   1      49.816  27.252  24.868  1.00  0.00     0.148 A 
ATOM     90  C   UNL A   1      51.652  25.934  26.533  1.00  0.00     0.002 A 
ATOM     91  C   UNL A   1      51.078  26.917  24.394  1.00  0.00     0.091 A 
ATOM     92  F   UNL A   1      48.925  27.906  24.110  1.00  0.00    -0.205 F 
ATOM     93  C   UNL A   1      52.004  26.276  25.231  1.00  0.00     0.022 A 
BRANCH  91  94
ATOM     94  S   UNL A   1      51.580  27.208  22.694  1.00  0.00     0.127 S 
ATOM     95  O   UNL A   1      50.429  26.702  21.951  1.00  0.00    -0.237 OA
ATOM     96  O   UNL A   1      51.736  28.662  22.672  1.00  0.00    -0.237 OA
ATOM     97  O   UNL A   1      52.820  26.466  22.515  1.00  0.00    -0.744 OA
ENDBRANCH  91  94
ENDBRANCH  63  87
BRANCH  75  98
ATOM     98  C   UNL A   1      46.630  32.652  28.981  1.00  0.00     0.023 A 
ATOM     99  C   UNL A   1      46.528  33.725  28.075  1.00  0.00     0.012 A 
ATOM    100  C   UNL A   1      47.144  32.882  30.274  1.00  0.00     0.148 A 
ATOM    101  C   UNL A   1      46.946  35.004  28.446  1.00  0.00     0.002 A 
ATOM    102  C   UNL A   1      47.509  34.168  30.654  1.00  0.00     0.091 A 
ATOM    103  F   UNL A   1      47.248  31.843  31.114  1.00  0.00    -0.205 F 
ATOM    104  C   UNL A   1      47.421  35.228  29.737  1.00  0.00     0.022 A 
BRANCH 102 105
ATOM    105  S   UNL A   1      48.030  34.571  32.325  1.00  0.00     0.127 S 
ATOM    106  O   UNL A   1      48.293  36.006  32.216  1.00  0.00    -0.237 OA
ATOM    107  O   UNL A   1      46.845  34.225  33.109  1.00  0.00    -0.237 OA
ATOM    108  O   UNL A   1      49.199  33.745  32.594  1.00  0.00    -0.744 OA
ENDBRANCH 102 105
ENDBRANCH  75  98
ENDBRANCH  49  50
ENDBRANCH  41  44
ENDBRANCH  39  40
ENDBRANCH  38  39
ENDBRANCH   1  38
TORSDOF 20
ENDMDL
