MODEL 1
REMARK VINA RESULT:     -13.0      0.000      0.000
REMARK SMILES Cc1cccc(O[C@H](C)C(=O)NNC(=O)[C@H]2[C@@H]3CC[C@@H](C3)[C@@H]2C(=O)NCCCCNC(=O)c2ccc(-c3c4nc(c(-c5cccc(S(=O)(=O)[O-])c5F)c5ccc([nH]5)c(-c5cccc(S(=O)(=O)[O-])c5F)c5nc(c(-c6cccc(S(=O)(=O)[O-])c6F)c6ccc3[nH]6)C=C5)C=C4)cc2)c1
REMARK SMILES IDX 26 1 25 2 23 3 24 4 22 6 16 7 17 8 18 9 21 10 20 11 19 12
REMARK SMILES IDX 14 13 13 14 15 16 12 17 10 18 11 19 8 21 9 22 7 23 6 24 1 25
REMARK SMILES IDX 2 26 3 27 96 28 4 29 5 30 27 31 28 32 29 33 30 34 31 35
REMARK SMILES IDX 32 37 33 38 34 39 95 40 35 41 94 42 36 43 37 44 38 45 88 46
REMARK SMILES IDX 39 47 93 48 87 49 89 50 40 51 92 52 86 53 85 54 41 56 73 57
REMARK SMILES IDX 53 58 72 59 54 60 57 61 71 62 90 63 55 64 56 65 70 67 91 68
REMARK SMILES IDX 58 69 42 70 43 71 51 72 44 73 46 74 52 75 45 76 47 77 48 78
REMARK SMILES IDX 49 79 50 80 74 81 75 82 83 83 76 84 78 85 84 86 77 87 79 88
REMARK SMILES IDX 80 89 81 90 82 91 59 92 60 93 68 94 61 95 63 96 69 97 62 98
REMARK SMILES IDX 64 99 65 100 66 101 67 102
REMARK H PARENT 25 5 13 15 12 20 30 36 89 55 57 66
REMARK Flexibility Score: inf
ROOT
ATOM      1  C   UNL A   1      36.440  23.513  25.392  1.00  0.00     0.116 C 
ENDROOT
BRANCH   1   2
ATOM      2  N   UNL A   1      35.291  24.099  26.076  1.00  0.00    -0.356 N 
ATOM      3  C   UNL A   1      34.165  24.667  25.543  1.00  0.00     0.224 C 
ATOM      4  O   UNL A   1      33.334  25.185  26.283  1.00  0.00    -0.275 OA
ATOM      5  H   UNL A   1      35.332  24.085  27.060  1.00  0.00     0.163 HD
BRANCH   3   6
ATOM      6  C   UNL A   1      34.020  24.629  24.035  1.00  0.00     0.094 C 
ATOM      7  C   UNL A   1      32.999  25.607  23.440  1.00  0.00     0.096 C 
ATOM      8  C   UNL A   1      32.180  24.723  22.466  1.00  0.00     0.002 C 
ATOM      9  C   UNL A   1      31.206  23.878  23.312  1.00  0.00     0.005 C 
ATOM     10  C   UNL A   1      33.164  23.637  22.035  1.00  0.00     0.009 C 
ATOM     11  C   UNL A   1      33.538  23.268  23.474  1.00  0.00     0.002 C 
ATOM     12  C   UNL A   1      32.148  22.895  24.030  1.00  0.00     0.005 C 
BRANCH   7  13
ATOM     13  C   UNL A   1      33.535  26.895  22.823  1.00  0.00     0.242 C 
ATOM     14  N   UNL A   1      33.956  27.995  23.512  1.00  0.00    -0.267 N 
ATOM     15  H   UNL A   1      34.116  28.797  22.963  1.00  0.00     0.191 HD
ATOM     16  O   UNL A   1      33.629  26.960  21.589  1.00  0.00    -0.273 OA
BRANCH  14  17
ATOM     17  N   UNL A   1      34.187  28.154  24.856  1.00  0.00    -0.264 N 
ATOM     18  C   UNL A   1      33.357  28.666  25.803  1.00  0.00     0.279 C 
ATOM     19  O   UNL A   1      33.689  28.429  26.975  1.00  0.00    -0.269 OA
ATOM     20  H   UNL A   1      35.070  27.859  25.176  1.00  0.00     0.191 HD
BRANCH  18  21
ATOM     21  C   UNL A   1      32.152  29.611  25.539  1.00  0.00     0.260 C 
ATOM     22  C   UNL A   1      32.143  30.750  26.570  1.00  0.00     0.064 C 
BRANCH  21  23
ATOM     23  O   UNL A   1      31.560  29.918  24.296  1.00  0.00    -0.481 OA
BRANCH  23  24
ATOM     24  C   UNL A   1      30.311  29.574  23.903  1.00  0.00     0.120 A 
ATOM     25  C   UNL A   1      28.586  26.178  23.668  1.00  0.00     0.044 C 
ATOM     26  C   UNL A   1      28.843  27.652  23.573  1.00  0.00    -0.047 A 
ATOM     27  C   UNL A   1      27.895  28.492  22.984  1.00  0.00     0.003 A 
ATOM     28  C   UNL A   1      30.041  28.207  24.037  1.00  0.00     0.049 A 
ATOM     29  C   UNL A   1      28.137  29.861  22.887  1.00  0.00     0.004 A 
ATOM     30  C   UNL A   1      29.335  30.405  23.361  1.00  0.00     0.046 A 
ENDBRANCH  23  24
ENDBRANCH  21  23
ENDBRANCH  18  21
ENDBRANCH  14  17
ENDBRANCH   7  13
ENDBRANCH   3   6
ENDBRANCH   1   2
BRANCH   1  31
ATOM     31  C   UNL A   1      36.563  21.999  25.627  1.00  0.00     0.023 C 
BRANCH  31  32
ATOM     32  C   UNL A   1      37.994  21.466  25.760  1.00  0.00     0.023 C 
BRANCH  32  33
ATOM     33  C   UNL A   1      39.072  22.540  25.749  1.00  0.00     0.116 C 
BRANCH  33  34
ATOM     34  N   UNL A   1      40.005  22.489  26.855  1.00  0.00    -0.352 N 
ATOM     35  C   UNL A   1      40.537  23.520  27.626  1.00  0.00     0.251 C 
ATOM     36  H   UNL A   1      40.311  21.587  27.101  1.00  0.00     0.163 HD
ATOM     37  O   UNL A   1      41.480  23.265  28.343  1.00  0.00    -0.269 OA
BRANCH  35  38
ATOM     38  C   UNL A   1      39.865  24.858  27.681  1.00  0.00     0.039 A 
ATOM     39  C   UNL A   1      40.291  25.841  26.773  1.00  0.00     0.014 A 
ATOM     40  C   UNL A   1      39.018  25.223  28.720  1.00  0.00     0.014 A 
ATOM     41  C   UNL A   1      40.114  27.193  27.079  1.00  0.00     0.010 A 
ATOM     42  C   UNL A   1      38.939  26.547  29.088  1.00  0.00     0.010 A 
ATOM     43  C   UNL A   1      39.557  27.526  28.308  1.00  0.00    -0.014 A 
BRANCH  43  44
ATOM     44  C   UNL A   1      39.628  28.832  28.944  1.00  0.00     0.031 A 
ATOM     45  C   UNL A   1      38.649  29.881  28.608  1.00  0.00     0.074 A 
ATOM     46  C   UNL A   1      40.422  28.957  30.035  1.00  0.00     0.049 A 
ATOM     47  N   UNL A   1      38.720  31.091  29.038  1.00  0.00    -0.248 NA
ATOM     48  C   UNL A   1      37.491  29.634  27.758  1.00  0.00     0.031 C 
ATOM     49  C   UNL A   1      40.345  29.965  31.086  1.00  0.00     0.029 A 
ATOM     50  N   UNL A   1      41.621  28.289  30.303  1.00  0.00    -0.354 N 
ATOM     51  C   UNL A   1      37.528  31.714  28.743  1.00  0.00     0.074 A 
ATOM     52  C   UNL A   1      36.812  30.776  27.911  1.00  0.00     0.031 C 
ATOM     53  C   UNL A   1      41.544  30.055  31.683  1.00  0.00     0.029 A 
ATOM     54  C   UNL A   1      42.462  29.249  30.898  1.00  0.00     0.049 A 
ATOM     55  H   UNL A   1      41.831  27.345  30.117  1.00  0.00     0.167 HD
ATOM     56  C   UNL A   1      37.247  32.906  29.340  1.00  0.00     0.034 A 
ATOM     57  C   UNL A   1      43.608  29.702  30.304  1.00  0.00     0.034 A 
ATOM     58  C   UNL A   1      38.384  33.379  30.140  1.00  0.00     0.049 A 
ATOM     59  C   UNL A   1      43.614  31.211  30.056  1.00  0.00     0.074 A 
ATOM     60  C   UNL A   1      38.738  33.319  31.479  1.00  0.00     0.029 A 
ATOM     61  N   UNL A   1      39.518  33.779  29.465  1.00  0.00    -0.354 N 
ATOM     62  N   UNL A   1      42.649  32.026  30.385  1.00  0.00    -0.248 NA
ATOM     63  C   UNL A   1      44.678  31.894  29.317  1.00  0.00     0.031 C 
ATOM     64  C   UNL A   1      40.127  33.640  31.581  1.00  0.00     0.029 A 
ATOM     65  C   UNL A   1      40.604  33.915  30.311  1.00  0.00     0.049 A 
ATOM     66  H   UNL A   1      39.552  33.949  28.496  1.00  0.00     0.167 HD
ATOM     67  C   UNL A   1      42.845  33.234  29.767  1.00  0.00     0.074 A 
ATOM     68  C   UNL A   1      44.156  33.121  29.154  1.00  0.00     0.031 C 
ATOM     69  C   UNL A   1      41.900  34.222  29.721  1.00  0.00     0.034 A 
BRANCH  56  70
ATOM     70  C   UNL A   1      35.885  33.564  29.387  1.00  0.00     0.023 A 
ATOM     71  C   UNL A   1      35.218  33.747  28.154  1.00  0.00     0.012 A 
ATOM     72  C   UNL A   1      35.220  34.052  30.535  1.00  0.00     0.148 A 
ATOM     73  C   UNL A   1      34.012  34.445  28.046  1.00  0.00     0.002 A 
ATOM     74  C   UNL A   1      34.051  34.813  30.420  1.00  0.00     0.091 A 
ATOM     75  F   UNL A   1      35.665  33.721  31.751  1.00  0.00    -0.205 F 
ATOM     76  C   UNL A   1      33.445  35.009  29.175  1.00  0.00     0.022 A 
BRANCH  74  77
ATOM     77  S   UNL A   1      33.308  35.670  31.820  1.00  0.00     0.127 S 
ATOM     78  O   UNL A   1      32.681  34.567  32.555  1.00  0.00    -0.237 OA
ATOM     79  O   UNL A   1      34.468  36.257  32.485  1.00  0.00    -0.237 OA
ATOM     80  O   UNL A   1      32.356  36.618  31.255  1.00  0.00    -0.744 OA
ENDBRANCH  74  77
ENDBRANCH  56  70
BRANCH  57  81
ATOM     81  C   UNL A   1      44.238  28.688  29.399  1.00  0.00     0.023 A 
ATOM     82  C   UNL A   1      44.706  27.491  29.995  1.00  0.00     0.012 A 
ATOM     83  C   UNL A   1      44.017  28.705  28.011  1.00  0.00     0.148 A 
ATOM     84  C   UNL A   1      44.784  26.307  29.259  1.00  0.00     0.002 A 
ATOM     85  C   UNL A   1      44.125  27.526  27.279  1.00  0.00     0.091 A 
ATOM     86  F   UNL A   1      43.629  29.848  27.431  1.00  0.00    -0.205 F 
ATOM     87  C   UNL A   1      44.456  26.318  27.908  1.00  0.00     0.022 A 
BRANCH  85  88
ATOM     88  S   UNL A   1      43.723  27.492  25.526  1.00  0.00     0.127 S 
ATOM     89  O   UNL A   1      43.261  26.118  25.363  1.00  0.00    -0.237 OA
ATOM     90  O   UNL A   1      42.681  28.512  25.419  1.00  0.00    -0.237 OA
ATOM     91  O   UNL A   1      44.968  27.846  24.862  1.00  0.00    -0.744 OA
ENDBRANCH  85  88
ENDBRANCH  57  81
BRANCH  69  92
ATOM     92  C   UNL A   1      42.142  35.576  29.089  1.00  0.00     0.023 A 
ATOM     93  C   UNL A   1      41.685  35.834  27.781  1.00  0.00     0.012 A 
ATOM     94  C   UNL A   1      42.960  36.564  29.693  1.00  0.00     0.148 A 
ATOM     95  C   UNL A   1      41.988  37.030  27.121  1.00  0.00     0.002 A 
ATOM     96  C   UNL A   1      43.350  37.699  28.990  1.00  0.00     0.091 A 
ATOM     97  F   UNL A   1      43.320  36.437  30.974  1.00  0.00    -0.205 F 
ATOM     98  C   UNL A   1      42.842  37.950  27.715  1.00  0.00     0.022 A 
BRANCH  96  99
ATOM     99  S   UNL A   1      44.619  38.815  29.607  1.00  0.00     0.127 S 
ATOM    100  O   UNL A   1      43.976  39.368  30.802  1.00  0.00    -0.237 OA
ATOM    101  O   UNL A   1      45.721  37.897  29.880  1.00  0.00    -0.237 OA
ATOM    102  O   UNL A   1      44.841  39.787  28.546  1.00  0.00    -0.744 OA
ENDBRANCH  96  99
ENDBRANCH  69  92
ENDBRANCH  43  44
ENDBRANCH  35  38
ENDBRANCH  33  34
ENDBRANCH  32  33
ENDBRANCH  31  32
ENDBRANCH   1  31
TORSDOF 19
ENDMDL
MODEL 2
REMARK VINA RESULT:     -12.9      4.034     10.211
REMARK SMILES Cc1cccc(O[C@H](C)C(=O)NNC(=O)[C@H]2[C@@H]3CC[C@@H](C3)[C@@H]2C(=O)NCCCCNC(=O)c2ccc(-c3c4nc(c(-c5cccc(S(=O)(=O)[O-])c5F)c5ccc([nH]5)c(-c5cccc(S(=O)(=O)[O-])c5F)c5nc(c(-c6cccc(S(=O)(=O)[O-])c6F)c6ccc3[nH]6)C=C5)C=C4)cc2)c1
REMARK SMILES IDX 26 1 25 2 23 3 24 4 22 6 16 7 17 8 18 9 21 10 20 11 19 12
REMARK SMILES IDX 14 13 13 14 15 16 12 17 10 18 11 19 8 21 9 22 7 23 6 24 1 25
REMARK SMILES IDX 2 26 3 27 96 28 4 29 5 30 27 31 28 32 29 33 30 34 31 35
REMARK SMILES IDX 32 37 33 38 34 39 95 40 35 41 94 42 36 43 37 44 38 45 88 46
REMARK SMILES IDX 39 47 93 48 87 49 89 50 40 51 92 52 86 53 85 54 41 56 73 57
REMARK SMILES IDX 53 58 72 59 54 60 57 61 71 62 90 63 55 64 56 65 70 67 91 68
REMARK SMILES IDX 58 69 42 70 43 71 51 72 44 73 46 74 52 75 45 76 47 77 48 78
REMARK SMILES IDX 49 79 50 80 74 81 75 82 83 83 76 84 78 85 84 86 77 87 79 88
REMARK SMILES IDX 80 89 81 90 82 91 59 92 60 93 68 94 61 95 63 96 69 97 62 98
REMARK SMILES IDX 64 99 65 100 66 101 67 102
REMARK H PARENT 25 5 13 15 12 20 30 36 89 55 57 66
REMARK Flexibility Score: inf
ROOT
ATOM      1  C   UNL A   1      34.262  27.757  26.017  1.00  0.00     0.116 C 
ENDROOT
BRANCH   1   2
ATOM      2  N   UNL A   1      34.354  28.464  24.744  1.00  0.00    -0.356 N 
ATOM      3  C   UNL A   1      33.543  28.374  23.644  1.00  0.00     0.224 C 
ATOM      4  O   UNL A   1      33.827  28.995  22.623  1.00  0.00    -0.275 OA
ATOM      5  H   UNL A   1      35.107  29.095  24.663  1.00  0.00     0.163 HD
BRANCH   3   6
ATOM      6  C   UNL A   1      32.322  27.483  23.757  1.00  0.00     0.094 C 
ATOM      7  C   UNL A   1      31.622  27.145  22.436  1.00  0.00     0.096 C 
ATOM      8  C   UNL A   1      30.126  27.412  22.744  1.00  0.00     0.002 C 
ATOM      9  C   UNL A   1      29.912  28.940  22.720  1.00  0.00     0.005 C 
ATOM     10  C   UNL A   1      30.005  27.154  24.245  1.00  0.00     0.009 C 
ATOM     11  C   UNL A   1      31.169  28.085  24.598  1.00  0.00     0.002 C 
ATOM     12  C   UNL A   1      30.659  29.405  23.984  1.00  0.00     0.005 C 
BRANCH   7  13
ATOM     13  C   UNL A   1      31.903  25.778  21.821  1.00  0.00     0.242 C 
ATOM     14  N   UNL A   1      31.661  24.572  22.411  1.00  0.00    -0.267 N 
ATOM     15  H   UNL A   1      32.050  23.794  21.948  1.00  0.00     0.191 HD
ATOM     16  O   UNL A   1      32.371  25.735  20.673  1.00  0.00    -0.273 OA
BRANCH  14  17
ATOM     17  N   UNL A   1      30.957  24.279  23.552  1.00  0.00    -0.264 N 
ATOM     18  C   UNL A   1      31.266  23.388  24.532  1.00  0.00     0.279 C 
ATOM     19  O   UNL A   1      30.625  23.526  25.587  1.00  0.00    -0.269 OA
ATOM     20  H   UNL A   1      30.119  24.779  23.679  1.00  0.00     0.191 HD
BRANCH  18  21
ATOM     21  C   UNL A   1      32.219  22.170  24.383  1.00  0.00     0.260 C 
ATOM     22  C   UNL A   1      32.467  21.876  22.896  1.00  0.00     0.064 C 
BRANCH  21  23
ATOM     23  O   UNL A   1      33.257  21.782  25.256  1.00  0.00    -0.481 OA
BRANCH  23  24
ATOM     24  C   UNL A   1      34.541  22.206  25.203  1.00  0.00     0.120 A 
ATOM     25  C   UNL A   1      37.819  20.284  24.853  1.00  0.00     0.044 C 
ATOM     26  C   UNL A   1      36.841  21.407  25.023  1.00  0.00    -0.047 A 
ATOM     27  C   UNL A   1      37.298  22.707  25.252  1.00  0.00     0.003 A 
ATOM     28  C   UNL A   1      35.461  21.173  24.991  1.00  0.00     0.049 A 
ATOM     29  C   UNL A   1      36.389  23.750  25.420  1.00  0.00     0.004 A 
ATOM     30  C   UNL A   1      35.013  23.504  25.379  1.00  0.00     0.046 A 
ENDBRANCH  23  24
ENDBRANCH  21  23
ENDBRANCH  18  21
ENDBRANCH  14  17
ENDBRANCH   7  13
ENDBRANCH   3   6
ENDBRANCH   1   2
BRANCH   1  31
ATOM     31  C   UNL A   1      33.959  28.693  27.197  1.00  0.00     0.023 C 
BRANCH  31  32
ATOM     32  C   UNL A   1      33.957  30.190  26.868  1.00  0.00     0.023 C 
BRANCH  32  33
ATOM     33  C   UNL A   1      34.054  31.104  28.081  1.00  0.00     0.116 C 
BRANCH  33  34
ATOM     34  N   UNL A   1      35.147  32.053  28.054  1.00  0.00    -0.352 N 
ATOM     35  C   UNL A   1      36.498  31.873  28.339  1.00  0.00     0.251 C 
ATOM     36  H   UNL A   1      34.897  32.968  27.792  1.00  0.00     0.163 HD
ATOM     37  O   UNL A   1      37.186  32.860  28.481  1.00  0.00    -0.269 OA
BRANCH  35  38
ATOM     38  C   UNL A   1      37.107  30.504  28.320  1.00  0.00     0.039 A 
ATOM     39  C   UNL A   1      37.124  29.778  29.522  1.00  0.00     0.014 A 
ATOM     40  C   UNL A   1      37.841  30.032  27.239  1.00  0.00     0.014 A 
ATOM     41  C   UNL A   1      38.083  28.782  29.720  1.00  0.00     0.010 A 
ATOM     42  C   UNL A   1      38.861  29.134  27.460  1.00  0.00     0.010 A 
ATOM     43  C   UNL A   1      39.031  28.570  28.725  1.00  0.00    -0.014 A 
BRANCH  43  44
ATOM     44  C   UNL A   1      40.289  27.860  28.892  1.00  0.00     0.031 A 
ATOM     45  C   UNL A   1      40.366  26.408  28.647  1.00  0.00     0.074 A 
ATOM     46  C   UNL A   1      41.419  28.601  28.996  1.00  0.00     0.049 A 
ATOM     47  N   UNL A   1      41.410  25.697  28.889  1.00  0.00    -0.248 NA
ATOM     48  C   UNL A   1      39.257  25.644  28.091  1.00  0.00     0.031 C 
ATOM     49  C   UNL A   1      42.791  28.182  28.732  1.00  0.00     0.029 A 
ATOM     50  N   UNL A   1      41.564  29.864  29.577  1.00  0.00    -0.354 N 
ATOM     51  C   UNL A   1      41.220  24.461  28.312  1.00  0.00     0.074 A 
ATOM     52  C   UNL A   1      39.848  24.466  27.861  1.00  0.00     0.031 C 
ATOM     53  C   UNL A   1      43.625  28.995  29.399  1.00  0.00     0.029 A 
ATOM     54  C   UNL A   1      42.798  29.826  30.256  1.00  0.00     0.049 A 
ATOM     55  H   UNL A   1      40.937  30.621  29.522  1.00  0.00     0.167 HD
ATOM     56  C   UNL A   1      42.290  23.627  28.183  1.00  0.00     0.034 A 
ATOM     57  C   UNL A   1      42.899  29.911  31.618  1.00  0.00     0.034 A 
ATOM     58  C   UNL A   1      43.483  24.193  28.824  1.00  0.00     0.049 A 
ATOM     59  C   UNL A   1      43.569  28.695  32.258  1.00  0.00     0.074 A 
ATOM     60  C   UNL A   1      44.583  24.916  28.392  1.00  0.00     0.029 A 
ATOM     61  N   UNL A   1      43.488  24.281  30.201  1.00  0.00    -0.354 N 
ATOM     62  N   UNL A   1      44.034  27.667  31.602  1.00  0.00    -0.248 NA
ATOM     63  C   UNL A   1      43.668  28.509  33.707  1.00  0.00     0.031 C 
ATOM     64  C   UNL A   1      45.215  25.485  29.541  1.00  0.00     0.029 A 
ATOM     65  C   UNL A   1      44.510  25.087  30.665  1.00  0.00     0.049 A 
ATOM     66  H   UNL A   1      42.841  23.823  30.785  1.00  0.00     0.167 HD
ATOM     67  C   UNL A   1      44.296  26.647  32.482  1.00  0.00     0.074 A 
ATOM     68  C   UNL A   1      44.103  27.240  33.793  1.00  0.00     0.031 C 
ATOM     69  C   UNL A   1      44.572  25.365  32.094  1.00  0.00     0.034 A 
BRANCH  56  70
ATOM     70  C   UNL A   1      42.340  22.394  27.307  1.00  0.00     0.023 A 
ATOM     71  C   UNL A   1      41.386  21.382  27.568  1.00  0.00     0.012 A 
ATOM     72  C   UNL A   1      43.267  22.126  26.275  1.00  0.00     0.148 A 
ATOM     73  C   UNL A   1      41.399  20.148  26.913  1.00  0.00     0.002 A 
ATOM     74  C   UNL A   1      43.326  20.865  25.670  1.00  0.00     0.091 A 
ATOM     75  F   UNL A   1      44.047  23.107  25.813  1.00  0.00    -0.205 F 
ATOM     76  C   UNL A   1      42.391  19.875  25.987  1.00  0.00     0.022 A 
BRANCH  74  77
ATOM     77  S   UNL A   1      44.646  20.392  24.537  1.00  0.00     0.127 S 
ATOM     78  O   UNL A   1      44.215  19.058  24.108  1.00  0.00    -0.237 OA
ATOM     79  O   UNL A   1      44.557  21.417  23.500  1.00  0.00    -0.237 OA
ATOM     80  O   UNL A   1      45.873  20.391  25.324  1.00  0.00    -0.744 OA
ENDBRANCH  74  77
ENDBRANCH  56  70
BRANCH  57  81
ATOM     81  C   UNL A   1      41.785  30.695  32.239  1.00  0.00     0.023 A 
ATOM     82  C   UNL A   1      41.674  32.060  31.878  1.00  0.00     0.012 A 
ATOM     83  C   UNL A   1      40.669  30.058  32.809  1.00  0.00     0.148 A 
ATOM     84  C   UNL A   1      40.442  32.716  31.924  1.00  0.00     0.002 A 
ATOM     85  C   UNL A   1      39.451  30.729  32.879  1.00  0.00     0.091 A 
ATOM     86  F   UNL A   1      40.782  28.784  33.206  1.00  0.00    -0.205 F 
ATOM     87  C   UNL A   1      39.322  32.037  32.389  1.00  0.00     0.022 A 
BRANCH  85  88
ATOM     88  S   UNL A   1      37.976  29.896  33.483  1.00  0.00     0.127 S 
ATOM     89  O   UNL A   1      38.123  30.059  34.926  1.00  0.00    -0.237 OA
ATOM     90  O   UNL A   1      36.898  30.676  32.878  1.00  0.00    -0.237 OA
ATOM     91  O   UNL A   1      38.088  28.540  32.966  1.00  0.00    -0.744 OA
ENDBRANCH  85  88
ENDBRANCH  57  81
BRANCH  69  92
ATOM     92  C   UNL A   1      44.918  24.258  33.066  1.00  0.00     0.023 A 
ATOM     93  C   UNL A   1      43.912  23.384  33.525  1.00  0.00     0.012 A 
ATOM     94  C   UNL A   1      46.193  24.149  33.675  1.00  0.00     0.148 A 
ATOM     95  C   UNL A   1      44.168  22.424  34.509  1.00  0.00     0.002 A 
ATOM     96  C   UNL A   1      46.411  23.269  34.730  1.00  0.00     0.091 A 
ATOM     97  F   UNL A   1      47.221  24.860  33.199  1.00  0.00    -0.205 F 
ATOM     98  C   UNL A   1      45.409  22.383  35.130  1.00  0.00     0.022 A 
BRANCH  96  99
ATOM     99  S   UNL A   1      47.913  23.317  35.720  1.00  0.00     0.127 S 
ATOM    100  O   UNL A   1      47.567  22.427  36.832  1.00  0.00    -0.237 OA
ATOM    101  O   UNL A   1      48.902  22.776  34.793  1.00  0.00    -0.237 OA
ATOM    102  O   UNL A   1      48.088  24.711  36.105  1.00  0.00    -0.744 OA
ENDBRANCH  96  99
ENDBRANCH  69  92
ENDBRANCH  43  44
ENDBRANCH  35  38
ENDBRANCH  33  34
ENDBRANCH  32  33
ENDBRANCH  31  32
ENDBRANCH   1  31
TORSDOF 19
ENDMDL
MODEL 3
REMARK VINA RESULT:     -12.8      1.228      2.317
REMARK SMILES Cc1cccc(O[C@H](C)C(=O)NNC(=O)[C@H]2[C@@H]3CC[C@@H](C3)[C@@H]2C(=O)NCCCCNC(=O)c2ccc(-c3c4nc(c(-c5cccc(S(=O)(=O)[O-])c5F)c5ccc([nH]5)c(-c5cccc(S(=O)(=O)[O-])c5F)c5nc(c(-c6cccc(S(=O)(=O)[O-])c6F)c6ccc3[nH]6)C=C5)C=C4)cc2)c1
REMARK SMILES IDX 26 1 25 2 23 3 24 4 22 6 16 7 17 8 18 9 21 10 20 11 19 12
REMARK SMILES IDX 14 13 13 14 15 16 12 17 10 18 11 19 8 21 9 22 7 23 6 24 1 25
REMARK SMILES IDX 2 26 3 27 96 28 4 29 5 30 27 31 28 32 29 33 30 34 31 35
REMARK SMILES IDX 32 37 33 38 34 39 95 40 35 41 94 42 36 43 37 44 38 45 88 46
REMARK SMILES IDX 39 47 93 48 87 49 89 50 40 51 92 52 86 53 85 54 41 56 73 57
REMARK SMILES IDX 53 58 72 59 54 60 57 61 71 62 90 63 55 64 56 65 70 67 91 68
REMARK SMILES IDX 58 69 42 70 43 71 51 72 44 73 46 74 52 75 45 76 47 77 48 78
REMARK SMILES IDX 49 79 50 80 74 81 75 82 83 83 76 84 78 85 84 86 77 87 79 88
REMARK SMILES IDX 80 89 81 90 82 91 59 92 60 93 68 94 61 95 63 96 69 97 62 98
REMARK SMILES IDX 64 99 65 100 66 101 67 102
REMARK H PARENT 25 5 13 15 12 20 30 36 89 55 57 66
REMARK Flexibility Score: inf
ROOT
ATOM      1  C   UNL A   1      36.753  22.217  24.022  1.00  0.00     0.116 C 
ENDROOT
BRANCH   1   2
ATOM      2  N   UNL A   1      36.356  23.381  24.809  1.00  0.00    -0.356 N 
ATOM      3  C   UNL A   1      35.100  23.844  25.095  1.00  0.00     0.224 C 
ATOM      4  O   UNL A   1      34.963  24.897  25.712  1.00  0.00    -0.275 OA
ATOM      5  H   UNL A   1      37.097  23.909  25.186  1.00  0.00     0.163 HD
BRANCH   3   6
ATOM      6  C   UNL A   1      33.930  23.012  24.610  1.00  0.00     0.094 C 
ATOM      7  C   UNL A   1      32.592  23.752  24.490  1.00  0.00     0.096 C 
ATOM      8  C   UNL A   1      31.591  22.800  25.192  1.00  0.00     0.002 C 
ATOM      9  C   UNL A   1      31.792  22.955  26.714  1.00  0.00     0.005 C 
ATOM     10  C   UNL A   1      32.196  21.412  24.989  1.00  0.00     0.009 C 
ATOM     11  C   UNL A   1      33.568  21.822  25.532  1.00  0.00     0.002 C 
ATOM     12  C   UNL A   1      33.170  22.308  26.941  1.00  0.00     0.005 C 
BRANCH   7  13
ATOM     13  C   UNL A   1      32.161  24.204  23.099  1.00  0.00     0.242 C 
ATOM     14  N   UNL A   1      30.929  24.686  22.763  1.00  0.00    -0.267 N 
ATOM     15  H   UNL A   1      30.765  24.777  21.796  1.00  0.00     0.191 HD
ATOM     16  O   UNL A   1      32.994  24.161  22.181  1.00  0.00    -0.273 OA
BRANCH  14  17
ATOM     17  N   UNL A   1      29.884  25.062  23.569  1.00  0.00    -0.264 N 
ATOM     18  C   UNL A   1      29.420  26.315  23.825  1.00  0.00     0.279 C 
ATOM     19  O   UNL A   1      28.294  26.360  24.346  1.00  0.00    -0.269 OA
ATOM     20  H   UNL A   1      29.407  24.330  24.021  1.00  0.00     0.191 HD
BRANCH  18  21
ATOM     21  C   UNL A   1      30.225  27.633  23.654  1.00  0.00     0.260 C 
ATOM     22  C   UNL A   1      29.991  28.212  22.251  1.00  0.00     0.064 C 
BRANCH  21  23
ATOM     23  O   UNL A   1      30.543  28.578  24.652  1.00  0.00    -0.481 OA
BRANCH  23  24
ATOM     24  C   UNL A   1      31.629  28.548  25.459  1.00  0.00     0.120 A 
ATOM     25  C   UNL A   1      33.354  31.295  27.469  1.00  0.00     0.044 C 
ATOM     26  C   UNL A   1      33.046  29.962  26.856  1.00  0.00    -0.047 A 
ATOM     27  C   UNL A   1      33.927  28.892  27.026  1.00  0.00     0.003 A 
ATOM     28  C   UNL A   1      31.897  29.774  26.079  1.00  0.00     0.049 A 
ATOM     29  C   UNL A   1      33.645  27.654  26.449  1.00  0.00     0.004 A 
ATOM     30  C   UNL A   1      32.491  27.477  25.681  1.00  0.00     0.046 A 
ENDBRANCH  23  24
ENDBRANCH  21  23
ENDBRANCH  18  21
ENDBRANCH  14  17
ENDBRANCH   7  13
ENDBRANCH   3   6
ENDBRANCH   1   2
BRANCH   1  31
ATOM     31  C   UNL A   1      37.230  21.045  24.894  1.00  0.00     0.023 C 
BRANCH  31  32
ATOM     32  C   UNL A   1      38.610  21.220  25.538  1.00  0.00     0.023 C 
BRANCH  32  33
ATOM     33  C   UNL A   1      38.804  22.540  26.268  1.00  0.00     0.116 C 
BRANCH  33  34
ATOM     34  N   UNL A   1      39.889  22.562  27.227  1.00  0.00    -0.352 N 
ATOM     35  C   UNL A   1      40.527  23.641  27.834  1.00  0.00     0.251 C 
ATOM     36  H   UNL A   1      40.229  21.677  27.492  1.00  0.00     0.163 HD
ATOM     37  O   UNL A   1      41.566  23.430  28.422  1.00  0.00    -0.269 OA
BRANCH  35  38
ATOM     38  C   UNL A   1      39.870  24.986  27.887  1.00  0.00     0.039 A 
ATOM     39  C   UNL A   1      40.257  25.941  26.934  1.00  0.00     0.014 A 
ATOM     40  C   UNL A   1      39.079  25.385  28.958  1.00  0.00     0.014 A 
ATOM     41  C   UNL A   1      40.107  27.302  27.213  1.00  0.00     0.010 A 
ATOM     42  C   UNL A   1      39.029  26.719  29.294  1.00  0.00     0.010 A 
ATOM     43  C   UNL A   1      39.615  27.672  28.459  1.00  0.00    -0.014 A 
BRANCH  43  44
ATOM     44  C   UNL A   1      39.729  28.993  29.056  1.00  0.00     0.031 A 
ATOM     45  C   UNL A   1      38.740  30.041  28.745  1.00  0.00     0.074 A 
ATOM     46  C   UNL A   1      40.579  29.139  30.100  1.00  0.00     0.049 A 
ATOM     47  N   UNL A   1      38.842  31.261  29.139  1.00  0.00    -0.248 NA
ATOM     48  C   UNL A   1      37.538  29.782  27.962  1.00  0.00     0.031 C 
ATOM     49  C   UNL A   1      40.564  30.174  31.128  1.00  0.00     0.029 A 
ATOM     50  N   UNL A   1      41.785  28.468  30.323  1.00  0.00    -0.354 N 
ATOM     51  C   UNL A   1      37.641  31.886  28.890  1.00  0.00     0.074 A 
ATOM     52  C   UNL A   1      36.875  30.932  28.122  1.00  0.00     0.031 C 
ATOM     53  C   UNL A   1      41.794  30.270  31.659  1.00  0.00     0.029 A 
ATOM     54  C   UNL A   1      42.663  29.437  30.848  1.00  0.00     0.049 A 
ATOM     55  H   UNL A   1      41.980  27.519  30.151  1.00  0.00     0.167 HD
ATOM     56  C   UNL A   1      37.399  33.095  29.470  1.00  0.00     0.034 A 
ATOM     57  C   UNL A   1      43.780  29.865  30.183  1.00  0.00     0.034 A 
ATOM     58  C   UNL A   1      38.580  33.579  30.197  1.00  0.00     0.049 A 
ATOM     59  C   UNL A   1      43.783  31.366  29.896  1.00  0.00     0.074 A 
ATOM     60  C   UNL A   1      39.003  33.550  31.517  1.00  0.00     0.029 A 
ATOM     61  N   UNL A   1      39.680  33.952  29.454  1.00  0.00    -0.354 N 
ATOM     62  N   UNL A   1      42.843  32.197  30.255  1.00  0.00    -0.248 NA
ATOM     63  C   UNL A   1      44.812  32.022  29.086  1.00  0.00     0.031 C 
ATOM     64  C   UNL A   1      40.397  33.862  31.538  1.00  0.00     0.029 A 
ATOM     65  C   UNL A   1      40.809  34.100  30.238  1.00  0.00     0.049 A 
ATOM     66  H   UNL A   1      39.664  34.097  28.480  1.00  0.00     0.167 HD
ATOM     67  C   UNL A   1      43.014  33.388  29.596  1.00  0.00     0.074 A 
ATOM     68  C   UNL A   1      44.290  33.248  28.919  1.00  0.00     0.031 C 
ATOM     69  C   UNL A   1      42.074  34.382  29.573  1.00  0.00     0.034 A 
BRANCH  56  70
ATOM     70  C   UNL A   1      36.046  33.765  29.571  1.00  0.00     0.023 A 
ATOM     71  C   UNL A   1      35.392  34.077  28.357  1.00  0.00     0.012 A 
ATOM     72  C   UNL A   1      35.378  34.149  30.756  1.00  0.00     0.148 A 
ATOM     73  C   UNL A   1      34.197  34.800  28.308  1.00  0.00     0.002 A 
ATOM     74  C   UNL A   1      34.221  34.934  30.707  1.00  0.00     0.091 A 
ATOM     75  F   UNL A   1      35.808  33.695  31.937  1.00  0.00    -0.205 F 
ATOM     76  C   UNL A   1      33.628  35.260  29.483  1.00  0.00     0.022 A 
BRANCH  74  77
ATOM     77  S   UNL A   1      33.477  35.662  32.179  1.00  0.00     0.127 S 
ATOM     78  O   UNL A   1      32.814  34.506  32.789  1.00  0.00    -0.237 OA
ATOM     79  O   UNL A   1      34.641  36.149  32.914  1.00  0.00    -0.237 OA
ATOM     80  O   UNL A   1      32.556  36.686  31.702  1.00  0.00    -0.744 OA
ENDBRANCH  74  77
ENDBRANCH  56  70
BRANCH  57  81
ATOM     81  C   UNL A   1      44.354  28.823  29.274  1.00  0.00     0.023 A 
ATOM     82  C   UNL A   1      44.855  27.642  29.876  1.00  0.00     0.012 A 
ATOM     83  C   UNL A   1      44.053  28.801  27.901  1.00  0.00     0.148 A 
ATOM     84  C   UNL A   1      44.888  26.437  29.172  1.00  0.00     0.002 A 
ATOM     85  C   UNL A   1      44.117  27.600  27.199  1.00  0.00     0.091 A 
ATOM     86  F   UNL A   1      43.634  29.927  27.311  1.00  0.00    -0.205 F 
ATOM     87  C   UNL A   1      44.482  26.409  27.843  1.00  0.00     0.022 A 
BRANCH  85  88
ATOM     88  S   UNL A   1      43.613  27.516  25.474  1.00  0.00     0.127 S 
ATOM     89  O   UNL A   1      44.865  27.827  24.792  1.00  0.00    -0.237 OA
ATOM     90  O   UNL A   1      43.162  26.132  25.341  1.00  0.00    -0.237 OA
ATOM     91  O   UNL A   1      42.547  28.501  25.360  1.00  0.00    -0.744 OA
ENDBRANCH  85  88
ENDBRANCH  57  81
BRANCH  69  92
ATOM     92  C   UNL A   1      42.293  35.717  28.895  1.00  0.00     0.023 A 
ATOM     93  C   UNL A   1      41.869  35.908  27.564  1.00  0.00     0.012 A 
ATOM     94  C   UNL A   1      43.058  36.755  29.483  1.00  0.00     0.148 A 
ATOM     95  C   UNL A   1      42.154  37.086  26.866  1.00  0.00     0.002 A 
ATOM     96  C   UNL A   1      43.433  37.875  28.747  1.00  0.00     0.091 A 
ATOM     97  F   UNL A   1      43.381  36.691  30.779  1.00  0.00    -0.205 F 
ATOM     98  C   UNL A   1      42.958  38.058  27.447  1.00  0.00     0.022 A 
BRANCH  96  99
ATOM     99  S   UNL A   1      44.645  39.056  29.356  1.00  0.00     0.127 S 
ATOM    100  O   UNL A   1      43.873  39.782  30.368  1.00  0.00    -0.237 OA
ATOM    101  O   UNL A   1      45.679  38.177  29.895  1.00  0.00    -0.237 OA
ATOM    102  O   UNL A   1      45.025  39.863  28.205  1.00  0.00    -0.744 OA
ENDBRANCH  96  99
ENDBRANCH  69  92
ENDBRANCH  43  44
ENDBRANCH  35  38
ENDBRANCH  33  34
ENDBRANCH  32  33
ENDBRANCH  31  32
ENDBRANCH   1  31
TORSDOF 19
ENDMDL
