MODEL 1
REMARK VINA RESULT:     -11.2      0.000      0.000
REMARK SMILES Cc1ccc(/C=C/C(=O)N[C@@H](CO)C(=O)NCCCCNC(=O)c2ccc(-c3c4nc(c(-c5cccc(S(=O)(=O)[O-])c5F)c5ccc([nH]5)c(-c5cccc(S(=O)(=O)[O-])c5F)c5nc(c(-c6cccc(S(=O)(=O)[O-])c6F)c6ccc3[nH]6)C=C5)C=C4)cc2)o1
REMARK SMILES IDX 18 1 17 2 16 3 14 4 15 5 11 7 10 8 8 9 9 10 7 12 6 13 5 14
REMARK SMILES IDX 1 15 2 16 3 17 87 18 4 19 12 20 13 21 19 23 20 24 21 25
REMARK SMILES IDX 22 26 23 28 24 29 25 30 86 31 26 32 85 33 27 34 28 35 29 36
REMARK SMILES IDX 79 37 30 38 84 39 78 40 80 41 31 42 83 43 77 44 76 45 32 47
REMARK SMILES IDX 64 48 44 49 63 50 45 51 48 52 62 53 81 54 46 55 47 56 61 58
REMARK SMILES IDX 82 59 49 60 33 61 34 62 42 63 35 64 37 65 43 66 36 67 38 68
REMARK SMILES IDX 39 69 40 70 41 71 65 72 66 73 74 74 67 75 69 76 75 77 68 78
REMARK SMILES IDX 70 79 71 80 72 81 73 82 50 83 51 84 59 85 52 86 54 87 60 88
REMARK SMILES IDX 53 89 55 90 56 91 57 92 58 93
REMARK H PARENT 16 6 10 11 13 22 21 27 80 46 48 57
REMARK Flexibility Score: inf
ROOT
ATOM      1  C   UNL A   1      36.066  23.297  23.588  1.00  0.00     0.023 C 
ENDROOT
BRANCH   1   2
ATOM      2  C   UNL A   1      34.590  23.571  23.858  1.00  0.00     0.116 C 
BRANCH   2   3
ATOM      3  N   UNL A   1      33.707  22.644  23.175  1.00  0.00    -0.354 N 
ATOM      4  C   UNL A   1      32.886  21.677  23.674  1.00  0.00     0.244 C 
ATOM      5  O   UNL A   1      32.081  21.149  22.900  1.00  0.00    -0.273 OA
ATOM      6  H   UNL A   1      33.697  22.728  22.195  1.00  0.00     0.163 HD
BRANCH   4   7
ATOM      7  C   UNL A   1      32.913  21.244  25.152  1.00  0.00     0.197 C 
BRANCH   7   8
ATOM      8  N   UNL A   1      31.575  21.338  25.748  1.00  0.00    -0.339 N 
ATOM      9  C   UNL A   1      30.766  22.398  26.001  1.00  0.00     0.244 C 
ATOM     10  O   UNL A   1      29.653  22.190  26.480  1.00  0.00    -0.270 OA
ATOM     11  H   UNL A   1      31.194  20.471  26.017  1.00  0.00     0.164 HD
BRANCH   9  12
ATOM     12  C   UNL A   1      31.234  23.789  25.848  1.00  0.00     0.075 C 
ATOM     13  C   UNL A   1      31.957  24.468  26.748  1.00  0.00     0.053 C 
BRANCH  13  14
ATOM     14  C   UNL A   1      32.311  25.820  26.498  1.00  0.00     0.127 A 
ATOM     15  C   UNL A   1      31.723  29.308  27.111  1.00  0.00     0.087 C 
ATOM     16  C   UNL A   1      32.280  28.036  26.617  1.00  0.00     0.101 A 
ATOM     17  C   UNL A   1      33.266  27.720  25.713  1.00  0.00     0.046 A 
ATOM     18  O   UNL A   1      31.727  26.900  27.119  1.00  0.00    -0.462 OA
ATOM     19  C   UNL A   1      33.273  26.308  25.623  1.00  0.00     0.050 A 
ENDBRANCH  13  14
ENDBRANCH   9  12
ENDBRANCH   7   8
BRANCH   7  20
ATOM     20  C   UNL A   1      33.630  19.909  25.393  1.00  0.00     0.191 C 
BRANCH  20  21
ATOM     21  O   UNL A   1      32.973  19.044  26.313  1.00  0.00    -0.394 OA
ATOM     22  H   UNL A   1      32.539  19.573  27.000  1.00  0.00     0.210 HD
ENDBRANCH  20  21
ENDBRANCH   7  20
ENDBRANCH   4   7
ENDBRANCH   2   3
ENDBRANCH   1   2
BRANCH   1  23
ATOM     23  C   UNL A   1      36.552  21.899  23.962  1.00  0.00     0.023 C 
BRANCH  23  24
ATOM     24  C   UNL A   1      36.937  21.709  25.425  1.00  0.00     0.116 C 
BRANCH  24  25
ATOM     25  N   UNL A   1      37.983  20.716  25.625  1.00  0.00    -0.352 N 
ATOM     26  C   UNL A   1      39.259  20.889  26.110  1.00  0.00     0.251 C 
ATOM     27  H   UNL A   1      37.743  19.792  25.379  1.00  0.00     0.163 HD
ATOM     28  O   UNL A   1      40.053  19.959  26.119  1.00  0.00    -0.269 OA
BRANCH  26  29
ATOM     29  C   UNL A   1      39.669  22.227  26.586  1.00  0.00     0.039 A 
ATOM     30  C   UNL A   1      40.702  22.327  27.521  1.00  0.00     0.014 A 
ATOM     31  C   UNL A   1      39.072  23.375  26.061  1.00  0.00     0.014 A 
ATOM     32  C   UNL A   1      41.195  23.587  27.868  1.00  0.00     0.010 A 
ATOM     33  C   UNL A   1      39.616  24.621  26.348  1.00  0.00     0.010 A 
ATOM     34  C   UNL A   1      40.684  24.741  27.252  1.00  0.00    -0.014 A 
BRANCH  34  35
ATOM     35  C   UNL A   1      41.260  26.084  27.515  1.00  0.00     0.031 A 
ATOM     36  C   UNL A   1      42.666  26.397  27.081  1.00  0.00     0.074 A 
ATOM     37  C   UNL A   1      40.568  26.974  28.253  1.00  0.00     0.049 A 
ATOM     38  N   UNL A   1      43.380  27.467  27.311  1.00  0.00    -0.248 NA
ATOM     39  C   UNL A   1      43.375  25.353  26.322  1.00  0.00     0.031 C 
ATOM     40  C   UNL A   1      39.234  26.750  28.816  1.00  0.00     0.029 A 
ATOM     41  N   UNL A   1      40.908  28.229  28.694  1.00  0.00    -0.354 N 
ATOM     42  C   UNL A   1      44.635  27.207  26.774  1.00  0.00     0.074 A 
ATOM     43  C   UNL A   1      44.592  25.867  26.231  1.00  0.00     0.031 C 
ATOM     44  C   UNL A   1      38.874  27.827  29.534  1.00  0.00     0.029 A 
ATOM     45  C   UNL A   1      39.957  28.805  29.505  1.00  0.00     0.049 A 
ATOM     46  H   UNL A   1      41.751  28.675  28.451  1.00  0.00     0.167 HD
ATOM     47  C   UNL A   1      45.716  28.020  26.712  1.00  0.00     0.034 A 
ATOM     48  C   UNL A   1      39.961  29.982  30.162  1.00  0.00     0.034 A 
ATOM     49  C   UNL A   1      45.731  29.373  27.194  1.00  0.00     0.049 A 
ATOM     50  C   UNL A   1      41.144  30.900  30.011  1.00  0.00     0.074 A 
ATOM     51  C   UNL A   1      46.729  30.321  27.064  1.00  0.00     0.029 A 
ATOM     52  N   UNL A   1      44.701  29.970  27.905  1.00  0.00    -0.354 N 
ATOM     53  N   UNL A   1      42.252  30.710  29.338  1.00  0.00    -0.248 NA
ATOM     54  C   UNL A   1      41.063  32.208  30.677  1.00  0.00     0.031 C 
ATOM     55  C   UNL A   1      46.310  31.487  27.713  1.00  0.00     0.029 A 
ATOM     56  C   UNL A   1      45.044  31.271  28.231  1.00  0.00     0.049 A 
ATOM     57  H   UNL A   1      43.851  29.533  28.144  1.00  0.00     0.167 HD
ATOM     58  C   UNL A   1      42.987  31.883  29.472  1.00  0.00     0.074 A 
ATOM     59  C   UNL A   1      42.188  32.786  30.276  1.00  0.00     0.031 C 
ATOM     60  C   UNL A   1      44.216  32.178  28.984  1.00  0.00     0.034 A 
BRANCH  47  61
ATOM     61  C   UNL A   1      46.954  27.483  26.046  1.00  0.00     0.023 A 
ATOM     62  C   UNL A   1      47.149  27.692  24.665  1.00  0.00     0.012 A 
ATOM     63  C   UNL A   1      47.946  26.813  26.789  1.00  0.00     0.148 A 
ATOM     64  C   UNL A   1      48.288  27.208  24.025  1.00  0.00     0.002 A 
ATOM     65  C   UNL A   1      49.101  26.372  26.152  1.00  0.00     0.091 A 
ATOM     66  F   UNL A   1      47.734  26.600  28.096  1.00  0.00    -0.205 F 
ATOM     67  C   UNL A   1      49.268  26.558  24.771  1.00  0.00     0.022 A 
BRANCH  65  68
ATOM     68  S   UNL A   1      50.453  25.595  27.044  1.00  0.00     0.127 S 
ATOM     69  O   UNL A   1      50.822  26.644  27.993  1.00  0.00    -0.237 OA
ATOM     70  O   UNL A   1      49.800  24.431  27.646  1.00  0.00    -0.237 OA
ATOM     71  O   UNL A   1      51.457  25.272  26.040  1.00  0.00    -0.744 OA
ENDBRANCH  65  68
ENDBRANCH  47  61
BRANCH  48  72
ATOM     72  C   UNL A   1      38.770  30.381  30.963  1.00  0.00     0.023 A 
ATOM     73  C   UNL A   1      38.738  30.094  32.341  1.00  0.00     0.012 A 
ATOM     74  C   UNL A   1      37.701  31.090  30.383  1.00  0.00     0.148 A 
ATOM     75  C   UNL A   1      37.652  30.487  33.125  1.00  0.00     0.002 A 
ATOM     76  C   UNL A   1      36.647  31.525  31.178  1.00  0.00     0.091 A 
ATOM     77  F   UNL A   1      37.747  31.344  29.067  1.00  0.00    -0.205 F 
ATOM     78  C   UNL A   1      36.613  31.212  32.546  1.00  0.00     0.022 A 
BRANCH  76  79
ATOM     79  S   UNL A   1      35.334  32.578  30.549  1.00  0.00     0.127 S 
ATOM     80  O   UNL A   1      36.059  33.807  30.239  1.00  0.00    -0.237 OA
ATOM     81  O   UNL A   1      34.873  31.823  29.383  1.00  0.00    -0.237 OA
ATOM     82  O   UNL A   1      34.357  32.674  31.625  1.00  0.00    -0.744 OA
ENDBRANCH  76  79
ENDBRANCH  48  72
BRANCH  60  83
ATOM     83  C   UNL A   1      44.779  33.544  29.277  1.00  0.00     0.023 A 
ATOM     84  C   UNL A   1      45.573  33.740  30.423  1.00  0.00     0.012 A 
ATOM     85  C   UNL A   1      44.606  34.603  28.364  1.00  0.00     0.148 A 
ATOM     86  C   UNL A   1      46.170  34.977  30.667  1.00  0.00     0.002 A 
ATOM     87  C   UNL A   1      45.240  35.819  28.590  1.00  0.00     0.091 A 
ATOM     88  F   UNL A   1      43.830  34.400  27.288  1.00  0.00    -0.205 F 
ATOM     89  C   UNL A   1      46.014  36.010  29.746  1.00  0.00     0.022 A 
BRANCH  87  90
ATOM     90  S   UNL A   1      45.176  37.173  27.411  1.00  0.00     0.127 S 
ATOM     91  O   UNL A   1      45.659  38.293  28.216  1.00  0.00    -0.237 OA
ATOM     92  O   UNL A   1      46.103  36.724  26.372  1.00  0.00    -0.237 OA
ATOM     93  O   UNL A   1      43.787  37.264  26.981  1.00  0.00    -0.744 OA
ENDBRANCH  87  90
ENDBRANCH  60  83
ENDBRANCH  34  35
ENDBRANCH  26  29
ENDBRANCH  24  25
ENDBRANCH  23  24
ENDBRANCH   1  23
TORSDOF 19
ENDMDL
MODEL 2
REMARK VINA RESULT:     -11.2      5.702      8.758
REMARK SMILES Cc1ccc(/C=C/C(=O)N[C@@H](CO)C(=O)NCCCCNC(=O)c2ccc(-c3c4nc(c(-c5cccc(S(=O)(=O)[O-])c5F)c5ccc([nH]5)c(-c5cccc(S(=O)(=O)[O-])c5F)c5nc(c(-c6cccc(S(=O)(=O)[O-])c6F)c6ccc3[nH]6)C=C5)C=C4)cc2)o1
REMARK SMILES IDX 18 1 17 2 16 3 14 4 15 5 11 7 10 8 8 9 9 10 7 12 6 13 5 14
REMARK SMILES IDX 1 15 2 16 3 17 87 18 4 19 12 20 13 21 19 23 20 24 21 25
REMARK SMILES IDX 22 26 23 28 24 29 25 30 86 31 26 32 85 33 27 34 28 35 29 36
REMARK SMILES IDX 79 37 30 38 84 39 78 40 80 41 31 42 83 43 77 44 76 45 32 47
REMARK SMILES IDX 64 48 44 49 63 50 45 51 48 52 62 53 81 54 46 55 47 56 61 58
REMARK SMILES IDX 82 59 49 60 33 61 34 62 42 63 35 64 37 65 43 66 36 67 38 68
REMARK SMILES IDX 39 69 40 70 41 71 65 72 66 73 74 74 67 75 69 76 75 77 68 78
REMARK SMILES IDX 70 79 71 80 72 81 73 82 50 83 51 84 59 85 52 86 54 87 60 88
REMARK SMILES IDX 53 89 55 90 56 91 57 92 58 93
REMARK H PARENT 16 6 10 11 13 22 21 27 80 46 48 57
REMARK Flexibility Score: inf
ROOT
ATOM      1  C   UNL A   1      31.886  30.125  27.068  1.00  0.00     0.023 C 
ENDROOT
BRANCH   1   2
ATOM      2  C   UNL A   1      31.981  29.178  25.877  1.00  0.00     0.116 C 
BRANCH   2   3
ATOM      3  N   UNL A   1      32.918  28.091  26.089  1.00  0.00    -0.354 N 
ATOM      4  C   UNL A   1      32.869  26.791  25.681  1.00  0.00     0.244 C 
ATOM      5  O   UNL A   1      33.889  26.106  25.818  1.00  0.00    -0.273 OA
ATOM      6  H   UNL A   1      33.718  28.331  26.609  1.00  0.00     0.163 HD
BRANCH   4   7
ATOM      7  C   UNL A   1      31.615  26.165  25.044  1.00  0.00     0.197 C 
BRANCH   7   8
ATOM      8  N   UNL A   1      31.883  25.748  23.663  1.00  0.00    -0.339 N 
ATOM      9  C   UNL A   1      31.551  26.298  22.468  1.00  0.00     0.244 C 
ATOM     10  O   UNL A   1      31.946  25.755  21.438  1.00  0.00    -0.270 OA
ATOM     11  H   UNL A   1      32.398  24.912  23.589  1.00  0.00     0.164 HD
BRANCH   9  12
ATOM     12  C   UNL A   1      30.622  27.440  22.367  1.00  0.00     0.075 C 
ATOM     13  C   UNL A   1      30.948  28.725  22.561  1.00  0.00     0.053 C 
BRANCH  13  14
ATOM     14  C   UNL A   1      29.949  29.730  22.474  1.00  0.00     0.127 A 
ATOM     15  C   UNL A   1      28.022  31.971  20.435  1.00  0.00     0.087 C 
ATOM     16  C   UNL A   1      28.570  31.223  21.581  1.00  0.00     0.101 A 
ATOM     17  C   UNL A   1      28.362  31.282  22.938  1.00  0.00     0.046 A 
ATOM     18  O   UNL A   1      29.495  30.269  21.292  1.00  0.00    -0.462 OA
ATOM     19  C   UNL A   1      29.254  30.343  23.509  1.00  0.00     0.050 A 
ENDBRANCH  13  14
ENDBRANCH   9  12
ENDBRANCH   7   8
BRANCH   7  20
ATOM     20  C   UNL A   1      30.944  25.097  25.919  1.00  0.00     0.191 C 
BRANCH  20  21
ATOM     21  O   UNL A   1      29.524  25.175  25.959  1.00  0.00    -0.394 OA
ATOM     22  H   UNL A   1      29.156  24.295  26.136  1.00  0.00     0.210 HD
ENDBRANCH  20  21
ENDBRANCH   7  20
ENDBRANCH   4   7
ENDBRANCH   2   3
ENDBRANCH   1   2
BRANCH   1  23
ATOM     23  C   UNL A   1      31.396  31.535  26.746  1.00  0.00     0.023 C 
BRANCH  23  24
ATOM     24  C   UNL A   1      32.489  32.572  26.515  1.00  0.00     0.116 C 
BRANCH  24  25
ATOM     25  N   UNL A   1      32.280  33.809  27.254  1.00  0.00    -0.352 N 
ATOM     26  C   UNL A   1      33.005  34.323  28.304  1.00  0.00     0.251 C 
ATOM     27  H   UNL A   1      31.513  34.354  26.960  1.00  0.00     0.163 HD
ATOM     28  O   UNL A   1      32.632  35.334  28.883  1.00  0.00    -0.269 OA
BRANCH  26  29
ATOM     29  C   UNL A   1      34.224  33.614  28.747  1.00  0.00     0.039 A 
ATOM     30  C   UNL A   1      35.463  34.244  28.608  1.00  0.00     0.014 A 
ATOM     31  C   UNL A   1      34.129  32.359  29.353  1.00  0.00     0.014 A 
ATOM     32  C   UNL A   1      36.602  33.647  29.154  1.00  0.00     0.010 A 
ATOM     33  C   UNL A   1      35.249  31.807  29.963  1.00  0.00     0.010 A 
ATOM     34  C   UNL A   1      36.497  32.445  29.872  1.00  0.00    -0.014 A 
BRANCH  34  35
ATOM     35  C   UNL A   1      37.667  31.843  30.560  1.00  0.00     0.031 A 
ATOM     36  C   UNL A   1      38.479  30.781  29.871  1.00  0.00     0.074 A 
ATOM     37  C   UNL A   1      37.919  32.157  31.846  1.00  0.00     0.049 A 
ATOM     38  N   UNL A   1      39.464  30.062  30.341  1.00  0.00    -0.248 NA
ATOM     39  C   UNL A   1      38.108  30.457  28.483  1.00  0.00     0.031 C 
ATOM     40  C   UNL A   1      37.142  33.099  32.654  1.00  0.00     0.029 A 
ATOM     41  N   UNL A   1      38.873  31.685  32.712  1.00  0.00    -0.354 N 
ATOM     42  C   UNL A   1      39.796  29.168  29.330  1.00  0.00     0.074 A 
ATOM     43  C   UNL A   1      38.889  29.417  28.232  1.00  0.00     0.031 C 
ATOM     44  C   UNL A   1      37.646  33.129  33.899  1.00  0.00     0.029 A 
ATOM     45  C   UNL A   1      38.761  32.192  33.987  1.00  0.00     0.049 A 
ATOM     46  H   UNL A   1      39.574  31.046  32.446  1.00  0.00     0.167 HD
ATOM     47  C   UNL A   1      40.786  28.244  29.307  1.00  0.00     0.034 A 
ATOM     48  C   UNL A   1      39.468  31.924  35.103  1.00  0.00     0.034 A 
ATOM     49  C   UNL A   1      41.725  28.048  30.376  1.00  0.00     0.049 A 
ATOM     50  C   UNL A   1      40.612  30.951  35.028  1.00  0.00     0.074 A 
ATOM     51  C   UNL A   1      42.841  27.231  30.400  1.00  0.00     0.029 A 
ATOM     52  N   UNL A   1      41.657  28.671  31.613  1.00  0.00    -0.354 N 
ATOM     53  N   UNL A   1      41.031  30.250  34.003  1.00  0.00    -0.248 NA
ATOM     54  C   UNL A   1      41.406  30.758  36.250  1.00  0.00     0.031 C 
ATOM     55  C   UNL A   1      43.438  27.346  31.660  1.00  0.00     0.029 A 
ATOM     56  C   UNL A   1      42.704  28.248  32.413  1.00  0.00     0.049 A 
ATOM     57  H   UNL A   1      40.965  29.317  31.883  1.00  0.00     0.167 HD
ATOM     58  C   UNL A   1      42.153  29.558  34.445  1.00  0.00     0.074 A 
ATOM     59  C   UNL A   1      42.360  29.939  35.827  1.00  0.00     0.031 C 
ATOM     60  C   UNL A   1      42.931  28.677  33.770  1.00  0.00     0.034 A 
BRANCH  47  61
ATOM     61  C   UNL A   1      40.936  27.416  28.060  1.00  0.00     0.023 A 
ATOM     62  C   UNL A   1      41.549  27.978  26.920  1.00  0.00     0.012 A 
ATOM     63  C   UNL A   1      40.515  26.072  28.025  1.00  0.00     0.148 A 
ATOM     64  C   UNL A   1      41.703  27.231  25.754  1.00  0.00     0.002 A 
ATOM     65  C   UNL A   1      40.714  25.320  26.872  1.00  0.00     0.091 A 
ATOM     66  F   UNL A   1      39.912  25.561  29.108  1.00  0.00    -0.205 F 
ATOM     67  C   UNL A   1      41.295  25.900  25.734  1.00  0.00     0.022 A 
BRANCH  65  68
ATOM     68  S   UNL A   1      40.293  23.576  26.779  1.00  0.00     0.127 S 
ATOM     69  O   UNL A   1      38.917  23.630  26.288  1.00  0.00    -0.237 OA
ATOM     70  O   UNL A   1      41.266  23.073  25.808  1.00  0.00    -0.237 OA
ATOM     71  O   UNL A   1      40.461  23.054  28.128  1.00  0.00    -0.744 OA
ENDBRANCH  65  68
ENDBRANCH  47  61
BRANCH  48  72
ATOM     72  C   UNL A   1      39.149  32.648  36.366  1.00  0.00     0.023 A 
ATOM     73  C   UNL A   1      39.682  33.934  36.576  1.00  0.00     0.012 A 
ATOM     74  C   UNL A   1      38.282  32.096  37.328  1.00  0.00     0.148 A 
ATOM     75  C   UNL A   1      39.373  34.651  37.734  1.00  0.00     0.002 A 
ATOM     76  C   UNL A   1      37.936  32.837  38.453  1.00  0.00     0.091 A 
ATOM     77  F   UNL A   1      37.794  30.866  37.113  1.00  0.00    -0.205 F 
ATOM     78  C   UNL A   1      38.492  34.108  38.665  1.00  0.00     0.022 A 
BRANCH  76  79
ATOM     79  S   UNL A   1      36.706  32.276  39.636  1.00  0.00     0.127 S 
ATOM     80  O   UNL A   1      36.919  33.198  40.749  1.00  0.00    -0.237 OA
ATOM     81  O   UNL A   1      35.460  32.480  38.897  1.00  0.00    -0.237 OA
ATOM     82  O   UNL A   1      37.023  30.879  39.901  1.00  0.00    -0.744 OA
ENDBRANCH  76  79
ENDBRANCH  48  72
BRANCH  60  83
ATOM     83  C   UNL A   1      44.103  28.073  34.497  1.00  0.00     0.023 A 
ATOM     84  C   UNL A   1      45.343  28.739  34.497  1.00  0.00     0.012 A 
ATOM     85  C   UNL A   1      43.946  26.902  35.264  1.00  0.00     0.148 A 
ATOM     86  C   UNL A   1      46.417  28.237  35.232  1.00  0.00     0.002 A 
ATOM     87  C   UNL A   1      45.007  26.432  36.030  1.00  0.00     0.091 A 
ATOM     88  F   UNL A   1      42.761  26.273  35.236  1.00  0.00    -0.205 F 
ATOM     89  C   UNL A   1      46.245  27.093  36.007  1.00  0.00     0.022 A 
BRANCH  87  90
ATOM     90  S   UNL A   1      44.847  25.024  37.134  1.00  0.00     0.127 S 
ATOM     91  O   UNL A   1      44.512  23.950  36.200  1.00  0.00    -0.237 OA
ATOM     92  O   UNL A   1      46.186  24.931  37.715  1.00  0.00    -0.237 OA
ATOM     93  O   UNL A   1      43.800  25.375  38.084  1.00  0.00    -0.744 OA
ENDBRANCH  87  90
ENDBRANCH  60  83
ENDBRANCH  34  35
ENDBRANCH  26  29
ENDBRANCH  24  25
ENDBRANCH  23  24
ENDBRANCH   1  23
TORSDOF 19
ENDMDL
MODEL 3
REMARK VINA RESULT:     -11.1      1.917      3.563
REMARK SMILES Cc1ccc(/C=C/C(=O)N[C@@H](CO)C(=O)NCCCCNC(=O)c2ccc(-c3c4nc(c(-c5cccc(S(=O)(=O)[O-])c5F)c5ccc([nH]5)c(-c5cccc(S(=O)(=O)[O-])c5F)c5nc(c(-c6cccc(S(=O)(=O)[O-])c6F)c6ccc3[nH]6)C=C5)C=C4)cc2)o1
REMARK SMILES IDX 18 1 17 2 16 3 14 4 15 5 11 7 10 8 8 9 9 10 7 12 6 13 5 14
REMARK SMILES IDX 1 15 2 16 3 17 87 18 4 19 12 20 13 21 19 23 20 24 21 25
REMARK SMILES IDX 22 26 23 28 24 29 25 30 86 31 26 32 85 33 27 34 28 35 29 36
REMARK SMILES IDX 79 37 30 38 84 39 78 40 80 41 31 42 83 43 77 44 76 45 32 47
REMARK SMILES IDX 64 48 44 49 63 50 45 51 48 52 62 53 81 54 46 55 47 56 61 58
REMARK SMILES IDX 82 59 49 60 33 61 34 62 42 63 35 64 37 65 43 66 36 67 38 68
REMARK SMILES IDX 39 69 40 70 41 71 65 72 66 73 74 74 67 75 69 76 75 77 68 78
REMARK SMILES IDX 70 79 71 80 72 81 73 82 50 83 51 84 59 85 52 86 54 87 60 88
REMARK SMILES IDX 53 89 55 90 56 91 57 92 58 93
REMARK H PARENT 16 6 10 11 13 22 21 27 80 46 48 57
REMARK Flexibility Score: inf
ROOT
ATOM      1  C   UNL A   1      36.204  23.361  23.641  1.00  0.00     0.023 C 
ENDROOT
BRANCH   1   2
ATOM      2  C   UNL A   1      34.747  23.744  23.407  1.00  0.00     0.116 C 
BRANCH   2   3
ATOM      3  N   UNL A   1      33.970  22.679  22.801  1.00  0.00    -0.354 N 
ATOM      4  C   UNL A   1      32.679  22.296  23.015  1.00  0.00     0.244 C 
ATOM      5  O   UNL A   1      32.182  21.482  22.229  1.00  0.00    -0.273 OA
ATOM      6  H   UNL A   1      34.451  22.149  22.126  1.00  0.00     0.163 HD
BRANCH   4   7
ATOM      7  C   UNL A   1      31.827  22.853  24.171  1.00  0.00     0.197 C 
BRANCH   7   8
ATOM      8  N   UNL A   1      32.562  22.790  25.439  1.00  0.00    -0.339 N 
ATOM      9  C   UNL A   1      33.162  21.763  26.091  1.00  0.00     0.244 C 
ATOM     10  O   UNL A   1      33.757  21.997  27.141  1.00  0.00    -0.270 OA
ATOM     11  H   UNL A   1      32.631  23.654  25.906  1.00  0.00     0.164 HD
BRANCH   9  12
ATOM     12  C   UNL A   1      33.003  20.363  25.652  1.00  0.00     0.075 C 
ATOM     13  C   UNL A   1      33.981  19.585  25.172  1.00  0.00     0.053 C 
BRANCH  13  14
ATOM     14  C   UNL A   1      33.689  18.263  24.744  1.00  0.00     0.127 A 
ATOM     15  C   UNL A   1      32.590  14.945  25.568  1.00  0.00     0.087 C 
ATOM     16  C   UNL A   1      33.056  16.138  24.836  1.00  0.00     0.101 A 
ATOM     17  C   UNL A   1      33.426  16.365  23.532  1.00  0.00     0.046 A 
ATOM     18  O   UNL A   1      33.177  17.281  25.561  1.00  0.00    -0.462 OA
ATOM     19  C   UNL A   1      33.847  17.714  23.477  1.00  0.00     0.050 A 
ENDBRANCH  13  14
ENDBRANCH   9  12
ENDBRANCH   7   8
BRANCH   7  20
ATOM     20  C   UNL A   1      31.185  24.214  23.867  1.00  0.00     0.191 C 
BRANCH  20  21
ATOM     21  O   UNL A   1      31.165  24.560  22.486  1.00  0.00    -0.394 OA
ATOM     22  H   UNL A   1      31.709  23.932  21.987  1.00  0.00     0.210 HD
ENDBRANCH  20  21
ENDBRANCH   7  20
ENDBRANCH   4   7
ENDBRANCH   2   3
ENDBRANCH   1   2
BRANCH   1  23
ATOM     23  C   UNL A   1      36.430  21.961  24.207  1.00  0.00     0.023 C 
BRANCH  23  24
ATOM     24  C   UNL A   1      37.002  21.910  25.618  1.00  0.00     0.116 C 
BRANCH  24  25
ATOM     25  N   UNL A   1      38.089  20.952  25.769  1.00  0.00    -0.352 N 
ATOM     26  C   UNL A   1      39.372  21.164  26.221  1.00  0.00     0.251 C 
ATOM     27  H   UNL A   1      37.877  20.025  25.512  1.00  0.00     0.163 HD
ATOM     28  O   UNL A   1      40.199  20.263  26.190  1.00  0.00    -0.269 OA
BRANCH  26  29
ATOM     29  C   UNL A   1      39.746  22.506  26.712  1.00  0.00     0.039 A 
ATOM     30  C   UNL A   1      40.734  22.619  27.693  1.00  0.00     0.014 A 
ATOM     31  C   UNL A   1      39.163  23.647  26.156  1.00  0.00     0.014 A 
ATOM     32  C   UNL A   1      41.198  23.885  28.059  1.00  0.00     0.010 A 
ATOM     33  C   UNL A   1      39.681  24.900  26.465  1.00  0.00     0.010 A 
ATOM     34  C   UNL A   1      40.705  25.032  27.417  1.00  0.00    -0.014 A 
BRANCH  34  35
ATOM     35  C   UNL A   1      41.255  26.382  27.702  1.00  0.00     0.031 A 
ATOM     36  C   UNL A   1      42.666  26.717  27.306  1.00  0.00     0.074 A 
ATOM     37  C   UNL A   1      40.532  27.257  28.428  1.00  0.00     0.049 A 
ATOM     38  N   UNL A   1      43.359  27.796  27.560  1.00  0.00    -0.248 NA
ATOM     39  C   UNL A   1      43.409  25.688  26.559  1.00  0.00     0.031 C 
ATOM     40  C   UNL A   1      39.188  27.011  28.956  1.00  0.00     0.029 A 
ATOM     41  N   UNL A   1      40.843  28.514  28.885  1.00  0.00    -0.354 N 
ATOM     42  C   UNL A   1      44.631  27.557  27.052  1.00  0.00     0.074 A 
ATOM     43  C   UNL A   1      44.621  26.220  26.501  1.00  0.00     0.031 C 
ATOM     44  C   UNL A   1      38.795  28.078  29.671  1.00  0.00     0.029 A 
ATOM     45  C   UNL A   1      39.864  29.071  29.676  1.00  0.00     0.049 A 
ATOM     46  H   UNL A   1      41.686  28.973  28.666  1.00  0.00     0.167 HD
ATOM     47  C   UNL A   1      45.701  28.385  27.022  1.00  0.00     0.034 A 
ATOM     48  C   UNL A   1      39.835  30.244  30.340  1.00  0.00     0.034 A 
ATOM     49  C   UNL A   1      45.684  29.736  27.513  1.00  0.00     0.049 A 
ATOM     50  C   UNL A   1      41.008  31.179  30.224  1.00  0.00     0.074 A 
ATOM     51  C   UNL A   1      46.672  30.698  27.413  1.00  0.00     0.029 A 
ATOM     52  N   UNL A   1      44.629  30.313  28.202  1.00  0.00    -0.354 N 
ATOM     53  N   UNL A   1      42.135  31.010  29.578  1.00  0.00    -0.248 NA
ATOM     54  C   UNL A   1      40.891  32.482  30.895  1.00  0.00     0.031 C 
ATOM     55  C   UNL A   1      46.221  31.854  28.059  1.00  0.00     0.029 A 
ATOM     56  C   UNL A   1      44.945  31.617  28.543  1.00  0.00     0.049 A 
ATOM     57  H   UNL A   1      43.780  29.863  28.416  1.00  0.00     0.167 HD
ATOM     58  C   UNL A   1      42.849  32.192  29.737  1.00  0.00     0.074 A 
ATOM     59  C   UNL A   1      42.018  33.078  30.526  1.00  0.00     0.031 C 
ATOM     60  C   UNL A   1      44.086  32.508  29.281  1.00  0.00     0.034 A 
BRANCH  47  61
ATOM     61  C   UNL A   1      46.963  27.870  26.385  1.00  0.00     0.023 A 
ATOM     62  C   UNL A   1      47.928  27.215  27.179  1.00  0.00     0.012 A 
ATOM     63  C   UNL A   1      47.178  27.992  24.998  1.00  0.00     0.148 A 
ATOM     64  C   UNL A   1      49.103  26.727  26.612  1.00  0.00     0.002 A 
ATOM     65  C   UNL A   1      48.333  27.462  24.433  1.00  0.00     0.091 A 
ATOM     66  F   UNL A   1      46.264  28.639  24.262  1.00  0.00    -0.205 F 
ATOM     67  C   UNL A   1      49.301  26.841  25.238  1.00  0.00     0.022 A 
BRANCH  65  68
ATOM     68  S   UNL A   1      48.637  27.491  22.663  1.00  0.00     0.127 S 
ATOM     69  O   UNL A   1      49.956  28.120  22.600  1.00  0.00    -0.237 OA
ATOM     70  O   UNL A   1      48.624  26.068  22.321  1.00  0.00    -0.237 OA
ATOM     71  O   UNL A   1      47.544  28.260  22.084  1.00  0.00    -0.744 OA
ENDBRANCH  65  68
ENDBRANCH  47  61
BRANCH  48  72
ATOM     72  C   UNL A   1      38.619  30.621  31.113  1.00  0.00     0.023 A 
ATOM     73  C   UNL A   1      38.568  30.349  32.493  1.00  0.00     0.012 A 
ATOM     74  C   UNL A   1      37.543  31.296  30.504  1.00  0.00     0.148 A 
ATOM     75  C   UNL A   1      37.456  30.723  33.251  1.00  0.00     0.002 A 
ATOM     76  C   UNL A   1      36.463  31.712  31.274  1.00  0.00     0.091 A 
ATOM     77  F   UNL A   1      37.608  31.535  29.187  1.00  0.00    -0.205 F 
ATOM     78  C   UNL A   1      36.410  31.414  32.645  1.00  0.00     0.022 A 
BRANCH  76  79
ATOM     79  S   UNL A   1      35.136  32.724  30.608  1.00  0.00     0.127 S 
ATOM     80  O   UNL A   1      34.203  32.772  31.730  1.00  0.00    -0.237 OA
ATOM     81  O   UNL A   1      35.828  33.983  30.328  1.00  0.00    -0.237 OA
ATOM     82  O   UNL A   1      34.665  32.023  29.422  1.00  0.00    -0.744 OA
ENDBRANCH  76  79
ENDBRANCH  48  72
BRANCH  60  83
ATOM     83  C   UNL A   1      44.622  33.879  29.597  1.00  0.00     0.023 A 
ATOM     84  C   UNL A   1      45.364  34.085  30.775  1.00  0.00     0.012 A 
ATOM     85  C   UNL A   1      44.477  34.935  28.675  1.00  0.00     0.148 A 
ATOM     86  C   UNL A   1      45.937  35.328  31.044  1.00  0.00     0.002 A 
ATOM     87  C   UNL A   1      45.090  36.158  28.927  1.00  0.00     0.091 A 
ATOM     88  F   UNL A   1      43.752  34.724  27.567  1.00  0.00    -0.205 F 
ATOM     89  C   UNL A   1      45.810  36.358  30.115  1.00  0.00     0.022 A 
BRANCH  87  90
ATOM     90  S   UNL A   1      45.062  37.510  27.744  1.00  0.00     0.127 S 
ATOM     91  O   UNL A   1      45.746  36.915  26.597  1.00  0.00    -0.237 OA
ATOM     92  O   UNL A   1      43.628  37.727  27.554  1.00  0.00    -0.237 OA
ATOM     93  O   UNL A   1      45.760  38.617  28.384  1.00  0.00    -0.744 OA
ENDBRANCH  87  90
ENDBRANCH  60  83
ENDBRANCH  34  35
ENDBRANCH  26  29
ENDBRANCH  24  25
ENDBRANCH  23  24
ENDBRANCH   1  23
TORSDOF 19
ENDMDL
