MODEL 1
REMARK VINA RESULT:     -12.5      0.000      0.000
REMARK SMILES O=C(NCCCCNC(=O)c1ccc(-c2c3nc(c(-c4cccc(S(=O)(=O)[O-])c4F)c4ccc([nH]4)c(-c4cccc(S(=O)(=O)[O-])c4F)c4nc(c(-c5cccc(S(=O)(=O)[O-])c5F)c5ccc2[nH]5)C=C4)C=C3)cc1)C1=Cc2cc(Cl)cc(Cl)c2O[C@@H]1C(F)(F)F
REMARK SMILES IDX 6 1 5 2 4 3 3 4 1 5 2 6 74 8 75 9 85 10 76 11 84 12 77 13
REMARK SMILES IDX 83 14 78 15 81 16 79 17 80 18 82 19 86 20 87 21 88 22 89 23
REMARK SMILES IDX 7 24 8 25 9 26 10 28 11 29 12 30 73 31 13 32 72 33 14 34
REMARK SMILES IDX 15 35 16 36 66 37 17 38 71 39 65 40 67 41 18 42 70 43 64 44
REMARK SMILES IDX 63 45 19 47 51 48 31 49 50 50 32 51 35 52 49 53 68 54 33 55
REMARK SMILES IDX 34 56 48 58 69 59 36 60 20 61 21 62 29 63 22 64 24 65 30 66
REMARK SMILES IDX 23 67 25 68 26 69 27 70 28 71 52 72 53 73 61 74 54 75 56 76
REMARK SMILES IDX 62 77 55 78 57 79 58 80 59 81 60 82 37 83 38 84 46 85 39 86
REMARK SMILES IDX 41 87 47 88 40 89 42 90 43 91 44 92 45 93
REMARK H PARENT 3 7 8 27 67 46 35 57
REMARK Flexibility Score: inf
ROOT
ATOM      1  C   UNL A   1      31.498  29.434  26.284  1.00  0.00     0.023 C 
ENDROOT
BRANCH   1   2
ATOM      2  C   UNL A   1      31.745  28.323  27.309  1.00  0.00     0.023 C 
BRANCH   2   3
ATOM      3  C   UNL A   1      32.365  27.053  26.720  1.00  0.00     0.116 C 
BRANCH   3   4
ATOM      4  N   UNL A   1      31.775  25.817  27.251  1.00  0.00    -0.352 N 
ATOM      5  O   UNL A   1      31.004  23.681  27.175  1.00  0.00    -0.270 OA
ATOM      6  C   UNL A   1      31.222  24.739  26.601  1.00  0.00     0.251 C 
ATOM      7  H   UNL A   1      31.775  25.750  28.233  1.00  0.00     0.163 HD
BRANCH   6   8
ATOM      8  C   UNL A   1      30.971  24.872  25.156  1.00  0.00     0.067 C 
ATOM      9  C   UNL A   1      29.912  25.590  24.762  1.00  0.00     0.025 C 
ATOM     10  C   UNL A   1      32.075  24.488  24.222  1.00  0.00     0.314 C 
ATOM     11  C   UNL A   1      30.255  26.564  23.718  1.00  0.00     0.020 A 
ATOM     12  O   UNL A   1      32.474  25.592  23.377  1.00  0.00    -0.474 OA
ATOM     13  C   UNL A   1      29.423  27.683  23.599  1.00  0.00     0.032 A 
ATOM     14  C   UNL A   1      31.559  26.601  23.183  1.00  0.00     0.146 A 
ATOM     15  C   UNL A   1      29.916  28.853  23.025  1.00  0.00     0.043 A 
ATOM     16  C   UNL A   1      32.024  27.777  22.578  1.00  0.00     0.085 A 
ATOM     17  Cl  UNL A   1      28.944  30.272  23.049  1.00  0.00    -0.084 Cl
ATOM     18  C   UNL A   1      31.213  28.910  22.524  1.00  0.00     0.045 A 
ATOM     19  Cl  UNL A   1      33.653  27.911  22.018  1.00  0.00    -0.080 Cl
BRANCH  10  20
ATOM     20  C   UNL A   1      31.687  23.267  23.370  1.00  0.00     0.429 C 
ATOM     21  F   UNL A   1      31.808  22.115  24.075  1.00  0.00    -0.167 F 
ATOM     22  F   UNL A   1      30.404  23.329  22.942  1.00  0.00    -0.167 F 
ATOM     23  F   UNL A   1      32.468  23.141  22.270  1.00  0.00    -0.167 F 
ENDBRANCH  10  20
ENDBRANCH   6   8
ENDBRANCH   3   4
ENDBRANCH   2   3
ENDBRANCH   1   2
BRANCH   1  24
ATOM     24  C   UNL A   1      32.636  30.428  26.056  1.00  0.00     0.116 C 
BRANCH  24  25
ATOM     25  N   UNL A   1      32.449  31.728  26.686  1.00  0.00    -0.352 N 
ATOM     26  C   UNL A   1      33.329  32.411  27.510  1.00  0.00     0.251 C 
ATOM     27  H   UNL A   1      31.592  32.176  26.505  1.00  0.00     0.163 HD
ATOM     28  O   UNL A   1      33.034  33.495  27.975  1.00  0.00    -0.269 OA
BRANCH  26  29
ATOM     29  C   UNL A   1      34.617  31.763  27.862  1.00  0.00     0.039 A 
ATOM     30  C   UNL A   1      35.755  32.563  28.003  1.00  0.00     0.014 A 
ATOM     31  C   UNL A   1      34.669  30.401  28.165  1.00  0.00     0.014 A 
ATOM     32  C   UNL A   1      36.914  32.020  28.562  1.00  0.00     0.010 A 
ATOM     33  C   UNL A   1      35.802  29.880  28.786  1.00  0.00     0.010 A 
ATOM     34  C   UNL A   1      36.926  30.690  29.017  1.00  0.00    -0.014 A 
BRANCH  34  35
ATOM     35  C   UNL A   1      38.069  30.147  29.799  1.00  0.00     0.031 A 
ATOM     36  C   UNL A   1      38.322  30.612  31.206  1.00  0.00     0.074 A 
ATOM     37  C   UNL A   1      38.948  29.316  29.200  1.00  0.00     0.049 A 
ATOM     38  N   UNL A   1      39.309  30.308  32.008  1.00  0.00    -0.248 NA
ATOM     39  C   UNL A   1      37.357  31.566  31.775  1.00  0.00     0.031 C 
ATOM     40  C   UNL A   1      38.868  28.858  27.810  1.00  0.00     0.029 A 
ATOM     41  N   UNL A   1      40.096  28.730  29.673  1.00  0.00    -0.354 N 
ATOM     42  C   UNL A   1      39.105  31.055  33.162  1.00  0.00     0.074 A 
ATOM     43  C   UNL A   1      37.917  31.854  32.941  1.00  0.00     0.031 C 
ATOM     44  C   UNL A   1      39.914  28.056  27.548  1.00  0.00     0.029 A 
ATOM     45  C   UNL A   1      40.753  27.962  28.737  1.00  0.00     0.049 A 
ATOM     46  H   UNL A   1      40.421  28.848  30.594  1.00  0.00     0.167 HD
ATOM     47  C   UNL A   1      39.817  31.053  34.313  1.00  0.00     0.034 A 
ATOM     48  C   UNL A   1      41.900  27.260  28.826  1.00  0.00     0.034 A 
ATOM     49  C   UNL A   1      40.966  30.222  34.551  1.00  0.00     0.049 A 
ATOM     50  C   UNL A   1      42.643  27.233  30.135  1.00  0.00     0.074 A 
ATOM     51  C   UNL A   1      41.703  30.088  35.715  1.00  0.00     0.029 A 
ATOM     52  N   UNL A   1      41.542  29.380  33.614  1.00  0.00    -0.354 N 
ATOM     53  N   UNL A   1      42.342  27.823  31.265  1.00  0.00    -0.248 NA
ATOM     54  C   UNL A   1      43.866  26.417  30.191  1.00  0.00     0.031 C 
ATOM     55  C   UNL A   1      42.729  29.166  35.478  1.00  0.00     0.029 A 
ATOM     56  C   UNL A   1      42.626  28.723  34.169  1.00  0.00     0.049 A 
ATOM     57  H   UNL A   1      41.227  29.267  32.688  1.00  0.00     0.167 HD
ATOM     58  C   UNL A   1      43.313  27.422  32.176  1.00  0.00     0.074 A 
ATOM     59  C   UNL A   1      44.203  26.524  31.470  1.00  0.00     0.031 C 
ATOM     60  C   UNL A   1      43.465  27.781  33.475  1.00  0.00     0.034 A 
BRANCH  47  61
ATOM     61  C   UNL A   1      39.326  31.929  35.434  1.00  0.00     0.023 A 
ATOM     62  C   UNL A   1      38.399  31.405  36.358  1.00  0.00     0.012 A 
ATOM     63  C   UNL A   1      39.809  33.240  35.607  1.00  0.00     0.148 A 
ATOM     64  C   UNL A   1      37.935  32.183  37.418  1.00  0.00     0.002 A 
ATOM     65  C   UNL A   1      39.372  33.996  36.690  1.00  0.00     0.091 A 
ATOM     66  F   UNL A   1      40.673  33.730  34.706  1.00  0.00    -0.205 F 
ATOM     67  C   UNL A   1      38.428  33.473  37.589  1.00  0.00     0.022 A 
BRANCH  65  68
ATOM     68  S   UNL A   1      40.001  35.642  37.035  1.00  0.00     0.127 S 
ATOM     69  O   UNL A   1      39.297  35.974  38.273  1.00  0.00    -0.237 OA
ATOM     70  O   UNL A   1      41.435  35.399  37.197  1.00  0.00    -0.237 OA
ATOM     71  O   UNL A   1      39.653  36.453  35.876  1.00  0.00    -0.744 OA
ENDBRANCH  65  68
ENDBRANCH  47  61
BRANCH  48  72
ATOM     72  C   UNL A   1      42.369  26.447  27.667  1.00  0.00     0.023 A 
ATOM     73  C   UNL A   1      43.249  27.031  26.735  1.00  0.00     0.012 A 
ATOM     74  C   UNL A   1      41.980  25.105  27.496  1.00  0.00     0.148 A 
ATOM     75  C   UNL A   1      43.712  26.302  25.639  1.00  0.00     0.002 A 
ATOM     76  C   UNL A   1      42.486  24.369  26.430  1.00  0.00     0.091 A 
ATOM     77  F   UNL A   1      41.130  24.571  28.384  1.00  0.00    -0.205 F 
ATOM     78  C   UNL A   1      43.339  24.970  25.492  1.00  0.00     0.022 A 
BRANCH  76  79
ATOM     79  S   UNL A   1      42.161  22.612  26.238  1.00  0.00     0.127 S 
ATOM     80  O   UNL A   1      42.727  22.066  27.467  1.00  0.00    -0.237 OA
ATOM     81  O   UNL A   1      40.699  22.576  26.162  1.00  0.00    -0.237 OA
ATOM     82  O   UNL A   1      42.830  22.227  25.001  1.00  0.00    -0.744 OA
ENDBRANCH  76  79
ENDBRANCH  48  72
BRANCH  60  83
ATOM     83  C   UNL A   1      44.618  27.184  34.236  1.00  0.00     0.023 A 
ATOM     84  C   UNL A   1      45.859  27.849  34.253  1.00  0.00     0.012 A 
ATOM     85  C   UNL A   1      44.447  26.014  35.003  1.00  0.00     0.148 A 
ATOM     86  C   UNL A   1      46.922  27.346  35.003  1.00  0.00     0.002 A 
ATOM     87  C   UNL A   1      45.497  25.543  35.781  1.00  0.00     0.091 A 
ATOM     88  F   UNL A   1      43.264  25.384  34.956  1.00  0.00    -0.205 F 
ATOM     89  C   UNL A   1      46.737  26.203  35.777  1.00  0.00     0.022 A 
BRANCH  87  90
ATOM     90  S   UNL A   1      45.319  24.130  36.877  1.00  0.00     0.127 S 
ATOM     91  O   UNL A   1      46.654  24.038  37.465  1.00  0.00    -0.237 OA
ATOM     92  O   UNL A   1      44.276  24.578  37.801  1.00  0.00    -0.237 OA
ATOM     93  O   UNL A   1      44.929  23.014  36.026  1.00  0.00    -0.744 OA
ENDBRANCH  87  90
ENDBRANCH  60  83
ENDBRANCH  34  35
ENDBRANCH  26  29
ENDBRANCH  24  25
ENDBRANCH   1  24
TORSDOF 15
ENDMDL
MODEL 2
REMARK VINA RESULT:     -12.5      2.202      3.105
REMARK SMILES O=C(NCCCCNC(=O)c1ccc(-c2c3nc(c(-c4cccc(S(=O)(=O)[O-])c4F)c4ccc([nH]4)c(-c4cccc(S(=O)(=O)[O-])c4F)c4nc(c(-c5cccc(S(=O)(=O)[O-])c5F)c5ccc2[nH]5)C=C4)C=C3)cc1)C1=Cc2cc(Cl)cc(Cl)c2O[C@@H]1C(F)(F)F
REMARK SMILES IDX 6 1 5 2 4 3 3 4 1 5 2 6 74 8 75 9 85 10 76 11 84 12 77 13
REMARK SMILES IDX 83 14 78 15 81 16 79 17 80 18 82 19 86 20 87 21 88 22 89 23
REMARK SMILES IDX 7 24 8 25 9 26 10 28 11 29 12 30 73 31 13 32 72 33 14 34
REMARK SMILES IDX 15 35 16 36 66 37 17 38 71 39 65 40 67 41 18 42 70 43 64 44
REMARK SMILES IDX 63 45 19 47 51 48 31 49 50 50 32 51 35 52 49 53 68 54 33 55
REMARK SMILES IDX 34 56 48 58 69 59 36 60 20 61 21 62 29 63 22 64 24 65 30 66
REMARK SMILES IDX 23 67 25 68 26 69 27 70 28 71 52 72 53 73 61 74 54 75 56 76
REMARK SMILES IDX 62 77 55 78 57 79 58 80 59 81 60 82 37 83 38 84 46 85 39 86
REMARK SMILES IDX 41 87 47 88 40 89 42 90 43 91 44 92 45 93
REMARK H PARENT 3 7 8 27 67 46 35 57
REMARK Flexibility Score: inf
ROOT
ATOM      1  C   UNL A   1      31.635  28.756  25.870  1.00  0.00     0.023 C 
ENDROOT
BRANCH   1   2
ATOM      2  C   UNL A   1      31.576  27.464  26.689  1.00  0.00     0.023 C 
BRANCH   2   3
ATOM      3  C   UNL A   1      30.879  26.300  25.978  1.00  0.00     0.116 C 
BRANCH   3   4
ATOM      4  N   UNL A   1      30.837  25.069  26.779  1.00  0.00    -0.352 N 
ATOM      5  O   UNL A   1      31.612  23.102  27.610  1.00  0.00    -0.270 OA
ATOM      6  C   UNL A   1      31.605  23.931  26.711  1.00  0.00     0.251 C 
ATOM      7  H   UNL A   1      30.144  25.058  27.478  1.00  0.00     0.163 HD
BRANCH   6   8
ATOM      8  C   UNL A   1      32.493  23.779  25.546  1.00  0.00     0.067 C 
ATOM      9  C   UNL A   1      33.576  24.562  25.470  1.00  0.00     0.025 C 
ATOM     10  C   UNL A   1      32.323  22.557  24.700  1.00  0.00     0.314 C 
ATOM     11  C   UNL A   1      34.795  23.801  25.167  1.00  0.00     0.020 A 
ATOM     12  O   UNL A   1      33.536  21.771  24.639  1.00  0.00    -0.474 OA
ATOM     13  C   UNL A   1      36.011  24.369  25.566  1.00  0.00     0.032 A 
ATOM     14  C   UNL A   1      34.721  22.417  24.904  1.00  0.00     0.146 A 
ATOM     15  C   UNL A   1      37.119  23.551  25.777  1.00  0.00     0.043 A 
ATOM     16  C   UNL A   1      35.857  21.617  25.090  1.00  0.00     0.085 A 
ATOM     17  Cl  UNL A   1      38.551  24.236  26.439  1.00  0.00    -0.084 Cl
ATOM     18  C   UNL A   1      37.047  22.179  25.553  1.00  0.00     0.045 A 
ATOM     19  Cl  UNL A   1      35.783  19.902  24.899  1.00  0.00    -0.080 Cl
BRANCH  10  20
ATOM     20  C   UNL A   1      31.843  22.921  23.284  1.00  0.00     0.429 C 
ATOM     21  F   UNL A   1      30.605  23.474  23.310  1.00  0.00    -0.167 F 
ATOM     22  F   UNL A   1      32.658  23.818  22.681  1.00  0.00    -0.167 F 
ATOM     23  F   UNL A   1      31.773  21.838  22.472  1.00  0.00    -0.167 F 
ENDBRANCH  10  20
ENDBRANCH   6   8
ENDBRANCH   3   4
ENDBRANCH   2   3
ENDBRANCH   1   2
BRANCH   1  24
ATOM     24  C   UNL A   1      32.879  29.626  26.044  1.00  0.00     0.116 C 
BRANCH  24  25
ATOM     25  N   UNL A   1      32.635  30.930  26.644  1.00  0.00    -0.352 N 
ATOM     26  C   UNL A   1      33.502  31.693  27.410  1.00  0.00     0.251 C 
ATOM     27  H   UNL A   1      31.744  31.318  26.487  1.00  0.00     0.163 HD
ATOM     28  O   UNL A   1      33.156  32.770  27.856  1.00  0.00    -0.269 OA
BRANCH  26  29
ATOM     29  C   UNL A   1      34.842  31.139  27.725  1.00  0.00     0.039 A 
ATOM     30  C   UNL A   1      35.908  32.025  27.912  1.00  0.00     0.014 A 
ATOM     31  C   UNL A   1      35.012  29.771  27.948  1.00  0.00     0.014 A 
ATOM     32  C   UNL A   1      37.112  31.551  28.440  1.00  0.00     0.010 A 
ATOM     33  C   UNL A   1      36.188  29.315  28.539  1.00  0.00     0.010 A 
ATOM     34  C   UNL A   1      37.240  30.203  28.817  1.00  0.00    -0.014 A 
BRANCH  34  35
ATOM     35  C   UNL A   1      38.428  29.717  29.567  1.00  0.00     0.031 A 
ATOM     36  C   UNL A   1      38.757  30.274  30.924  1.00  0.00     0.074 A 
ATOM     37  C   UNL A   1      39.278  28.851  28.975  1.00  0.00     0.049 A 
ATOM     38  N   UNL A   1      39.789  30.027  31.688  1.00  0.00    -0.248 NA
ATOM     39  C   UNL A   1      37.819  31.261  31.484  1.00  0.00     0.031 C 
ATOM     40  C   UNL A   1      39.123  28.302  27.625  1.00  0.00     0.029 A 
ATOM     41  N   UNL A   1      40.455  28.301  29.420  1.00  0.00    -0.354 N 
ATOM     42  C   UNL A   1      39.645  30.848  32.800  1.00  0.00     0.074 A 
ATOM     43  C   UNL A   1      38.442  31.627  32.594  1.00  0.00     0.031 C 
ATOM     44  C   UNL A   1      40.158  27.488  27.358  1.00  0.00     0.029 A 
ATOM     45  C   UNL A   1      41.064  27.476  28.502  1.00  0.00     0.049 A 
ATOM     46  H   UNL A   1      40.830  28.481  30.313  1.00  0.00     0.167 HD
ATOM     47  C   UNL A   1      40.421  30.924  33.907  1.00  0.00     0.034 A 
ATOM     48  C   UNL A   1      42.219  26.784  28.572  1.00  0.00     0.034 A 
ATOM     49  C   UNL A   1      41.587  30.113  34.134  1.00  0.00     0.049 A 
ATOM     50  C   UNL A   1      43.034  26.846  29.836  1.00  0.00     0.074 A 
ATOM     51  C   UNL A   1      42.389  30.059  35.261  1.00  0.00     0.029 A 
ATOM     52  N   UNL A   1      42.115  29.214  33.223  1.00  0.00    -0.354 N 
ATOM     53  N   UNL A   1      42.793  27.508  30.940  1.00  0.00    -0.248 NA
ATOM     54  C   UNL A   1      44.263  26.039  29.876  1.00  0.00     0.031 C 
ATOM     55  C   UNL A   1      43.407  29.127  35.027  1.00  0.00     0.029 A 
ATOM     56  C   UNL A   1      43.233  28.598  33.758  1.00  0.00     0.049 A 
ATOM     57  H   UNL A   1      41.750  29.039  32.326  1.00  0.00     0.167 HD
ATOM     58  C   UNL A   1      43.816  27.170  31.819  1.00  0.00     0.074 A 
ATOM     59  C   UNL A   1      44.671  26.230  31.124  1.00  0.00     0.031 C 
ATOM     60  C   UNL A   1      44.038  27.615  33.080  1.00  0.00     0.034 A 
BRANCH  47  61
ATOM     61  C   UNL A   1      39.987  31.870  34.994  1.00  0.00     0.023 A 
ATOM     62  C   UNL A   1      40.408  33.215  34.942  1.00  0.00     0.012 A 
ATOM     63  C   UNL A   1      39.132  31.453  36.032  1.00  0.00     0.148 A 
ATOM     64  C   UNL A   1      40.012  34.122  35.923  1.00  0.00     0.002 A 
ATOM     65  C   UNL A   1      38.710  32.373  36.985  1.00  0.00     0.091 A 
ATOM     66  F   UNL A   1      38.762  30.165  36.080  1.00  0.00    -0.205 F 
ATOM     67  C   UNL A   1      39.156  33.704  36.938  1.00  0.00     0.022 A 
BRANCH  65  68
ATOM     68  S   UNL A   1      37.552  31.948  38.292  1.00  0.00     0.127 S 
ATOM     69  O   UNL A   1      38.363  32.167  39.488  1.00  0.00    -0.237 OA
ATOM     70  O   UNL A   1      36.485  32.930  38.092  1.00  0.00    -0.237 OA
ATOM     71  O   UNL A   1      37.158  30.569  38.042  1.00  0.00    -0.744 OA
ENDBRANCH  65  68
ENDBRANCH  47  61
BRANCH  48  72
ATOM     72  C   UNL A   1      42.627  25.898  27.444  1.00  0.00     0.023 A 
ATOM     73  C   UNL A   1      43.498  26.404  26.459  1.00  0.00     0.012 A 
ATOM     74  C   UNL A   1      42.191  24.563  27.353  1.00  0.00     0.148 A 
ATOM     75  C   UNL A   1      43.905  25.606  25.390  1.00  0.00     0.002 A 
ATOM     76  C   UNL A   1      42.641  23.757  26.313  1.00  0.00     0.091 A 
ATOM     77  F   UNL A   1      41.350  24.103  28.291  1.00  0.00    -0.205 F 
ATOM     78  C   UNL A   1      43.486  24.280  25.322  1.00  0.00     0.022 A 
BRANCH  76  79
ATOM     79  S   UNL A   1      42.255  22.004  26.221  1.00  0.00     0.127 S 
ATOM     80  O   UNL A   1      40.820  22.027  25.957  1.00  0.00    -0.237 OA
ATOM     81  O   UNL A   1      43.084  21.566  25.097  1.00  0.00    -0.237 OA
ATOM     82  O   UNL A   1      42.658  21.451  27.509  1.00  0.00    -0.744 OA
ENDBRANCH  76  79
ENDBRANCH  48  72
BRANCH  60  83
ATOM     83  C   UNL A   1      45.236  27.073  33.813  1.00  0.00     0.023 A 
ATOM     84  C   UNL A   1      46.464  27.758  33.742  1.00  0.00     0.012 A 
ATOM     85  C   UNL A   1      45.123  25.937  34.639  1.00  0.00     0.148 A 
ATOM     86  C   UNL A   1      47.569  27.309  34.463  1.00  0.00     0.002 A 
ATOM     87  C   UNL A   1      46.216  25.519  35.388  1.00  0.00     0.091 A 
ATOM     88  F   UNL A   1      43.951  25.285  34.675  1.00  0.00    -0.205 F 
ATOM     89  C   UNL A   1      47.442  26.199  35.295  1.00  0.00     0.022 A 
BRANCH  87  90
ATOM     90  S   UNL A   1      46.116  24.155  36.553  1.00  0.00     0.127 S 
ATOM     91  O   UNL A   1      45.846  23.024  35.667  1.00  0.00    -0.237 OA
ATOM     92  O   UNL A   1      47.451  24.154  37.152  1.00  0.00    -0.237 OA
ATOM     93  O   UNL A   1      45.043  24.499  37.476  1.00  0.00    -0.744 OA
ENDBRANCH  87  90
ENDBRANCH  60  83
ENDBRANCH  34  35
ENDBRANCH  26  29
ENDBRANCH  24  25
ENDBRANCH   1  24
TORSDOF 15
ENDMDL
MODEL 3
REMARK VINA RESULT:     -12.2      1.418      7.656
REMARK SMILES O=C(NCCCCNC(=O)c1ccc(-c2c3nc(c(-c4cccc(S(=O)(=O)[O-])c4F)c4ccc([nH]4)c(-c4cccc(S(=O)(=O)[O-])c4F)c4nc(c(-c5cccc(S(=O)(=O)[O-])c5F)c5ccc2[nH]5)C=C4)C=C3)cc1)C1=Cc2cc(Cl)cc(Cl)c2O[C@@H]1C(F)(F)F
REMARK SMILES IDX 6 1 5 2 4 3 3 4 1 5 2 6 74 8 75 9 85 10 76 11 84 12 77 13
REMARK SMILES IDX 83 14 78 15 81 16 79 17 80 18 82 19 86 20 87 21 88 22 89 23
REMARK SMILES IDX 7 24 8 25 9 26 10 28 11 29 12 30 73 31 13 32 72 33 14 34
REMARK SMILES IDX 15 35 16 36 66 37 17 38 71 39 65 40 67 41 18 42 70 43 64 44
REMARK SMILES IDX 63 45 19 47 51 48 31 49 50 50 32 51 35 52 49 53 68 54 33 55
REMARK SMILES IDX 34 56 48 58 69 59 36 60 20 61 21 62 29 63 22 64 24 65 30 66
REMARK SMILES IDX 23 67 25 68 26 69 27 70 28 71 52 72 53 73 61 74 54 75 56 76
REMARK SMILES IDX 62 77 55 78 57 79 58 80 59 81 60 82 37 83 38 84 46 85 39 86
REMARK SMILES IDX 41 87 47 88 40 89 42 90 43 91 44 92 45 93
REMARK H PARENT 3 7 8 27 67 46 35 57
REMARK Flexibility Score: inf
ROOT
ATOM      1  C   UNL A   1      31.404  29.055  26.160  1.00  0.00     0.023 C 
ENDROOT
BRANCH   1   2
ATOM      2  C   UNL A   1      31.501  27.926  27.191  1.00  0.00     0.023 C 
BRANCH   2   3
ATOM      3  C   UNL A   1      32.234  26.679  26.689  1.00  0.00     0.116 C 
BRANCH   3   4
ATOM      4  N   UNL A   1      31.463  25.441  26.862  1.00  0.00    -0.352 N 
ATOM      5  O   UNL A   1      30.649  23.400  26.284  1.00  0.00    -0.270 OA
ATOM      6  C   UNL A   1      31.066  24.498  25.944  1.00  0.00     0.251 C 
ATOM      7  H   UNL A   1      31.184  25.257  27.788  1.00  0.00     0.163 HD
BRANCH   6   8
ATOM      8  C   UNL A   1      31.238  24.825  24.517  1.00  0.00     0.067 C 
ATOM      9  C   UNL A   1      30.251  25.482  23.896  1.00  0.00     0.025 C 
ATOM     10  C   UNL A   1      32.612  24.704  23.939  1.00  0.00     0.314 C 
ATOM     11  C   UNL A   1      30.742  26.635  23.131  1.00  0.00     0.020 A 
ATOM     12  O   UNL A   1      33.080  25.960  23.394  1.00  0.00    -0.474 OA
ATOM     13  C   UNL A   1      29.830  27.668  22.887  1.00  0.00     0.032 A 
ATOM     14  C   UNL A   1      32.127  26.887  23.039  1.00  0.00     0.146 A 
ATOM     15  C   UNL A   1      30.296  28.956  22.633  1.00  0.00     0.043 A 
ATOM     16  C   UNL A   1      32.575  28.184  22.749  1.00  0.00     0.085 A 
ATOM     17  Cl  UNL A   1      29.165  30.247  22.514  1.00  0.00    -0.084 Cl
ATOM     18  C   UNL A   1      31.661  29.222  22.573  1.00  0.00     0.045 A 
ATOM     19  Cl  UNL A   1      34.259  28.568  22.746  1.00  0.00    -0.080 Cl
BRANCH  10  20
ATOM     20  C   UNL A   1      32.675  23.595  22.874  1.00  0.00     0.429 C 
ATOM     21  F   UNL A   1      33.702  22.742  23.110  1.00  0.00    -0.167 F 
ATOM     22  F   UNL A   1      31.547  22.848  22.847  1.00  0.00    -0.167 F 
ATOM     23  F   UNL A   1      32.853  24.092  21.626  1.00  0.00    -0.167 F 
ENDBRANCH  10  20
ENDBRANCH   6   8
ENDBRANCH   3   4
ENDBRANCH   2   3
ENDBRANCH   1   2
BRANCH   1  24
ATOM     24  C   UNL A   1      32.570  30.042  26.106  1.00  0.00     0.116 C 
BRANCH  24  25
ATOM     25  N   UNL A   1      32.273  31.369  26.625  1.00  0.00    -0.352 N 
ATOM     26  C   UNL A   1      33.105  32.208  27.348  1.00  0.00     0.251 C 
ATOM     27  H   UNL A   1      31.370  31.713  26.439  1.00  0.00     0.163 HD
ATOM     28  O   UNL A   1      32.716  33.297  27.726  1.00  0.00    -0.269 OA
BRANCH  26  29
ATOM     29  C   UNL A   1      34.461  31.724  27.705  1.00  0.00     0.039 A 
ATOM     30  C   UNL A   1      35.477  32.663  27.910  1.00  0.00     0.014 A 
ATOM     31  C   UNL A   1      34.692  30.369  27.950  1.00  0.00     0.014 A 
ATOM     32  C   UNL A   1      36.688  32.256  28.474  1.00  0.00     0.010 A 
ATOM     33  C   UNL A   1      35.872  29.978  28.577  1.00  0.00     0.010 A 
ATOM     34  C   UNL A   1      36.872  30.920  28.872  1.00  0.00    -0.014 A 
BRANCH  34  35
ATOM     35  C   UNL A   1      38.062  30.501  29.658  1.00  0.00     0.031 A 
ATOM     36  C   UNL A   1      39.042  29.511  29.093  1.00  0.00     0.074 A 
ATOM     37  C   UNL A   1      38.201  30.928  30.931  1.00  0.00     0.049 A 
ATOM     38  N   UNL A   1      40.090  28.974  29.661  1.00  0.00    -0.248 NA
ATOM     39  C   UNL A   1      38.795  29.039  27.721  1.00  0.00     0.031 C 
ATOM     40  C   UNL A   1      37.272  31.820  31.631  1.00  0.00     0.029 A 
ATOM     41  N   UNL A   1      39.160  30.649  31.873  1.00  0.00    -0.354 N 
ATOM     42  C   UNL A   1      40.609  28.078  28.734  1.00  0.00     0.074 A 
ATOM     43  C   UNL A   1      39.739  28.120  27.577  1.00  0.00     0.031 C 
ATOM     44  C   UNL A   1      37.712  32.022  32.884  1.00  0.00     0.029 A 
ATOM     45  C   UNL A   1      38.937  31.256  33.089  1.00  0.00     0.049 A 
ATOM     46  H   UNL A   1      39.935  30.068  31.697  1.00  0.00     0.167 HD
ATOM     47  C   UNL A   1      41.726  27.317  28.819  1.00  0.00     0.034 A 
ATOM     48  C   UNL A   1      39.639  31.205  34.238  1.00  0.00     0.034 A 
ATOM     49  C   UNL A   1      42.618  27.315  29.947  1.00  0.00     0.049 A 
ATOM     50  C   UNL A   1      40.905  30.393  34.288  1.00  0.00     0.074 A 
ATOM     51  C   UNL A   1      43.818  26.641  30.091  1.00  0.00     0.029 A 
ATOM     52  N   UNL A   1      42.412  28.021  31.120  1.00  0.00    -0.354 N 
ATOM     53  N   UNL A   1      41.464  29.679  33.341  1.00  0.00    -0.248 NA
ATOM     54  C   UNL A   1      41.657  30.405  35.552  1.00  0.00     0.031 C 
ATOM     55  C   UNL A   1      44.337  26.939  31.356  1.00  0.00     0.029 A 
ATOM     56  C   UNL A   1      43.461  27.802  31.996  1.00  0.00     0.049 A 
ATOM     57  H   UNL A   1      41.633  28.595  31.304  1.00  0.00     0.167 HD
ATOM     58  C   UNL A   1      42.647  29.189  33.881  1.00  0.00     0.074 A 
ATOM     59  C   UNL A   1      42.735  29.702  35.232  1.00  0.00     0.031 C 
ATOM     60  C   UNL A   1      43.569  28.371  33.314  1.00  0.00     0.034 A 
BRANCH  47  61
ATOM     61  C   UNL A   1      42.085  26.476  27.624  1.00  0.00     0.023 A 
ATOM     62  C   UNL A   1      42.780  27.070  26.551  1.00  0.00     0.012 A 
ATOM     63  C   UNL A   1      41.785  25.101  27.577  1.00  0.00     0.148 A 
ATOM     64  C   UNL A   1      43.143  26.318  25.435  1.00  0.00     0.002 A 
ATOM     65  C   UNL A   1      42.185  24.348  26.478  1.00  0.00     0.091 A 
ATOM     66  F   UNL A   1      41.102  24.558  28.596  1.00  0.00    -0.205 F 
ATOM     67  C   UNL A   1      42.854  24.956  25.404  1.00  0.00     0.022 A 
BRANCH  65  68
ATOM     68  S   UNL A   1      41.921  22.574  26.375  1.00  0.00     0.127 S 
ATOM     69  O   UNL A   1      40.462  22.492  26.381  1.00  0.00    -0.237 OA
ATOM     70  O   UNL A   1      42.545  22.242  25.094  1.00  0.00    -0.237 OA
ATOM     71  O   UNL A   1      42.588  22.004  27.538  1.00  0.00    -0.744 OA
ENDBRANCH  65  68
ENDBRANCH  47  61
BRANCH  48  72
ATOM     72  C   UNL A   1      39.211  32.021  35.410  1.00  0.00     0.023 A 
ATOM     73  C   UNL A   1      39.485  33.404  35.417  1.00  0.00     0.012 A 
ATOM     74  C   UNL A   1      38.515  31.455  36.495  1.00  0.00     0.148 A 
ATOM     75  C   UNL A   1      39.097  34.201  36.494  1.00  0.00     0.002 A 
ATOM     76  C   UNL A   1      38.087  32.265  37.541  1.00  0.00     0.091 A 
ATOM     77  F   UNL A   1      38.278  30.135  36.479  1.00  0.00    -0.205 F 
ATOM     78  C   UNL A   1      38.390  33.635  37.550  1.00  0.00     0.022 A 
BRANCH  76  79
ATOM     79  S   UNL A   1      37.059  31.642  38.877  1.00  0.00     0.127 S 
ATOM     80  O   UNL A   1      36.807  30.270  38.448  1.00  0.00    -0.237 OA
ATOM     81  O   UNL A   1      37.946  31.774  40.034  1.00  0.00    -0.237 OA
ATOM     82  O   UNL A   1      35.897  32.522  38.914  1.00  0.00    -0.744 OA
ENDBRANCH  76  79
ENDBRANCH  48  72
BRANCH  60  83
ATOM     83  C   UNL A   1      44.773  27.997  34.137  1.00  0.00     0.023 A 
ATOM     84  C   UNL A   1      45.916  28.819  34.111  1.00  0.00     0.012 A 
ATOM     85  C   UNL A   1      44.738  26.884  35.000  1.00  0.00     0.148 A 
ATOM     86  C   UNL A   1      47.018  28.525  34.913  1.00  0.00     0.002 A 
ATOM     87  C   UNL A   1      45.823  26.622  35.828  1.00  0.00     0.091 A 
ATOM     88  F   UNL A   1      43.649  26.102  34.994  1.00  0.00    -0.205 F 
ATOM     89  C   UNL A   1      46.967  27.437  35.780  1.00  0.00     0.022 A 
BRANCH  87  90
ATOM     90  S   UNL A   1      45.806  25.295  37.040  1.00  0.00     0.127 S 
ATOM     91  O   UNL A   1      47.119  25.445  37.665  1.00  0.00    -0.237 OA
ATOM     92  O   UNL A   1      44.678  25.665  37.895  1.00  0.00    -0.237 OA
ATOM     93  O   UNL A   1      45.608  24.068  36.281  1.00  0.00    -0.744 OA
ENDBRANCH  87  90
ENDBRANCH  60  83
ENDBRANCH  34  35
ENDBRANCH  26  29
ENDBRANCH  24  25
ENDBRANCH   1  24
TORSDOF 15
ENDMDL
