MODEL 1
REMARK VINA RESULT:     -13.3      0.000      0.000
REMARK SMILES O=C(NCCCCNC(=O)[C@H]1CCCN(c2cc(-c3ccccn3)nc(-c3ccccc3F)n2)C1)c1ccc(-c2c3nc(c(-c4cccc(S(=O)(=O)[O-])c4F)c4ccc([nH]4)c(-c4cccc(S(=O)(=O)[O-])c4F)c4nc(c(-c5cccc(S(=O)(=O)[O-])c5F)c5ccc2[nH]5)C=C4)C=C3)cc1
REMARK SMILES IDX 5 1 4 2 3 3 1 4 2 5 36 7 37 8 98 9 38 10 97 11 39 12 40 13
REMARK SMILES IDX 41 14 91 15 42 16 96 17 90 18 92 19 43 20 95 21 89 22 88 23
REMARK SMILES IDX 44 25 76 26 56 27 75 28 57 29 60 30 74 31 93 32 58 33 59 34
REMARK SMILES IDX 73 36 94 37 61 38 45 39 46 40 54 41 47 42 49 43 55 44 48 45
REMARK SMILES IDX 50 46 51 47 52 48 53 49 77 50 78 51 86 52 79 53 81 54 87 55
REMARK SMILES IDX 80 56 82 57 83 58 84 59 85 60 62 61 63 62 71 63 64 64 66 65
REMARK SMILES IDX 72 66 65 67 67 68 68 69 69 70 70 71 6 72 7 73 8 74 9 75
REMARK SMILES IDX 10 77 11 78 12 79 35 80 13 81 15 82 14 83 16 84 17 85 34 86
REMARK SMILES IDX 18 87 26 88 25 89 19 90 20 91 24 92 21 93 23 94 22 95 27 96
REMARK SMILES IDX 28 97 32 98 29 99 31 100 33 101 30 102
REMARK H PARENT 3 6 92 24 60 35 8 76
REMARK Flexibility Score: inf
ROOT
ATOM      1  C   UNL A   1      33.689  28.674  25.060  1.00  0.00     0.023 C 
ENDROOT
BRANCH   1   2
ATOM      2  C   UNL A   1      32.606  28.945  26.095  1.00  0.00     0.116 C 
BRANCH   2   3
ATOM      3  N   UNL A   1      32.274  30.355  26.211  1.00  0.00    -0.352 N 
ATOM      4  O   UNL A   1      32.412  32.447  27.027  1.00  0.00    -0.269 OA
ATOM      5  C   UNL A   1      32.911  31.334  26.936  1.00  0.00     0.251 C 
ATOM      6  H   UNL A   1      31.485  30.649  25.700  1.00  0.00     0.163 HD
BRANCH   5   7
ATOM      7  C   UNL A   1      34.182  31.016  27.623  1.00  0.00     0.039 A 
ATOM      8  C   UNL A   1      34.380  29.764  28.214  1.00  0.00     0.014 A 
ATOM      9  C   UNL A   1      35.183  31.988  27.672  1.00  0.00     0.014 A 
ATOM     10  C   UNL A   1      35.536  29.523  28.950  1.00  0.00     0.010 A 
ATOM     11  C   UNL A   1      36.368  31.722  28.360  1.00  0.00     0.010 A 
ATOM     12  C   UNL A   1      36.546  30.497  29.021  1.00  0.00    -0.014 A 
BRANCH  12  13
ATOM     13  C   UNL A   1      37.818  30.204  29.722  1.00  0.00     0.031 A 
ATOM     14  C   UNL A   1      38.847  29.297  29.105  1.00  0.00     0.074 A 
ATOM     15  C   UNL A   1      38.023  30.738  30.941  1.00  0.00     0.049 A 
ATOM     16  N   UNL A   1      39.965  28.855  29.619  1.00  0.00    -0.248 NA
ATOM     17  C   UNL A   1      38.590  28.824  27.734  1.00  0.00     0.031 C 
ATOM     18  C   UNL A   1      37.091  31.627  31.638  1.00  0.00     0.029 A 
ATOM     19  N   UNL A   1      39.069  30.601  31.817  1.00  0.00    -0.354 N 
ATOM     20  C   UNL A   1      40.531  28.030  28.656  1.00  0.00     0.074 A 
ATOM     21  C   UNL A   1      39.632  28.030  27.520  1.00  0.00     0.031 C 
ATOM     22  C   UNL A   1      37.606  31.959  32.831  1.00  0.00     0.029 A 
ATOM     23  C   UNL A   1      38.876  31.265  33.007  1.00  0.00     0.049 A 
ATOM     24  H   UNL A   1      39.879  30.080  31.616  1.00  0.00     0.167 HD
ATOM     25  C   UNL A   1      41.700  27.349  28.710  1.00  0.00     0.034 A 
ATOM     26  C   UNL A   1      39.624  31.288  34.127  1.00  0.00     0.034 A 
ATOM     27  C   UNL A   1      42.601  27.376  29.833  1.00  0.00     0.049 A 
ATOM     28  C   UNL A   1      40.906  30.505  34.159  1.00  0.00     0.074 A 
ATOM     29  C   UNL A   1      43.816  26.730  29.974  1.00  0.00     0.029 A 
ATOM     30  N   UNL A   1      42.392  28.092  31.001  1.00  0.00    -0.354 N 
ATOM     31  N   UNL A   1      41.460  29.790  33.210  1.00  0.00    -0.248 NA
ATOM     32  C   UNL A   1      41.677  30.549  35.409  1.00  0.00     0.031 C 
ATOM     33  C   UNL A   1      44.339  27.048  31.231  1.00  0.00     0.029 A 
ATOM     34  C   UNL A   1      43.456  27.905  31.867  1.00  0.00     0.049 A 
ATOM     35  H   UNL A   1      41.602  28.651  31.189  1.00  0.00     0.167 HD
ATOM     36  C   UNL A   1      42.654  29.318  33.739  1.00  0.00     0.074 A 
ATOM     37  C   UNL A   1      42.759  29.857  35.080  1.00  0.00     0.031 C 
ATOM     38  C   UNL A   1      43.571  28.493  33.177  1.00  0.00     0.034 A 
BRANCH  25  39
ATOM     39  C   UNL A   1      42.118  26.548  27.505  1.00  0.00     0.023 A 
ATOM     40  C   UNL A   1      42.616  27.224  26.373  1.00  0.00     0.012 A 
ATOM     41  C   UNL A   1      42.145  25.139  27.540  1.00  0.00     0.148 A 
ATOM     42  C   UNL A   1      43.129  26.511  25.291  1.00  0.00     0.002 A 
ATOM     43  C   UNL A   1      42.689  24.436  26.471  1.00  0.00     0.091 A 
ATOM     44  F   UNL A   1      41.655  24.520  28.623  1.00  0.00    -0.205 F 
ATOM     45  C   UNL A   1      43.177  25.120  25.345  1.00  0.00     0.022 A 
BRANCH  43  46
ATOM     46  S   UNL A   1      42.866  22.648  26.467  1.00  0.00     0.127 S 
ATOM     47  O   UNL A   1      44.298  22.493  26.725  1.00  0.00    -0.237 OA
ATOM     48  O   UNL A   1      42.000  22.252  27.576  1.00  0.00    -0.237 OA
ATOM     49  O   UNL A   1      42.426  22.201  25.152  1.00  0.00    -0.744 OA
ENDBRANCH  43  46
ENDBRANCH  25  39
BRANCH  26  50
ATOM     50  C   UNL A   1      39.198  32.115  35.290  1.00  0.00     0.023 A 
ATOM     51  C   UNL A   1      38.335  31.554  36.251  1.00  0.00     0.012 A 
ATOM     52  C   UNL A   1      39.664  33.432  35.471  1.00  0.00     0.148 A 
ATOM     53  C   UNL A   1      37.923  32.298  37.356  1.00  0.00     0.002 A 
ATOM     54  C   UNL A   1      39.298  34.146  36.606  1.00  0.00     0.091 A 
ATOM     55  F   UNL A   1      40.466  33.960  34.536  1.00  0.00    -0.205 F 
ATOM     56  C   UNL A   1      38.415  33.588  37.542  1.00  0.00     0.022 A 
BRANCH  54  57
ATOM     57  S   UNL A   1      40.008  35.752  36.986  1.00  0.00     0.127 S 
ATOM     58  O   UNL A   1      39.640  36.530  35.807  1.00  0.00    -0.237 OA
ATOM     59  O   UNL A   1      39.302  36.120  38.214  1.00  0.00    -0.237 OA
ATOM     60  O   UNL A   1      41.433  35.505  37.172  1.00  0.00    -0.744 OA
ENDBRANCH  54  57
ENDBRANCH  26  50
BRANCH  38  61
ATOM     61  C   UNL A   1      44.776  28.132  34.000  1.00  0.00     0.023 A 
ATOM     62  C   UNL A   1      45.911  28.967  33.971  1.00  0.00     0.012 A 
ATOM     63  C   UNL A   1      44.764  27.010  34.851  1.00  0.00     0.148 A 
ATOM     64  C   UNL A   1      47.027  28.672  34.753  1.00  0.00     0.002 A 
ATOM     65  C   UNL A   1      45.863  26.748  35.662  1.00  0.00     0.091 A 
ATOM     66  F   UNL A   1      43.685  26.213  34.849  1.00  0.00    -0.205 F 
ATOM     67  C   UNL A   1      46.999  27.572  35.605  1.00  0.00     0.022 A 
BRANCH  65  68
ATOM     68  S   UNL A   1      45.866  25.406  36.856  1.00  0.00     0.127 S 
ATOM     69  O   UNL A   1      47.190  25.544  37.458  1.00  0.00    -0.237 OA
ATOM     70  O   UNL A   1      44.755  25.765  37.738  1.00  0.00    -0.237 OA
ATOM     71  O   UNL A   1      45.646  24.192  36.081  1.00  0.00    -0.744 OA
ENDBRANCH  65  68
ENDBRANCH  38  61
ENDBRANCH  12  13
ENDBRANCH   5   7
ENDBRANCH   2   3
ENDBRANCH   1   2
BRANCH   1  72
ATOM     72  C   UNL A   1      33.276  28.920  23.610  1.00  0.00     0.023 C 
BRANCH  72  73
ATOM     73  C   UNL A   1      34.033  28.084  22.577  1.00  0.00     0.116 C 
BRANCH  73  74
ATOM     74  N   UNL A   1      33.123  27.410  21.668  1.00  0.00    -0.356 N 
ATOM     75  C   UNL A   1      32.488  26.207  21.752  1.00  0.00     0.224 C 
ATOM     76  H   UNL A   1      32.930  27.912  20.843  1.00  0.00     0.163 HD
ATOM     77  O   UNL A   1      31.813  25.860  20.779  1.00  0.00    -0.275 OA
BRANCH  75  78
ATOM     78  C   UNL A   1      32.536  25.336  23.004  1.00  0.00     0.098 C 
ATOM     79  C   UNL A   1      31.575  25.785  24.114  1.00  0.00     0.017 C 
ATOM     80  C   UNL A   1      32.418  23.867  22.586  1.00  0.00     0.131 C 
ATOM     81  C   UNL A   1      31.435  24.750  25.226  1.00  0.00     0.022 C 
ATOM     82  N   UNL A   1      32.108  22.982  23.705  1.00  0.00    -0.356 N 
ATOM     83  C   UNL A   1      31.066  23.394  24.634  1.00  0.00     0.118 C 
BRANCH  82  84
ATOM     84  C   UNL A   1      33.110  22.165  24.204  1.00  0.00     0.133 A 
ATOM     85  C   UNL A   1      32.851  20.817  24.320  1.00  0.00     0.077 A 
ATOM     86  N   UNL A   1      34.300  22.680  24.542  1.00  0.00    -0.211 NA
ATOM     87  C   UNL A   1      33.873  20.004  24.762  1.00  0.00     0.095 A 
ATOM     88  C   UNL A   1      35.236  21.820  24.995  1.00  0.00     0.165 A 
ATOM     89  N   UNL A   1      35.078  20.491  25.113  1.00  0.00    -0.226 NA
BRANCH  87  90
ATOM     90  C   UNL A   1      33.673  18.551  24.811  1.00  0.00     0.089 A 
ATOM     91  C   UNL A   1      34.497  17.692  24.078  1.00  0.00     0.030 A 
ATOM     92  N   UNL A   1      32.590  18.104  25.496  1.00  0.00    -0.255 NA
ATOM     93  C   UNL A   1      34.200  16.334  24.042  1.00  0.00     0.004 A 
ATOM     94  C   UNL A   1      32.334  16.777  25.453  1.00  0.00     0.112 A 
ATOM     95  C   UNL A   1      33.096  15.865  24.741  1.00  0.00     0.020 A 
ENDBRANCH  87  90
BRANCH  88  96
ATOM     96  C   UNL A   1      36.491  22.395  25.476  1.00  0.00     0.055 A 
ATOM     97  C   UNL A   1      37.666  21.622  25.531  1.00  0.00     0.015 A 
ATOM     98  C   UNL A   1      36.576  23.731  25.885  1.00  0.00     0.134 A 
ATOM     99  C   UNL A   1      38.878  22.172  25.963  1.00  0.00     0.001 A 
ATOM    100  C   UNL A   1      37.780  24.284  26.327  1.00  0.00     0.040 A 
ATOM    101  F   UNL A   1      35.487  24.515  25.888  1.00  0.00    -0.206 F 
ATOM    102  C   UNL A   1      38.934  23.506  26.362  1.00  0.00     0.003 A 
ENDBRANCH  88  96
ENDBRANCH  82  84
ENDBRANCH  75  78
ENDBRANCH  73  74
ENDBRANCH  72  73
ENDBRANCH   1  72
TORSDOF 17
ENDMDL
MODEL 2
REMARK VINA RESULT:     -13.3      2.054      2.804
REMARK SMILES O=C(NCCCCNC(=O)[C@H]1CCCN(c2cc(-c3ccccn3)nc(-c3ccccc3F)n2)C1)c1ccc(-c2c3nc(c(-c4cccc(S(=O)(=O)[O-])c4F)c4ccc([nH]4)c(-c4cccc(S(=O)(=O)[O-])c4F)c4nc(c(-c5cccc(S(=O)(=O)[O-])c5F)c5ccc2[nH]5)C=C4)C=C3)cc1
REMARK SMILES IDX 5 1 4 2 3 3 1 4 2 5 36 7 37 8 98 9 38 10 97 11 39 12 40 13
REMARK SMILES IDX 41 14 91 15 42 16 96 17 90 18 92 19 43 20 95 21 89 22 88 23
REMARK SMILES IDX 44 25 76 26 56 27 75 28 57 29 60 30 74 31 93 32 58 33 59 34
REMARK SMILES IDX 73 36 94 37 61 38 45 39 46 40 54 41 47 42 49 43 55 44 48 45
REMARK SMILES IDX 50 46 51 47 52 48 53 49 77 50 78 51 86 52 79 53 81 54 87 55
REMARK SMILES IDX 80 56 82 57 83 58 84 59 85 60 62 61 63 62 71 63 64 64 66 65
REMARK SMILES IDX 72 66 65 67 67 68 68 69 69 70 70 71 6 72 7 73 8 74 9 75
REMARK SMILES IDX 10 77 11 78 12 79 35 80 13 81 15 82 14 83 16 84 17 85 34 86
REMARK SMILES IDX 18 87 26 88 25 89 19 90 20 91 24 92 21 93 23 94 22 95 27 96
REMARK SMILES IDX 28 97 32 98 29 99 31 100 33 101 30 102
REMARK H PARENT 3 6 92 24 60 35 8 76
REMARK Flexibility Score: inf
ROOT
ATOM      1  C   UNL A   1      34.155  27.925  25.846  1.00  0.00     0.023 C 
ENDROOT
BRANCH   1   2
ATOM      2  C   UNL A   1      33.675  28.376  27.220  1.00  0.00     0.116 C 
BRANCH   2   3
ATOM      3  N   UNL A   1      33.570  29.821  27.335  1.00  0.00    -0.352 N 
ATOM      4  O   UNL A   1      34.157  31.885  28.008  1.00  0.00    -0.269 OA
ATOM      5  C   UNL A   1      34.470  30.712  27.869  1.00  0.00     0.251 C 
ATOM      6  H   UNL A   1      32.739  30.216  26.983  1.00  0.00     0.163 HD
BRANCH   5   7
ATOM      7  C   UNL A   1      35.801  30.227  28.296  1.00  0.00     0.039 A 
ATOM      8  C   UNL A   1      35.975  29.623  29.544  1.00  0.00     0.014 A 
ATOM      9  C   UNL A   1      36.885  30.386  27.429  1.00  0.00     0.014 A 
ATOM     10  C   UNL A   1      37.253  29.276  29.972  1.00  0.00     0.010 A 
ATOM     11  C   UNL A   1      38.157  29.981  27.837  1.00  0.00     0.010 A 
ATOM     12  C   UNL A   1      38.354  29.442  29.118  1.00  0.00    -0.014 A 
BRANCH  12  13
ATOM     13  C   UNL A   1      39.700  28.981  29.535  1.00  0.00     0.031 A 
ATOM     14  C   UNL A   1      40.320  27.756  28.922  1.00  0.00     0.074 A 
ATOM     15  C   UNL A   1      40.345  29.661  30.502  1.00  0.00     0.049 A 
ATOM     16  N   UNL A   1      41.438  27.157  29.239  1.00  0.00    -0.248 NA
ATOM     17  C   UNL A   1      39.592  27.120  27.811  1.00  0.00     0.031 C 
ATOM     18  C   UNL A   1      39.835  30.860  31.172  1.00  0.00     0.029 A 
ATOM     19  N   UNL A   1      41.557  29.436  31.103  1.00  0.00    -0.354 N 
ATOM     20  C   UNL A   1      41.538  26.059  28.393  1.00  0.00     0.074 A 
ATOM     21  C   UNL A   1      40.363  26.072  27.546  1.00  0.00     0.031 C 
ATOM     22  C   UNL A   1      40.727  31.268  32.086  1.00  0.00     0.029 A 
ATOM     23  C   UNL A   1      41.844  30.331  32.108  1.00  0.00     0.049 A 
ATOM     24  H   UNL A   1      42.163  28.706  30.841  1.00  0.00     0.167 HD
ATOM     25  C   UNL A   1      42.526  25.137  28.322  1.00  0.00     0.034 A 
ATOM     26  C   UNL A   1      42.877  30.374  32.971  1.00  0.00     0.034 A 
ATOM     27  C   UNL A   1      43.705  25.148  29.149  1.00  0.00     0.049 A 
ATOM     28  C   UNL A   1      43.947  29.323  32.876  1.00  0.00     0.074 A 
ATOM     29  C   UNL A   1      44.768  24.263  29.140  1.00  0.00     0.029 A 
ATOM     30  N   UNL A   1      43.980  26.093  30.126  1.00  0.00    -0.354 N 
ATOM     31  N   UNL A   1      44.059  28.336  32.021  1.00  0.00    -0.248 NA
ATOM     32  C   UNL A   1      45.043  29.404  33.851  1.00  0.00     0.031 C 
ATOM     33  C   UNL A   1      45.684  24.667  30.116  1.00  0.00     0.029 A 
ATOM     34  C   UNL A   1      45.197  25.813  30.724  1.00  0.00     0.049 A 
ATOM     35  H   UNL A   1      43.395  26.850  30.361  1.00  0.00     0.167 HD
ATOM     36  C   UNL A   1      45.248  27.693  32.339  1.00  0.00     0.074 A 
ATOM     37  C   UNL A   1      45.836  28.423  33.444  1.00  0.00     0.031 C 
ATOM     38  C   UNL A   1      45.794  26.582  31.785  1.00  0.00     0.034 A 
BRANCH  25  39
ATOM     39  C   UNL A   1      42.421  24.055  27.280  1.00  0.00     0.023 A 
ATOM     40  C   UNL A   1      42.927  24.298  25.987  1.00  0.00     0.012 A 
ATOM     41  C   UNL A   1      41.951  22.768  27.611  1.00  0.00     0.148 A 
ATOM     42  C   UNL A   1      42.961  23.278  25.037  1.00  0.00     0.002 A 
ATOM     43  C   UNL A   1      42.020  21.748  26.669  1.00  0.00     0.091 A 
ATOM     44  F   UNL A   1      41.465  22.565  28.844  1.00  0.00    -0.205 F 
ATOM     45  C   UNL A   1      42.520  22.003  25.381  1.00  0.00     0.022 A 
BRANCH  43  46
ATOM     46  S   UNL A   1      41.546  20.052  27.027  1.00  0.00     0.127 S 
ATOM     47  O   UNL A   1      42.839  19.447  27.349  1.00  0.00    -0.237 OA
ATOM     48  O   UNL A   1      40.650  20.220  28.171  1.00  0.00    -0.237 OA
ATOM     49  O   UNL A   1      40.912  19.545  25.818  1.00  0.00    -0.744 OA
ENDBRANCH  43  46
ENDBRANCH  25  39
BRANCH  26  50
ATOM     50  C   UNL A   1      42.967  31.476  33.969  1.00  0.00     0.023 A 
ATOM     51  C   UNL A   1      43.573  32.691  33.598  1.00  0.00     0.012 A 
ATOM     52  C   UNL A   1      42.428  31.346  35.264  1.00  0.00     0.148 A 
ATOM     53  C   UNL A   1      43.665  33.746  34.506  1.00  0.00     0.002 A 
ATOM     54  C   UNL A   1      42.469  32.422  36.143  1.00  0.00     0.091 A 
ATOM     55  F   UNL A   1      41.874  30.175  35.611  1.00  0.00    -0.205 F 
ATOM     56  C   UNL A   1      43.102  33.617  35.773  1.00  0.00     0.022 A 
BRANCH  54  57
ATOM     57  S   UNL A   1      41.634  32.380  37.733  1.00  0.00     0.127 S 
ATOM     58  O   UNL A   1      40.277  32.001  37.351  1.00  0.00    -0.237 OA
ATOM     59  O   UNL A   1      42.384  31.347  38.450  1.00  0.00    -0.237 OA
ATOM     60  O   UNL A   1      41.795  33.720  38.284  1.00  0.00    -0.744 OA
ENDBRANCH  54  57
ENDBRANCH  26  50
BRANCH  38  61
ATOM     61  C   UNL A   1      47.100  26.095  32.351  1.00  0.00     0.023 A 
ATOM     62  C   UNL A   1      48.309  26.632  31.866  1.00  0.00     0.012 A 
ATOM     63  C   UNL A   1      47.131  25.161  33.404  1.00  0.00     0.148 A 
ATOM     64  C   UNL A   1      49.530  26.223  32.398  1.00  0.00     0.002 A 
ATOM     65  C   UNL A   1      48.350  24.792  33.961  1.00  0.00     0.091 A 
ATOM     66  F   UNL A   1      45.972  24.643  33.838  1.00  0.00    -0.205 F 
ATOM     67  C   UNL A   1      49.550  25.313  33.452  1.00  0.00     0.022 A 
BRANCH  65  68
ATOM     68  S   UNL A   1      48.453  23.699  35.384  1.00  0.00     0.127 S 
ATOM     69  O   UNL A   1      47.817  22.486  34.876  1.00  0.00    -0.237 OA
ATOM     70  O   UNL A   1      49.897  23.588  35.593  1.00  0.00    -0.237 OA
ATOM     71  O   UNL A   1      47.745  24.385  36.457  1.00  0.00    -0.744 OA
ENDBRANCH  65  68
ENDBRANCH  38  61
ENDBRANCH  12  13
ENDBRANCH   5   7
ENDBRANCH   2   3
ENDBRANCH   1   2
BRANCH   1  72
ATOM     72  C   UNL A   1      33.498  28.637  24.665  1.00  0.00     0.023 C 
BRANCH  72  73
ATOM     73  C   UNL A   1      33.970  28.163  23.290  1.00  0.00     0.116 C 
BRANCH  73  74
ATOM     74  N   UNL A   1      32.851  27.769  22.451  1.00  0.00    -0.356 N 
ATOM     75  C   UNL A   1      32.042  26.672  22.480  1.00  0.00     0.224 C 
ATOM     76  H   UNL A   1      32.638  28.409  21.733  1.00  0.00     0.163 HD
ATOM     77  O   UNL A   1      31.199  26.573  21.583  1.00  0.00    -0.275 OA
BRANCH  75  78
ATOM     78  C   UNL A   1      32.107  25.629  23.591  1.00  0.00     0.098 C 
ATOM     79  C   UNL A   1      31.148  25.901  24.759  1.00  0.00     0.017 C 
ATOM     80  C   UNL A   1      32.003  24.235  22.965  1.00  0.00     0.131 C 
ATOM     81  C   UNL A   1      31.026  24.714  25.710  1.00  0.00     0.022 C 
ATOM     82  N   UNL A   1      31.709  23.194  23.945  1.00  0.00    -0.356 N 
ATOM     83  C   UNL A   1      30.668  23.454  24.928  1.00  0.00     0.118 C 
BRANCH  82  84
ATOM     84  C   UNL A   1      32.722  22.325  24.316  1.00  0.00     0.133 A 
ATOM     85  C   UNL A   1      32.444  20.976  24.344  1.00  0.00     0.077 A 
ATOM     86  N   UNL A   1      33.941  22.793  24.617  1.00  0.00    -0.211 NA
ATOM     87  C   UNL A   1      33.474  20.115  24.657  1.00  0.00     0.095 A 
ATOM     88  C   UNL A   1      34.886  21.886  24.942  1.00  0.00     0.165 A 
ATOM     89  N   UNL A   1      34.708  20.554  24.968  1.00  0.00    -0.226 NA
BRANCH  87  90
ATOM     90  C   UNL A   1      33.248  18.666  24.607  1.00  0.00     0.089 A 
ATOM     91  C   UNL A   1      32.633  18.002  25.673  1.00  0.00     0.030 A 
ATOM     92  N   UNL A   1      33.769  18.000  23.545  1.00  0.00    -0.255 NA
ATOM     93  C   UNL A   1      32.554  16.614  25.652  1.00  0.00     0.004 A 
ATOM     94  C   UNL A   1      33.665  16.652  23.546  1.00  0.00     0.112 A 
ATOM     95  C   UNL A   1      33.081  15.923  24.569  1.00  0.00     0.020 A 
ENDBRANCH  87  90
BRANCH  88  96
ATOM     96  C   UNL A   1      36.180  22.402  25.386  1.00  0.00     0.055 A 
ATOM     97  C   UNL A   1      37.310  21.564  25.445  1.00  0.00     0.015 A 
ATOM     98  C   UNL A   1      36.347  23.741  25.755  1.00  0.00     0.134 A 
ATOM     99  C   UNL A   1      38.558  22.057  25.841  1.00  0.00     0.001 A 
ATOM    100  C   UNL A   1      37.588  24.237  26.161  1.00  0.00     0.040 A 
ATOM    101  F   UNL A   1      35.304  24.586  25.752  1.00  0.00    -0.206 F 
ATOM    102  C   UNL A   1      38.697  23.396  26.201  1.00  0.00     0.003 A 
ENDBRANCH  88  96
ENDBRANCH  82  84
ENDBRANCH  75  78
ENDBRANCH  73  74
ENDBRANCH  72  73
ENDBRANCH   1  72
TORSDOF 17
ENDMDL
MODEL 3
REMARK VINA RESULT:     -13.2      2.669      7.833
REMARK SMILES O=C(NCCCCNC(=O)[C@H]1CCCN(c2cc(-c3ccccn3)nc(-c3ccccc3F)n2)C1)c1ccc(-c2c3nc(c(-c4cccc(S(=O)(=O)[O-])c4F)c4ccc([nH]4)c(-c4cccc(S(=O)(=O)[O-])c4F)c4nc(c(-c5cccc(S(=O)(=O)[O-])c5F)c5ccc2[nH]5)C=C4)C=C3)cc1
REMARK SMILES IDX 5 1 4 2 3 3 1 4 2 5 36 7 37 8 98 9 38 10 97 11 39 12 40 13
REMARK SMILES IDX 41 14 91 15 42 16 96 17 90 18 92 19 43 20 95 21 89 22 88 23
REMARK SMILES IDX 44 25 76 26 56 27 75 28 57 29 60 30 74 31 93 32 58 33 59 34
REMARK SMILES IDX 73 36 94 37 61 38 45 39 46 40 54 41 47 42 49 43 55 44 48 45
REMARK SMILES IDX 50 46 51 47 52 48 53 49 77 50 78 51 86 52 79 53 81 54 87 55
REMARK SMILES IDX 80 56 82 57 83 58 84 59 85 60 62 61 63 62 71 63 64 64 66 65
REMARK SMILES IDX 72 66 65 67 67 68 68 69 69 70 70 71 6 72 7 73 8 74 9 75
REMARK SMILES IDX 10 77 11 78 12 79 35 80 13 81 15 82 14 83 16 84 17 85 34 86
REMARK SMILES IDX 18 87 26 88 25 89 19 90 20 91 24 92 21 93 23 94 22 95 27 96
REMARK SMILES IDX 28 97 32 98 29 99 31 100 33 101 30 102
REMARK H PARENT 3 6 92 24 60 35 8 76
REMARK Flexibility Score: inf
ROOT
ATOM      1  C   UNL A   1      34.086  27.814  25.876  1.00  0.00     0.023 C 
ENDROOT
BRANCH   1   2
ATOM      2  C   UNL A   1      33.693  28.343  27.250  1.00  0.00     0.116 C 
BRANCH   2   3
ATOM      3  N   UNL A   1      33.569  29.791  27.284  1.00  0.00    -0.352 N 
ATOM      4  O   UNL A   1      34.126  31.896  27.846  1.00  0.00    -0.269 OA
ATOM      5  C   UNL A   1      34.455  30.721  27.775  1.00  0.00     0.251 C 
ATOM      6  H   UNL A   1      32.737  30.154  26.904  1.00  0.00     0.163 HD
BRANCH   5   7
ATOM      7  C   UNL A   1      35.788  30.277  28.238  1.00  0.00     0.039 A 
ATOM      8  C   UNL A   1      36.901  30.361  27.396  1.00  0.00     0.014 A 
ATOM      9  C   UNL A   1      35.916  29.770  29.532  1.00  0.00     0.014 A 
ATOM     10  C   UNL A   1      38.122  29.836  27.810  1.00  0.00     0.010 A 
ATOM     11  C   UNL A   1      37.157  29.299  29.967  1.00  0.00     0.010 A 
ATOM     12  C   UNL A   1      38.263  29.310  29.104  1.00  0.00    -0.014 A 
BRANCH  12  13
ATOM     13  C   UNL A   1      39.586  28.841  29.579  1.00  0.00     0.031 A 
ATOM     14  C   UNL A   1      40.317  29.574  30.669  1.00  0.00     0.074 A 
ATOM     15  C   UNL A   1      40.140  27.764  28.991  1.00  0.00     0.049 A 
ATOM     16  N   UNL A   1      41.521  29.363  31.135  1.00  0.00    -0.248 NA
ATOM     17  C   UNL A   1      39.609  30.688  31.322  1.00  0.00     0.031 C 
ATOM     18  C   UNL A   1      39.523  26.979  27.919  1.00  0.00     0.029 A 
ATOM     19  N   UNL A   1      41.350  27.151  29.196  1.00  0.00    -0.354 N 
ATOM     20  C   UNL A   1      41.730  30.331  32.110  1.00  0.00     0.074 A 
ATOM     21  C   UNL A   1      40.526  31.134  32.171  1.00  0.00     0.031 C 
ATOM     22  C   UNL A   1      40.354  25.988  27.563  1.00  0.00     0.029 A 
ATOM     23  C   UNL A   1      41.583  26.100  28.339  1.00  0.00     0.049 A 
ATOM     24  H   UNL A   1      41.989  27.435  29.888  1.00  0.00     0.167 HD
ATOM     25  C   UNL A   1      42.820  30.519  32.891  1.00  0.00     0.034 A 
ATOM     26  C   UNL A   1      42.676  25.329  28.178  1.00  0.00     0.034 A 
ATOM     27  C   UNL A   1      44.001  29.698  32.843  1.00  0.00     0.049 A 
ATOM     28  C   UNL A   1      43.874  25.578  29.048  1.00  0.00     0.074 A 
ATOM     29  C   UNL A   1      45.151  29.803  33.605  1.00  0.00     0.029 A 
ATOM     30  N   UNL A   1      44.183  28.617  31.993  1.00  0.00    -0.354 N 
ATOM     31  N   UNL A   1      44.024  26.451  30.015  1.00  0.00    -0.248 NA
ATOM     32  C   UNL A   1      45.047  24.724  28.821  1.00  0.00     0.031 C 
ATOM     33  C   UNL A   1      46.033  28.791  33.212  1.00  0.00     0.029 A 
ATOM     34  C   UNL A   1      45.425  28.046  32.214  1.00  0.00     0.049 A 
ATOM     35  H   UNL A   1      43.527  28.303  31.329  1.00  0.00     0.167 HD
ATOM     36  C   UNL A   1      45.297  26.235  30.527  1.00  0.00     0.074 A 
ATOM     37  C   UNL A   1      45.864  25.127  29.784  1.00  0.00     0.031 C 
ATOM     38  C   UNL A   1      45.951  26.909  31.504  1.00  0.00     0.034 A 
BRANCH  25  39
ATOM     39  C   UNL A   1      42.785  31.623  33.914  1.00  0.00     0.023 A 
ATOM     40  C   UNL A   1      43.317  32.884  33.580  1.00  0.00     0.012 A 
ATOM     41  C   UNL A   1      42.113  31.456  35.142  1.00  0.00     0.148 A 
ATOM     42  C   UNL A   1      43.188  33.962  34.455  1.00  0.00     0.002 A 
ATOM     43  C   UNL A   1      41.958  32.544  35.994  1.00  0.00     0.091 A 
ATOM     44  F   UNL A   1      41.625  30.244  35.442  1.00  0.00    -0.205 F 
ATOM     45  C   UNL A   1      42.499  33.795  35.654  1.00  0.00     0.022 A 
BRANCH  43  46
ATOM     46  S   UNL A   1      41.028  32.460  37.529  1.00  0.00     0.127 S 
ATOM     47  O   UNL A   1      41.957  31.736  38.397  1.00  0.00    -0.237 OA
ATOM     48  O   UNL A   1      40.857  33.873  37.862  1.00  0.00    -0.237 OA
ATOM     49  O   UNL A   1      39.796  31.748  37.217  1.00  0.00    -0.744 OA
ENDBRANCH  43  46
ENDBRANCH  25  39
BRANCH  26  50
ATOM     50  C   UNL A   1      42.666  24.225  27.178  1.00  0.00     0.023 A 
ATOM     51  C   UNL A   1      43.249  24.438  25.914  1.00  0.00     0.012 A 
ATOM     52  C   UNL A   1      42.121  22.962  27.478  1.00  0.00     0.148 A 
ATOM     53  C   UNL A   1      43.265  23.423  24.958  1.00  0.00     0.002 A 
ATOM     54  C   UNL A   1      42.195  21.936  26.543  1.00  0.00     0.091 A 
ATOM     55  F   UNL A   1      41.548  22.781  28.677  1.00  0.00    -0.205 F 
ATOM     56  C   UNL A   1      42.750  22.168  25.276  1.00  0.00     0.022 A 
BRANCH  54  57
ATOM     57  S   UNL A   1      41.689  20.257  26.934  1.00  0.00     0.127 S 
ATOM     58  O   UNL A   1      40.390  20.474  27.565  1.00  0.00    -0.237 OA
ATOM     59  O   UNL A   1      41.636  19.632  25.612  1.00  0.00    -0.237 OA
ATOM     60  O   UNL A   1      42.740  19.733  27.797  1.00  0.00    -0.744 OA
ENDBRANCH  54  57
ENDBRANCH  26  50
BRANCH  38  61
ATOM     61  C   UNL A   1      47.346  26.459  31.843  1.00  0.00     0.023 A 
ATOM     62  C   UNL A   1      47.540  25.514  32.870  1.00  0.00     0.012 A 
ATOM     63  C   UNL A   1      48.455  26.917  31.105  1.00  0.00     0.148 A 
ATOM     64  C   UNL A   1      48.819  25.055  33.179  1.00  0.00     0.002 A 
ATOM     65  C   UNL A   1      49.723  26.421  31.388  1.00  0.00     0.091 A 
ATOM     66  F   UNL A   1      48.255  27.834  30.147  1.00  0.00    -0.205 F 
ATOM     67  C   UNL A   1      49.908  25.499  32.431  1.00  0.00     0.022 A 
BRANCH  65  68
ATOM     68  S   UNL A   1      51.160  26.870  30.409  1.00  0.00     0.127 S 
ATOM     69  O   UNL A   1      51.446  28.217  30.897  1.00  0.00    -0.237 OA
ATOM     70  O   UNL A   1      52.141  25.858  30.804  1.00  0.00    -0.237 OA
ATOM     71  O   UNL A   1      50.732  26.777  29.019  1.00  0.00    -0.744 OA
ENDBRANCH  65  68
ENDBRANCH  38  61
ENDBRANCH  12  13
ENDBRANCH   5   7
ENDBRANCH   2   3
ENDBRANCH   1   2
BRANCH   1  72
ATOM     72  C   UNL A   1      33.365  28.470  24.700  1.00  0.00     0.023 C 
BRANCH  72  73
ATOM     73  C   UNL A   1      33.930  28.114  23.324  1.00  0.00     0.116 C 
BRANCH  73  74
ATOM     74  N   UNL A   1      32.882  27.688  22.413  1.00  0.00    -0.356 N 
ATOM     75  C   UNL A   1      32.116  26.561  22.381  1.00  0.00     0.224 C 
ATOM     76  H   UNL A   1      32.690  28.327  21.689  1.00  0.00     0.163 HD
ATOM     77  O   UNL A   1      31.335  26.440  21.433  1.00  0.00    -0.275 OA
BRANCH  75  78
ATOM     78  C   UNL A   1      32.151  25.508  23.485  1.00  0.00     0.098 C 
ATOM     79  C   UNL A   1      31.105  25.724  24.587  1.00  0.00     0.017 C 
ATOM     80  C   UNL A   1      32.152  24.119  22.841  1.00  0.00     0.131 C 
ATOM     81  C   UNL A   1      30.970  24.522  25.517  1.00  0.00     0.022 C 
ATOM     82  N   UNL A   1      31.838  23.054  23.789  1.00  0.00    -0.356 N 
ATOM     83  C   UNL A   1      30.722  23.257  24.702  1.00  0.00     0.118 C 
BRANCH  82  84
ATOM     84  C   UNL A   1      32.862  22.226  24.221  1.00  0.00     0.133 A 
ATOM     85  C   UNL A   1      32.604  20.877  24.328  1.00  0.00     0.077 A 
ATOM     86  N   UNL A   1      34.071  22.731  24.503  1.00  0.00    -0.211 NA
ATOM     87  C   UNL A   1      33.644  20.053  24.702  1.00  0.00     0.095 A 
ATOM     88  C   UNL A   1      35.026  21.860  24.891  1.00  0.00     0.165 A 
ATOM     89  N   UNL A   1      34.869  20.530  24.996  1.00  0.00    -0.226 NA
BRANCH  87  90
ATOM     90  C   UNL A   1      33.442  18.600  24.738  1.00  0.00     0.089 A 
ATOM     91  C   UNL A   1      34.062  17.769  23.801  1.00  0.00     0.030 A 
ATOM     92  N   UNL A   1      32.539  18.129  25.637  1.00  0.00    -0.255 NA
ATOM     93  C   UNL A   1      33.746  16.415  23.780  1.00  0.00     0.004 A 
ATOM     94  C   UNL A   1      32.262  16.807  25.602  1.00  0.00     0.112 A 
ATOM     95  C   UNL A   1      32.826  15.922  24.697  1.00  0.00     0.020 A 
ENDBRANCH  87  90
BRANCH  88  96
ATOM     96  C   UNL A   1      36.307  22.423  25.313  1.00  0.00     0.055 A 
ATOM     97  C   UNL A   1      36.375  23.694  25.916  1.00  0.00     0.015 A 
ATOM     98  C   UNL A   1      37.506  21.721  25.148  1.00  0.00     0.134 A 
ATOM     99  C   UNL A   1      37.595  24.227  26.348  1.00  0.00     0.001 A 
ATOM    100  C   UNL A   1      38.728  22.252  25.568  1.00  0.00     0.040 A 
ATOM    101  F   UNL A   1      37.516  20.518  24.552  1.00  0.00    -0.206 F 
ATOM    102  C   UNL A   1      38.773  23.505  26.173  1.00  0.00     0.003 A 
ENDBRANCH  88  96
ENDBRANCH  82  84
ENDBRANCH  75  78
ENDBRANCH  73  74
ENDBRANCH  72  73
ENDBRANCH   1  72
TORSDOF 17
ENDMDL
