MODEL 1
REMARK VINA RESULT:     -11.7      0.000      0.000
REMARK SMILES COc1ncccc1C(=O)N[C@@](C)(C(=O)NCCCCNC(=O)c1ccc(-c2c3nc(c(-c4cccc(S(=O)(=O)[O-])c4F)c4ccc([nH]4)c(-c4cccc(S(=O)(=O)[O-])c4F)c4nc(c(-c5cccc(S(=O)(=O)[O-])c5F)c5ccc2[nH]5)C=C4)C=C3)cc1)C(F)(F)F
REMARK SMILES IDX 18 1 17 2 16 3 14 4 15 5 12 7 13 8 11 9 9 10 10 11 8 13 3 14
REMARK SMILES IDX 4 15 5 16 7 17 6 18 2 19 1 20 87 21 88 22 89 23 90 24 19 25
REMARK SMILES IDX 20 26 21 27 22 28 23 30 24 31 25 32 86 33 26 34 85 35 27 36
REMARK SMILES IDX 28 37 29 38 79 39 30 40 84 41 78 42 80 43 31 44 83 45 77 46
REMARK SMILES IDX 76 47 32 49 64 50 44 51 63 52 45 53 48 54 62 55 81 56 46 57
REMARK SMILES IDX 47 58 61 60 82 61 49 62 33 63 34 64 42 65 35 66 37 67 43 68
REMARK SMILES IDX 36 69 38 70 39 71 40 72 41 73 65 74 66 75 74 76 67 77 69 78
REMARK SMILES IDX 75 79 68 80 70 81 71 82 72 83 73 84 50 85 51 86 59 87 52 88
REMARK SMILES IDX 54 89 60 90 53 91 55 92 56 93 57 94 58 95
REMARK H PARENT 16 6 11 12 21 29 80 48 48 59
REMARK Flexibility Score: inf
ROOT
ATOM      1  C   UNL A   1      31.800  30.225  26.600  1.00  0.00     0.023 C 
ENDROOT
BRANCH   1   2
ATOM      2  C   UNL A   1      33.139  29.702  26.085  1.00  0.00     0.116 C 
BRANCH   2   3
ATOM      3  N   UNL A   1      33.187  29.593  24.636  1.00  0.00    -0.354 N 
ATOM      4  C   UNL A   1      32.791  28.640  23.741  1.00  0.00     0.254 C 
ATOM      5  O   UNL A   1      32.860  28.986  22.558  1.00  0.00    -0.272 OA
ATOM      6  H   UNL A   1      33.594  30.379  24.205  1.00  0.00     0.163 HD
BRANCH   4   7
ATOM      7  C   UNL A   1      32.383  27.203  24.157  1.00  0.00     0.212 C 
ATOM      8  C   UNL A   1      33.178  26.705  25.378  1.00  0.00     0.056 C 
BRANCH   7   9
ATOM      9  N   UNL A   1      32.728  26.403  22.919  1.00  0.00    -0.330 N 
ATOM     10  C   UNL A   1      33.368  25.316  22.403  1.00  0.00     0.257 C 
ATOM     11  O   UNL A   1      33.455  25.387  21.173  1.00  0.00    -0.269 OA
ATOM     12  H   UNL A   1      32.313  26.870  22.160  1.00  0.00     0.165 HD
BRANCH  10  13
ATOM     13  C   UNL A   1      33.911  24.112  23.089  1.00  0.00     0.101 A 
ATOM     14  C   UNL A   1      33.084  23.008  23.355  1.00  0.00     0.226 A 
ATOM     15  N   UNL A   1      33.466  21.891  24.036  1.00  0.00    -0.221 NA
ATOM     16  C   UNL A   1      34.722  21.859  24.509  1.00  0.00     0.115 A 
ATOM     17  C   UNL A   1      35.188  24.028  23.635  1.00  0.00     0.021 A 
ATOM     18  C   UNL A   1      35.613  22.894  24.332  1.00  0.00     0.021 A 
BRANCH  14  19
ATOM     19  O   UNL A   1      31.746  23.008  23.060  1.00  0.00    -0.480 OA
ATOM     20  C   UNL A   1      31.000  23.406  24.200  1.00  0.00     0.280 C 
ENDBRANCH  14  19
ENDBRANCH  10  13
ENDBRANCH   7   9
BRANCH   7  21
ATOM     21  C   UNL A   1      30.922  27.331  24.625  1.00  0.00     0.420 C 
ATOM     22  F   UNL A   1      30.756  27.184  25.955  1.00  0.00    -0.168 F 
ATOM     23  F   UNL A   1      30.431  28.556  24.291  1.00  0.00    -0.168 F 
ATOM     24  F   UNL A   1      30.105  26.443  24.006  1.00  0.00    -0.168 F 
ENDBRANCH   7  21
ENDBRANCH   4   7
ENDBRANCH   2   3
ENDBRANCH   1   2
BRANCH   1  25
ATOM     25  C   UNL A   1      31.659  31.744  26.688  1.00  0.00     0.023 C 
BRANCH  25  26
ATOM     26  C   UNL A   1      32.825  32.484  27.331  1.00  0.00     0.116 C 
BRANCH  26  27
ATOM     27  N   UNL A   1      32.535  33.884  27.600  1.00  0.00    -0.352 N 
ATOM     28  C   UNL A   1      33.096  34.724  28.538  1.00  0.00     0.251 C 
ATOM     29  H   UNL A   1      31.840  34.288  27.033  1.00  0.00     0.163 HD
ATOM     30  O   UNL A   1      32.643  35.843  28.704  1.00  0.00    -0.269 OA
BRANCH  28  31
ATOM     31  C   UNL A   1      34.228  34.242  29.361  1.00  0.00     0.039 A 
ATOM     32  C   UNL A   1      33.971  33.347  30.402  1.00  0.00     0.014 A 
ATOM     33  C   UNL A   1      35.537  34.650  29.091  1.00  0.00     0.014 A 
ATOM     34  C   UNL A   1      35.036  32.806  31.126  1.00  0.00     0.010 A 
ATOM     35  C   UNL A   1      36.600  34.052  29.761  1.00  0.00     0.010 A 
ATOM     36  C   UNL A   1      36.362  33.125  30.788  1.00  0.00    -0.014 A 
BRANCH  36  37
ATOM     37  C   UNL A   1      37.511  32.496  31.489  1.00  0.00     0.031 A 
ATOM     38  C   UNL A   1      38.244  31.342  30.858  1.00  0.00     0.074 A 
ATOM     39  C   UNL A   1      37.848  32.913  32.727  1.00  0.00     0.049 A 
ATOM     40  N   UNL A   1      39.230  30.628  31.339  1.00  0.00    -0.248 NA
ATOM     41  C   UNL A   1      37.792  30.914  29.523  1.00  0.00     0.031 C 
ATOM     42  C   UNL A   1      37.171  33.974  33.477  1.00  0.00     0.029 A 
ATOM     43  N   UNL A   1      38.830  32.480  33.583  1.00  0.00    -0.354 N 
ATOM     44  C   UNL A   1      39.497  29.656  30.382  1.00  0.00     0.074 A 
ATOM     45  C   UNL A   1      38.541  29.842  29.313  1.00  0.00     0.031 C 
ATOM     46  C   UNL A   1      37.763  34.115  34.674  1.00  0.00     0.029 A 
ATOM     47  C   UNL A   1      38.839  33.137  34.792  1.00  0.00     0.049 A 
ATOM     48  H   UNL A   1      39.466  31.766  33.353  1.00  0.00     0.167 HD
ATOM     49  C   UNL A   1      40.473  28.717  30.374  1.00  0.00     0.034 A 
ATOM     50  C   UNL A   1      39.625  32.967  35.875  1.00  0.00     0.034 A 
ATOM     51  C   UNL A   1      41.447  28.559  31.420  1.00  0.00     0.049 A 
ATOM     52  C   UNL A   1      40.714  31.928  35.830  1.00  0.00     0.074 A 
ATOM     53  C   UNL A   1      42.513  27.679  31.478  1.00  0.00     0.029 A 
ATOM     54  N   UNL A   1      41.471  29.296  32.594  1.00  0.00    -0.354 N 
ATOM     55  N   UNL A   1      41.041  31.116  34.855  1.00  0.00    -0.248 NA
ATOM     56  C   UNL A   1      41.565  31.806  37.023  1.00  0.00     0.031 C 
ATOM     57  C   UNL A   1      43.175  27.873  32.695  1.00  0.00     0.029 A 
ATOM     58  C   UNL A   1      42.535  28.892  33.384  1.00  0.00     0.049 A 
ATOM     59  H   UNL A   1      40.828  30.002  32.832  1.00  0.00     0.167 HD
ATOM     60  C   UNL A   1      42.160  30.420  35.298  1.00  0.00     0.074 A 
ATOM     61  C   UNL A   1      42.466  30.921  36.622  1.00  0.00     0.031 C 
ATOM     62  C   UNL A   1      42.864  29.444  34.673  1.00  0.00     0.034 A 
BRANCH  49  63
ATOM     63  C   UNL A   1      40.576  27.826  29.163  1.00  0.00     0.023 A 
ATOM     64  C   UNL A   1      39.726  26.705  29.055  1.00  0.00     0.012 A 
ATOM     65  C   UNL A   1      41.464  28.123  28.111  1.00  0.00     0.148 A 
ATOM     66  C   UNL A   1      39.782  25.874  27.938  1.00  0.00     0.002 A 
ATOM     67  C   UNL A   1      41.481  27.315  26.979  1.00  0.00     0.091 A 
ATOM     68  F   UNL A   1      42.277  29.180  28.239  1.00  0.00    -0.205 F 
ATOM     69  C   UNL A   1      40.651  26.186  26.895  1.00  0.00     0.022 A 
BRANCH  67  70
ATOM     70  S   UNL A   1      42.506  27.671  25.547  1.00  0.00     0.127 S 
ATOM     71  O   UNL A   1      43.839  27.738  26.148  1.00  0.00    -0.237 OA
ATOM     72  O   UNL A   1      42.276  26.498  24.705  1.00  0.00    -0.237 OA
ATOM     73  O   UNL A   1      42.007  28.923  24.995  1.00  0.00    -0.744 OA
ENDBRANCH  67  70
ENDBRANCH  49  63
BRANCH  50  74
ATOM     74  C   UNL A   1      39.461  33.845  37.069  1.00  0.00     0.023 A 
ATOM     75  C   UNL A   1      39.970  35.158  37.033  1.00  0.00     0.012 A 
ATOM     76  C   UNL A   1      38.810  33.394  38.232  1.00  0.00     0.148 A 
ATOM     77  C   UNL A   1      39.872  35.992  38.147  1.00  0.00     0.002 A 
ATOM     78  C   UNL A   1      38.666  34.248  39.320  1.00  0.00     0.091 A 
ATOM     79  F   UNL A   1      38.344  32.137  38.254  1.00  0.00    -0.205 F 
ATOM     80  C   UNL A   1      39.213  35.541  39.288  1.00  0.00     0.022 A 
BRANCH  78  81
ATOM     81  S   UNL A   1      37.721  33.795  40.780  1.00  0.00     0.127 S 
ATOM     82  O   UNL A   1      38.624  32.856  41.440  1.00  0.00    -0.237 OA
ATOM     83  O   UNL A   1      37.569  35.084  41.455  1.00  0.00    -0.237 OA
ATOM     84  O   UNL A   1      36.475  33.232  40.277  1.00  0.00    -0.744 OA
ENDBRANCH  78  81
ENDBRANCH  50  74
BRANCH  62  85
ATOM     85  C   UNL A   1      44.067  28.883  35.386  1.00  0.00     0.023 A 
ATOM     86  C   UNL A   1      45.333  29.467  35.194  1.00  0.00     0.012 A 
ATOM     87  C   UNL A   1      43.925  27.821  36.300  1.00  0.00     0.148 A 
ATOM     88  C   UNL A   1      46.448  28.980  35.875  1.00  0.00     0.002 A 
ATOM     89  C   UNL A   1      45.031  27.374  37.014  1.00  0.00     0.091 A 
ATOM     90  F   UNL A   1      42.714  27.266  36.455  1.00  0.00    -0.205 F 
ATOM     91  C   UNL A   1      46.295  27.943  36.793  1.00  0.00     0.022 A 
BRANCH  89  92
ATOM     92  S   UNL A   1      44.910  26.112  38.286  1.00  0.00     0.127 S 
ATOM     93  O   UNL A   1      44.588  24.924  37.497  1.00  0.00    -0.237 OA
ATOM     94  O   UNL A   1      46.257  26.118  38.858  1.00  0.00    -0.237 OA
ATOM     95  O   UNL A   1      43.865  26.558  39.198  1.00  0.00    -0.744 OA
ENDBRANCH  89  92
ENDBRANCH  62  85
ENDBRANCH  36  37
ENDBRANCH  28  31
ENDBRANCH  26  27
ENDBRANCH  25  26
ENDBRANCH   1  25
TORSDOF 18
ENDMDL
MODEL 2
REMARK VINA RESULT:     -11.3      2.688      8.240
REMARK SMILES COc1ncccc1C(=O)N[C@@](C)(C(=O)NCCCCNC(=O)c1ccc(-c2c3nc(c(-c4cccc(S(=O)(=O)[O-])c4F)c4ccc([nH]4)c(-c4cccc(S(=O)(=O)[O-])c4F)c4nc(c(-c5cccc(S(=O)(=O)[O-])c5F)c5ccc2[nH]5)C=C4)C=C3)cc1)C(F)(F)F
REMARK SMILES IDX 18 1 17 2 16 3 14 4 15 5 12 7 13 8 11 9 9 10 10 11 8 13 3 14
REMARK SMILES IDX 4 15 5 16 7 17 6 18 2 19 1 20 87 21 88 22 89 23 90 24 19 25
REMARK SMILES IDX 20 26 21 27 22 28 23 30 24 31 25 32 86 33 26 34 85 35 27 36
REMARK SMILES IDX 28 37 29 38 79 39 30 40 84 41 78 42 80 43 31 44 83 45 77 46
REMARK SMILES IDX 76 47 32 49 64 50 44 51 63 52 45 53 48 54 62 55 81 56 46 57
REMARK SMILES IDX 47 58 61 60 82 61 49 62 33 63 34 64 42 65 35 66 37 67 43 68
REMARK SMILES IDX 36 69 38 70 39 71 40 72 41 73 65 74 66 75 74 76 67 77 69 78
REMARK SMILES IDX 75 79 68 80 70 81 71 82 72 83 73 84 50 85 51 86 59 87 52 88
REMARK SMILES IDX 54 89 60 90 53 91 55 92 56 93 57 94 58 95
REMARK H PARENT 16 6 11 12 21 29 80 48 48 59
REMARK Flexibility Score: inf
ROOT
ATOM      1  C   UNL A   1      31.209  27.841  26.481  1.00  0.00     0.023 C 
ENDROOT
BRANCH   1   2
ATOM      2  C   UNL A   1      32.226  26.709  26.367  1.00  0.00     0.116 C 
BRANCH   2   3
ATOM      3  N   UNL A   1      31.727  25.442  26.878  1.00  0.00    -0.354 N 
ATOM      4  C   UNL A   1      32.146  24.145  26.777  1.00  0.00     0.254 C 
ATOM      5  O   UNL A   1      31.532  23.351  27.495  1.00  0.00    -0.272 OA
ATOM      6  H   UNL A   1      30.908  25.540  27.414  1.00  0.00     0.163 HD
BRANCH   4   7
ATOM      7  C   UNL A   1      33.233  23.680  25.774  1.00  0.00     0.212 C 
ATOM      8  C   UNL A   1      34.228  24.805  25.434  1.00  0.00     0.056 C 
BRANCH   7   9
ATOM      9  N   UNL A   1      32.407  23.300  24.564  1.00  0.00    -0.330 N 
ATOM     10  C   UNL A   1      31.442  23.673  23.676  1.00  0.00     0.257 C 
ATOM     11  O   UNL A   1      31.039  22.708  23.018  1.00  0.00    -0.269 OA
ATOM     12  H   UNL A   1      32.686  22.392  24.310  1.00  0.00     0.165 HD
BRANCH  10  13
ATOM     13  C   UNL A   1      30.874  25.019  23.393  1.00  0.00     0.101 A 
ATOM     14  C   UNL A   1      31.627  25.981  22.698  1.00  0.00     0.226 A 
ATOM     15  N   UNL A   1      31.224  27.259  22.450  1.00  0.00    -0.221 NA
ATOM     16  C   UNL A   1      30.026  27.630  22.930  1.00  0.00     0.115 A 
ATOM     17  C   UNL A   1      29.659  25.478  23.891  1.00  0.00     0.021 A 
ATOM     18  C   UNL A   1      29.214  26.781  23.648  1.00  0.00     0.021 A 
BRANCH  14  19
ATOM     19  O   UNL A   1      32.921  25.756  22.310  1.00  0.00    -0.480 OA
ATOM     20  C   UNL A   1      33.658  26.968  22.364  1.00  0.00     0.280 C 
ENDBRANCH  14  19
ENDBRANCH  10  13
ENDBRANCH   7   9
BRANCH   7  21
ATOM     21  C   UNL A   1      34.041  22.615  26.538  1.00  0.00     0.420 C 
ATOM     22  F   UNL A   1      34.343  22.958  27.806  1.00  0.00    -0.168 F 
ATOM     23  F   UNL A   1      33.340  21.448  26.591  1.00  0.00    -0.168 F 
ATOM     24  F   UNL A   1      35.200  22.301  25.908  1.00  0.00    -0.168 F 
ENDBRANCH   7  21
ENDBRANCH   4   7
ENDBRANCH   2   3
ENDBRANCH   1   2
BRANCH   1  25
ATOM     25  C   UNL A   1      31.508  29.100  25.669  1.00  0.00     0.023 C 
BRANCH  25  26
ATOM     26  C   UNL A   1      32.799  29.828  26.022  1.00  0.00     0.116 C 
BRANCH  26  27
ATOM     27  N   UNL A   1      32.586  31.213  26.412  1.00  0.00    -0.352 N 
ATOM     28  C   UNL A   1      33.316  31.994  27.281  1.00  0.00     0.251 C 
ATOM     29  H   UNL A   1      31.810  31.654  25.997  1.00  0.00     0.163 HD
ATOM     30  O   UNL A   1      32.919  33.107  27.583  1.00  0.00    -0.269 OA
BRANCH  28  31
ATOM     31  C   UNL A   1      34.565  31.458  27.868  1.00  0.00     0.039 A 
ATOM     32  C   UNL A   1      35.649  32.319  28.046  1.00  0.00     0.014 A 
ATOM     33  C   UNL A   1      34.656  30.121  28.264  1.00  0.00     0.014 A 
ATOM     34  C   UNL A   1      36.801  31.856  28.687  1.00  0.00     0.010 A 
ATOM     35  C   UNL A   1      35.772  29.683  28.970  1.00  0.00     0.010 A 
ATOM     36  C   UNL A   1      36.859  30.545  29.188  1.00  0.00    -0.014 A 
BRANCH  36  37
ATOM     37  C   UNL A   1      38.040  30.059  29.947  1.00  0.00     0.031 A 
ATOM     38  C   UNL A   1      38.310  30.570  31.337  1.00  0.00     0.074 A 
ATOM     39  C   UNL A   1      38.911  29.215  29.357  1.00  0.00     0.049 A 
ATOM     40  N   UNL A   1      39.316  30.309  32.132  1.00  0.00    -0.248 NA
ATOM     41  C   UNL A   1      37.336  31.521  31.899  1.00  0.00     0.031 C 
ATOM     42  C   UNL A   1      38.801  28.703  27.989  1.00  0.00     0.029 A 
ATOM     43  N   UNL A   1      40.076  28.658  29.825  1.00  0.00    -0.354 N 
ATOM     44  C   UNL A   1      39.111  31.079  33.270  1.00  0.00     0.074 A 
ATOM     45  C   UNL A   1      37.910  31.852  33.046  1.00  0.00     0.031 C 
ATOM     46  C   UNL A   1      39.847  27.900  27.733  1.00  0.00     0.029 A 
ATOM     47  C   UNL A   1      40.719  27.865  28.902  1.00  0.00     0.049 A 
ATOM     48  H   UNL A   1      40.418  28.813  30.735  1.00  0.00     0.167 HD
ATOM     49  C   UNL A   1      39.836  31.115  34.415  1.00  0.00     0.034 A 
ATOM     50  C   UNL A   1      41.882  27.188  28.990  1.00  0.00     0.034 A 
ATOM     51  C   UNL A   1      41.008  30.316  34.650  1.00  0.00     0.049 A 
ATOM     52  C   UNL A   1      42.655  27.230  30.281  1.00  0.00     0.074 A 
ATOM     53  C   UNL A   1      41.776  30.232  35.798  1.00  0.00     0.029 A 
ATOM     54  N   UNL A   1      41.584  29.465  33.720  1.00  0.00    -0.354 N 
ATOM     55  N   UNL A   1      42.366  27.852  31.398  1.00  0.00    -0.248 NA
ATOM     56  C   UNL A   1      43.899  26.446  30.335  1.00  0.00     0.031 C 
ATOM     57  C   UNL A   1      42.827  29.342  35.557  1.00  0.00     0.029 A 
ATOM     58  C   UNL A   1      42.699  28.851  34.266  1.00  0.00     0.049 A 
ATOM     59  H   UNL A   1      41.251  29.318  32.805  1.00  0.00     0.167 HD
ATOM     60  C   UNL A   1      43.365  27.501  32.299  1.00  0.00     0.074 A 
ATOM     61  C   UNL A   1      44.255  26.595  31.603  1.00  0.00     0.031 C 
ATOM     62  C   UNL A   1      43.539  27.903  33.582  1.00  0.00     0.034 A 
BRANCH  49  63
ATOM     63  C   UNL A   1      39.341  32.001  35.528  1.00  0.00     0.023 A 
ATOM     64  C   UNL A   1      38.425  31.483  36.468  1.00  0.00     0.012 A 
ATOM     65  C   UNL A   1      39.817  33.317  35.682  1.00  0.00     0.148 A 
ATOM     66  C   UNL A   1      37.964  32.270  37.522  1.00  0.00     0.002 A 
ATOM     67  C   UNL A   1      39.388  34.081  36.762  1.00  0.00     0.091 A 
ATOM     68  F   UNL A   1      40.672  33.799  34.769  1.00  0.00    -0.205 F 
ATOM     69  C   UNL A   1      38.454  33.564  37.676  1.00  0.00     0.022 A 
BRANCH  67  70
ATOM     70  S   UNL A   1      40.015  35.731  37.096  1.00  0.00     0.127 S 
ATOM     71  O   UNL A   1      41.448  35.475  37.251  1.00  0.00    -0.237 OA
ATOM     72  O   UNL A   1      39.653  36.450  35.876  1.00  0.00    -0.237 OA
ATOM     73  O   UNL A   1      39.330  36.187  38.298  1.00  0.00    -0.744 OA
ENDBRANCH  67  70
ENDBRANCH  49  63
BRANCH  50  74
ATOM     74  C   UNL A   1      42.355  26.353  27.847  1.00  0.00     0.023 A 
ATOM     75  C   UNL A   1      43.254  26.908  26.916  1.00  0.00     0.012 A 
ATOM     76  C   UNL A   1      41.925  25.024  27.677  1.00  0.00     0.148 A 
ATOM     77  C   UNL A   1      43.683  26.170  25.813  1.00  0.00     0.002 A 
ATOM     78  C   UNL A   1      42.400  24.275  26.607  1.00  0.00     0.091 A 
ATOM     79  F   UNL A   1      41.059  24.517  28.567  1.00  0.00    -0.205 F 
ATOM     80  C   UNL A   1      43.264  24.851  25.662  1.00  0.00     0.022 A 
BRANCH  78  81
ATOM     81  S   UNL A   1      42.013  22.531  26.407  1.00  0.00     0.127 S 
ATOM     82  O   UNL A   1      42.578  21.959  27.626  1.00  0.00    -0.237 OA
ATOM     83  O   UNL A   1      40.552  22.549  26.352  1.00  0.00    -0.237 OA
ATOM     84  O   UNL A   1      42.654  22.131  25.161  1.00  0.00    -0.744 OA
ENDBRANCH  78  81
ENDBRANCH  50  74
BRANCH  62  85
ATOM     85  C   UNL A   1      44.707  27.331  34.342  1.00  0.00     0.023 A 
ATOM     86  C   UNL A   1      45.961  27.970  34.289  1.00  0.00     0.012 A 
ATOM     87  C   UNL A   1      44.540  26.200  35.164  1.00  0.00     0.148 A 
ATOM     88  C   UNL A   1      47.041  27.471  35.015  1.00  0.00     0.002 A 
ATOM     89  C   UNL A   1      45.608  25.737  35.926  1.00  0.00     0.091 A 
ATOM     90  F   UNL A   1      43.344  25.594  35.187  1.00  0.00    -0.205 F 
ATOM     91  C   UNL A   1      46.862  26.364  35.842  1.00  0.00     0.022 A 
BRANCH  89  92
ATOM     92  S   UNL A   1      45.444  24.381  37.090  1.00  0.00     0.127 S 
ATOM     93  O   UNL A   1      44.346  24.844  37.936  1.00  0.00    -0.237 OA
ATOM     94  O   UNL A   1      45.107  23.258  36.213  1.00  0.00    -0.237 OA
ATOM     95  O   UNL A   1      46.736  24.261  37.753  1.00  0.00    -0.744 OA
ENDBRANCH  89  92
ENDBRANCH  62  85
ENDBRANCH  36  37
ENDBRANCH  28  31
ENDBRANCH  26  27
ENDBRANCH  25  26
ENDBRANCH   1  25
TORSDOF 18
ENDMDL
MODEL 3
REMARK VINA RESULT:     -11.3      2.442      7.983
REMARK SMILES COc1ncccc1C(=O)N[C@@](C)(C(=O)NCCCCNC(=O)c1ccc(-c2c3nc(c(-c4cccc(S(=O)(=O)[O-])c4F)c4ccc([nH]4)c(-c4cccc(S(=O)(=O)[O-])c4F)c4nc(c(-c5cccc(S(=O)(=O)[O-])c5F)c5ccc2[nH]5)C=C4)C=C3)cc1)C(F)(F)F
REMARK SMILES IDX 18 1 17 2 16 3 14 4 15 5 12 7 13 8 11 9 9 10 10 11 8 13 3 14
REMARK SMILES IDX 4 15 5 16 7 17 6 18 2 19 1 20 87 21 88 22 89 23 90 24 19 25
REMARK SMILES IDX 20 26 21 27 22 28 23 30 24 31 25 32 86 33 26 34 85 35 27 36
REMARK SMILES IDX 28 37 29 38 79 39 30 40 84 41 78 42 80 43 31 44 83 45 77 46
REMARK SMILES IDX 76 47 32 49 64 50 44 51 63 52 45 53 48 54 62 55 81 56 46 57
REMARK SMILES IDX 47 58 61 60 82 61 49 62 33 63 34 64 42 65 35 66 37 67 43 68
REMARK SMILES IDX 36 69 38 70 39 71 40 72 41 73 65 74 66 75 74 76 67 77 69 78
REMARK SMILES IDX 75 79 68 80 70 81 71 82 72 83 73 84 50 85 51 86 59 87 52 88
REMARK SMILES IDX 54 89 60 90 53 91 55 92 56 93 57 94 58 95
REMARK H PARENT 16 6 11 12 21 29 80 48 48 59
REMARK Flexibility Score: inf
ROOT
ATOM      1  C   UNL A   1      31.382  29.141  24.268  1.00  0.00     0.023 C 
ENDROOT
BRANCH   1   2
ATOM      2  C   UNL A   1      31.677  28.157  23.139  1.00  0.00     0.116 C 
BRANCH   2   3
ATOM      3  N   UNL A   1      30.861  26.955  23.205  1.00  0.00    -0.354 N 
ATOM      4  C   UNL A   1      31.025  25.725  23.777  1.00  0.00     0.254 C 
ATOM      5  O   UNL A   1      30.022  25.008  23.747  1.00  0.00    -0.272 OA
ATOM      6  H   UNL A   1      30.002  27.048  22.735  1.00  0.00     0.163 HD
BRANCH   4   7
ATOM      7  C   UNL A   1      32.383  25.221  24.332  1.00  0.00     0.212 C 
ATOM      8  C   UNL A   1      33.563  26.080  23.843  1.00  0.00     0.056 C 
BRANCH   7   9
ATOM      9  N   UNL A   1      32.458  23.820  23.764  1.00  0.00    -0.330 N 
ATOM     10  C   UNL A   1      33.237  22.732  23.506  1.00  0.00     0.257 C 
ATOM     11  O   UNL A   1      32.670  21.943  22.742  1.00  0.00    -0.269 OA
ATOM     12  H   UNL A   1      31.555  23.601  23.440  1.00  0.00     0.165 HD
BRANCH  10  13
ATOM     13  C   UNL A   1      34.586  22.379  24.024  1.00  0.00     0.101 A 
ATOM     14  C   UNL A   1      34.726  21.683  25.237  1.00  0.00     0.226 A 
ATOM     15  N   UNL A   1      35.914  21.374  25.829  1.00  0.00    -0.221 NA
ATOM     16  C   UNL A   1      37.033  21.792  25.215  1.00  0.00     0.115 A 
ATOM     17  C   UNL A   1      35.782  22.810  23.459  1.00  0.00     0.021 A 
ATOM     18  C   UNL A   1      37.017  22.504  24.037  1.00  0.00     0.021 A 
BRANCH  14  19
ATOM     19  O   UNL A   1      33.652  21.356  26.021  1.00  0.00    -0.480 OA
ATOM     20  C   UNL A   1      33.884  21.775  27.357  1.00  0.00     0.280 C 
ENDBRANCH  14  19
ENDBRANCH  10  13
ENDBRANCH   7   9
BRANCH   7  21
ATOM     21  C   UNL A   1      32.294  25.447  25.852  1.00  0.00     0.420 C 
ATOM     22  F   UNL A   1      33.489  25.478  26.474  1.00  0.00    -0.168 F 
ATOM     23  F   UNL A   1      31.674  26.632  26.111  1.00  0.00    -0.168 F 
ATOM     24  F   UNL A   1      31.533  24.508  26.466  1.00  0.00    -0.168 F 
ENDBRANCH   7  21
ENDBRANCH   4   7
ENDBRANCH   2   3
ENDBRANCH   1   2
BRANCH   1  25
ATOM     25  C   UNL A   1      32.592  29.640  25.059  1.00  0.00     0.023 C 
BRANCH  25  26
ATOM     26  C   UNL A   1      32.321  30.046  26.503  1.00  0.00     0.116 C 
BRANCH  26  27
ATOM     27  N   UNL A   1      32.261  31.487  26.689  1.00  0.00    -0.352 N 
ATOM     28  C   UNL A   1      33.141  32.316  27.352  1.00  0.00     0.251 C 
ATOM     29  H   UNL A   1      31.483  31.933  26.286  1.00  0.00     0.163 HD
ATOM     30  O   UNL A   1      32.868  33.493  27.512  1.00  0.00    -0.269 OA
BRANCH  28  31
ATOM     31  C   UNL A   1      34.400  31.755  27.894  1.00  0.00     0.039 A 
ATOM     32  C   UNL A   1      35.497  32.603  28.062  1.00  0.00     0.014 A 
ATOM     33  C   UNL A   1      34.488  30.409  28.259  1.00  0.00     0.014 A 
ATOM     34  C   UNL A   1      36.660  32.116  28.662  1.00  0.00     0.010 A 
ATOM     35  C   UNL A   1      35.619  29.946  28.926  1.00  0.00     0.010 A 
ATOM     36  C   UNL A   1      36.718  30.794  29.133  1.00  0.00    -0.014 A 
BRANCH  36  37
ATOM     37  C   UNL A   1      37.915  30.281  29.850  1.00  0.00     0.031 A 
ATOM     38  C   UNL A   1      38.228  30.763  31.242  1.00  0.00     0.074 A 
ATOM     39  C   UNL A   1      38.760  29.439  29.222  1.00  0.00     0.049 A 
ATOM     40  N   UNL A   1      39.252  30.477  32.003  1.00  0.00    -0.248 NA
ATOM     41  C   UNL A   1      37.281  31.715  31.848  1.00  0.00     0.031 C 
ATOM     42  C   UNL A   1      38.606  28.953  27.848  1.00  0.00     0.029 A 
ATOM     43  N   UNL A   1      39.930  28.861  29.647  1.00  0.00    -0.354 N 
ATOM     44  C   UNL A   1      39.088  31.228  33.161  1.00  0.00     0.074 A 
ATOM     45  C   UNL A   1      37.890  32.018  32.984  1.00  0.00     0.031 C 
ATOM     46  C   UNL A   1      39.636  28.144  27.549  1.00  0.00     0.029 A 
ATOM     47  C   UNL A   1      40.539  28.078  28.692  1.00  0.00     0.049 A 
ATOM     48  H   UNL A   1      40.299  28.995  30.549  1.00  0.00     0.167 HD
ATOM     49  C   UNL A   1      39.844  31.235  34.285  1.00  0.00     0.034 A 
ATOM     50  C   UNL A   1      41.696  27.387  28.735  1.00  0.00     0.034 A 
ATOM     51  C   UNL A   1      41.013  30.419  34.473  1.00  0.00     0.049 A 
ATOM     52  C   UNL A   1      42.505  27.396  30.005  1.00  0.00     0.074 A 
ATOM     53  C   UNL A   1      41.812  30.306  35.598  1.00  0.00     0.029 A 
ATOM     54  N   UNL A   1      41.554  29.579  33.512  1.00  0.00    -0.354 N 
ATOM     55  N   UNL A   1      42.254  28.001  31.140  1.00  0.00    -0.248 NA
ATOM     56  C   UNL A   1      43.740  26.599  30.011  1.00  0.00     0.031 C 
ATOM     57  C   UNL A   1      42.846  29.409  35.311  1.00  0.00     0.029 A 
ATOM     58  C   UNL A   1      42.676  28.943  34.016  1.00  0.00     0.049 A 
ATOM     59  H   UNL A   1      41.194  29.453  32.605  1.00  0.00     0.167 HD
ATOM     60  C   UNL A   1      43.273  27.623  32.007  1.00  0.00     0.074 A 
ATOM     61  C   UNL A   1      44.134  26.721  31.271  1.00  0.00     0.031 C 
ATOM     62  C   UNL A   1      43.487  27.999  33.292  1.00  0.00     0.034 A 
BRANCH  49  63
ATOM     63  C   UNL A   1      39.390  32.106  35.428  1.00  0.00     0.023 A 
ATOM     64  C   UNL A   1      38.518  31.571  36.399  1.00  0.00     0.012 A 
ATOM     65  C   UNL A   1      39.864  33.423  35.576  1.00  0.00     0.148 A 
ATOM     66  C   UNL A   1      38.096  32.343  37.480  1.00  0.00     0.002 A 
ATOM     67  C   UNL A   1      39.475  34.172  36.681  1.00  0.00     0.091 A 
ATOM     68  F   UNL A   1      40.676  33.921  34.634  1.00  0.00    -0.205 F 
ATOM     69  C   UNL A   1      38.583  33.639  37.627  1.00  0.00     0.022 A 
BRANCH  67  70
ATOM     70  S   UNL A   1      40.104  35.823  37.007  1.00  0.00     0.127 S 
ATOM     71  O   UNL A   1      39.646  36.552  35.824  1.00  0.00    -0.237 OA
ATOM     72  O   UNL A   1      39.413  36.177  38.246  1.00  0.00    -0.237 OA
ATOM     73  O   UNL A   1      41.548  35.686  37.134  1.00  0.00    -0.744 OA
ENDBRANCH  67  70
ENDBRANCH  49  63
BRANCH  50  74
ATOM     74  C   UNL A   1      42.128  26.568  27.565  1.00  0.00     0.023 A 
ATOM     75  C   UNL A   1      42.837  27.186  26.517  1.00  0.00     0.012 A 
ATOM     76  C   UNL A   1      41.844  25.193  27.482  1.00  0.00     0.148 A 
ATOM     77  C   UNL A   1      43.220  26.460  25.389  1.00  0.00     0.002 A 
ATOM     78  C   UNL A   1      42.276  24.462  26.381  1.00  0.00     0.091 A 
ATOM     79  F   UNL A   1      41.156  24.624  28.483  1.00  0.00    -0.205 F 
ATOM     80  C   UNL A   1      42.947  25.097  25.324  1.00  0.00     0.022 A 
BRANCH  78  81
ATOM     81  S   UNL A   1      42.081  22.679  26.274  1.00  0.00     0.127 S 
ATOM     82  O   UNL A   1      42.798  22.228  27.463  1.00  0.00    -0.237 OA
ATOM     83  O   UNL A   1      40.627  22.529  26.335  1.00  0.00    -0.237 OA
ATOM     84  O   UNL A   1      42.668  22.300  24.995  1.00  0.00    -0.744 OA
ENDBRANCH  78  81
ENDBRANCH  50  74
BRANCH  62  85
ATOM     85  C   UNL A   1      44.669  27.400  34.009  1.00  0.00     0.023 A 
ATOM     86  C   UNL A   1      45.904  28.076  34.012  1.00  0.00     0.012 A 
ATOM     87  C   UNL A   1      44.532  26.203  34.737  1.00  0.00     0.148 A 
ATOM     88  C   UNL A   1      46.997  27.551  34.701  1.00  0.00     0.002 A 
ATOM     89  C   UNL A   1      45.610  25.711  35.464  1.00  0.00     0.091 A 
ATOM     90  F   UNL A   1      43.353  25.565  34.706  1.00  0.00    -0.205 F 
ATOM     91  C   UNL A   1      46.847  26.376  35.436  1.00  0.00     0.022 A 
BRANCH  89  92
ATOM     92  S   UNL A   1      45.482  24.261  36.515  1.00  0.00     0.127 S 
ATOM     93  O   UNL A   1      46.840  24.154  37.043  1.00  0.00    -0.237 OA
ATOM     94  O   UNL A   1      44.477  24.677  37.495  1.00  0.00    -0.237 OA
ATOM     95  O   UNL A   1      45.061  23.170  35.646  1.00  0.00    -0.744 OA
ENDBRANCH  89  92
ENDBRANCH  62  85
ENDBRANCH  36  37
ENDBRANCH  28  31
ENDBRANCH  26  27
ENDBRANCH  25  26
ENDBRANCH   1  25
TORSDOF 18
ENDMDL
