MODEL 1
REMARK VINA RESULT:     -13.9      0.000      0.000
REMARK SMILES O=C(CCN1C(=O)[C@@H]2[C@@H](C1=O)[C@H]1c3ccccc3[C@]2(Br)c2ccccc21)NCCCCNC(=O)c1ccc(-c2c3nc(c(-c4cccc(S(=O)(=O)[O-])c4F)c4ccc([nH]4)c(-c4cccc(S(=O)(=O)[O-])c4F)c4nc(c(-c5cccc(S(=O)(=O)[O-])c5F)c5ccc2[nH]5)C=C4)C=C3)cc1
REMARK SMILES IDX 30 1 29 2 28 3 27 4 1 5 2 6 3 8 4 9 5 10 6 11 10 12 7 13
REMARK SMILES IDX 8 14 9 15 11 16 19 17 12 18 21 19 20 20 18 21 26 22 13 23
REMARK SMILES IDX 22 24 17 25 25 26 14 27 23 28 16 29 24 30 15 31 31 32 32 33
REMARK SMILES IDX 33 34 34 36 35 37 36 38 97 39 37 40 96 41 38 42 39 43 40 44
REMARK SMILES IDX 90 45 41 46 95 47 89 48 91 49 42 50 94 51 88 52 87 53 43 55
REMARK SMILES IDX 75 56 55 57 74 58 56 59 59 60 73 61 92 62 57 63 58 64 72 66
REMARK SMILES IDX 93 67 60 68 44 69 45 70 53 71 46 72 48 73 54 74 47 75 49 76
REMARK SMILES IDX 50 77 51 78 52 79 76 80 77 81 85 82 78 83 80 84 86 85 79 86
REMARK SMILES IDX 81 87 82 88 83 89 84 90 61 91 62 92 70 93 63 94 65 95 71 96
REMARK SMILES IDX 64 97 66 98 67 99 68 100 69 101
REMARK H PARENT 27 7 32 35 91 54 59 65
REMARK Flexibility Score: inf
ROOT
ATOM      1  C   UNL A   1      36.049  20.588  25.005  1.00  0.00     0.023 C 
ENDROOT
BRANCH   1   2
ATOM      2  C   UNL A   1      35.333  21.275  26.185  1.00  0.00     0.023 C 
BRANCH   2   3
ATOM      3  C   UNL A   1      33.833  21.591  26.032  1.00  0.00     0.116 C 
BRANCH   3   4
ATOM      4  N   UNL A   1      33.394  22.046  24.716  1.00  0.00    -0.356 N 
ATOM      5  O   UNL A   1      32.355  20.058  24.204  1.00  0.00    -0.275 OA
ATOM      6  C   UNL A   1      32.641  21.215  23.900  1.00  0.00     0.221 C 
ATOM      7  H   UNL A   1      33.634  22.949  24.406  1.00  0.00     0.163 HD
BRANCH   6   8
ATOM      8  C   UNL A   1      32.168  21.802  22.580  1.00  0.00     0.122 C 
BRANCH   8   9
ATOM      9  C   UNL A   1      32.917  23.092  22.212  1.00  0.00     0.138 C 
BRANCH   9  10
ATOM     10  N   UNL A   1      32.203  24.341  22.439  1.00  0.00    -0.281 N 
ATOM     11  C   UNL A   1      32.552  25.563  21.875  1.00  0.00     0.235 C 
ATOM     12  C   UNL A   1      31.148  24.484  23.355  1.00  0.00     0.234 C 
ATOM     13  O   UNL A   1      33.295  25.794  20.932  1.00  0.00    -0.274 OA
ATOM     14  C   UNL A   1      32.053  26.511  22.893  1.00  0.00     0.118 C 
ATOM     15  C   UNL A   1      30.672  25.904  23.176  1.00  0.00     0.105 C 
ATOM     16  O   UNL A   1      30.662  23.638  24.083  1.00  0.00    -0.274 OA
ATOM     17  C   UNL A   1      32.001  28.020  23.032  1.00  0.00     0.088 C 
ATOM     18  C   UNL A   1      29.920  26.815  24.179  1.00  0.00     0.063 C 
ATOM     19  C   UNL A   1      32.038  28.036  24.605  1.00  0.00    -0.022 A 
ATOM     20  Br  UNL A   1      33.476  28.836  22.130  1.00  0.00    -0.074 Br
ATOM     21  C   UNL A   1      30.650  28.623  22.627  1.00  0.00    -0.022 A 
ATOM     22  C   UNL A   1      30.912  27.380  25.198  1.00  0.00    -0.035 A 
ATOM     23  C   UNL A   1      29.541  28.024  23.298  1.00  0.00    -0.035 A 
ATOM     24  C   UNL A   1      33.115  28.329  25.421  1.00  0.00     0.006 A 
ATOM     25  C   UNL A   1      30.436  29.746  21.823  1.00  0.00     0.006 A 
ATOM     26  C   UNL A   1      30.808  27.220  26.575  1.00  0.00     0.005 A 
ATOM     27  C   UNL A   1      28.267  28.574  23.199  1.00  0.00     0.005 A 
ATOM     28  C   UNL A   1      33.029  28.153  26.804  1.00  0.00     0.000 A 
ATOM     29  C   UNL A   1      29.155  30.283  21.716  1.00  0.00     0.000 A 
ATOM     30  C   UNL A   1      31.868  27.632  27.381  1.00  0.00     0.000 A 
ATOM     31  C   UNL A   1      28.084  29.710  22.407  1.00  0.00     0.000 A 
ENDBRANCH   9  10
ENDBRANCH   8   9
ENDBRANCH   6   8
ENDBRANCH   3   4
ENDBRANCH   2   3
ENDBRANCH   1   2
BRANCH   1  32
ATOM     32  C   UNL A   1      37.514  20.992  24.763  1.00  0.00     0.116 C 
BRANCH  32  33
ATOM     33  N   UNL A   1      38.537  20.102  25.280  1.00  0.00    -0.352 N 
ATOM     34  C   UNL A   1      39.616  20.387  26.108  1.00  0.00     0.251 C 
ATOM     35  H   UNL A   1      38.456  19.161  25.005  1.00  0.00     0.163 HD
ATOM     36  O   UNL A   1      40.352  19.466  26.459  1.00  0.00    -0.269 OA
BRANCH  34  37
ATOM     37  C   UNL A   1      39.936  21.776  26.561  1.00  0.00     0.039 A 
ATOM     38  C   UNL A   1      39.125  22.862  26.251  1.00  0.00     0.014 A 
ATOM     39  C   UNL A   1      41.024  22.006  27.401  1.00  0.00     0.014 A 
ATOM     40  C   UNL A   1      39.515  24.184  26.562  1.00  0.00     0.010 A 
ATOM     41  C   UNL A   1      41.352  23.318  27.810  1.00  0.00     0.010 A 
ATOM     42  C   UNL A   1      40.658  24.449  27.331  1.00  0.00    -0.014 A 
BRANCH  42  43
ATOM     43  C   UNL A   1      41.179  25.852  27.584  1.00  0.00     0.031 A 
ATOM     44  C   UNL A   1      42.513  26.285  26.983  1.00  0.00     0.074 A 
ATOM     45  C   UNL A   1      40.527  26.781  28.323  1.00  0.00     0.049 A 
ATOM     46  N   UNL A   1      43.244  27.342  27.245  1.00  0.00    -0.248 NA
ATOM     47  C   UNL A   1      43.105  25.404  25.960  1.00  0.00     0.031 C 
ATOM     48  C   UNL A   1      39.223  26.616  28.964  1.00  0.00     0.029 A 
ATOM     49  N   UNL A   1      40.886  28.075  28.663  1.00  0.00    -0.354 N 
ATOM     50  C   UNL A   1      44.422  27.189  26.519  1.00  0.00     0.074 A 
ATOM     51  C   UNL A   1      44.298  25.955  25.777  1.00  0.00     0.031 C 
ATOM     52  C   UNL A   1      38.870  27.767  29.564  1.00  0.00     0.029 A 
ATOM     53  C   UNL A   1      39.951  28.739  29.429  1.00  0.00     0.049 A 
ATOM     54  H   UNL A   1      41.736  28.485  28.382  1.00  0.00     0.167 HD
ATOM     55  C   UNL A   1      45.508  27.997  26.449  1.00  0.00     0.034 A 
ATOM     56  C   UNL A   1      39.955  29.971  29.988  1.00  0.00     0.034 A 
ATOM     57  C   UNL A   1      45.615  29.302  27.042  1.00  0.00     0.049 A 
ATOM     58  C   UNL A   1      41.158  30.873  29.868  1.00  0.00     0.074 A 
ATOM     59  C   UNL A   1      46.674  30.194  26.956  1.00  0.00     0.029 A 
ATOM     60  N   UNL A   1      44.631  29.923  27.786  1.00  0.00    -0.354 N 
ATOM     61  N   UNL A   1      42.255  30.698  29.177  1.00  0.00    -0.248 NA
ATOM     62  C   UNL A   1      41.121  32.145  30.613  1.00  0.00     0.031 C 
ATOM     63  C   UNL A   1      46.321  31.363  27.633  1.00  0.00     0.029 A 
ATOM     64  C   UNL A   1      45.047  31.193  28.145  1.00  0.00     0.049 A 
ATOM     65  H   UNL A   1      43.763  29.522  28.023  1.00  0.00     0.167 HD
ATOM     66  C   UNL A   1      43.027  31.837  29.392  1.00  0.00     0.074 A 
ATOM     67  C   UNL A   1      42.268  32.712  30.255  1.00  0.00     0.031 C 
ATOM     68  C   UNL A   1      44.271  32.110  28.933  1.00  0.00     0.034 A 
BRANCH  55  69
ATOM     69  C   UNL A   1      46.689  27.531  25.643  1.00  0.00     0.023 A 
ATOM     70  C   UNL A   1      46.708  27.750  24.253  1.00  0.00     0.012 A 
ATOM     71  C   UNL A   1      47.829  27.006  26.285  1.00  0.00     0.148 A 
ATOM     72  C   UNL A   1      47.843  27.442  23.507  1.00  0.00     0.002 A 
ATOM     73  C   UNL A   1      48.968  26.730  25.538  1.00  0.00     0.091 A 
ATOM     74  F   UNL A   1      47.784  26.813  27.611  1.00  0.00    -0.205 F 
ATOM     75  C   UNL A   1      48.974  26.942  24.150  1.00  0.00     0.022 A 
BRANCH  73  76
ATOM     76  S   UNL A   1      50.499  26.146  26.273  1.00  0.00     0.127 S 
ATOM     77  O   UNL A   1      51.388  26.110  25.110  1.00  0.00    -0.237 OA
ATOM     78  O   UNL A   1      50.799  27.203  27.237  1.00  0.00    -0.237 OA
ATOM     79  O   UNL A   1      50.200  24.846  26.856  1.00  0.00    -0.744 OA
ENDBRANCH  73  76
ENDBRANCH  55  69
BRANCH  56  80
ATOM     80  C   UNL A   1      38.747  30.475  30.708  1.00  0.00     0.023 A 
ATOM     81  C   UNL A   1      38.655  30.276  32.101  1.00  0.00     0.012 A 
ATOM     82  C   UNL A   1      37.692  31.120  30.035  1.00  0.00     0.148 A 
ATOM     83  C   UNL A   1      37.529  30.696  32.808  1.00  0.00     0.002 A 
ATOM     84  C   UNL A   1      36.593  31.577  30.754  1.00  0.00     0.091 A 
ATOM     85  F   UNL A   1      37.783  31.267  28.706  1.00  0.00    -0.205 F 
ATOM     86  C   UNL A   1      36.502  31.356  32.138  1.00  0.00     0.022 A 
BRANCH  84  87
ATOM     87  S   UNL A   1      35.267  32.524  29.996  1.00  0.00     0.127 S 
ATOM     88  O   UNL A   1      35.987  33.686  29.481  1.00  0.00    -0.237 OA
ATOM     89  O   UNL A   1      34.783  31.596  28.973  1.00  0.00    -0.237 OA
ATOM     90  O   UNL A   1      34.315  32.792  31.065  1.00  0.00    -0.744 OA
ENDBRANCH  84  87
ENDBRANCH  56  80
BRANCH  68  91
ATOM     91  C   UNL A   1      44.917  33.417  29.307  1.00  0.00     0.023 A 
ATOM     92  C   UNL A   1      45.756  33.470  30.436  1.00  0.00     0.012 A 
ATOM     93  C   UNL A   1      44.813  34.542  28.466  1.00  0.00     0.148 A 
ATOM     94  C   UNL A   1      46.484  34.626  30.723  1.00  0.00     0.002 A 
ATOM     95  C   UNL A   1      45.563  35.681  28.741  1.00  0.00     0.091 A 
ATOM     96  F   UNL A   1      44.001  34.469  27.401  1.00  0.00    -0.205 F 
ATOM     97  C   UNL A   1      46.397  35.725  29.872  1.00  0.00     0.022 A 
BRANCH  95  98
ATOM     98  S   UNL A   1      45.577  37.121  27.665  1.00  0.00     0.127 S 
ATOM     99  O   UNL A   1      46.024  36.543  26.399  1.00  0.00    -0.237 OA
ATOM    100  O   UNL A   1      44.175  37.537  27.685  1.00  0.00    -0.237 OA
ATOM    101  O   UNL A   1      46.501  38.069  28.274  1.00  0.00    -0.744 OA
ENDBRANCH  95  98
ENDBRANCH  68  91
ENDBRANCH  42  43
ENDBRANCH  34  37
ENDBRANCH  32  33
ENDBRANCH   1  32
TORSDOF 16
ENDMDL
MODEL 2
REMARK VINA RESULT:     -13.8      5.083     10.336
REMARK SMILES O=C(CCN1C(=O)[C@@H]2[C@@H](C1=O)[C@H]1c3ccccc3[C@]2(Br)c2ccccc21)NCCCCNC(=O)c1ccc(-c2c3nc(c(-c4cccc(S(=O)(=O)[O-])c4F)c4ccc([nH]4)c(-c4cccc(S(=O)(=O)[O-])c4F)c4nc(c(-c5cccc(S(=O)(=O)[O-])c5F)c5ccc2[nH]5)C=C4)C=C3)cc1
REMARK SMILES IDX 30 1 29 2 28 3 27 4 1 5 2 6 3 8 4 9 5 10 6 11 10 12 7 13
REMARK SMILES IDX 8 14 9 15 11 16 19 17 12 18 21 19 20 20 18 21 26 22 13 23
REMARK SMILES IDX 22 24 17 25 25 26 14 27 23 28 16 29 24 30 15 31 31 32 32 33
REMARK SMILES IDX 33 34 34 36 35 37 36 38 97 39 37 40 96 41 38 42 39 43 40 44
REMARK SMILES IDX 90 45 41 46 95 47 89 48 91 49 42 50 94 51 88 52 87 53 43 55
REMARK SMILES IDX 75 56 55 57 74 58 56 59 59 60 73 61 92 62 57 63 58 64 72 66
REMARK SMILES IDX 93 67 60 68 44 69 45 70 53 71 46 72 48 73 54 74 47 75 49 76
REMARK SMILES IDX 50 77 51 78 52 79 76 80 77 81 85 82 78 83 80 84 86 85 79 86
REMARK SMILES IDX 81 87 82 88 83 89 84 90 61 91 62 92 70 93 63 94 65 95 71 96
REMARK SMILES IDX 64 97 66 98 67 99 68 100 69 101
REMARK H PARENT 27 7 32 35 91 54 59 65
REMARK Flexibility Score: inf
ROOT
ATOM      1  C   UNL A   1      31.558  31.640  26.011  1.00  0.00     0.023 C 
ENDROOT
BRANCH   1   2
ATOM      2  C   UNL A   1      30.288  32.266  25.401  1.00  0.00     0.023 C 
BRANCH   2   3
ATOM      3  C   UNL A   1      29.528  31.457  24.333  1.00  0.00     0.116 C 
BRANCH   3   4
ATOM      4  N   UNL A   1      30.158  30.219  23.884  1.00  0.00    -0.356 N 
ATOM      5  O   UNL A   1      29.063  30.214  21.860  1.00  0.00    -0.275 OA
ATOM      6  C   UNL A   1      29.878  29.704  22.626  1.00  0.00     0.221 C 
ATOM      7  H   UNL A   1      30.787  29.747  24.476  1.00  0.00     0.163 HD
BRANCH   6   8
ATOM      8  C   UNL A   1      30.639  28.453  22.218  1.00  0.00     0.122 C 
BRANCH   8   9
ATOM      9  C   UNL A   1      32.159  28.616  22.370  1.00  0.00     0.138 C 
BRANCH   9  10
ATOM     10  N   UNL A   1      32.874  27.491  22.955  1.00  0.00    -0.281 N 
ATOM     11  C   UNL A   1      33.262  26.353  22.257  1.00  0.00     0.235 C 
ATOM     12  C   UNL A   1      33.147  27.366  24.328  1.00  0.00     0.234 C 
ATOM     13  O   UNL A   1      33.335  26.176  21.050  1.00  0.00    -0.274 OA
ATOM     14  C   UNL A   1      33.259  25.334  23.327  1.00  0.00     0.118 C 
ATOM     15  C   UNL A   1      33.972  26.109  24.443  1.00  0.00     0.105 C 
ATOM     16  O   UNL A   1      32.856  28.132  25.227  1.00  0.00    -0.274 OA
ATOM     17  C   UNL A   1      33.595  23.858  23.416  1.00  0.00     0.088 C 
ATOM     18  C   UNL A   1      34.158  25.172  25.664  1.00  0.00     0.063 C 
ATOM     19  C   UNL A   1      32.614  23.543  24.605  1.00  0.00    -0.022 A 
ATOM     20  Br  UNL A   1      33.239  22.980  21.755  1.00  0.00    -0.074 Br
ATOM     21  C   UNL A   1      35.010  23.585  23.941  1.00  0.00    -0.022 A 
ATOM     22  C   UNL A   1      32.935  24.263  25.800  1.00  0.00    -0.035 A 
ATOM     23  C   UNL A   1      35.285  24.233  25.183  1.00  0.00    -0.035 A 
ATOM     24  C   UNL A   1      31.381  22.920  24.541  1.00  0.00     0.006 A 
ATOM     25  C   UNL A   1      35.943  22.687  23.418  1.00  0.00     0.006 A 
ATOM     26  C   UNL A   1      32.135  24.180  26.935  1.00  0.00     0.005 A 
ATOM     27  C   UNL A   1      36.442  23.942  25.897  1.00  0.00     0.005 A 
ATOM     28  C   UNL A   1      30.560  22.848  25.669  1.00  0.00     0.000 A 
ATOM     29  C   UNL A   1      37.108  22.410  24.131  1.00  0.00     0.000 A 
ATOM     30  C   UNL A   1      30.951  23.447  26.869  1.00  0.00     0.000 A 
ATOM     31  C   UNL A   1      37.349  23.023  25.364  1.00  0.00     0.000 A 
ENDBRANCH   9  10
ENDBRANCH   8   9
ENDBRANCH   6   8
ENDBRANCH   3   4
ENDBRANCH   2   3
ENDBRANCH   1   2
BRANCH   1  32
ATOM     32  C   UNL A   1      31.983  32.162  27.396  1.00  0.00     0.116 C 
BRANCH  32  33
ATOM     33  N   UNL A   1      32.416  33.545  27.475  1.00  0.00    -0.352 N 
ATOM     34  C   UNL A   1      33.665  34.060  27.800  1.00  0.00     0.251 C 
ATOM     35  H   UNL A   1      31.726  34.215  27.268  1.00  0.00     0.163 HD
ATOM     36  O   UNL A   1      33.827  35.279  27.774  1.00  0.00    -0.269 OA
BRANCH  34  37
ATOM     37  C   UNL A   1      34.809  33.190  28.214  1.00  0.00     0.039 A 
ATOM     38  C   UNL A   1      34.658  31.828  28.450  1.00  0.00     0.014 A 
ATOM     39  C   UNL A   1      36.099  33.715  28.283  1.00  0.00     0.014 A 
ATOM     40  C   UNL A   1      35.714  31.052  28.979  1.00  0.00     0.010 A 
ATOM     41  C   UNL A   1      37.181  32.909  28.702  1.00  0.00     0.010 A 
ATOM     42  C   UNL A   1      37.001  31.581  29.144  1.00  0.00    -0.014 A 
BRANCH  42  43
ATOM     43  C   UNL A   1      38.129  30.823  29.819  1.00  0.00     0.031 A 
ATOM     44  C   UNL A   1      38.420  31.054  31.298  1.00  0.00     0.074 A 
ATOM     45  C   UNL A   1      38.921  29.921  29.188  1.00  0.00     0.049 A 
ATOM     46  N   UNL A   1      39.456  30.687  32.014  1.00  0.00    -0.248 NA
ATOM     47  C   UNL A   1      37.416  31.809  32.068  1.00  0.00     0.031 C 
ATOM     48  C   UNL A   1      38.811  29.504  27.791  1.00  0.00     0.029 A 
ATOM     49  N   UNL A   1      39.994  29.183  29.657  1.00  0.00    -0.354 N 
ATOM     50  C   UNL A   1      39.286  31.265  33.269  1.00  0.00     0.074 A 
ATOM     51  C   UNL A   1      38.030  31.981  33.232  1.00  0.00     0.031 C 
ATOM     52  C   UNL A   1      39.730  28.555  27.534  1.00  0.00     0.029 A 
ATOM     53  C   UNL A   1      40.557  28.343  28.719  1.00  0.00     0.049 A 
ATOM     54  H   UNL A   1      40.327  29.251  30.581  1.00  0.00     0.167 HD
ATOM     55  C   UNL A   1      40.078  31.203  34.366  1.00  0.00     0.034 A 
ATOM     56  C   UNL A   1      41.626  27.516  28.775  1.00  0.00     0.034 A 
ATOM     57  C   UNL A   1      41.251  30.384  34.503  1.00  0.00     0.049 A 
ATOM     58  C   UNL A   1      42.475  27.431  30.019  1.00  0.00     0.074 A 
ATOM     59  C   UNL A   1      42.065  30.237  35.616  1.00  0.00     0.029 A 
ATOM     60  N   UNL A   1      41.755  29.546  33.527  1.00  0.00    -0.354 N 
ATOM     61  N   UNL A   1      42.288  27.991  31.187  1.00  0.00    -0.248 NA
ATOM     62  C   UNL A   1      43.690  26.597  29.947  1.00  0.00     0.031 C 
ATOM     63  C   UNL A   1      43.051  29.293  35.319  1.00  0.00     0.029 A 
ATOM     64  C   UNL A   1      42.853  28.862  34.019  1.00  0.00     0.049 A 
ATOM     65  H   UNL A   1      41.388  29.449  32.619  1.00  0.00     0.167 HD
ATOM     66  C   UNL A   1      43.347  27.569  31.986  1.00  0.00     0.074 A 
ATOM     67  C   UNL A   1      44.162  26.685  31.186  1.00  0.00     0.031 C 
ATOM     68  C   UNL A   1      43.626  27.916  33.264  1.00  0.00     0.034 A 
BRANCH  55  69
ATOM     69  C   UNL A   1      39.685  32.010  35.573  1.00  0.00     0.023 A 
ATOM     70  C   UNL A   1      40.071  33.361  35.658  1.00  0.00     0.012 A 
ATOM     71  C   UNL A   1      38.821  31.467  36.546  1.00  0.00     0.148 A 
ATOM     72  C   UNL A   1      39.612  34.160  36.703  1.00  0.00     0.002 A 
ATOM     73  C   UNL A   1      38.343  32.279  37.567  1.00  0.00     0.091 A 
ATOM     74  F   UNL A   1      38.466  30.178  36.436  1.00  0.00    -0.205 F 
ATOM     75  C   UNL A   1      38.742  33.623  37.649  1.00  0.00     0.022 A 
BRANCH  73  76
ATOM     76  S   UNL A   1      37.169  31.707  38.800  1.00  0.00     0.127 S 
ATOM     77  O   UNL A   1      37.941  31.861  40.034  1.00  0.00    -0.237 OA
ATOM     78  O   UNL A   1      36.072  32.661  38.644  1.00  0.00    -0.237 OA
ATOM     79  O   UNL A   1      36.845  30.332  38.447  1.00  0.00    -0.744 OA
ENDBRANCH  73  76
ENDBRANCH  55  69
BRANCH  56  80
ATOM     80  C   UNL A   1      41.963  26.641  27.612  1.00  0.00     0.023 A 
ATOM     81  C   UNL A   1      42.540  27.228  26.467  1.00  0.00     0.012 A 
ATOM     82  C   UNL A   1      41.703  25.258  27.618  1.00  0.00     0.148 A 
ATOM     83  C   UNL A   1      42.837  26.457  25.343  1.00  0.00     0.002 A 
ATOM     84  C   UNL A   1      42.044  24.488  26.512  1.00  0.00     0.091 A 
ATOM     85  F   UNL A   1      41.122  24.726  28.702  1.00  0.00    -0.205 F 
ATOM     86  C   UNL A   1      42.599  25.085  25.369  1.00  0.00     0.022 A 
BRANCH  84  87
ATOM     87  S   UNL A   1      41.867  22.700  26.487  1.00  0.00     0.127 S 
ATOM     88  O   UNL A   1      42.404  22.364  25.170  1.00  0.00    -0.237 OA
ATOM     89  O   UNL A   1      42.708  22.299  27.616  1.00  0.00    -0.237 OA
ATOM     90  O   UNL A   1      40.445  22.443  26.674  1.00  0.00    -0.744 OA
ENDBRANCH  84  87
ENDBRANCH  56  80
BRANCH  68  91
ATOM     91  C   UNL A   1      44.845  27.333  33.930  1.00  0.00     0.023 A 
ATOM     92  C   UNL A   1      46.062  28.039  33.874  1.00  0.00     0.012 A 
ATOM     93  C   UNL A   1      44.750  26.174  34.725  1.00  0.00     0.148 A 
ATOM     94  C   UNL A   1      47.168  27.600  34.602  1.00  0.00     0.002 A 
ATOM     95  C   UNL A   1      45.848  25.759  35.471  1.00  0.00     0.091 A 
ATOM     96  F   UNL A   1      43.583  25.515  34.755  1.00  0.00    -0.205 F 
ATOM     97  C   UNL A   1      47.059  26.469  35.408  1.00  0.00     0.022 A 
BRANCH  95  98
ATOM     98  S   UNL A   1      45.786  24.358  36.596  1.00  0.00     0.127 S 
ATOM     99  O   UNL A   1      45.730  23.231  35.668  1.00  0.00    -0.237 OA
ATOM    100  O   UNL A   1      47.050  24.488  37.323  1.00  0.00    -0.237 OA
ATOM    101  O   UNL A   1      44.594  24.550  37.412  1.00  0.00    -0.744 OA
ENDBRANCH  95  98
ENDBRANCH  68  91
ENDBRANCH  42  43
ENDBRANCH  34  37
ENDBRANCH  32  33
ENDBRANCH   1  32
TORSDOF 16
ENDMDL
MODEL 3
REMARK VINA RESULT:     -13.7      1.629      2.126
REMARK SMILES O=C(CCN1C(=O)[C@@H]2[C@@H](C1=O)[C@H]1c3ccccc3[C@]2(Br)c2ccccc21)NCCCCNC(=O)c1ccc(-c2c3nc(c(-c4cccc(S(=O)(=O)[O-])c4F)c4ccc([nH]4)c(-c4cccc(S(=O)(=O)[O-])c4F)c4nc(c(-c5cccc(S(=O)(=O)[O-])c5F)c5ccc2[nH]5)C=C4)C=C3)cc1
REMARK SMILES IDX 30 1 29 2 28 3 27 4 1 5 2 6 3 8 4 9 5 10 6 11 10 12 7 13
REMARK SMILES IDX 8 14 9 15 11 16 19 17 12 18 21 19 20 20 18 21 26 22 13 23
REMARK SMILES IDX 22 24 17 25 25 26 14 27 23 28 16 29 24 30 15 31 31 32 32 33
REMARK SMILES IDX 33 34 34 36 35 37 36 38 97 39 37 40 96 41 38 42 39 43 40 44
REMARK SMILES IDX 90 45 41 46 95 47 89 48 91 49 42 50 94 51 88 52 87 53 43 55
REMARK SMILES IDX 75 56 55 57 74 58 56 59 59 60 73 61 92 62 57 63 58 64 72 66
REMARK SMILES IDX 93 67 60 68 44 69 45 70 53 71 46 72 48 73 54 74 47 75 49 76
REMARK SMILES IDX 50 77 51 78 52 79 76 80 77 81 85 82 78 83 80 84 86 85 79 86
REMARK SMILES IDX 81 87 82 88 83 89 84 90 61 91 62 92 70 93 63 94 65 95 71 96
REMARK SMILES IDX 64 97 66 98 67 99 68 100 69 101
REMARK H PARENT 27 7 32 35 91 54 59 65
REMARK Flexibility Score: inf
ROOT
ATOM      1  C   UNL A   1      38.641  21.380  25.327  1.00  0.00     0.023 C 
ENDROOT
BRANCH   1   2
ATOM      2  C   UNL A   1      38.444  22.662  26.161  1.00  0.00     0.023 C 
BRANCH   2   3
ATOM      3  C   UNL A   1      37.415  23.694  25.662  1.00  0.00     0.116 C 
BRANCH   3   4
ATOM      4  N   UNL A   1      36.815  23.437  24.356  1.00  0.00    -0.356 N 
ATOM      5  O   UNL A   1      34.660  23.670  25.127  1.00  0.00    -0.275 OA
ATOM      6  C   UNL A   1      35.438  23.478  24.195  1.00  0.00     0.221 C 
ATOM      7  H   UNL A   1      37.392  23.234  23.584  1.00  0.00     0.163 HD
BRANCH   6   8
ATOM      8  C   UNL A   1      34.911  23.271  22.784  1.00  0.00     0.122 C 
BRANCH   8   9
ATOM      9  C   UNL A   1      33.385  23.096  22.749  1.00  0.00     0.138 C 
BRANCH   9  10
ATOM     10  N   UNL A   1      32.593  24.310  22.885  1.00  0.00    -0.281 N 
ATOM     11  C   UNL A   1      32.892  25.521  22.269  1.00  0.00     0.235 C 
ATOM     12  C   UNL A   1      31.500  24.438  23.758  1.00  0.00     0.234 C 
ATOM     13  O   UNL A   1      33.653  25.746  21.340  1.00  0.00    -0.274 OA
ATOM     14  C   UNL A   1      32.304  26.489  23.218  1.00  0.00     0.118 C 
ATOM     15  C   UNL A   1      30.951  25.817  23.488  1.00  0.00     0.105 C 
ATOM     16  O   UNL A   1      31.038  23.604  24.514  1.00  0.00    -0.274 OA
ATOM     17  C   UNL A   1      32.160  27.997  23.275  1.00  0.00     0.088 C 
ATOM     18  C   UNL A   1      30.113  26.732  24.417  1.00  0.00     0.063 C 
ATOM     19  C   UNL A   1      32.141  28.096  24.844  1.00  0.00    -0.022 A 
ATOM     20  Br  UNL A   1      33.618  28.851  22.378  1.00  0.00    -0.074 Br
ATOM     21  C   UNL A   1      30.793  28.498  22.795  1.00  0.00    -0.022 A 
ATOM     22  C   UNL A   1      31.035  27.406  25.435  1.00  0.00    -0.035 A 
ATOM     23  C   UNL A   1      29.697  27.869  23.460  1.00  0.00    -0.035 A 
ATOM     24  C   UNL A   1      33.170  28.493  25.679  1.00  0.00     0.006 A 
ATOM     25  C   UNL A   1      30.544  29.563  21.926  1.00  0.00     0.006 A 
ATOM     26  C   UNL A   1      30.891  27.311  26.815  1.00  0.00     0.005 A 
ATOM     27  C   UNL A   1      28.398  28.338  23.291  1.00  0.00     0.005 A 
ATOM     28  C   UNL A   1      33.045  28.384  27.066  1.00  0.00     0.000 A 
ATOM     29  C   UNL A   1      29.238  30.018  21.749  1.00  0.00     0.000 A 
ATOM     30  C   UNL A   1      31.897  27.825  27.632  1.00  0.00     0.000 A 
ATOM     31  C   UNL A   1      28.178  29.419  22.434  1.00  0.00     0.000 A 
ENDBRANCH   9  10
ENDBRANCH   8   9
ENDBRANCH   6   8
ENDBRANCH   3   4
ENDBRANCH   2   3
ENDBRANCH   1   2
BRANCH   1  32
ATOM     32  C   UNL A   1      38.687  20.054  26.108  1.00  0.00     0.116 C 
BRANCH  32  33
ATOM     33  N   UNL A   1      39.839  19.199  25.888  1.00  0.00    -0.352 N 
ATOM     34  C   UNL A   1      41.191  19.492  26.019  1.00  0.00     0.251 C 
ATOM     35  H   UNL A   1      39.633  18.280  25.606  1.00  0.00     0.163 HD
ATOM     36  O   UNL A   1      42.012  18.599  25.813  1.00  0.00    -0.269 OA
BRANCH  34  37
ATOM     37  C   UNL A   1      41.687  20.860  26.365  1.00  0.00     0.039 A 
ATOM     38  C   UNL A   1      41.723  21.326  27.675  1.00  0.00     0.014 A 
ATOM     39  C   UNL A   1      42.224  21.682  25.376  1.00  0.00     0.014 A 
ATOM     40  C   UNL A   1      42.057  22.667  27.969  1.00  0.00     0.010 A 
ATOM     41  C   UNL A   1      42.668  22.986  25.688  1.00  0.00     0.010 A 
ATOM     42  C   UNL A   1      42.515  23.543  26.975  1.00  0.00    -0.014 A 
BRANCH  42  43
ATOM     43  C   UNL A   1      42.767  25.019  27.223  1.00  0.00     0.031 A 
ATOM     44  C   UNL A   1      44.062  25.660  26.734  1.00  0.00     0.074 A 
ATOM     45  C   UNL A   1      41.897  25.840  27.861  1.00  0.00     0.049 A 
ATOM     46  N   UNL A   1      44.576  26.832  27.024  1.00  0.00    -0.248 NA
ATOM     47  C   UNL A   1      44.893  24.871  25.808  1.00  0.00     0.031 C 
ATOM     48  C   UNL A   1      40.582  25.470  28.381  1.00  0.00     0.029 A 
ATOM     49  N   UNL A   1      41.999  27.183  28.183  1.00  0.00    -0.354 N 
ATOM     50  C   UNL A   1      45.830  26.866  26.419  1.00  0.00     0.074 A 
ATOM     51  C   UNL A   1      45.989  25.612  25.717  1.00  0.00     0.031 C 
ATOM     52  C   UNL A   1      39.984  26.556  28.900  1.00  0.00     0.029 A 
ATOM     53  C   UNL A   1      40.895  27.695  28.830  1.00  0.00     0.049 A 
ATOM     54  H   UNL A   1      42.793  27.726  27.968  1.00  0.00     0.167 HD
ATOM     55  C   UNL A   1      46.767  27.845  26.421  1.00  0.00     0.034 A 
ATOM     56  C   UNL A   1      40.637  28.922  29.340  1.00  0.00     0.034 A 
ATOM     57  C   UNL A   1      46.595  29.162  26.971  1.00  0.00     0.049 A 
ATOM     58  C   UNL A   1      41.678  30.013  29.299  1.00  0.00     0.074 A 
ATOM     59  C   UNL A   1      47.493  30.218  26.952  1.00  0.00     0.029 A 
ATOM     60  N   UNL A   1      45.451  29.622  27.594  1.00  0.00    -0.354 N 
ATOM     61  N   UNL A   1      42.853  30.012  28.723  1.00  0.00    -0.248 NA
ATOM     62  C   UNL A   1      41.355  31.276  29.989  1.00  0.00     0.031 C 
ATOM     63  C   UNL A   1      46.884  31.326  27.547  1.00  0.00     0.029 A 
ATOM     64  C   UNL A   1      45.611  30.952  27.942  1.00  0.00     0.049 A 
ATOM     65  H   UNL A   1      44.644  29.085  27.763  1.00  0.00     0.167 HD
ATOM     66  C   UNL A   1      43.398  31.270  28.966  1.00  0.00     0.074 A 
ATOM     67  C   UNL A   1      42.421  32.021  29.719  1.00  0.00     0.031 C 
ATOM     68  C   UNL A   1      44.618  31.740  28.617  1.00  0.00     0.034 A 
BRANCH  55  69
ATOM     69  C   UNL A   1      48.084  27.569  25.749  1.00  0.00     0.023 A 
ATOM     70  C   UNL A   1      49.154  27.059  26.507  1.00  0.00     0.012 A 
ATOM     71  C   UNL A   1      48.211  27.686  24.350  1.00  0.00     0.148 A 
ATOM     72  C   UNL A   1      50.340  26.678  25.885  1.00  0.00     0.002 A 
ATOM     73  C   UNL A   1      49.386  27.275  23.732  1.00  0.00     0.091 A 
ATOM     74  F   UNL A   1      47.172  28.171  23.653  1.00  0.00    -0.205 F 
ATOM     75  C   UNL A   1      50.452  26.776  24.499  1.00  0.00     0.022 A 
BRANCH  73  76
ATOM     76  S   UNL A   1      49.612  27.298  21.951  1.00  0.00     0.127 S 
ATOM     77  O   UNL A   1      51.016  26.903  21.828  1.00  0.00    -0.237 OA
ATOM     78  O   UNL A   1      48.653  26.287  21.508  1.00  0.00    -0.237 OA
ATOM     79  O   UNL A   1      49.317  28.658  21.522  1.00  0.00    -0.744 OA
ENDBRANCH  73  76
ENDBRANCH  55  69
BRANCH  56  80
ATOM     80  C   UNL A   1      39.296  29.228  29.922  1.00  0.00     0.023 A 
ATOM     81  C   UNL A   1      38.964  28.689  31.182  1.00  0.00     0.012 A 
ATOM     82  C   UNL A   1      38.349  30.018  29.242  1.00  0.00     0.148 A 
ATOM     83  C   UNL A   1      37.709  28.918  31.747  1.00  0.00     0.002 A 
ATOM     84  C   UNL A   1      37.118  30.280  29.832  1.00  0.00     0.091 A 
ATOM     85  F   UNL A   1      38.671  30.492  28.030  1.00  0.00    -0.205 F 
ATOM     86  C   UNL A   1      36.790  29.721  31.078  1.00  0.00     0.022 A 
BRANCH  84  87
ATOM     87  S   UNL A   1      35.907  31.383  29.094  1.00  0.00     0.127 S 
ATOM     88  O   UNL A   1      35.090  31.745  30.249  1.00  0.00    -0.237 OA
ATOM     89  O   UNL A   1      36.755  32.457  28.577  1.00  0.00    -0.237 OA
ATOM     90  O   UNL A   1      35.236  30.597  28.067  1.00  0.00    -0.744 OA
ENDBRANCH  84  87
ENDBRANCH  56  80
BRANCH  68  91
ATOM     91  C   UNL A   1      44.996  33.147  28.999  1.00  0.00     0.023 A 
ATOM     92  C   UNL A   1      45.777  33.358  30.151  1.00  0.00     0.012 A 
ATOM     93  C   UNL A   1      44.707  34.231  28.148  1.00  0.00     0.148 A 
ATOM     94  C   UNL A   1      46.266  34.630  30.451  1.00  0.00     0.002 A 
ATOM     95  C   UNL A   1      45.221  35.491  28.437  1.00  0.00     0.091 A 
ATOM     96  F   UNL A   1      43.954  34.005  27.061  1.00  0.00    -0.205 F 
ATOM     97  C   UNL A   1      45.998  35.692  29.590  1.00  0.00     0.022 A 
BRANCH  95  98
ATOM     98  S   UNL A   1      44.995  36.905  27.351  1.00  0.00     0.127 S 
ATOM     99  O   UNL A   1      45.225  38.023  28.265  1.00  0.00    -0.237 OA
ATOM    100  O   UNL A   1      46.049  36.704  26.355  1.00  0.00    -0.237 OA
ATOM    101  O   UNL A   1      43.639  36.801  26.829  1.00  0.00    -0.744 OA
ENDBRANCH  95  98
ENDBRANCH  68  91
ENDBRANCH  42  43
ENDBRANCH  34  37
ENDBRANCH  32  33
ENDBRANCH   1  32
TORSDOF 16
ENDMDL
