MODEL 1
REMARK VINA RESULT:     -12.2      0.000      0.000
REMARK SMILES Cc1ccc(NC(=O)c2ccc(SCC(=O)NCCCCNC(=O)c3ccc(-c4c5nc(c(-c6cccc(S(=O)(=O)[O-])c6F)c6ccc([nH]6)c(-c6cccc(S(=O)(=O)[O-])c6F)c6nc(c(-c7cccc(S(=O)(=O)[O-])c7F)c7ccc4[nH]7)C=C6)C=C5)cc3)c([N+](=O)[O-])c2)cc1
REMARK SMILES IDX 19 1 18 2 17 3 15 4 16 5 14 7 13 8 12 9 9 10 10 11 92 12
REMARK SMILES IDX 11 13 88 14 7 15 6 16 8 18 5 19 1 20 2 21 3 22 94 23 4 24
REMARK SMILES IDX 93 25 89 26 90 27 91 28 20 29 21 30 22 31 23 32 24 34 25 35
REMARK SMILES IDX 26 36 87 37 27 38 86 39 28 40 29 41 30 42 80 43 31 44 85 45
REMARK SMILES IDX 79 46 81 47 32 48 84 49 78 50 77 51 33 53 65 54 45 55 64 56
REMARK SMILES IDX 46 57 49 58 63 59 82 60 47 61 48 62 62 64 83 65 50 66 34 67
REMARK SMILES IDX 35 68 43 69 36 70 38 71 44 72 37 73 39 74 40 75 41 76 42 77
REMARK SMILES IDX 66 78 67 79 75 80 68 81 70 82 76 83 69 84 71 85 72 86 73 87
REMARK SMILES IDX 74 88 51 89 52 90 60 91 53 92 55 93 61 94 54 95 56 96 57 97
REMARK SMILES IDX 58 98 59 99
REMARK H PARENT 17 6 6 17 22 33 81 52 49 63
REMARK Flexibility Score: inf
ROOT
ATOM      1  C   UNL A   1      37.084  23.707  25.516  1.00  0.00     0.023 C 
ENDROOT
BRANCH   1   2
ATOM      2  C   UNL A   1      35.574  23.977  25.603  1.00  0.00     0.116 C 
BRANCH   2   3
ATOM      3  N   UNL A   1      34.966  23.310  26.738  1.00  0.00    -0.355 N 
ATOM      4  C   UNL A   1      33.807  22.604  26.821  1.00  0.00     0.230 C 
ATOM      5  O   UNL A   1      33.425  22.249  27.936  1.00  0.00    -0.274 OA
ATOM      6  H   UNL A   1      35.470  23.380  27.580  1.00  0.00     0.163 HD
BRANCH   4   7
ATOM      7  C   UNL A   1      33.024  22.241  25.582  1.00  0.00     0.175 C 
BRANCH   7   8
ATOM      8  S   UNL A   1      31.272  22.738  25.629  1.00  0.00    -0.109 SA
BRANCH   8   9
ATOM      9  C   UNL A   1      31.096  24.198  24.601  1.00  0.00     0.086 A 
ATOM     10  C   UNL A   1      30.749  26.780  23.430  1.00  0.00     0.047 A 
ATOM     11  C   UNL A   1      30.188  26.493  24.671  1.00  0.00     0.015 A 
ATOM     12  C   UNL A   1      31.504  25.797  22.784  1.00  0.00     0.100 A 
ATOM     13  C   UNL A   1      30.355  25.221  25.238  1.00  0.00     0.023 A 
ATOM     14  C   UNL A   1      31.666  24.519  23.360  1.00  0.00     0.283 A 
BRANCH  10  15
ATOM     15  C   UNL A   1      30.645  28.160  22.880  1.00  0.00     0.255 C 
ATOM     16  N   UNL A   1      31.067  29.240  23.621  1.00  0.00    -0.322 N 
ATOM     17  H   UNL A   1      30.632  30.096  23.406  1.00  0.00     0.170 HD
ATOM     18  O   UNL A   1      30.061  28.327  21.811  1.00  0.00    -0.269 OA
BRANCH  16  19
ATOM     19  C   UNL A   1      32.031  29.296  24.642  1.00  0.00     0.041 A 
ATOM     20  C   UNL A   1      34.806  29.296  27.936  1.00  0.00     0.044 C 
ATOM     21  C   UNL A   1      33.843  29.340  26.786  1.00  0.00    -0.051 A 
ATOM     22  C   UNL A   1      34.229  28.831  25.542  1.00  0.00     0.005 A 
ATOM     23  C   UNL A   1      32.556  29.867  26.936  1.00  0.00     0.005 A 
ATOM     24  C   UNL A   1      33.331  28.816  24.476  1.00  0.00     0.026 A 
ATOM     25  C   UNL A   1      31.660  29.865  25.863  1.00  0.00     0.026 A 
ENDBRANCH  16  19
ENDBRANCH  10  15
BRANCH  14  26
ATOM     26  N   UNL A   1      32.565  23.632  22.638  1.00  0.00     0.063 N 
ATOM     27  O   UNL A   1      32.183  22.472  22.438  1.00  0.00    -0.258 OA
ATOM     28  O   UNL A   1      33.700  24.061  22.386  1.00  0.00    -0.258 OA
ENDBRANCH  14  26
ENDBRANCH   8   9
ENDBRANCH   7   8
ENDBRANCH   4   7
ENDBRANCH   2   3
ENDBRANCH   1   2
BRANCH   1  29
ATOM     29  C   UNL A   1      37.538  22.325  25.998  1.00  0.00     0.023 C 
BRANCH  29  30
ATOM     30  C   UNL A   1      38.959  21.951  25.610  1.00  0.00     0.116 C 
BRANCH  30  31
ATOM     31  N   UNL A   1      39.859  21.775  26.734  1.00  0.00    -0.352 N 
ATOM     32  C   UNL A   1      40.584  22.713  27.445  1.00  0.00     0.251 C 
ATOM     33  H   UNL A   1      39.971  20.845  27.037  1.00  0.00     0.163 HD
ATOM     34  O   UNL A   1      41.443  22.300  28.227  1.00  0.00    -0.269 OA
BRANCH  32  35
ATOM     35  C   UNL A   1      40.247  24.162  27.386  1.00  0.00     0.039 A 
ATOM     36  C   UNL A   1      41.132  25.009  26.701  1.00  0.00     0.014 A 
ATOM     37  C   UNL A   1      39.237  24.718  28.164  1.00  0.00     0.014 A 
ATOM     38  C   UNL A   1      41.205  26.358  27.039  1.00  0.00     0.010 A 
ATOM     39  C   UNL A   1      39.348  26.032  28.558  1.00  0.00     0.010 A 
ATOM     40  C   UNL A   1      40.402  26.812  28.074  1.00  0.00    -0.014 A 
BRANCH  40  41
ATOM     41  C   UNL A   1      40.641  28.014  28.853  1.00  0.00     0.031 A 
ATOM     42  C   UNL A   1      39.783  29.200  28.680  1.00  0.00     0.074 A 
ATOM     43  C   UNL A   1      41.399  27.839  29.964  1.00  0.00     0.049 A 
ATOM     44  N   UNL A   1      39.960  30.309  29.313  1.00  0.00    -0.248 NA
ATOM     45  C   UNL A   1      38.641  29.235  27.767  1.00  0.00     0.031 C 
ATOM     46  C   UNL A   1      41.359  28.617  31.196  1.00  0.00     0.029 A 
ATOM     47  N   UNL A   1      42.479  26.967  30.169  1.00  0.00    -0.354 N 
ATOM     48  C   UNL A   1      38.780  31.009  29.208  1.00  0.00     0.074 A 
ATOM     49  C   UNL A   1      38.078  30.401  28.106  1.00  0.00     0.031 C 
ATOM     50  C   UNL A   1      42.495  28.404  31.879  1.00  0.00     0.029 A 
ATOM     51  C   UNL A   1      43.380  27.681  30.982  1.00  0.00     0.049 A 
ATOM     52  H   UNL A   1      42.586  26.053  29.820  1.00  0.00     0.167 HD
ATOM     53  C   UNL A   1      38.453  31.884  30.196  1.00  0.00     0.034 A 
ATOM     54  C   UNL A   1      44.587  28.155  30.535  1.00  0.00     0.034 A 
ATOM     55  C   UNL A   1      39.609  32.158  31.063  1.00  0.00     0.049 A 
ATOM     56  C   UNL A   1      44.721  29.671  30.648  1.00  0.00     0.074 A 
ATOM     57  C   UNL A   1      39.931  31.813  32.364  1.00  0.00     0.029 A 
ATOM     58  N   UNL A   1      40.777  32.666  30.496  1.00  0.00    -0.354 N 
ATOM     59  N   UNL A   1      43.742  30.468  30.980  1.00  0.00    -0.248 NA
ATOM     60  C   UNL A   1      45.952  30.414  30.381  1.00  0.00     0.031 C 
ATOM     61  C   UNL A   1      41.342  31.964  32.514  1.00  0.00     0.029 A 
ATOM     62  C   UNL A   1      41.864  32.462  31.330  1.00  0.00     0.049 A 
ATOM     63  H   UNL A   1      40.823  33.113  29.619  1.00  0.00     0.167 HD
ATOM     64  C   UNL A   1      44.118  31.775  30.827  1.00  0.00     0.074 A 
ATOM     65  C   UNL A   1      45.541  31.686  30.542  1.00  0.00     0.031 C 
ATOM     66  C   UNL A   1      43.214  32.804  30.876  1.00  0.00     0.034 A 
BRANCH  53  67
ATOM     67  C   UNL A   1      37.044  32.359  30.516  1.00  0.00     0.023 A 
ATOM     68  C   UNL A   1      36.521  32.031  31.788  1.00  0.00     0.012 A 
ATOM     69  C   UNL A   1      36.145  33.004  29.626  1.00  0.00     0.148 A 
ATOM     70  C   UNL A   1      35.201  32.327  32.156  1.00  0.00     0.002 A 
ATOM     71  C   UNL A   1      34.854  33.372  30.023  1.00  0.00     0.091 A 
ATOM     72  F   UNL A   1      36.476  33.175  28.343  1.00  0.00    -0.205 F 
ATOM     73  C   UNL A   1      34.373  33.019  31.284  1.00  0.00     0.022 A 
BRANCH  71  74
ATOM     74  S   UNL A   1      33.758  34.333  28.960  1.00  0.00     0.127 S 
ATOM     75  O   UNL A   1      32.727  34.777  29.896  1.00  0.00    -0.237 OA
ATOM     76  O   UNL A   1      34.640  35.396  28.476  1.00  0.00    -0.237 OA
ATOM     77  O   UNL A   1      33.303  33.418  27.918  1.00  0.00    -0.744 OA
ENDBRANCH  71  74
ENDBRANCH  53  67
BRANCH  54  78
ATOM     78  C   UNL A   1      45.194  27.302  29.466  1.00  0.00     0.023 A 
ATOM     79  C   UNL A   1      45.523  25.975  29.831  1.00  0.00     0.012 A 
ATOM     80  C   UNL A   1      45.040  27.611  28.102  1.00  0.00     0.148 A 
ATOM     81  C   UNL A   1      45.504  24.947  28.886  1.00  0.00     0.002 A 
ATOM     82  C   UNL A   1      45.040  26.580  27.161  1.00  0.00     0.091 A 
ATOM     83  F   UNL A   1      44.824  28.885  27.751  1.00  0.00    -0.205 F 
ATOM     84  C   UNL A   1      45.216  25.245  27.559  1.00  0.00     0.022 A 
BRANCH  82  85
ATOM     85  S   UNL A   1      44.692  26.894  25.424  1.00  0.00     0.127 S 
ATOM     86  O   UNL A   1      46.021  27.214  24.911  1.00  0.00    -0.237 OA
ATOM     87  O   UNL A   1      44.152  25.613  24.970  1.00  0.00    -0.237 OA
ATOM     88  O   UNL A   1      43.721  27.978  25.431  1.00  0.00    -0.744 OA
ENDBRANCH  82  85
ENDBRANCH  54  78
BRANCH  66  89
ATOM     89  C   UNL A   1      43.517  34.236  30.467  1.00  0.00     0.023 A 
ATOM     90  C   UNL A   1      43.929  35.211  31.398  1.00  0.00     0.012 A 
ATOM     91  C   UNL A   1      43.543  34.614  29.100  1.00  0.00     0.148 A 
ATOM     92  C   UNL A   1      44.263  36.514  31.011  1.00  0.00     0.002 A 
ATOM     93  C   UNL A   1      43.985  35.877  28.710  1.00  0.00     0.091 A 
ATOM     94  F   UNL A   1      43.119  33.752  28.163  1.00  0.00    -0.205 F 
ATOM     95  C   UNL A   1      44.309  36.842  29.664  1.00  0.00     0.022 A 
BRANCH  93  96
ATOM     96  S   UNL A   1      44.298  36.257  26.979  1.00  0.00     0.127 S 
ATOM     97  O   UNL A   1      44.972  37.549  27.067  1.00  0.00    -0.237 OA
ATOM     98  O   UNL A   1      45.159  35.149  26.562  1.00  0.00    -0.237 OA
ATOM     99  O   UNL A   1      42.985  36.256  26.348  1.00  0.00    -0.744 OA
ENDBRANCH  93  96
ENDBRANCH  66  89
ENDBRANCH  40  41
ENDBRANCH  32  35
ENDBRANCH  30  31
ENDBRANCH  29  30
ENDBRANCH   1  29
TORSDOF 19
ENDMDL
MODEL 2
REMARK VINA RESULT:     -11.8      2.669      3.507
REMARK SMILES Cc1ccc(NC(=O)c2ccc(SCC(=O)NCCCCNC(=O)c3ccc(-c4c5nc(c(-c6cccc(S(=O)(=O)[O-])c6F)c6ccc([nH]6)c(-c6cccc(S(=O)(=O)[O-])c6F)c6nc(c(-c7cccc(S(=O)(=O)[O-])c7F)c7ccc4[nH]7)C=C6)C=C5)cc3)c([N+](=O)[O-])c2)cc1
REMARK SMILES IDX 19 1 18 2 17 3 15 4 16 5 14 7 13 8 12 9 9 10 10 11 92 12
REMARK SMILES IDX 11 13 88 14 7 15 6 16 8 18 5 19 1 20 2 21 3 22 94 23 4 24
REMARK SMILES IDX 93 25 89 26 90 27 91 28 20 29 21 30 22 31 23 32 24 34 25 35
REMARK SMILES IDX 26 36 87 37 27 38 86 39 28 40 29 41 30 42 80 43 31 44 85 45
REMARK SMILES IDX 79 46 81 47 32 48 84 49 78 50 77 51 33 53 65 54 45 55 64 56
REMARK SMILES IDX 46 57 49 58 63 59 82 60 47 61 48 62 62 64 83 65 50 66 34 67
REMARK SMILES IDX 35 68 43 69 36 70 38 71 44 72 37 73 39 74 40 75 41 76 42 77
REMARK SMILES IDX 66 78 67 79 75 80 68 81 70 82 76 83 69 84 71 85 72 86 73 87
REMARK SMILES IDX 74 88 51 89 52 90 60 91 53 92 55 93 61 94 54 95 56 96 57 97
REMARK SMILES IDX 58 98 59 99
REMARK H PARENT 17 6 6 17 22 33 81 52 49 63
REMARK Flexibility Score: inf
ROOT
ATOM      1  C   UNL A   1      37.445  23.888  26.065  1.00  0.00     0.023 C 
ENDROOT
BRANCH   1   2
ATOM      2  C   UNL A   1      36.218  24.001  25.148  1.00  0.00     0.116 C 
BRANCH   2   3
ATOM      3  N   UNL A   1      34.986  23.687  25.845  1.00  0.00    -0.355 N 
ATOM      4  C   UNL A   1      33.737  23.462  25.358  1.00  0.00     0.230 C 
ATOM      5  O   UNL A   1      32.813  23.353  26.165  1.00  0.00    -0.274 OA
ATOM      6  H   UNL A   1      35.066  23.629  26.825  1.00  0.00     0.163 HD
BRANCH   4   7
ATOM      7  C   UNL A   1      33.491  23.322  23.876  1.00  0.00     0.175 C 
BRANCH   7   8
ATOM      8  S   UNL A   1      31.735  23.389  23.396  1.00  0.00    -0.109 SA
BRANCH   8   9
ATOM      9  C   UNL A   1      31.316  25.111  23.119  1.00  0.00     0.086 A 
ATOM     10  C   UNL A   1      30.477  27.841  23.187  1.00  0.00     0.047 A 
ATOM     11  C   UNL A   1      29.886  26.906  24.031  1.00  0.00     0.015 A 
ATOM     12  C   UNL A   1      31.502  27.428  22.330  1.00  0.00     0.100 A 
ATOM     13  C   UNL A   1      30.296  25.565  23.989  1.00  0.00     0.023 A 
ATOM     14  C   UNL A   1      31.907  26.077  22.291  1.00  0.00     0.283 A 
BRANCH  10  15
ATOM     15  C   UNL A   1      30.101  29.277  23.305  1.00  0.00     0.255 C 
ATOM     16  N   UNL A   1      30.573  30.038  24.352  1.00  0.00    -0.322 N 
ATOM     17  H   UNL A   1      30.012  30.807  24.601  1.00  0.00     0.170 HD
ATOM     18  O   UNL A   1      29.265  29.734  22.529  1.00  0.00    -0.269 OA
BRANCH  16  19
ATOM     19  C   UNL A   1      31.742  29.873  25.115  1.00  0.00     0.041 A 
ATOM     20  C   UNL A   1      35.161  29.216  27.650  1.00  0.00     0.044 C 
ATOM     21  C   UNL A   1      33.980  29.489  26.765  1.00  0.00    -0.051 A 
ATOM     22  C   UNL A   1      33.981  29.017  25.448  1.00  0.00     0.005 A 
ATOM     23  C   UNL A   1      32.867  30.192  27.235  1.00  0.00     0.005 A 
ATOM     24  C   UNL A   1      32.872  29.215  24.627  1.00  0.00     0.026 A 
ATOM     25  C   UNL A   1      31.760  30.403  26.407  1.00  0.00     0.026 A 
ENDBRANCH  16  19
ENDBRANCH  10  15
BRANCH  14  26
ATOM     26  N   UNL A   1      33.055  25.807  21.440  1.00  0.00     0.063 N 
ATOM     27  O   UNL A   1      34.166  26.165  21.852  1.00  0.00    -0.258 OA
ATOM     28  O   UNL A   1      32.827  25.356  20.309  1.00  0.00    -0.258 OA
ENDBRANCH  14  26
ENDBRANCH   8   9
ENDBRANCH   7   8
ENDBRANCH   4   7
ENDBRANCH   2   3
ENDBRANCH   1   2
BRANCH   1  29
ATOM     29  C   UNL A   1      38.245  22.587  25.943  1.00  0.00     0.023 C 
BRANCH  29  30
ATOM     30  C   UNL A   1      39.646  22.643  26.532  1.00  0.00     0.116 C 
BRANCH  30  31
ATOM     31  N   UNL A   1      40.403  21.414  26.393  1.00  0.00    -0.352 N 
ATOM     32  C   UNL A   1      41.769  21.207  26.417  1.00  0.00     0.251 C 
ATOM     33  H   UNL A   1      39.860  20.603  26.260  1.00  0.00     0.163 HD
ATOM     34  O   UNL A   1      42.187  20.101  26.067  1.00  0.00    -0.269 OA
BRANCH  32  35
ATOM     35  C   UNL A   1      42.698  22.223  26.983  1.00  0.00     0.039 A 
ATOM     36  C   UNL A   1      42.683  22.415  28.374  1.00  0.00     0.014 A 
ATOM     37  C   UNL A   1      43.387  23.125  26.179  1.00  0.00     0.014 A 
ATOM     38  C   UNL A   1      43.072  23.640  28.911  1.00  0.00     0.010 A 
ATOM     39  C   UNL A   1      43.705  24.362  26.689  1.00  0.00     0.010 A 
ATOM     40  C   UNL A   1      43.441  24.647  28.031  1.00  0.00    -0.014 A 
BRANCH  40  41
ATOM     41  C   UNL A   1      43.440  26.066  28.336  1.00  0.00     0.031 A 
ATOM     42  C   UNL A   1      42.202  26.856  28.212  1.00  0.00     0.074 A 
ATOM     43  C   UNL A   1      44.486  26.495  29.086  1.00  0.00     0.049 A 
ATOM     44  N   UNL A   1      42.137  28.124  28.434  1.00  0.00    -0.248 NA
ATOM     45  C   UNL A   1      40.918  26.275  27.820  1.00  0.00     0.031 C 
ATOM     46  C   UNL A   1      44.513  27.625  30.006  1.00  0.00     0.029 A 
ATOM     47  N   UNL A   1      45.819  26.055  29.077  1.00  0.00    -0.354 N 
ATOM     48  C   UNL A   1      40.805  28.420  28.612  1.00  0.00     0.074 A 
ATOM     49  C   UNL A   1      40.093  27.304  28.045  1.00  0.00     0.031 C 
ATOM     50  C   UNL A   1      45.792  27.962  30.239  1.00  0.00     0.029 A 
ATOM     51  C   UNL A   1      46.591  27.214  29.285  1.00  0.00     0.049 A 
ATOM     52  H   UNL A   1      46.145  25.135  28.952  1.00  0.00     0.167 HD
ATOM     53  C   UNL A   1      40.474  29.479  29.399  1.00  0.00     0.034 A 
ATOM     54  C   UNL A   1      47.373  27.783  28.313  1.00  0.00     0.034 A 
ATOM     55  C   UNL A   1      41.647  30.325  29.668  1.00  0.00     0.049 A 
ATOM     56  C   UNL A   1      46.980  29.222  27.986  1.00  0.00     0.074 A 
ATOM     57  C   UNL A   1      42.418  30.559  30.793  1.00  0.00     0.029 A 
ATOM     58  N   UNL A   1      42.348  30.873  28.595  1.00  0.00    -0.354 N 
ATOM     59  N   UNL A   1      45.913  29.811  28.454  1.00  0.00    -0.248 NA
ATOM     60  C   UNL A   1      47.737  30.104  27.099  1.00  0.00     0.031 C 
ATOM     61  C   UNL A   1      43.664  31.103  30.357  1.00  0.00     0.029 A 
ATOM     62  C   UNL A   1      43.622  31.259  28.980  1.00  0.00     0.049 A 
ATOM     63  H   UNL A   1      41.986  30.973  27.685  1.00  0.00     0.167 HD
ATOM     64  C   UNL A   1      45.738  31.027  27.851  1.00  0.00     0.074 A 
ATOM     65  C   UNL A   1      46.959  31.202  27.082  1.00  0.00     0.031 C 
ATOM     66  C   UNL A   1      44.577  31.744  27.979  1.00  0.00     0.034 A 
BRANCH  53  67
ATOM     67  C   UNL A   1      39.136  29.667  30.098  1.00  0.00     0.023 A 
ATOM     68  C   UNL A   1      38.661  28.595  30.888  1.00  0.00     0.012 A 
ATOM     69  C   UNL A   1      38.251  30.767  29.952  1.00  0.00     0.148 A 
ATOM     70  C   UNL A   1      37.398  28.614  31.497  1.00  0.00     0.002 A 
ATOM     71  C   UNL A   1      37.026  30.820  30.626  1.00  0.00     0.091 A 
ATOM     72  F   UNL A   1      38.521  31.735  29.071  1.00  0.00    -0.205 F 
ATOM     73  C   UNL A   1      36.588  29.735  31.387  1.00  0.00     0.022 A 
BRANCH  71  74
ATOM     74  S   UNL A   1      35.963  32.278  30.580  1.00  0.00     0.127 S 
ATOM     75  O   UNL A   1      36.884  33.346  30.963  1.00  0.00    -0.237 OA
ATOM     76  O   UNL A   1      35.540  32.314  29.179  1.00  0.00    -0.237 OA
ATOM     77  O   UNL A   1      34.880  32.017  31.522  1.00  0.00    -0.744 OA
ENDBRANCH  71  74
ENDBRANCH  53  67
BRANCH  54  78
ATOM     78  C   UNL A   1      47.923  26.787  27.342  1.00  0.00     0.023 A 
ATOM     79  C   UNL A   1      47.092  26.454  26.244  1.00  0.00     0.012 A 
ATOM     80  C   UNL A   1      49.304  26.537  27.246  1.00  0.00     0.148 A 
ATOM     81  C   UNL A   1      47.644  26.069  25.021  1.00  0.00     0.002 A 
ATOM     82  C   UNL A   1      49.845  26.135  26.024  1.00  0.00     0.091 A 
ATOM     83  F   UNL A   1      50.074  26.762  28.318  1.00  0.00    -0.205 F 
ATOM     84  C   UNL A   1      49.024  25.956  24.899  1.00  0.00     0.022 A 
BRANCH  82  85
ATOM     85  S   UNL A   1      51.621  25.952  25.798  1.00  0.00     0.127 S 
ATOM     86  O   UNL A   1      51.878  24.698  26.500  1.00  0.00    -0.237 OA
ATOM     87  O   UNL A   1      51.752  25.879  24.344  1.00  0.00    -0.237 OA
ATOM     88  O   UNL A   1      52.195  27.153  26.386  1.00  0.00    -0.744 OA
ENDBRANCH  82  85
ENDBRANCH  54  78
BRANCH  66  89
ATOM     89  C   UNL A   1      44.221  32.962  27.145  1.00  0.00     0.023 A 
ATOM     90  C   UNL A   1      44.085  32.898  25.743  1.00  0.00     0.012 A 
ATOM     91  C   UNL A   1      43.861  34.188  27.761  1.00  0.00     0.148 A 
ATOM     92  C   UNL A   1      43.700  34.008  24.982  1.00  0.00     0.002 A 
ATOM     93  C   UNL A   1      43.370  35.256  27.010  1.00  0.00     0.091 A 
ATOM     94  F   UNL A   1      44.010  34.337  29.086  1.00  0.00    -0.205 F 
ATOM     95  C   UNL A   1      43.325  35.182  25.618  1.00  0.00     0.022 A 
BRANCH  93  96
ATOM     96  S   UNL A   1      42.640  36.694  27.808  1.00  0.00     0.127 S 
ATOM     97  O   UNL A   1      42.154  37.463  26.666  1.00  0.00    -0.237 OA
ATOM     98  O   UNL A   1      41.588  36.098  28.634  1.00  0.00    -0.237 OA
ATOM     99  O   UNL A   1      43.726  37.293  28.573  1.00  0.00    -0.744 OA
ENDBRANCH  93  96
ENDBRANCH  66  89
ENDBRANCH  40  41
ENDBRANCH  32  35
ENDBRANCH  30  31
ENDBRANCH  29  30
ENDBRANCH   1  29
TORSDOF 19
ENDMDL
MODEL 3
REMARK VINA RESULT:     -11.7      4.009      9.455
REMARK SMILES Cc1ccc(NC(=O)c2ccc(SCC(=O)NCCCCNC(=O)c3ccc(-c4c5nc(c(-c6cccc(S(=O)(=O)[O-])c6F)c6ccc([nH]6)c(-c6cccc(S(=O)(=O)[O-])c6F)c6nc(c(-c7cccc(S(=O)(=O)[O-])c7F)c7ccc4[nH]7)C=C6)C=C5)cc3)c([N+](=O)[O-])c2)cc1
REMARK SMILES IDX 19 1 18 2 17 3 15 4 16 5 14 7 13 8 12 9 9 10 10 11 92 12
REMARK SMILES IDX 11 13 88 14 7 15 6 16 8 18 5 19 1 20 2 21 3 22 94 23 4 24
REMARK SMILES IDX 93 25 89 26 90 27 91 28 20 29 21 30 22 31 23 32 24 34 25 35
REMARK SMILES IDX 26 36 87 37 27 38 86 39 28 40 29 41 30 42 80 43 31 44 85 45
REMARK SMILES IDX 79 46 81 47 32 48 84 49 78 50 77 51 33 53 65 54 45 55 64 56
REMARK SMILES IDX 46 57 49 58 63 59 82 60 47 61 48 62 62 64 83 65 50 66 34 67
REMARK SMILES IDX 35 68 43 69 36 70 38 71 44 72 37 73 39 74 40 75 41 76 42 77
REMARK SMILES IDX 66 78 67 79 75 80 68 81 70 82 76 83 69 84 71 85 72 86 73 87
REMARK SMILES IDX 74 88 51 89 52 90 60 91 53 92 55 93 61 94 54 95 56 96 57 97
REMARK SMILES IDX 58 98 59 99
REMARK H PARENT 17 6 6 17 22 33 81 52 49 63
REMARK Flexibility Score: inf
ROOT
ATOM      1  C   UNL A   1      32.887  30.250  26.382  1.00  0.00     0.023 C 
ENDROOT
BRANCH   1   2
ATOM      2  C   UNL A   1      32.529  29.209  25.311  1.00  0.00     0.116 C 
BRANCH   2   3
ATOM      3  N   UNL A   1      33.256  27.967  25.494  1.00  0.00    -0.355 N 
ATOM      4  C   UNL A   1      33.190  26.803  24.796  1.00  0.00     0.230 C 
ATOM      5  O   UNL A   1      33.808  25.831  25.233  1.00  0.00    -0.274 OA
ATOM      6  H   UNL A   1      33.896  27.967  26.243  1.00  0.00     0.163 HD
BRANCH   4   7
ATOM      7  C   UNL A   1      32.408  26.708  23.509  1.00  0.00     0.175 C 
BRANCH   7   8
ATOM      8  S   UNL A   1      30.858  25.759  23.640  1.00  0.00    -0.109 SA
BRANCH   8   9
ATOM      9  C   UNL A   1      31.278  24.115  24.222  1.00  0.00     0.086 A 
ATOM     10  C   UNL A   1      32.351  21.530  24.796  1.00  0.00     0.047 A 
ATOM     11  C   UNL A   1      32.557  22.112  23.548  1.00  0.00     0.015 A 
ATOM     12  C   UNL A   1      31.639  22.241  25.766  1.00  0.00     0.100 A 
ATOM     13  C   UNL A   1      32.022  23.378  23.269  1.00  0.00     0.023 A 
ATOM     14  C   UNL A   1      31.101  23.514  25.477  1.00  0.00     0.283 A 
BRANCH  10  15
ATOM     15  C   UNL A   1      33.001  20.229  25.114  1.00  0.00     0.255 C 
ATOM     16  N   UNL A   1      34.374  20.114  25.105  1.00  0.00    -0.322 N 
ATOM     17  H   UNL A   1      34.721  19.210  24.927  1.00  0.00     0.170 HD
ATOM     18  O   UNL A   1      32.293  19.235  25.258  1.00  0.00    -0.269 OA
BRANCH  16  19
ATOM     19  C   UNL A   1      35.351  21.103  25.314  1.00  0.00     0.041 A 
ATOM     20  C   UNL A   1      38.338  24.063  26.241  1.00  0.00     0.044 C 
ATOM     21  C   UNL A   1      37.275  23.063  25.895  1.00  0.00    -0.051 A 
ATOM     22  C   UNL A   1      37.569  22.022  25.008  1.00  0.00     0.005 A 
ATOM     23  C   UNL A   1      35.996  23.138  26.455  1.00  0.00     0.005 A 
ATOM     24  C   UNL A   1      36.610  21.053  24.714  1.00  0.00     0.026 A 
ATOM     25  C   UNL A   1      35.030  22.174  26.150  1.00  0.00     0.026 A 
ENDBRANCH  16  19
ENDBRANCH  10  15
BRANCH  14  26
ATOM     26  N   UNL A   1      30.482  24.187  26.608  1.00  0.00     0.063 N 
ATOM     27  O   UNL A   1      29.695  23.530  27.300  1.00  0.00    -0.258 OA
ATOM     28  O   UNL A   1      30.688  25.403  26.723  1.00  0.00    -0.258 OA
ENDBRANCH  14  26
ENDBRANCH   8   9
ENDBRANCH   7   8
ENDBRANCH   4   7
ENDBRANCH   2   3
ENDBRANCH   1   2
BRANCH   1  29
ATOM     29  C   UNL A   1      34.046  29.873  27.311  1.00  0.00     0.023 C 
BRANCH  29  30
ATOM     30  C   UNL A   1      34.972  31.023  27.673  1.00  0.00     0.116 C 
BRANCH  30  31
ATOM     31  N   UNL A   1      34.290  32.271  27.963  1.00  0.00    -0.352 N 
ATOM     32  C   UNL A   1      34.518  33.192  28.968  1.00  0.00     0.251 C 
ATOM     33  H   UNL A   1      33.553  32.495  27.350  1.00  0.00     0.163 HD
ATOM     34  O   UNL A   1      33.673  34.074  29.137  1.00  0.00    -0.269 OA
BRANCH  32  35
ATOM     35  C   UNL A   1      35.801  33.216  29.723  1.00  0.00     0.039 A 
ATOM     36  C   UNL A   1      36.963  33.569  29.020  1.00  0.00     0.014 A 
ATOM     37  C   UNL A   1      35.914  32.687  31.004  1.00  0.00     0.014 A 
ATOM     38  C   UNL A   1      38.205  33.112  29.454  1.00  0.00     0.010 A 
ATOM     39  C   UNL A   1      37.125  32.168  31.405  1.00  0.00     0.010 A 
ATOM     40  C   UNL A   1      38.239  32.290  30.571  1.00  0.00    -0.014 A 
BRANCH  40  41
ATOM     41  C   UNL A   1      39.318  31.378  30.904  1.00  0.00     0.031 A 
ATOM     42  C   UNL A   1      39.354  30.021  30.329  1.00  0.00     0.074 A 
ATOM     43  C   UNL A   1      40.428  31.962  31.421  1.00  0.00     0.049 A 
ATOM     44  N   UNL A   1      40.263  29.150  30.608  1.00  0.00    -0.248 NA
ATOM     45  C   UNL A   1      38.357  29.527  29.381  1.00  0.00     0.031 C 
ATOM     46  C   UNL A   1      41.804  31.489  31.328  1.00  0.00     0.029 A 
ATOM     47  N   UNL A   1      40.528  33.078  32.266  1.00  0.00    -0.354 N 
ATOM     48  C   UNL A   1      40.205  28.197  29.618  1.00  0.00     0.074 A 
ATOM     49  C   UNL A   1      38.913  28.370  29.004  1.00  0.00     0.031 C 
ATOM     50  C   UNL A   1      42.535  32.100  32.274  1.00  0.00     0.029 A 
ATOM     51  C   UNL A   1      41.592  32.785  33.140  1.00  0.00     0.049 A 
ATOM     52  H   UNL A   1      39.973  33.891  32.252  1.00  0.00     0.167 HD
ATOM     53  C   UNL A   1      41.339  27.513  29.306  1.00  0.00     0.034 A 
ATOM     54  C   UNL A   1      41.418  32.509  34.472  1.00  0.00     0.034 A 
ATOM     55  C   UNL A   1      42.372  27.707  30.334  1.00  0.00     0.049 A 
ATOM     56  C   UNL A   1      41.926  31.126  34.874  1.00  0.00     0.074 A 
ATOM     57  C   UNL A   1      43.572  28.397  30.365  1.00  0.00     0.029 A 
ATOM     58  N   UNL A   1      42.088  27.362  31.655  1.00  0.00    -0.354 N 
ATOM     59  N   UNL A   1      42.335  30.223  34.023  1.00  0.00    -0.248 NA
ATOM     60  C   UNL A   1      41.997  30.639  36.251  1.00  0.00     0.031 C 
ATOM     61  C   UNL A   1      43.915  28.605  31.735  1.00  0.00     0.029 A 
ATOM     62  C   UNL A   1      42.962  27.987  32.531  1.00  0.00     0.049 A 
ATOM     63  H   UNL A   1      41.364  26.754  31.929  1.00  0.00     0.167 HD
ATOM     64  C   UNL A   1      42.561  29.035  34.662  1.00  0.00     0.074 A 
ATOM     65  C   UNL A   1      42.426  29.376  36.070  1.00  0.00     0.031 C 
ATOM     66  C   UNL A   1      42.765  27.865  33.977  1.00  0.00     0.034 A 
BRANCH  53  67
ATOM     67  C   UNL A   1      41.606  26.816  27.981  1.00  0.00     0.023 A 
ATOM     68  C   UNL A   1      41.478  27.589  26.804  1.00  0.00     0.012 A 
ATOM     69  C   UNL A   1      41.861  25.433  27.787  1.00  0.00     0.148 A 
ATOM     70  C   UNL A   1      41.601  27.032  25.524  1.00  0.00     0.002 A 
ATOM     71  C   UNL A   1      42.065  24.894  26.512  1.00  0.00     0.091 A 
ATOM     72  F   UNL A   1      41.801  24.587  28.820  1.00  0.00    -0.205 F 
ATOM     73  C   UNL A   1      41.918  25.689  25.375  1.00  0.00     0.022 A 
BRANCH  71  74
ATOM     74  S   UNL A   1      42.548  23.174  26.259  1.00  0.00     0.127 S 
ATOM     75  O   UNL A   1      41.304  22.458  26.533  1.00  0.00    -0.237 OA
ATOM     76  O   UNL A   1      42.957  23.165  24.854  1.00  0.00    -0.237 OA
ATOM     77  O   UNL A   1      43.636  22.919  27.197  1.00  0.00    -0.744 OA
ENDBRANCH  71  74
ENDBRANCH  53  67
BRANCH  54  78
ATOM     78  C   UNL A   1      40.245  33.216  35.072  1.00  0.00     0.023 A 
ATOM     79  C   UNL A   1      38.997  32.552  34.981  1.00  0.00     0.012 A 
ATOM     80  C   UNL A   1      40.408  34.220  36.044  1.00  0.00     0.148 A 
ATOM     81  C   UNL A   1      38.013  32.744  35.952  1.00  0.00     0.002 A 
ATOM     82  C   UNL A   1      39.411  34.418  36.999  1.00  0.00     0.091 A 
ATOM     83  F   UNL A   1      41.554  34.913  36.066  1.00  0.00    -0.205 F 
ATOM     84  C   UNL A   1      38.240  33.643  36.987  1.00  0.00     0.022 A 
BRANCH  82  85
ATOM     85  S   UNL A   1      39.630  35.578  38.358  1.00  0.00     0.127 S 
ATOM     86  O   UNL A   1      38.493  35.247  39.212  1.00  0.00    -0.237 OA
ATOM     87  O   UNL A   1      40.934  35.195  38.898  1.00  0.00    -0.237 OA
ATOM     88  O   UNL A   1      39.609  36.891  37.732  1.00  0.00    -0.744 OA
ENDBRANCH  82  85
ENDBRANCH  54  78
BRANCH  66  89
ATOM     89  C   UNL A   1      42.769  26.485  34.612  1.00  0.00     0.023 A 
ATOM     90  C   UNL A   1      41.629  25.946  35.244  1.00  0.00     0.012 A 
ATOM     91  C   UNL A   1      43.881  25.617  34.462  1.00  0.00     0.148 A 
ATOM     92  C   UNL A   1      41.617  24.652  35.777  1.00  0.00     0.002 A 
ATOM     93  C   UNL A   1      43.824  24.292  34.894  1.00  0.00     0.091 A 
ATOM     94  F   UNL A   1      45.015  26.076  33.913  1.00  0.00    -0.205 F 
ATOM     95  C   UNL A   1      42.709  23.818  35.585  1.00  0.00     0.022 A 
BRANCH  93  96
ATOM     96  S   UNL A   1      45.107  23.114  34.445  1.00  0.00     0.127 S 
ATOM     97  O   UNL A   1      46.252  23.603  35.207  1.00  0.00    -0.237 OA
ATOM     98  O   UNL A   1      44.554  21.845  34.925  1.00  0.00    -0.237 OA
ATOM     99  O   UNL A   1      45.212  23.203  32.995  1.00  0.00    -0.744 OA
ENDBRANCH  93  96
ENDBRANCH  66  89
ENDBRANCH  40  41
ENDBRANCH  32  35
ENDBRANCH  30  31
ENDBRANCH  29  30
ENDBRANCH   1  29
TORSDOF 19
ENDMDL
