MODEL 1
REMARK VINA RESULT:     -11.8      0.000      0.000
REMARK SMILES O=C(NCCCCNC(=O)[C@H](CCc1ccccn1)c1ccccc1Br)c1ccc(-c2c3nc(c(-c4cccc(S(=O)(=O)[O-])c4F)c4ccc([nH]4)c(-c4cccc(S(=O)(=O)[O-])c4F)c4nc(c(-c5cccc(S(=O)(=O)[O-])c5F)c5ccc2[nH]5)C=C4)C=C3)cc1
REMARK SMILES IDX 5 1 4 2 3 3 1 4 2 5 27 7 28 8 89 9 29 10 88 11 30 12 31 13
REMARK SMILES IDX 32 14 82 15 33 16 87 17 81 18 83 19 34 20 86 21 80 22 79 23
REMARK SMILES IDX 35 25 67 26 47 27 66 28 48 29 51 30 65 31 84 32 49 33 50 34
REMARK SMILES IDX 64 36 85 37 52 38 36 39 37 40 45 41 38 42 40 43 46 44 39 45
REMARK SMILES IDX 41 46 42 47 43 48 44 49 68 50 69 51 77 52 70 53 72 54 78 55
REMARK SMILES IDX 71 56 73 57 74 58 75 59 76 60 53 61 54 62 62 63 55 64 57 65
REMARK SMILES IDX 63 66 56 67 58 68 59 69 60 70 61 71 6 72 7 73 8 74 9 75
REMARK SMILES IDX 10 77 11 78 20 79 21 80 25 81 22 82 24 83 26 84 23 85 12 86
REMARK SMILES IDX 13 87 14 88 15 89 19 90 16 91 18 92 17 93
REMARK H PARENT 3 6 83 24 51 35 8 76
REMARK Flexibility Score: inf
ROOT
ATOM      1  C   UNL A   1      31.728  28.636  26.473  1.00  0.00     0.023 C 
ENDROOT
BRANCH   1   2
ATOM      2  C   UNL A   1      33.044  29.400  26.534  1.00  0.00     0.116 C 
BRANCH   2   3
ATOM      3  N   UNL A   1      32.862  30.828  26.734  1.00  0.00    -0.352 N 
ATOM      4  O   UNL A   1      33.246  32.862  27.626  1.00  0.00    -0.269 OA
ATOM      5  C   UNL A   1      33.642  31.720  27.438  1.00  0.00     0.251 C 
ATOM      6  H   UNL A   1      32.065  31.215  26.303  1.00  0.00     0.163 HD
BRANCH   5   7
ATOM      7  C   UNL A   1      34.942  31.273  27.992  1.00  0.00     0.039 A 
ATOM      8  C   UNL A   1      35.097  29.971  28.469  1.00  0.00     0.014 A 
ATOM      9  C   UNL A   1      36.010  32.172  28.053  1.00  0.00     0.014 A 
ATOM     10  C   UNL A   1      36.246  29.627  29.170  1.00  0.00     0.010 A 
ATOM     11  C   UNL A   1      37.209  31.786  28.664  1.00  0.00     0.010 A 
ATOM     12  C   UNL A   1      37.324  30.524  29.266  1.00  0.00    -0.014 A 
BRANCH  12  13
ATOM     13  C   UNL A   1      38.573  30.073  29.935  1.00  0.00     0.031 A 
ATOM     14  C   UNL A   1      38.956  30.552  31.310  1.00  0.00     0.074 A 
ATOM     15  C   UNL A   1      39.354  29.182  29.291  1.00  0.00     0.049 A 
ATOM     16  N   UNL A   1      39.976  30.192  32.048  1.00  0.00    -0.248 NA
ATOM     17  C   UNL A   1      38.097  31.567  31.938  1.00  0.00     0.031 C 
ATOM     18  C   UNL A   1      39.118  28.690  27.931  1.00  0.00     0.029 A 
ATOM     19  N   UNL A   1      40.489  28.522  29.688  1.00  0.00    -0.354 N 
ATOM     20  C   UNL A   1      39.900  30.952  33.209  1.00  0.00     0.074 A 
ATOM     21  C   UNL A   1      38.741  31.808  33.073  1.00  0.00     0.031 C 
ATOM     22  C   UNL A   1      40.051  27.779  27.622  1.00  0.00     0.029 A 
ATOM     23  C   UNL A   1      40.981  27.659  28.738  1.00  0.00     0.049 A 
ATOM     24  H   UNL A   1      40.909  28.654  30.569  1.00  0.00     0.167 HD
ATOM     25  C   UNL A   1      40.709  30.923  34.297  1.00  0.00     0.034 A 
ATOM     26  C   UNL A   1      42.066  26.862  28.753  1.00  0.00     0.034 A 
ATOM     27  C   UNL A   1      41.843  30.047  34.440  1.00  0.00     0.049 A 
ATOM     28  C   UNL A   1      42.913  26.817  29.991  1.00  0.00     0.074 A 
ATOM     29  C   UNL A   1      42.704  29.921  35.518  1.00  0.00     0.029 A 
ATOM     30  N   UNL A   1      42.275  29.144  33.480  1.00  0.00    -0.354 N 
ATOM     31  N   UNL A   1      42.753  27.460  31.121  1.00  0.00    -0.248 NA
ATOM     32  C   UNL A   1      44.071  25.913  29.968  1.00  0.00     0.031 C 
ATOM     33  C   UNL A   1      43.660  28.947  35.207  1.00  0.00     0.029 A 
ATOM     34  C   UNL A   1      43.386  28.455  33.941  1.00  0.00     0.049 A 
ATOM     35  H   UNL A   1      41.855  29.011  32.601  1.00  0.00     0.167 HD
ATOM     36  C   UNL A   1      43.782  27.031  31.951  1.00  0.00     0.074 A 
ATOM     37  C   UNL A   1      44.533  26.041  31.205  1.00  0.00     0.031 C 
ATOM     38  C   UNL A   1      44.095  27.441  33.203  1.00  0.00     0.034 A 
BRANCH  25  39
ATOM     39  C   UNL A   1      40.367  31.827  35.455  1.00  0.00     0.023 A 
ATOM     40  C   UNL A   1      41.146  32.981  35.679  1.00  0.00     0.012 A 
ATOM     41  C   UNL A   1      39.237  31.590  36.263  1.00  0.00     0.148 A 
ATOM     42  C   UNL A   1      40.821  33.872  36.702  1.00  0.00     0.002 A 
ATOM     43  C   UNL A   1      38.897  32.502  37.257  1.00  0.00     0.091 A 
ATOM     44  F   UNL A   1      38.518  30.479  36.047  1.00  0.00    -0.205 F 
ATOM     45  C   UNL A   1      39.692  33.639  37.483  1.00  0.00     0.022 A 
BRANCH  43  46
ATOM     46  S   UNL A   1      37.422  32.332  38.270  1.00  0.00     0.127 S 
ATOM     47  O   UNL A   1      37.841  32.981  39.512  1.00  0.00    -0.237 OA
ATOM     48  O   UNL A   1      36.429  33.079  37.498  1.00  0.00    -0.237 OA
ATOM     49  O   UNL A   1      37.165  30.903  38.367  1.00  0.00    -0.744 OA
ENDBRANCH  43  46
ENDBRANCH  25  39
BRANCH  26  50
ATOM     50  C   UNL A   1      42.374  26.016  27.567  1.00  0.00     0.023 A 
ATOM     51  C   UNL A   1      43.179  26.529  26.532  1.00  0.00     0.012 A 
ATOM     52  C   UNL A   1      41.921  24.685  27.487  1.00  0.00     0.148 A 
ATOM     53  C   UNL A   1      43.506  25.740  25.428  1.00  0.00     0.002 A 
ATOM     54  C   UNL A   1      42.304  23.884  26.418  1.00  0.00     0.091 A 
ATOM     55  F   UNL A   1      41.139  24.217  28.470  1.00  0.00    -0.205 F 
ATOM     56  C   UNL A   1      43.081  24.415  25.379  1.00  0.00     0.022 A 
BRANCH  54  57
ATOM     57  S   UNL A   1      41.928  22.129  26.376  1.00  0.00     0.127 S 
ATOM     58  O   UNL A   1      40.477  22.136  26.228  1.00  0.00    -0.237 OA
ATOM     59  O   UNL A   1      42.667  21.681  25.194  1.00  0.00    -0.237 OA
ATOM     60  O   UNL A   1      42.446  21.600  27.631  1.00  0.00    -0.744 OA
ENDBRANCH  54  57
ENDBRANCH  26  50
BRANCH  38  61
ATOM     61  C   UNL A   1      45.299  26.810  33.848  1.00  0.00     0.023 A 
ATOM     62  C   UNL A   1      46.547  27.460  33.770  1.00  0.00     0.012 A 
ATOM     63  C   UNL A   1      45.191  25.602  34.564  1.00  0.00     0.148 A 
ATOM     64  C   UNL A   1      47.678  26.898  34.361  1.00  0.00     0.002 A 
ATOM     65  C   UNL A   1      46.314  25.070  35.187  1.00  0.00     0.091 A 
ATOM     66  F   UNL A   1      44.001  24.986  34.608  1.00  0.00    -0.205 F 
ATOM     67  C   UNL A   1      47.560  25.710  35.077  1.00  0.00     0.022 A 
BRANCH  65  68
ATOM     68  S   UNL A   1      46.231  23.587  36.198  1.00  0.00     0.127 S 
ATOM     69  O   UNL A   1      45.228  23.959  37.193  1.00  0.00    -0.237 OA
ATOM     70  O   UNL A   1      45.790  22.575  35.236  1.00  0.00    -0.237 OA
ATOM     71  O   UNL A   1      47.580  23.381  36.709  1.00  0.00    -0.744 OA
ENDBRANCH  65  68
ENDBRANCH  38  61
ENDBRANCH  12  13
ENDBRANCH   5   7
ENDBRANCH   2   3
ENDBRANCH   1   2
BRANCH   1  72
ATOM     72  C   UNL A   1      31.855  27.122  26.328  1.00  0.00     0.023 C 
BRANCH  72  73
ATOM     73  C   UNL A   1      30.577  26.385  25.948  1.00  0.00     0.116 C 
BRANCH  73  74
ATOM     74  N   UNL A   1      30.458  25.060  26.529  1.00  0.00    -0.356 N 
ATOM     75  C   UNL A   1      31.262  23.987  26.237  1.00  0.00     0.227 C 
ATOM     76  H   UNL A   1      29.740  24.920  27.188  1.00  0.00     0.163 HD
ATOM     77  O   UNL A   1      31.522  23.217  27.162  1.00  0.00    -0.274 OA
BRANCH  75  78
ATOM     78  C   UNL A   1      31.912  23.911  24.840  1.00  0.00     0.110 C 
BRANCH  78  79
ATOM     79  C   UNL A   1      32.807  22.670  24.759  1.00  0.00    -0.021 A 
ATOM     80  C   UNL A   1      32.223  21.421  24.466  1.00  0.00     0.006 A 
ATOM     81  C   UNL A   1      34.179  22.693  25.078  1.00  0.00     0.021 A 
ATOM     82  C   UNL A   1      32.950  20.235  24.585  1.00  0.00     0.000 A 
ATOM     83  C   UNL A   1      34.902  21.501  25.199  1.00  0.00     0.016 A 
ATOM     84  Br  UNL A   1      35.149  24.303  25.377  1.00  0.00    -0.051 Br
ATOM     85  C   UNL A   1      34.284  20.274  24.974  1.00  0.00     0.001 A 
ENDBRANCH  78  79
BRANCH  78  86
ATOM     86  C   UNL A   1      31.001  24.099  23.603  1.00  0.00     0.025 C 
BRANCH  86  87
ATOM     87  C   UNL A   1      31.521  24.884  22.393  1.00  0.00     0.057 C 
BRANCH  87  88
ATOM     88  C   UNL A   1      31.935  26.314  22.667  1.00  0.00     0.040 A 
ATOM     89  C   UNL A   1      33.278  26.593  22.919  1.00  0.00     0.024 A 
ATOM     90  N   UNL A   1      30.990  27.286  22.594  1.00  0.00    -0.261 NA
ATOM     91  C   UNL A   1      33.684  27.921  23.008  1.00  0.00     0.003 A 
ATOM     92  C   UNL A   1      31.421  28.566  22.660  1.00  0.00     0.111 A 
ATOM     93  C   UNL A   1      32.743  28.929  22.853  1.00  0.00     0.020 A 
ENDBRANCH  87  88
ENDBRANCH  86  87
ENDBRANCH  78  86
ENDBRANCH  75  78
ENDBRANCH  73  74
ENDBRANCH  72  73
ENDBRANCH   1  72
TORSDOF 18
ENDMDL
MODEL 2
REMARK VINA RESULT:     -11.8      5.214      9.951
REMARK SMILES O=C(NCCCCNC(=O)[C@H](CCc1ccccn1)c1ccccc1Br)c1ccc(-c2c3nc(c(-c4cccc(S(=O)(=O)[O-])c4F)c4ccc([nH]4)c(-c4cccc(S(=O)(=O)[O-])c4F)c4nc(c(-c5cccc(S(=O)(=O)[O-])c5F)c5ccc2[nH]5)C=C4)C=C3)cc1
REMARK SMILES IDX 5 1 4 2 3 3 1 4 2 5 27 7 28 8 89 9 29 10 88 11 30 12 31 13
REMARK SMILES IDX 32 14 82 15 33 16 87 17 81 18 83 19 34 20 86 21 80 22 79 23
REMARK SMILES IDX 35 25 67 26 47 27 66 28 48 29 51 30 65 31 84 32 49 33 50 34
REMARK SMILES IDX 64 36 85 37 52 38 36 39 37 40 45 41 38 42 40 43 46 44 39 45
REMARK SMILES IDX 41 46 42 47 43 48 44 49 68 50 69 51 77 52 70 53 72 54 78 55
REMARK SMILES IDX 71 56 73 57 74 58 75 59 76 60 53 61 54 62 62 63 55 64 57 65
REMARK SMILES IDX 63 66 56 67 58 68 59 69 60 70 61 71 6 72 7 73 8 74 9 75
REMARK SMILES IDX 10 77 11 78 20 79 21 80 25 81 22 82 24 83 26 84 23 85 12 86
REMARK SMILES IDX 13 87 14 88 15 89 19 90 16 91 18 92 17 93
REMARK H PARENT 3 6 83 24 51 35 8 76
REMARK Flexibility Score: inf
ROOT
ATOM      1  C   UNL A   1      35.347  22.927  24.498  1.00  0.00     0.023 C 
ENDROOT
BRANCH   1   2
ATOM      2  C   UNL A   1      35.946  22.456  25.818  1.00  0.00     0.116 C 
BRANCH   2   3
ATOM      3  N   UNL A   1      36.882  21.357  25.656  1.00  0.00    -0.352 N 
ATOM      4  O   UNL A   1      38.894  20.358  25.474  1.00  0.00    -0.269 OA
ATOM      5  C   UNL A   1      38.252  21.345  25.804  1.00  0.00     0.251 C 
ATOM      6  H   UNL A   1      36.478  20.494  25.402  1.00  0.00     0.163 HD
BRANCH   5   7
ATOM      7  C   UNL A   1      38.939  22.547  26.332  1.00  0.00     0.039 A 
ATOM      8  C   UNL A   1      38.540  23.822  25.932  1.00  0.00     0.014 A 
ATOM      9  C   UNL A   1      40.006  22.395  27.221  1.00  0.00     0.014 A 
ATOM     10  C   UNL A   1      39.316  24.924  26.268  1.00  0.00     0.010 A 
ATOM     11  C   UNL A   1      40.722  23.521  27.647  1.00  0.00     0.010 A 
ATOM     12  C   UNL A   1      40.410  24.792  27.142  1.00  0.00    -0.014 A 
BRANCH  12  13
ATOM     13  C   UNL A   1      41.147  26.015  27.556  1.00  0.00     0.031 A 
ATOM     14  C   UNL A   1      42.569  26.268  27.133  1.00  0.00     0.074 A 
ATOM     15  C   UNL A   1      40.493  26.930  28.302  1.00  0.00     0.049 A 
ATOM     16  N   UNL A   1      43.316  27.320  27.357  1.00  0.00    -0.248 NA
ATOM     17  C   UNL A   1      43.248  25.209  26.371  1.00  0.00     0.031 C 
ATOM     18  C   UNL A   1      39.133  26.769  28.822  1.00  0.00     0.029 A 
ATOM     19  N   UNL A   1      40.870  28.173  28.741  1.00  0.00    -0.354 N 
ATOM     20  C   UNL A   1      44.555  27.043  26.794  1.00  0.00     0.074 A 
ATOM     21  C   UNL A   1      44.468  25.713  26.228  1.00  0.00     0.031 C 
ATOM     22  C   UNL A   1      38.774  27.884  29.474  1.00  0.00     0.029 A 
ATOM     23  C   UNL A   1      39.894  28.818  29.464  1.00  0.00     0.049 A 
ATOM     24  H   UNL A   1      41.754  28.566  28.556  1.00  0.00     0.167 HD
ATOM     25  C   UNL A   1      45.656  27.832  26.733  1.00  0.00     0.034 A 
ATOM     26  C   UNL A   1      39.896  30.024  30.062  1.00  0.00     0.034 A 
ATOM     27  C   UNL A   1      45.727  29.166  27.269  1.00  0.00     0.049 A 
ATOM     28  C   UNL A   1      41.113  30.892  29.934  1.00  0.00     0.074 A 
ATOM     29  C   UNL A   1      46.787  30.056  27.229  1.00  0.00     0.029 A 
ATOM     30  N   UNL A   1      44.698  29.808  27.942  1.00  0.00    -0.354 N 
ATOM     31  N   UNL A   1      42.231  30.653  29.295  1.00  0.00    -0.248 NA
ATOM     32  C   UNL A   1      41.057  32.209  30.583  1.00  0.00     0.031 C 
ATOM     33  C   UNL A   1      46.402  31.232  27.882  1.00  0.00     0.029 A 
ATOM     34  C   UNL A   1      45.095  31.081  28.317  1.00  0.00     0.049 A 
ATOM     35  H   UNL A   1      43.814  29.416  28.126  1.00  0.00     0.167 HD
ATOM     36  C   UNL A   1      43.010  31.793  29.453  1.00  0.00     0.074 A 
ATOM     37  C   UNL A   1      42.215  32.738  30.212  1.00  0.00     0.031 C 
ATOM     38  C   UNL A   1      44.277  32.025  29.034  1.00  0.00     0.034 A 
BRANCH  25  39
ATOM     39  C   UNL A   1      46.867  27.299  26.008  1.00  0.00     0.023 A 
ATOM     40  C   UNL A   1      46.977  27.496  24.616  1.00  0.00     0.012 A 
ATOM     41  C   UNL A   1      47.928  26.685  26.704  1.00  0.00     0.148 A 
ATOM     42  C   UNL A   1      48.112  27.071  23.924  1.00  0.00     0.002 A 
ATOM     43  C   UNL A   1      49.072  26.297  26.013  1.00  0.00     0.091 A 
ATOM     44  F   UNL A   1      47.799  26.489  28.024  1.00  0.00    -0.205 F 
ATOM     45  C   UNL A   1      49.162  26.483  24.623  1.00  0.00     0.022 A 
BRANCH  43  46
ATOM     46  S   UNL A   1      50.511  25.596  26.831  1.00  0.00     0.127 S 
ATOM     47  O   UNL A   1      50.931  26.703  27.687  1.00  0.00    -0.237 OA
ATOM     48  O   UNL A   1      49.934  24.457  27.548  1.00  0.00    -0.237 OA
ATOM     49  O   UNL A   1      51.440  25.237  25.771  1.00  0.00    -0.744 OA
ENDBRANCH  43  46
ENDBRANCH  25  39
BRANCH  26  50
ATOM     50  C   UNL A   1      38.683  30.484  30.793  1.00  0.00     0.023 A 
ATOM     51  C   UNL A   1      38.611  30.333  32.191  1.00  0.00     0.012 A 
ATOM     52  C   UNL A   1      37.626  31.123  30.117  1.00  0.00     0.148 A 
ATOM     53  C   UNL A   1      37.497  30.789  32.898  1.00  0.00     0.002 A 
ATOM     54  C   UNL A   1      36.550  31.632  30.834  1.00  0.00     0.091 A 
ATOM     55  F   UNL A   1      37.700  31.240  28.784  1.00  0.00    -0.205 F 
ATOM     56  C   UNL A   1      36.475  31.450  32.222  1.00  0.00     0.022 A 
BRANCH  54  57
ATOM     57  S   UNL A   1      35.285  32.635  30.046  1.00  0.00     0.127 S 
ATOM     58  O   UNL A   1      34.894  31.794  28.919  1.00  0.00    -0.237 OA
ATOM     59  O   UNL A   1      34.280  32.755  31.105  1.00  0.00    -0.237 OA
ATOM     60  O   UNL A   1      35.948  33.889  29.715  1.00  0.00    -0.744 OA
ENDBRANCH  54  57
ENDBRANCH  26  50
BRANCH  38  61
ATOM     61  C   UNL A   1      44.879  33.360  29.383  1.00  0.00     0.023 A 
ATOM     62  C   UNL A   1      45.621  33.495  30.573  1.00  0.00     0.012 A 
ATOM     63  C   UNL A   1      44.746  34.464  28.519  1.00  0.00     0.148 A 
ATOM     64  C   UNL A   1      46.190  34.720  30.918  1.00  0.00     0.002 A 
ATOM     65  C   UNL A   1      45.354  35.670  28.849  1.00  0.00     0.091 A 
ATOM     66  F   UNL A   1      44.016  34.323  27.403  1.00  0.00    -0.205 F 
ATOM     67  C   UNL A   1      46.066  35.803  30.052  1.00  0.00     0.022 A 
BRANCH  65  68
ATOM     68  S   UNL A   1      45.311  37.091  27.751  1.00  0.00     0.127 S 
ATOM     69  O   UNL A   1      43.875  37.339  27.637  1.00  0.00    -0.237 OA
ATOM     70  O   UNL A   1      46.046  38.101  28.515  1.00  0.00    -0.237 OA
ATOM     71  O   UNL A   1      45.977  36.665  26.526  1.00  0.00    -0.744 OA
ENDBRANCH  65  68
ENDBRANCH  38  61
ENDBRANCH  12  13
ENDBRANCH   5   7
ENDBRANCH   2   3
ENDBRANCH   1   2
BRANCH   1  72
ATOM     72  C   UNL A   1      34.649  24.283  24.542  1.00  0.00     0.023 C 
BRANCH  72  73
ATOM     73  C   UNL A   1      33.386  24.403  23.698  1.00  0.00     0.116 C 
BRANCH  73  74
ATOM     74  N   UNL A   1      33.550  25.191  22.490  1.00  0.00    -0.356 N 
ATOM     75  C   UNL A   1      33.113  26.480  22.314  1.00  0.00     0.227 C 
ATOM     76  H   UNL A   1      34.014  24.765  21.734  1.00  0.00     0.163 HD
ATOM     77  O   UNL A   1      33.819  27.220  21.628  1.00  0.00    -0.274 OA
BRANCH  75  78
ATOM     78  C   UNL A   1      31.879  26.955  23.109  1.00  0.00     0.110 C 
BRANCH  78  79
ATOM     79  C   UNL A   1      32.329  27.533  24.455  1.00  0.00    -0.021 A 
ATOM     80  C   UNL A   1      33.338  28.517  24.476  1.00  0.00     0.006 A 
ATOM     81  C   UNL A   1      31.864  27.045  25.692  1.00  0.00     0.021 A 
ATOM     82  C   UNL A   1      33.929  28.924  25.674  1.00  0.00     0.000 A 
ATOM     83  C   UNL A   1      32.463  27.453  26.889  1.00  0.00     0.016 A 
ATOM     84  Br  UNL A   1      30.426  25.809  25.847  1.00  0.00    -0.051 Br
ATOM     85  C   UNL A   1      33.507  28.375  26.878  1.00  0.00     0.001 A 
ENDBRANCH  78  79
BRANCH  78  86
ATOM     86  C   UNL A   1      30.835  27.833  22.377  1.00  0.00     0.025 C 
BRANCH  86  87
ATOM     87  C   UNL A   1      29.615  28.354  23.144  1.00  0.00     0.057 C 
BRANCH  87  88
ATOM     88  C   UNL A   1      29.193  29.771  22.822  1.00  0.00     0.040 A 
ATOM     89  C   UNL A   1      28.564  30.031  21.604  1.00  0.00     0.024 A 
ATOM     90  N   UNL A   1      29.385  30.733  23.761  1.00  0.00    -0.261 NA
ATOM     91  C   UNL A   1      28.032  31.296  21.378  1.00  0.00     0.003 A 
ATOM     92  C   UNL A   1      28.834  31.944  23.522  1.00  0.00     0.111 A 
ATOM     93  C   UNL A   1      28.148  32.267  22.363  1.00  0.00     0.020 A 
ENDBRANCH  87  88
ENDBRANCH  86  87
ENDBRANCH  78  86
ENDBRANCH  75  78
ENDBRANCH  73  74
ENDBRANCH  72  73
ENDBRANCH   1  72
TORSDOF 18
ENDMDL
MODEL 3
REMARK VINA RESULT:     -11.7      1.662      2.446
REMARK SMILES O=C(NCCCCNC(=O)[C@H](CCc1ccccn1)c1ccccc1Br)c1ccc(-c2c3nc(c(-c4cccc(S(=O)(=O)[O-])c4F)c4ccc([nH]4)c(-c4cccc(S(=O)(=O)[O-])c4F)c4nc(c(-c5cccc(S(=O)(=O)[O-])c5F)c5ccc2[nH]5)C=C4)C=C3)cc1
REMARK SMILES IDX 5 1 4 2 3 3 1 4 2 5 27 7 28 8 89 9 29 10 88 11 30 12 31 13
REMARK SMILES IDX 32 14 82 15 33 16 87 17 81 18 83 19 34 20 86 21 80 22 79 23
REMARK SMILES IDX 35 25 67 26 47 27 66 28 48 29 51 30 65 31 84 32 49 33 50 34
REMARK SMILES IDX 64 36 85 37 52 38 36 39 37 40 45 41 38 42 40 43 46 44 39 45
REMARK SMILES IDX 41 46 42 47 43 48 44 49 68 50 69 51 77 52 70 53 72 54 78 55
REMARK SMILES IDX 71 56 73 57 74 58 75 59 76 60 53 61 54 62 62 63 55 64 57 65
REMARK SMILES IDX 63 66 56 67 58 68 59 69 60 70 61 71 6 72 7 73 8 74 9 75
REMARK SMILES IDX 10 77 11 78 20 79 21 80 25 81 22 82 24 83 26 84 23 85 12 86
REMARK SMILES IDX 13 87 14 88 15 89 19 90 16 91 18 92 17 93
REMARK H PARENT 3 6 83 24 51 35 8 76
REMARK Flexibility Score: inf
ROOT
ATOM      1  C   UNL A   1      32.109  28.286  24.619  1.00  0.00     0.023 C 
ENDROOT
BRANCH   1   2
ATOM      2  C   UNL A   1      33.145  29.120  25.362  1.00  0.00     0.116 C 
BRANCH   2   3
ATOM      3  N   UNL A   1      32.612  30.378  25.856  1.00  0.00    -0.352 N 
ATOM      4  O   UNL A   1      32.402  32.135  27.253  1.00  0.00    -0.269 OA
ATOM      5  C   UNL A   1      33.074  31.186  26.874  1.00  0.00     0.251 C 
ATOM      6  H   UNL A   1      31.801  30.701  25.398  1.00  0.00     0.163 HD
BRANCH   5   7
ATOM      7  C   UNL A   1      34.368  30.872  27.522  1.00  0.00     0.039 A 
ATOM      8  C   UNL A   1      34.628  29.587  27.998  1.00  0.00     0.014 A 
ATOM      9  C   UNL A   1      35.324  31.881  27.674  1.00  0.00     0.014 A 
ATOM     10  C   UNL A   1      35.751  29.357  28.783  1.00  0.00     0.010 A 
ATOM     11  C   UNL A   1      36.509  31.616  28.373  1.00  0.00     0.010 A 
ATOM     12  C   UNL A   1      36.715  30.363  28.970  1.00  0.00    -0.014 A 
BRANCH  12  13
ATOM     13  C   UNL A   1      37.951  30.038  29.730  1.00  0.00     0.031 A 
ATOM     14  C   UNL A   1      38.193  30.569  31.118  1.00  0.00     0.074 A 
ATOM     15  C   UNL A   1      38.852  29.214  29.157  1.00  0.00     0.049 A 
ATOM     16  N   UNL A   1      39.189  30.315  31.930  1.00  0.00    -0.248 NA
ATOM     17  C   UNL A   1      37.205  31.510  31.667  1.00  0.00     0.031 C 
ATOM     18  C   UNL A   1      38.754  28.684  27.795  1.00  0.00     0.029 A 
ATOM     19  N   UNL A   1      40.011  28.666  29.643  1.00  0.00    -0.354 N 
ATOM     20  C   UNL A   1      38.966  31.080  33.067  1.00  0.00     0.074 A 
ATOM     21  C   UNL A   1      37.746  31.825  32.837  1.00  0.00     0.031 C 
ATOM     22  C   UNL A   1      39.785  27.858  27.567  1.00  0.00     0.029 A 
ATOM     23  C   UNL A   1      40.644  27.840  28.745  1.00  0.00     0.049 A 
ATOM     24  H   UNL A   1      40.357  28.848  30.547  1.00  0.00     0.167 HD
ATOM     25  C   UNL A   1      39.698  31.141  34.208  1.00  0.00     0.034 A 
ATOM     26  C   UNL A   1      41.793  27.146  28.848  1.00  0.00     0.034 A 
ATOM     27  C   UNL A   1      40.894  30.375  34.443  1.00  0.00     0.049 A 
ATOM     28  C   UNL A   1      42.554  27.196  30.141  1.00  0.00     0.074 A 
ATOM     29  C   UNL A   1      41.687  30.343  35.578  1.00  0.00     0.029 A 
ATOM     30  N   UNL A   1      41.471  29.502  33.533  1.00  0.00    -0.354 N 
ATOM     31  N   UNL A   1      42.260  27.837  31.245  1.00  0.00    -0.248 NA
ATOM     32  C   UNL A   1      43.788  26.403  30.213  1.00  0.00     0.031 C 
ATOM     33  C   UNL A   1      42.747  29.457  35.351  1.00  0.00     0.029 A 
ATOM     34  C   UNL A   1      42.605  28.925  34.080  1.00  0.00     0.049 A 
ATOM     35  H   UNL A   1      41.126  29.320  32.630  1.00  0.00     0.167 HD
ATOM     36  C   UNL A   1      43.264  27.516  32.149  1.00  0.00     0.074 A 
ATOM     37  C   UNL A   1      44.151  26.589  31.475  1.00  0.00     0.031 C 
ATOM     38  C   UNL A   1      43.452  27.970  33.412  1.00  0.00     0.034 A 
BRANCH  25  39
ATOM     39  C   UNL A   1      39.197  32.026  35.322  1.00  0.00     0.023 A 
ATOM     40  C   UNL A   1      38.254  31.512  36.237  1.00  0.00     0.012 A 
ATOM     41  C   UNL A   1      39.713  33.323  35.518  1.00  0.00     0.148 A 
ATOM     42  C   UNL A   1      37.816  32.281  37.315  1.00  0.00     0.002 A 
ATOM     43  C   UNL A   1      39.299  34.070  36.616  1.00  0.00     0.091 A 
ATOM     44  F   UNL A   1      40.595  33.801  34.628  1.00  0.00    -0.205 F 
ATOM     45  C   UNL A   1      38.346  33.554  37.510  1.00  0.00     0.022 A 
BRANCH  43  46
ATOM     46  S   UNL A   1      39.974  35.691  36.999  1.00  0.00     0.127 S 
ATOM     47  O   UNL A   1      41.394  35.387  37.167  1.00  0.00    -0.237 OA
ATOM     48  O   UNL A   1      39.653  36.452  35.790  1.00  0.00    -0.237 OA
ATOM     49  O   UNL A   1      39.283  36.140  38.198  1.00  0.00    -0.744 OA
ENDBRANCH  43  46
ENDBRANCH  25  39
BRANCH  26  50
ATOM     50  C   UNL A   1      42.257  26.316  27.703  1.00  0.00     0.023 A 
ATOM     51  C   UNL A   1      43.147  26.862  26.758  1.00  0.00     0.012 A 
ATOM     52  C   UNL A   1      41.866  24.968  27.577  1.00  0.00     0.148 A 
ATOM     53  C   UNL A   1      43.618  26.089  25.696  1.00  0.00     0.002 A 
ATOM     54  C   UNL A   1      42.391  24.186  26.555  1.00  0.00     0.091 A 
ATOM     55  F   UNL A   1      41.003  24.468  28.472  1.00  0.00    -0.205 F 
ATOM     56  C   UNL A   1      43.253  24.749  25.603  1.00  0.00     0.022 A 
BRANCH  54  57
ATOM     57  S   UNL A   1      42.089  22.417  26.476  1.00  0.00     0.127 S 
ATOM     58  O   UNL A   1      40.636  22.366  26.356  1.00  0.00    -0.237 OA
ATOM     59  O   UNL A   1      42.822  22.031  25.269  1.00  0.00    -0.237 OA
ATOM     60  O   UNL A   1      42.653  21.881  27.708  1.00  0.00    -0.744 OA
ENDBRANCH  54  57
ENDBRANCH  26  50
BRANCH  38  61
ATOM     61  C   UNL A   1      44.663  27.462  34.148  1.00  0.00     0.023 A 
ATOM     62  C   UNL A   1      45.875  28.176  34.065  1.00  0.00     0.012 A 
ATOM     63  C   UNL A   1      44.592  26.308  34.952  1.00  0.00     0.148 A 
ATOM     64  C   UNL A   1      47.010  27.727  34.739  1.00  0.00     0.002 A 
ATOM     65  C   UNL A   1      45.716  25.892  35.656  1.00  0.00     0.091 A 
ATOM     66  F   UNL A   1      43.437  25.629  35.000  1.00  0.00    -0.205 F 
ATOM     67  C   UNL A   1      46.928  26.592  35.541  1.00  0.00     0.022 A 
BRANCH  65  68
ATOM     68  S   UNL A   1      45.673  24.488  36.777  1.00  0.00     0.127 S 
ATOM     69  O   UNL A   1      45.220  23.414  35.895  1.00  0.00    -0.237 OA
ATOM     70  O   UNL A   1      47.071  24.381  37.199  1.00  0.00    -0.237 OA
ATOM     71  O   UNL A   1      44.752  24.860  37.842  1.00  0.00    -0.744 OA
ENDBRANCH  65  68
ENDBRANCH  38  61
ENDBRANCH  12  13
ENDBRANCH   5   7
ENDBRANCH   2   3
ENDBRANCH   1   2
BRANCH   1  72
ATOM     72  C   UNL A   1      31.002  27.693  25.485  1.00  0.00     0.023 C 
BRANCH  72  73
ATOM     73  C   UNL A   1      31.386  26.461  26.296  1.00  0.00     0.116 C 
BRANCH  73  74
ATOM     74  N   UNL A   1      30.563  25.295  26.032  1.00  0.00    -0.356 N 
ATOM     75  C   UNL A   1      31.023  24.008  25.904  1.00  0.00     0.227 C 
ATOM     76  H   UNL A   1      29.594  25.439  25.936  1.00  0.00     0.163 HD
ATOM     77  O   UNL A   1      30.299  23.112  26.338  1.00  0.00    -0.274 OA
BRANCH  75  78
ATOM     78  C   UNL A   1      32.461  23.787  25.391  1.00  0.00     0.110 C 
BRANCH  78  79
ATOM     79  C   UNL A   1      32.658  22.307  25.045  1.00  0.00    -0.021 A 
ATOM     80  C   UNL A   1      32.188  21.824  23.807  1.00  0.00     0.006 A 
ATOM     81  C   UNL A   1      33.187  21.371  25.955  1.00  0.00     0.021 A 
ATOM     82  C   UNL A   1      32.153  20.456  23.529  1.00  0.00     0.000 A 
ATOM     83  C   UNL A   1      33.146  20.001  25.673  1.00  0.00     0.016 A 
ATOM     84  Br  UNL A   1      33.975  21.867  27.615  1.00  0.00    -0.051 Br
ATOM     85  C   UNL A   1      32.611  19.543  24.471  1.00  0.00     0.001 A 
ENDBRANCH  78  79
BRANCH  78  86
ATOM     86  C   UNL A   1      33.006  24.752  24.311  1.00  0.00     0.025 C 
BRANCH  86  87
ATOM     87  C   UNL A   1      34.474  25.189  24.358  1.00  0.00     0.057 C 
BRANCH  87  88
ATOM     88  C   UNL A   1      35.483  24.079  24.554  1.00  0.00     0.040 A 
ATOM     89  C   UNL A   1      35.716  23.184  23.509  1.00  0.00     0.024 A 
ATOM     90  N   UNL A   1      36.176  24.032  25.720  1.00  0.00    -0.261 NA
ATOM     91  C   UNL A   1      36.757  22.267  23.627  1.00  0.00     0.003 A 
ATOM     92  C   UNL A   1      37.196  23.147  25.794  1.00  0.00     0.111 A 
ATOM     93  C   UNL A   1      37.528  22.262  24.781  1.00  0.00     0.020 A 
ENDBRANCH  87  88
ENDBRANCH  86  87
ENDBRANCH  78  86
ENDBRANCH  75  78
ENDBRANCH  73  74
ENDBRANCH  72  73
ENDBRANCH   1  72
TORSDOF 18
ENDMDL
