MODEL 1
REMARK VINA RESULT:     -12.2      0.000      0.000
REMARK SMILES O=C(NCCCCNC(=O)[C@H]1CCCC[C@H]1C(=O)Nc1ccc(Cl)cc1F)c1ccc(-c2c3nc(c(-c4cccc(S(=O)(=O)[O-])c4F)c4ccc([nH]4)c(-c4cccc(S(=O)(=O)[O-])c4F)c4nc(c(-c5cccc(S(=O)(=O)[O-])c5F)c5ccc2[nH]5)C=C4)C=C3)cc1
REMARK SMILES IDX 5 1 4 2 3 3 1 4 2 5 28 7 29 8 90 9 30 10 89 11 31 12 32 13
REMARK SMILES IDX 33 14 83 15 34 16 88 17 82 18 84 19 35 20 87 21 81 22 80 23
REMARK SMILES IDX 36 25 68 26 48 27 67 28 49 29 52 30 66 31 85 32 50 33 51 34
REMARK SMILES IDX 65 36 86 37 53 38 37 39 38 40 46 41 39 42 41 43 47 44 40 45
REMARK SMILES IDX 42 46 43 47 44 48 45 49 69 50 70 51 78 52 71 53 73 54 79 55
REMARK SMILES IDX 72 56 74 57 75 58 76 59 77 60 54 61 55 62 63 63 56 64 58 65
REMARK SMILES IDX 64 66 57 67 59 68 60 69 61 70 62 71 6 72 7 73 8 74 9 75
REMARK SMILES IDX 10 77 11 78 12 79 16 80 13 81 15 82 14 83 17 84 18 85 19 86
REMARK SMILES IDX 20 88 21 89 26 90 22 91 25 92 27 93 23 94 24 95
REMARK H PARENT 3 6 84 24 52 35 8 76 19 87
REMARK Flexibility Score: inf
ROOT
ATOM      1  C   UNL A   1      32.458  27.999  24.640  1.00  0.00     0.023 C 
ENDROOT
BRANCH   1   2
ATOM      2  C   UNL A   1      33.331  29.232  24.854  1.00  0.00     0.116 C 
BRANCH   2   3
ATOM      3  N   UNL A   1      32.659  30.313  25.560  1.00  0.00    -0.352 N 
ATOM      4  O   UNL A   1      32.238  31.782  27.212  1.00  0.00    -0.269 OA
ATOM      5  C   UNL A   1      33.007  30.971  26.722  1.00  0.00     0.251 C 
ATOM      6  H   UNL A   1      31.823  30.624  25.143  1.00  0.00     0.163 HD
BRANCH   5   7
ATOM      7  C   UNL A   1      34.294  30.659  27.388  1.00  0.00     0.039 A 
ATOM      8  C   UNL A   1      34.596  29.355  27.776  1.00  0.00     0.014 A 
ATOM      9  C   UNL A   1      35.205  31.689  27.637  1.00  0.00     0.014 A 
ATOM     10  C   UNL A   1      35.703  29.113  28.581  1.00  0.00     0.010 A 
ATOM     11  C   UNL A   1      36.376  31.422  28.354  1.00  0.00     0.010 A 
ATOM     12  C   UNL A   1      36.615  30.139  28.872  1.00  0.00    -0.014 A 
BRANCH  12  13
ATOM     13  C   UNL A   1      37.844  29.823  29.648  1.00  0.00     0.031 A 
ATOM     14  C   UNL A   1      38.074  30.384  31.027  1.00  0.00     0.074 A 
ATOM     15  C   UNL A   1      38.765  29.011  29.089  1.00  0.00     0.049 A 
ATOM     16  N   UNL A   1      39.093  30.197  31.827  1.00  0.00    -0.248 NA
ATOM     17  C   UNL A   1      37.039  31.272  31.579  1.00  0.00     0.031 C 
ATOM     18  C   UNL A   1      38.677  28.441  27.742  1.00  0.00     0.029 A 
ATOM     19  N   UNL A   1      39.954  28.529  29.573  1.00  0.00    -0.354 N 
ATOM     20  C   UNL A   1      38.848  30.975  32.953  1.00  0.00     0.074 A 
ATOM     21  C   UNL A   1      37.580  31.639  32.736  1.00  0.00     0.031 C 
ATOM     22  C   UNL A   1      39.750  27.670  27.517  1.00  0.00     0.029 A 
ATOM     23  C   UNL A   1      40.632  27.741  28.673  1.00  0.00     0.049 A 
ATOM     24  H   UNL A   1      40.290  28.728  30.477  1.00  0.00     0.167 HD
ATOM     25  C   UNL A   1      39.604  31.113  34.070  1.00  0.00     0.034 A 
ATOM     26  C   UNL A   1      41.843  27.158  28.752  1.00  0.00     0.034 A 
ATOM     27  C   UNL A   1      40.843  30.415  34.301  1.00  0.00     0.049 A 
ATOM     28  C   UNL A   1      42.644  27.314  30.011  1.00  0.00     0.074 A 
ATOM     29  C   UNL A   1      41.638  30.431  35.434  1.00  0.00     0.029 A 
ATOM     30  N   UNL A   1      41.472  29.586  33.386  1.00  0.00    -0.354 N 
ATOM     31  N   UNL A   1      42.327  27.943  31.116  1.00  0.00    -0.248 NA
ATOM     32  C   UNL A   1      43.958  26.658  30.046  1.00  0.00     0.031 C 
ATOM     33  C   UNL A   1      42.761  29.633  35.194  1.00  0.00     0.029 A 
ATOM     34  C   UNL A   1      42.653  29.098  33.922  1.00  0.00     0.049 A 
ATOM     35  H   UNL A   1      41.131  29.375  32.487  1.00  0.00     0.167 HD
ATOM     36  C   UNL A   1      43.390  27.740  31.986  1.00  0.00     0.074 A 
ATOM     37  C   UNL A   1      44.345  26.901  31.291  1.00  0.00     0.031 C 
ATOM     38  C   UNL A   1      43.570  28.222  33.239  1.00  0.00     0.034 A 
BRANCH  25  39
ATOM     39  C   UNL A   1      39.110  32.027  35.162  1.00  0.00     0.023 A 
ATOM     40  C   UNL A   1      38.195  31.539  36.116  1.00  0.00     0.012 A 
ATOM     41  C   UNL A   1      39.639  33.325  35.311  1.00  0.00     0.148 A 
ATOM     42  C   UNL A   1      37.802  32.335  37.194  1.00  0.00     0.002 A 
ATOM     43  C   UNL A   1      39.273  34.097  36.409  1.00  0.00     0.091 A 
ATOM     44  F   UNL A   1      40.497  33.774  34.384  1.00  0.00    -0.205 F 
ATOM     45  C   UNL A   1      38.350  33.606  37.346  1.00  0.00     0.022 A 
BRANCH  43  46
ATOM     46  S   UNL A   1      39.981  35.715  36.740  1.00  0.00     0.127 S 
ATOM     47  O   UNL A   1      41.406  35.400  36.827  1.00  0.00    -0.237 OA
ATOM     48  O   UNL A   1      39.596  36.469  35.548  1.00  0.00    -0.237 OA
ATOM     49  O   UNL A   1      39.369  36.177  37.977  1.00  0.00    -0.744 OA
ENDBRANCH  43  46
ENDBRANCH  25  39
BRANCH  26  50
ATOM     50  C   UNL A   1      42.357  26.355  27.607  1.00  0.00     0.023 A 
ATOM     51  C   UNL A   1      43.258  26.939  26.696  1.00  0.00     0.012 A 
ATOM     52  C   UNL A   1      41.983  25.008  27.437  1.00  0.00     0.148 A 
ATOM     53  C   UNL A   1      43.751  26.204  25.618  1.00  0.00     0.002 A 
ATOM     54  C   UNL A   1      42.528  24.264  26.399  1.00  0.00     0.091 A 
ATOM     55  F   UNL A   1      41.110  24.474  28.303  1.00  0.00    -0.205 F 
ATOM     56  C   UNL A   1      43.397  24.865  25.475  1.00  0.00     0.022 A 
BRANCH  54  57
ATOM     57  S   UNL A   1      42.240  22.498  26.244  1.00  0.00     0.127 S 
ATOM     58  O   UNL A   1      40.790  22.444  26.081  1.00  0.00    -0.237 OA
ATOM     59  O   UNL A   1      43.009  22.165  25.044  1.00  0.00    -0.237 OA
ATOM     60  O   UNL A   1      42.769  21.913  27.469  1.00  0.00    -0.744 OA
ENDBRANCH  54  57
ENDBRANCH  26  50
BRANCH  38  61
ATOM     61  C   UNL A   1      44.836  27.833  33.956  1.00  0.00     0.023 A 
ATOM     62  C   UNL A   1      45.978  28.651  33.851  1.00  0.00     0.012 A 
ATOM     63  C   UNL A   1      44.877  26.688  34.775  1.00  0.00     0.148 A 
ATOM     64  C   UNL A   1      47.153  28.316  34.521  1.00  0.00     0.002 A 
ATOM     65  C   UNL A   1      46.037  26.386  35.479  1.00  0.00     0.091 A 
ATOM     66  F   UNL A   1      43.786  25.910  34.844  1.00  0.00    -0.205 F 
ATOM     67  C   UNL A   1      47.179  27.192  35.343  1.00  0.00     0.022 A 
BRANCH  65  68
ATOM     68  S   UNL A   1      46.132  25.011  36.630  1.00  0.00     0.127 S 
ATOM     69  O   UNL A   1      47.538  25.053  37.030  1.00  0.00    -0.237 OA
ATOM     70  O   UNL A   1      45.187  25.412  37.673  1.00  0.00    -0.237 OA
ATOM     71  O   UNL A   1      45.731  23.830  35.877  1.00  0.00    -0.744 OA
ENDBRANCH  65  68
ENDBRANCH  38  61
ENDBRANCH  12  13
ENDBRANCH   5   7
ENDBRANCH   2   3
ENDBRANCH   1   2
BRANCH   1  72
ATOM     72  C   UNL A   1      33.104  26.669  25.011  1.00  0.00     0.023 C 
BRANCH  72  73
ATOM     73  C   UNL A   1      34.060  26.083  23.972  1.00  0.00     0.116 C 
BRANCH  73  74
ATOM     74  N   UNL A   1      33.435  25.201  23.015  1.00  0.00    -0.356 N 
ATOM     75  C   UNL A   1      33.610  23.876  22.776  1.00  0.00     0.223 C 
ATOM     76  H   UNL A   1      32.767  25.635  22.436  1.00  0.00     0.163 HD
ATOM     77  O   UNL A   1      33.020  23.419  21.790  1.00  0.00    -0.275 OA
BRANCH  75  78
ATOM     78  C   UNL A   1      34.451  22.923  23.635  1.00  0.00     0.091 C 
ATOM     79  C   UNL A   1      35.983  22.940  23.488  1.00  0.00     0.014 C 
ATOM     80  C   UNL A   1      34.003  22.765  25.105  1.00  0.00     0.091 C 
ATOM     81  C   UNL A   1      36.761  23.694  24.574  1.00  0.00     0.001 C 
ATOM     82  C   UNL A   1      34.755  23.663  26.080  1.00  0.00     0.014 C 
ATOM     83  C   UNL A   1      36.256  23.402  25.978  1.00  0.00     0.001 C 
BRANCH  80  84
ATOM     84  C   UNL A   1      32.498  22.581  25.325  1.00  0.00     0.228 C 
ATOM     85  O   UNL A   1      31.859  23.509  25.842  1.00  0.00    -0.274 OA
ATOM     86  N   UNL A   1      31.785  21.483  24.955  1.00  0.00    -0.323 N 
ATOM     87  H   UNL A   1      30.807  21.604  24.953  1.00  0.00     0.170 HD
BRANCH  86  88
ATOM     88  C   UNL A   1      32.222  20.213  24.575  1.00  0.00     0.077 A 
ATOM     89  C   UNL A   1      32.865  19.399  25.509  1.00  0.00     0.031 A 
ATOM     90  C   UNL A   1      32.242  19.847  23.227  1.00  0.00     0.148 A 
ATOM     91  C   UNL A   1      33.438  18.190  25.100  1.00  0.00     0.023 A 
ATOM     92  C   UNL A   1      32.782  18.634  22.815  1.00  0.00     0.062 A 
ATOM     93  F   UNL A   1      31.769  20.680  22.292  1.00  0.00    -0.205 F 
ATOM     94  C   UNL A   1      33.378  17.808  23.758  1.00  0.00     0.044 A 
ATOM     95  Cl  UNL A   1      34.079  16.322  23.260  1.00  0.00    -0.084 Cl
ENDBRANCH  86  88
ENDBRANCH  80  84
ENDBRANCH  75  78
ENDBRANCH  73  74
ENDBRANCH  72  73
ENDBRANCH   1  72
TORSDOF 16
ENDMDL
MODEL 2
REMARK VINA RESULT:     -12.1      3.649      8.731
REMARK SMILES O=C(NCCCCNC(=O)[C@H]1CCCC[C@H]1C(=O)Nc1ccc(Cl)cc1F)c1ccc(-c2c3nc(c(-c4cccc(S(=O)(=O)[O-])c4F)c4ccc([nH]4)c(-c4cccc(S(=O)(=O)[O-])c4F)c4nc(c(-c5cccc(S(=O)(=O)[O-])c5F)c5ccc2[nH]5)C=C4)C=C3)cc1
REMARK SMILES IDX 5 1 4 2 3 3 1 4 2 5 28 7 29 8 90 9 30 10 89 11 31 12 32 13
REMARK SMILES IDX 33 14 83 15 34 16 88 17 82 18 84 19 35 20 87 21 81 22 80 23
REMARK SMILES IDX 36 25 68 26 48 27 67 28 49 29 52 30 66 31 85 32 50 33 51 34
REMARK SMILES IDX 65 36 86 37 53 38 37 39 38 40 46 41 39 42 41 43 47 44 40 45
REMARK SMILES IDX 42 46 43 47 44 48 45 49 69 50 70 51 78 52 71 53 73 54 79 55
REMARK SMILES IDX 72 56 74 57 75 58 76 59 77 60 54 61 55 62 63 63 56 64 58 65
REMARK SMILES IDX 64 66 57 67 59 68 60 69 61 70 62 71 6 72 7 73 8 74 9 75
REMARK SMILES IDX 10 77 11 78 12 79 16 80 13 81 15 82 14 83 17 84 18 85 19 86
REMARK SMILES IDX 20 88 21 89 26 90 22 91 25 92 27 93 23 94 24 95
REMARK H PARENT 3 6 84 24 52 35 8 76 19 87
REMARK Flexibility Score: inf
ROOT
ATOM      1  C   UNL A   1      31.281  31.783  26.539  1.00  0.00     0.023 C 
ENDROOT
BRANCH   1   2
ATOM      2  C   UNL A   1      32.583  32.387  27.058  1.00  0.00     0.116 C 
BRANCH   2   3
ATOM      3  N   UNL A   1      32.467  33.783  27.454  1.00  0.00    -0.352 N 
ATOM      4  O   UNL A   1      32.845  35.652  28.651  1.00  0.00    -0.269 OA
ATOM      5  C   UNL A   1      33.180  34.507  28.388  1.00  0.00     0.251 C 
ATOM      6  H   UNL A   1      31.768  34.291  26.982  1.00  0.00     0.163 HD
BRANCH   5   7
ATOM      7  C   UNL A   1      34.321  33.878  29.093  1.00  0.00     0.039 A 
ATOM      8  C   UNL A   1      35.629  34.280  28.826  1.00  0.00     0.014 A 
ATOM      9  C   UNL A   1      34.080  32.865  30.023  1.00  0.00     0.014 A 
ATOM     10  C   UNL A   1      36.695  33.545  29.332  1.00  0.00     0.010 A 
ATOM     11  C   UNL A   1      35.156  32.197  30.618  1.00  0.00     0.010 A 
ATOM     12  C   UNL A   1      36.474  32.501  30.244  1.00  0.00    -0.014 A 
BRANCH  12  13
ATOM     13  C   UNL A   1      37.642  31.803  30.848  1.00  0.00     0.031 A 
ATOM     14  C   UNL A   1      38.429  30.773  30.081  1.00  0.00     0.074 A 
ATOM     15  C   UNL A   1      37.990  32.111  32.114  1.00  0.00     0.049 A 
ATOM     16  N   UNL A   1      39.472  30.083  30.470  1.00  0.00    -0.248 NA
ATOM     17  C   UNL A   1      37.995  30.470  28.708  1.00  0.00     0.031 C 
ATOM     18  C   UNL A   1      37.278  33.060  32.975  1.00  0.00     0.029 A 
ATOM     19  N   UNL A   1      39.020  31.663  32.900  1.00  0.00    -0.354 N 
ATOM     20  C   UNL A   1      39.790  29.234  29.415  1.00  0.00     0.074 A 
ATOM     21  C   UNL A   1      38.830  29.496  28.364  1.00  0.00     0.031 C 
ATOM     22  C   UNL A   1      37.902  33.139  34.157  1.00  0.00     0.029 A 
ATOM     23  C   UNL A   1      39.019  32.204  34.165  1.00  0.00     0.049 A 
ATOM     24  H   UNL A   1      39.694  31.015  32.591  1.00  0.00     0.167 HD
ATOM     25  C   UNL A   1      40.796  28.331  29.328  1.00  0.00     0.034 A 
ATOM     26  C   UNL A   1      39.809  31.960  35.227  1.00  0.00     0.034 A 
ATOM     27  C   UNL A   1      41.776  28.107  30.359  1.00  0.00     0.049 A 
ATOM     28  C   UNL A   1      40.928  30.968  35.087  1.00  0.00     0.074 A 
ATOM     29  C   UNL A   1      42.878  27.269  30.328  1.00  0.00     0.029 A 
ATOM     30  N   UNL A   1      41.772  28.712  31.607  1.00  0.00    -0.354 N 
ATOM     31  N   UNL A   1      41.292  30.280  34.033  1.00  0.00    -0.248 NA
ATOM     32  C   UNL A   1      41.761  30.739  36.275  1.00  0.00     0.031 C 
ATOM     33  C   UNL A   1      43.525  27.347  31.566  1.00  0.00     0.029 A 
ATOM     34  C   UNL A   1      42.841  28.254  32.358  1.00  0.00     0.049 A 
ATOM     35  H   UNL A   1      41.106  29.369  31.913  1.00  0.00     0.167 HD
ATOM     36  C   UNL A   1      42.410  29.555  34.422  1.00  0.00     0.074 A 
ATOM     37  C   UNL A   1      42.683  29.912  35.799  1.00  0.00     0.031 C 
ATOM     38  C   UNL A   1      43.133  28.656  33.711  1.00  0.00     0.034 A 
BRANCH  25  39
ATOM     39  C   UNL A   1      40.929  27.527  28.059  1.00  0.00     0.023 A 
ATOM     40  C   UNL A   1      41.520  28.114  26.923  1.00  0.00     0.012 A 
ATOM     41  C   UNL A   1      40.579  26.162  28.030  1.00  0.00     0.148 A 
ATOM     42  C   UNL A   1      41.745  27.359  25.771  1.00  0.00     0.002 A 
ATOM     43  C   UNL A   1      40.843  25.407  26.893  1.00  0.00     0.091 A 
ATOM     44  F   UNL A   1      40.005  25.627  29.118  1.00  0.00    -0.205 F 
ATOM     45  C   UNL A   1      41.419  26.005  25.761  1.00  0.00     0.022 A 
BRANCH  43  46
ATOM     46  S   UNL A   1      40.534  23.638  26.806  1.00  0.00     0.127 S 
ATOM     47  O   UNL A   1      41.458  23.231  25.748  1.00  0.00    -0.237 OA
ATOM     48  O   UNL A   1      40.911  23.193  28.147  1.00  0.00    -0.237 OA
ATOM     49  O   UNL A   1      39.121  23.491  26.489  1.00  0.00    -0.744 OA
ENDBRANCH  43  46
ENDBRANCH  25  39
BRANCH  26  50
ATOM     50  C   UNL A   1      39.580  32.686  36.506  1.00  0.00     0.023 A 
ATOM     51  C   UNL A   1      40.287  33.874  36.769  1.00  0.00     0.012 A 
ATOM     52  C   UNL A   1      38.640  32.224  37.447  1.00  0.00     0.148 A 
ATOM     53  C   UNL A   1      40.086  34.571  37.961  1.00  0.00     0.002 A 
ATOM     54  C   UNL A   1      38.397  32.957  38.602  1.00  0.00     0.091 A 
ATOM     55  F   UNL A   1      37.988  31.081  37.190  1.00  0.00    -0.205 F 
ATOM     56  C   UNL A   1      39.134  34.120  38.871  1.00  0.00     0.022 A 
BRANCH  54  57
ATOM     57  S   UNL A   1      37.080  32.522  39.743  1.00  0.00     0.127 S 
ATOM     58  O   UNL A   1      37.515  31.212  40.218  1.00  0.00    -0.237 OA
ATOM     59  O   UNL A   1      37.165  33.596  40.733  1.00  0.00    -0.237 OA
ATOM     60  O   UNL A   1      35.860  32.542  38.948  1.00  0.00    -0.744 OA
ENDBRANCH  54  57
ENDBRANCH  26  50
BRANCH  38  61
ATOM     61  C   UNL A   1      44.309  28.014  34.397  1.00  0.00     0.023 A 
ATOM     62  C   UNL A   1      45.569  28.641  34.354  1.00  0.00     0.012 A 
ATOM     63  C   UNL A   1      44.153  26.821  35.129  1.00  0.00     0.148 A 
ATOM     64  C   UNL A   1      46.666  28.071  34.998  1.00  0.00     0.002 A 
ATOM     65  C   UNL A   1      45.239  26.284  35.810  1.00  0.00     0.091 A 
ATOM     66  F   UNL A   1      42.949  26.229  35.140  1.00  0.00    -0.205 F 
ATOM     67  C   UNL A   1      46.499  26.901  35.735  1.00  0.00     0.022 A 
BRANCH  65  68
ATOM     68  S   UNL A   1      45.095  24.832  36.856  1.00  0.00     0.127 S 
ATOM     69  O   UNL A   1      46.463  24.681  37.349  1.00  0.00    -0.237 OA
ATOM     70  O   UNL A   1      44.128  25.269  37.864  1.00  0.00    -0.237 OA
ATOM     71  O   UNL A   1      44.620  23.761  35.991  1.00  0.00    -0.744 OA
ENDBRANCH  65  68
ENDBRANCH  38  61
ENDBRANCH  12  13
ENDBRANCH   5   7
ENDBRANCH   2   3
ENDBRANCH   1   2
BRANCH   1  72
ATOM     72  C   UNL A   1      31.440  30.557  25.647  1.00  0.00     0.023 C 
BRANCH  72  73
ATOM     73  C   UNL A   1      32.823  29.906  25.654  1.00  0.00     0.116 C 
BRANCH  73  74
ATOM     74  N   UNL A   1      33.359  29.628  24.343  1.00  0.00    -0.356 N 
ATOM     75  C   UNL A   1      33.724  28.459  23.758  1.00  0.00     0.223 C 
ATOM     76  H   UNL A   1      33.481  30.423  23.775  1.00  0.00     0.163 HD
ATOM     77  O   UNL A   1      34.281  28.551  22.657  1.00  0.00    -0.275 OA
BRANCH  75  78
ATOM     78  C   UNL A   1      33.481  27.061  24.342  1.00  0.00     0.091 C 
ATOM     79  C   UNL A   1      33.808  26.804  25.824  1.00  0.00     0.014 C 
ATOM     80  C   UNL A   1      32.179  26.359  23.896  1.00  0.00     0.091 C 
ATOM     81  C   UNL A   1      32.615  26.793  26.789  1.00  0.00     0.001 C 
ATOM     82  C   UNL A   1      31.020  26.529  24.871  1.00  0.00     0.014 C 
ATOM     83  C   UNL A   1      31.422  26.018  26.253  1.00  0.00     0.001 C 
BRANCH  80  84
ATOM     84  C   UNL A   1      31.864  26.433  22.398  1.00  0.00     0.228 C 
ATOM     85  O   UNL A   1      32.550  25.759  21.617  1.00  0.00    -0.274 OA
ATOM     86  N   UNL A   1      30.848  27.154  21.850  1.00  0.00    -0.323 N 
ATOM     87  H   UNL A   1      30.633  26.924  20.917  1.00  0.00     0.170 HD
BRANCH  86  88
ATOM     88  C   UNL A   1      30.064  28.167  22.404  1.00  0.00     0.077 A 
ATOM     89  C   UNL A   1      28.794  27.863  22.896  1.00  0.00     0.031 A 
ATOM     90  C   UNL A   1      30.431  29.507  22.251  1.00  0.00     0.148 A 
ATOM     91  C   UNL A   1      27.945  28.894  23.314  1.00  0.00     0.023 A 
ATOM     92  C   UNL A   1      29.607  30.536  22.691  1.00  0.00     0.062 A 
ATOM     93  F   UNL A   1      31.578  29.829  21.641  1.00  0.00    -0.205 F 
ATOM     94  C   UNL A   1      28.364  30.223  23.223  1.00  0.00     0.044 A 
ATOM     95  Cl  UNL A   1      27.321  31.485  23.740  1.00  0.00    -0.084 Cl
ENDBRANCH  86  88
ENDBRANCH  80  84
ENDBRANCH  75  78
ENDBRANCH  73  74
ENDBRANCH  72  73
ENDBRANCH   1  72
TORSDOF 16
ENDMDL
MODEL 3
REMARK VINA RESULT:     -12.0      5.515      8.356
REMARK SMILES O=C(NCCCCNC(=O)[C@H]1CCCC[C@H]1C(=O)Nc1ccc(Cl)cc1F)c1ccc(-c2c3nc(c(-c4cccc(S(=O)(=O)[O-])c4F)c4ccc([nH]4)c(-c4cccc(S(=O)(=O)[O-])c4F)c4nc(c(-c5cccc(S(=O)(=O)[O-])c5F)c5ccc2[nH]5)C=C4)C=C3)cc1
REMARK SMILES IDX 5 1 4 2 3 3 1 4 2 5 28 7 29 8 90 9 30 10 89 11 31 12 32 13
REMARK SMILES IDX 33 14 83 15 34 16 88 17 82 18 84 19 35 20 87 21 81 22 80 23
REMARK SMILES IDX 36 25 68 26 48 27 67 28 49 29 52 30 66 31 85 32 50 33 51 34
REMARK SMILES IDX 65 36 86 37 53 38 37 39 38 40 46 41 39 42 41 43 47 44 40 45
REMARK SMILES IDX 42 46 43 47 44 48 45 49 69 50 70 51 78 52 71 53 73 54 79 55
REMARK SMILES IDX 72 56 74 57 75 58 76 59 77 60 54 61 55 62 63 63 56 64 58 65
REMARK SMILES IDX 64 66 57 67 59 68 60 69 61 70 62 71 6 72 7 73 8 74 9 75
REMARK SMILES IDX 10 77 11 78 12 79 16 80 13 81 15 82 14 83 17 84 18 85 19 86
REMARK SMILES IDX 20 88 21 89 26 90 22 91 25 92 27 93 23 94 24 95
REMARK H PARENT 3 6 84 24 52 35 8 76 19 87
REMARK Flexibility Score: inf
ROOT
ATOM      1  C   UNL A   1      37.574  20.170  24.584  1.00  0.00     0.023 C 
ENDROOT
BRANCH   1   2
ATOM      2  C   UNL A   1      38.528  20.464  25.738  1.00  0.00     0.116 C 
BRANCH   2   3
ATOM      3  N   UNL A   1      39.584  19.473  25.895  1.00  0.00    -0.352 N 
ATOM      4  O   UNL A   1      41.670  18.670  26.159  1.00  0.00    -0.269 OA
ATOM      5  C   UNL A   1      40.924  19.636  26.183  1.00  0.00     0.251 C 
ATOM      6  H   UNL A   1      39.297  18.539  25.775  1.00  0.00     0.163 HD
BRANCH   5   7
ATOM      7  C   UNL A   1      41.454  20.987  26.482  1.00  0.00     0.039 A 
ATOM      8  C   UNL A   1      41.495  21.461  27.792  1.00  0.00     0.014 A 
ATOM      9  C   UNL A   1      41.904  21.795  25.435  1.00  0.00     0.014 A 
ATOM     10  C   UNL A   1      41.795  22.795  28.036  1.00  0.00     0.010 A 
ATOM     11  C   UNL A   1      42.312  23.108  25.697  1.00  0.00     0.010 A 
ATOM     12  C   UNL A   1      42.218  23.635  26.994  1.00  0.00    -0.014 A 
BRANCH  12  13
ATOM     13  C   UNL A   1      42.632  25.030  27.305  1.00  0.00     0.031 A 
ATOM     14  C   UNL A   1      41.691  26.005  27.964  1.00  0.00     0.074 A 
ATOM     15  C   UNL A   1      43.884  25.416  26.983  1.00  0.00     0.049 A 
ATOM     16  N   UNL A   1      41.908  27.251  28.302  1.00  0.00    -0.248 NA
ATOM     17  C   UNL A   1      40.336  25.530  28.282  1.00  0.00     0.031 C 
ATOM     18  C   UNL A   1      44.873  24.576  26.300  1.00  0.00     0.029 A 
ATOM     19  N   UNL A   1      44.539  26.605  27.176  1.00  0.00    -0.354 N 
ATOM     20  C   UNL A   1      40.710  27.724  28.825  1.00  0.00     0.074 A 
ATOM     21  C   UNL A   1      39.766  26.628  28.765  1.00  0.00     0.031 C 
ATOM     22  C   UNL A   1      46.012  25.266  26.153  1.00  0.00     0.029 A 
ATOM     23  C   UNL A   1      45.818  26.613  26.671  1.00  0.00     0.049 A 
ATOM     24  H   UNL A   1      44.133  27.377  27.632  1.00  0.00     0.167 HD
ATOM     25  C   UNL A   1      40.429  28.953  29.322  1.00  0.00     0.034 A 
ATOM     26  C   UNL A   1      46.730  27.601  26.603  1.00  0.00     0.034 A 
ATOM     27  C   UNL A   1      41.384  30.026  29.422  1.00  0.00     0.049 A 
ATOM     28  C   UNL A   1      46.392  28.944  27.182  1.00  0.00     0.074 A 
ATOM     29  C   UNL A   1      41.212  31.279  29.984  1.00  0.00     0.029 A 
ATOM     30  N   UNL A   1      42.685  29.979  28.945  1.00  0.00    -0.354 N 
ATOM     31  N   UNL A   1      45.299  29.323  27.797  1.00  0.00    -0.248 NA
ATOM     32  C   UNL A   1      47.422  29.986  27.083  1.00  0.00     0.031 C 
ATOM     33  C   UNL A   1      42.399  32.000  29.822  1.00  0.00     0.029 A 
ATOM     34  C   UNL A   1      43.320  31.187  29.185  1.00  0.00     0.049 A 
ATOM     35  H   UNL A   1      43.096  29.203  28.501  1.00  0.00     0.167 HD
ATOM     36  C   UNL A   1      45.517  30.640  28.179  1.00  0.00     0.074 A 
ATOM     37  C   UNL A   1      46.860  30.982  27.756  1.00  0.00     0.031 C 
ATOM     38  C   UNL A   1      44.675  31.498  28.804  1.00  0.00     0.034 A 
BRANCH  25  39
ATOM     39  C   UNL A   1      39.037  29.215  29.839  1.00  0.00     0.023 A 
ATOM     40  C   UNL A   1      38.716  28.888  31.171  1.00  0.00     0.012 A 
ATOM     41  C   UNL A   1      38.088  29.890  29.045  1.00  0.00     0.148 A 
ATOM     42  C   UNL A   1      37.466  29.214  31.701  1.00  0.00     0.002 A 
ATOM     43  C   UNL A   1      36.860  30.248  29.591  1.00  0.00     0.091 A 
ATOM     44  F   UNL A   1      38.409  30.180  27.775  1.00  0.00    -0.205 F 
ATOM     45  C   UNL A   1      36.545  29.903  30.915  1.00  0.00     0.022 A 
BRANCH  43  46
ATOM     46  S   UNL A   1      35.635  31.206  28.691  1.00  0.00     0.127 S 
ATOM     47  O   UNL A   1      34.785  31.692  29.777  1.00  0.00    -0.237 OA
ATOM     48  O   UNL A   1      36.457  32.235  28.054  1.00  0.00    -0.237 OA
ATOM     49  O   UNL A   1      34.996  30.279  27.768  1.00  0.00    -0.744 OA
ENDBRANCH  43  46
ENDBRANCH  25  39
BRANCH  26  50
ATOM     50  C   UNL A   1      48.058  27.344  25.980  1.00  0.00     0.023 A 
ATOM     51  C   UNL A   1      49.118  26.864  26.772  1.00  0.00     0.012 A 
ATOM     52  C   UNL A   1      48.266  27.541  24.601  1.00  0.00     0.148 A 
ATOM     53  C   UNL A   1      50.369  26.615  26.208  1.00  0.00     0.002 A 
ATOM     54  C   UNL A   1      49.495  27.230  24.034  1.00  0.00     0.091 A 
ATOM     55  F   UNL A   1      47.252  28.016  23.864  1.00  0.00    -0.205 F 
ATOM     56  C   UNL A   1      50.555  26.786  24.839  1.00  0.00     0.022 A 
BRANCH  54  57
ATOM     57  S   UNL A   1      49.761  27.277  22.258  1.00  0.00     0.127 S 
ATOM     58  O   UNL A   1      49.535  28.689  21.959  1.00  0.00    -0.237 OA
ATOM     59  O   UNL A   1      51.152  26.837  22.144  1.00  0.00    -0.237 OA
ATOM     60  O   UNL A   1      48.794  26.342  21.699  1.00  0.00    -0.744 OA
ENDBRANCH  54  57
ENDBRANCH  26  50
BRANCH  38  61
ATOM     61  C   UNL A   1      45.187  32.883  29.097  1.00  0.00     0.023 A 
ATOM     62  C   UNL A   1      45.795  33.155  30.338  1.00  0.00     0.012 A 
ATOM     63  C   UNL A   1      45.115  33.898  28.123  1.00  0.00     0.148 A 
ATOM     64  C   UNL A   1      46.291  34.427  30.620  1.00  0.00     0.002 A 
ATOM     65  C   UNL A   1      45.656  35.150  28.392  1.00  0.00     0.091 A 
ATOM     66  F   UNL A   1      44.513  33.624  26.956  1.00  0.00    -0.205 F 
ATOM     67  C   UNL A   1      46.232  35.419  29.645  1.00  0.00     0.022 A 
BRANCH  65  68
ATOM     68  S   UNL A   1      45.705  36.459  27.165  1.00  0.00     0.127 S 
ATOM     69  O   UNL A   1      44.292  36.822  27.058  1.00  0.00    -0.237 OA
ATOM     70  O   UNL A   1      46.546  37.465  27.817  1.00  0.00    -0.237 OA
ATOM     71  O   UNL A   1      46.291  35.867  25.971  1.00  0.00    -0.744 OA
ENDBRANCH  65  68
ENDBRANCH  38  61
ENDBRANCH  12  13
ENDBRANCH   5   7
ENDBRANCH   2   3
ENDBRANCH   1   2
BRANCH   1  72
ATOM     72  C   UNL A   1      36.312  19.402  24.961  1.00  0.00     0.023 C 
BRANCH  72  73
ATOM     73  C   UNL A   1      35.006  20.191  24.882  1.00  0.00     0.116 C 
BRANCH  73  74
ATOM     74  N   UNL A   1      34.503  20.645  26.158  1.00  0.00    -0.356 N 
ATOM     75  C   UNL A   1      34.228  21.892  26.615  1.00  0.00     0.223 C 
ATOM     76  H   UNL A   1      34.331  19.925  26.807  1.00  0.00     0.163 HD
ATOM     77  O   UNL A   1      33.930  21.980  27.812  1.00  0.00    -0.275 OA
BRANCH  75  78
ATOM     78  C   UNL A   1      34.238  23.171  25.766  1.00  0.00     0.091 C 
ATOM     79  C   UNL A   1      35.589  23.761  25.321  1.00  0.00     0.014 C 
ATOM     80  C   UNL A   1      33.165  23.255  24.658  1.00  0.00     0.091 C 
ATOM     81  C   UNL A   1      36.009  23.476  23.874  1.00  0.00     0.001 C 
ATOM     82  C   UNL A   1      33.661  22.819  23.284  1.00  0.00     0.014 C 
ATOM     83  C   UNL A   1      34.873  23.654  22.878  1.00  0.00     0.001 C 
BRANCH  80  84
ATOM     84  C   UNL A   1      31.750  22.834  25.069  1.00  0.00     0.228 C 
ATOM     85  O   UNL A   1      31.512  21.626  25.214  1.00  0.00    -0.274 OA
ATOM     86  N   UNL A   1      30.729  23.692  25.335  1.00  0.00    -0.323 N 
ATOM     87  H   UNL A   1      29.960  23.291  25.801  1.00  0.00     0.170 HD
BRANCH  86  88
ATOM     88  C   UNL A   1      30.600  25.053  25.052  1.00  0.00     0.077 A 
ATOM     89  C   UNL A   1      30.073  25.454  23.823  1.00  0.00     0.031 A 
ATOM     90  C   UNL A   1      31.212  26.006  25.872  1.00  0.00     0.148 A 
ATOM     91  C   UNL A   1      30.080  26.808  23.472  1.00  0.00     0.023 A 
ATOM     92  C   UNL A   1      31.197  27.356  25.546  1.00  0.00     0.062 A 
ATOM     93  F   UNL A   1      31.859  25.628  26.981  1.00  0.00    -0.205 F 
ATOM     94  C   UNL A   1      30.628  27.752  24.342  1.00  0.00     0.044 A 
ATOM     95  Cl  UNL A   1      30.632  29.414  23.909  1.00  0.00    -0.084 Cl
ENDBRANCH  86  88
ENDBRANCH  80  84
ENDBRANCH  75  78
ENDBRANCH  73  74
ENDBRANCH  72  73
ENDBRANCH   1  72
TORSDOF 16
ENDMDL
