MODEL 1
REMARK VINA RESULT:     -14.3      0.000      0.000
REMARK SMILES O=C(NCCCCNC(=O)c1ccccc1C(=O)Nc1ccc(N2C(=O)[C@H]3[C@@H]4CC[C@@H](C4)[C@@H]3C2=O)cc1)c1ccc(-c2c3nc(c(-c4cccc(S(=O)(=O)[O-])c4F)c4ccc([nH]4)c(-c4cccc(S(=O)(=O)[O-])c4F)c4nc(c(-c5cccc(S(=O)(=O)[O-])c5F)c5ccc2[nH]5)C=C4)C=C3)cc1
REMARK SMILES IDX 5 1 4 2 3 3 1 4 2 5 38 7 39 8 100 9 40 10 99 11 41 12 42 13
REMARK SMILES IDX 43 14 93 15 44 16 98 17 92 18 94 19 45 20 97 21 91 22 90 23
REMARK SMILES IDX 46 25 78 26 58 27 77 28 59 29 62 30 76 31 95 32 60 33 61 34
REMARK SMILES IDX 75 36 96 37 63 38 47 39 48 40 56 41 49 42 51 43 57 44 50 45
REMARK SMILES IDX 52 46 53 47 54 48 55 49 79 50 80 51 88 52 81 53 83 54 89 55
REMARK SMILES IDX 82 56 84 57 85 58 86 59 87 60 64 61 65 62 73 63 66 64 68 65
REMARK SMILES IDX 74 66 67 67 69 68 70 69 71 70 72 71 6 72 7 73 8 74 9 75
REMARK SMILES IDX 10 77 11 78 12 79 16 80 13 81 15 82 14 83 17 84 18 85 19 86
REMARK SMILES IDX 20 88 21 89 37 90 22 91 36 92 23 93 24 94 25 95 34 96 26 97
REMARK SMILES IDX 27 98 33 99 35 100 28 101 31 102 29 103 32 104 30 105
REMARK H PARENT 3 6 94 24 62 35 8 76 19 87
REMARK Flexibility Score: inf
ROOT
ATOM      1  C   UNL A   1      31.415  32.506  26.514  1.00  0.00     0.023 C 
ENDROOT
BRANCH   1   2
ATOM      2  C   UNL A   1      32.597  32.989  27.350  1.00  0.00     0.116 C 
BRANCH   2   3
ATOM      3  N   UNL A   1      32.434  34.343  27.841  1.00  0.00    -0.352 N 
ATOM      4  O   UNL A   1      32.683  36.110  29.202  1.00  0.00    -0.269 OA
ATOM      5  C   UNL A   1      33.086  35.005  28.853  1.00  0.00     0.251 C 
ATOM      6  H   UNL A   1      31.746  34.873  27.376  1.00  0.00     0.163 HD
BRANCH   5   7
ATOM      7  C   UNL A   1      34.243  34.386  29.541  1.00  0.00     0.039 A 
ATOM      8  C   UNL A   1      34.077  33.587  30.674  1.00  0.00     0.014 A 
ATOM      9  C   UNL A   1      35.519  34.572  29.002  1.00  0.00     0.014 A 
ATOM     10  C   UNL A   1      35.193  33.083  31.342  1.00  0.00     0.010 A 
ATOM     11  C   UNL A   1      36.631  33.998  29.628  1.00  0.00     0.010 A 
ATOM     12  C   UNL A   1      36.482  33.270  30.818  1.00  0.00    -0.014 A 
BRANCH  12  13
ATOM     13  C   UNL A   1      37.656  32.630  31.470  1.00  0.00     0.031 A 
ATOM     14  C   UNL A   1      38.382  31.483  30.821  1.00  0.00     0.074 A 
ATOM     15  C   UNL A   1      38.036  33.055  32.691  1.00  0.00     0.049 A 
ATOM     16  N   UNL A   1      39.393  30.786  31.275  1.00  0.00    -0.248 NA
ATOM     17  C   UNL A   1      37.906  31.054  29.497  1.00  0.00     0.031 C 
ATOM     18  C   UNL A   1      37.377  34.119  33.451  1.00  0.00     0.029 A 
ATOM     19  N   UNL A   1      39.042  32.627  33.522  1.00  0.00    -0.354 N 
ATOM     20  C   UNL A   1      39.647  29.810  30.318  1.00  0.00     0.074 A 
ATOM     21  C   UNL A   1      38.679  30.002  29.260  1.00  0.00     0.031 C 
ATOM     22  C   UNL A   1      37.989  34.258  34.635  1.00  0.00     0.029 A 
ATOM     23  C   UNL A   1      39.045  33.257  34.744  1.00  0.00     0.049 A 
ATOM     24  H   UNL A   1      39.696  31.937  33.266  1.00  0.00     0.167 HD
ATOM     25  C   UNL A   1      40.603  28.849  30.317  1.00  0.00     0.034 A 
ATOM     26  C   UNL A   1      39.783  33.034  35.848  1.00  0.00     0.034 A 
ATOM     27  C   UNL A   1      41.572  28.671  31.369  1.00  0.00     0.049 A 
ATOM     28  C   UNL A   1      40.839  31.969  35.821  1.00  0.00     0.074 A 
ATOM     29  C   UNL A   1      42.632  27.781  31.419  1.00  0.00     0.029 A 
ATOM     30  N   UNL A   1      41.584  29.370  32.566  1.00  0.00    -0.354 N 
ATOM     31  N   UNL A   1      41.164  31.155  34.846  1.00  0.00    -0.248 NA
ATOM     32  C   UNL A   1      41.655  31.809  37.034  1.00  0.00     0.031 C 
ATOM     33  C   UNL A   1      43.255  27.911  32.665  1.00  0.00     0.029 A 
ATOM     34  C   UNL A   1      42.615  28.916  33.372  1.00  0.00     0.049 A 
ATOM     35  H   UNL A   1      40.952  30.085  32.808  1.00  0.00     0.167 HD
ATOM     36  C   UNL A   1      42.236  30.407  35.314  1.00  0.00     0.074 A 
ATOM     37  C   UNL A   1      42.521  30.879  36.654  1.00  0.00     0.031 C 
ATOM     38  C   UNL A   1      42.917  29.414  34.691  1.00  0.00     0.034 A 
BRANCH  25  39
ATOM     39  C   UNL A   1      40.660  27.915  29.133  1.00  0.00     0.023 A 
ATOM     40  C   UNL A   1      39.783  26.812  29.063  1.00  0.00     0.012 A 
ATOM     41  C   UNL A   1      41.547  28.157  28.065  1.00  0.00     0.148 A 
ATOM     42  C   UNL A   1      39.819  25.942  27.973  1.00  0.00     0.002 A 
ATOM     43  C   UNL A   1      41.544  27.313  26.960  1.00  0.00     0.091 A 
ATOM     44  F   UNL A   1      42.385  29.200  28.152  1.00  0.00    -0.205 F 
ATOM     45  C   UNL A   1      40.692  26.197  26.920  1.00  0.00     0.022 A 
BRANCH  43  46
ATOM     46  S   UNL A   1      42.572  27.605  25.515  1.00  0.00     0.127 S 
ATOM     47  O   UNL A   1      42.275  26.428  24.700  1.00  0.00    -0.237 OA
ATOM     48  O   UNL A   1      42.023  28.859  24.997  1.00  0.00    -0.237 OA
ATOM     49  O   UNL A   1      43.938  27.698  26.008  1.00  0.00    -0.744 OA
ENDBRANCH  43  46
ENDBRANCH  25  39
BRANCH  26  50
ATOM     50  C   UNL A   1      39.541  33.856  37.065  1.00  0.00     0.023 A 
ATOM     51  C   UNL A   1      39.930  35.208  37.087  1.00  0.00     0.012 A 
ATOM     52  C   UNL A   1      38.866  33.314  38.178  1.00  0.00     0.148 A 
ATOM     53  C   UNL A   1      39.672  36.002  38.206  1.00  0.00     0.002 A 
ATOM     54  C   UNL A   1      38.559  34.124  39.262  1.00  0.00     0.091 A 
ATOM     55  F   UNL A   1      38.512  32.022  38.136  1.00  0.00    -0.205 F 
ATOM     56  C   UNL A   1      38.977  35.463  39.286  1.00  0.00     0.022 A 
BRANCH  54  57
ATOM     57  S   UNL A   1      37.545  33.559  40.632  1.00  0.00     0.127 S 
ATOM     58  O   UNL A   1      36.345  33.093  39.943  1.00  0.00    -0.237 OA
ATOM     59  O   UNL A   1      38.379  32.502  41.205  1.00  0.00    -0.237 OA
ATOM     60  O   UNL A   1      37.365  34.718  41.496  1.00  0.00    -0.744 OA
ENDBRANCH  54  57
ENDBRANCH  26  50
BRANCH  38  61
ATOM     61  C   UNL A   1      44.071  28.785  35.430  1.00  0.00     0.023 A 
ATOM     62  C   UNL A   1      45.371  29.308  35.286  1.00  0.00     0.012 A 
ATOM     63  C   UNL A   1      43.848  27.722  36.327  1.00  0.00     0.148 A 
ATOM     64  C   UNL A   1      46.437  28.762  36.003  1.00  0.00     0.002 A 
ATOM     65  C   UNL A   1      44.903  27.218  37.076  1.00  0.00     0.091 A 
ATOM     66  F   UNL A   1      42.607  27.227  36.435  1.00  0.00    -0.205 F 
ATOM     67  C   UNL A   1      46.202  27.727  36.906  1.00  0.00     0.022 A 
BRANCH  65  68
ATOM     68  S   UNL A   1      44.679  25.956  38.334  1.00  0.00     0.127 S 
ATOM     69  O   UNL A   1      44.030  26.714  39.404  1.00  0.00    -0.237 OA
ATOM     70  O   UNL A   1      43.812  24.994  37.655  1.00  0.00    -0.237 OA
ATOM     71  O   UNL A   1      46.010  25.457  38.648  1.00  0.00    -0.744 OA
ENDBRANCH  65  68
ENDBRANCH  38  61
ENDBRANCH  12  13
ENDBRANCH   5   7
ENDBRANCH   2   3
ENDBRANCH   1   2
BRANCH   1  72
ATOM     72  C   UNL A   1      31.476  31.030  26.099  1.00  0.00     0.023 C 
BRANCH  72  73
ATOM     73  C   UNL A   1      32.653  30.250  26.684  1.00  0.00     0.116 C 
BRANCH  73  74
ATOM     74  N   UNL A   1      33.527  29.714  25.659  1.00  0.00    -0.352 N 
ATOM     75  C   UNL A   1      33.244  28.843  24.643  1.00  0.00     0.252 C 
ATOM     76  H   UNL A   1      34.460  30.021  25.702  1.00  0.00     0.163 HD
ATOM     77  O   UNL A   1      34.162  28.360  23.980  1.00  0.00    -0.269 OA
BRANCH  75  78
ATOM     78  C   UNL A   1      31.876  28.351  24.392  1.00  0.00     0.052 A 
ATOM     79  C   UNL A   1      31.348  28.844  23.173  1.00  0.00     0.014 A 
ATOM     80  C   UNL A   1      31.109  27.478  25.179  1.00  0.00     0.052 A 
ATOM     81  C   UNL A   1      30.130  28.400  22.671  1.00  0.00     0.001 A 
ATOM     82  C   UNL A   1      29.891  27.013  24.620  1.00  0.00     0.014 A 
ATOM     83  C   UNL A   1      29.415  27.453  23.382  1.00  0.00     0.001 A 
BRANCH  80  84
ATOM     84  C   UNL A   1      31.433  26.855  26.501  1.00  0.00     0.256 C 
ATOM     85  O   UNL A   1      31.352  27.587  27.496  1.00  0.00    -0.269 OA
ATOM     86  N   UNL A   1      31.726  25.535  26.749  1.00  0.00    -0.322 N 
ATOM     87  H   UNL A   1      31.805  25.317  27.706  1.00  0.00     0.170 HD
BRANCH  86  88
ATOM     88  C   UNL A   1      31.931  24.446  25.906  1.00  0.00     0.041 A 
ATOM     89  C   UNL A   1      33.144  24.413  25.212  1.00  0.00     0.028 A 
ATOM     90  C   UNL A   1      31.038  23.389  25.797  1.00  0.00     0.028 A 
ATOM     91  C   UNL A   1      33.595  23.218  24.661  1.00  0.00     0.029 A 
ATOM     92  C   UNL A   1      31.432  22.236  25.112  1.00  0.00     0.029 A 
ATOM     93  C   UNL A   1      32.750  22.112  24.643  1.00  0.00     0.052 A 
BRANCH  93  94
ATOM     94  N   UNL A   1      33.243  20.839  24.313  1.00  0.00    -0.250 N 
ATOM     95  C   UNL A   1      32.618  19.994  23.389  1.00  0.00     0.237 C 
ATOM     96  C   UNL A   1      34.214  20.167  25.088  1.00  0.00     0.237 C 
ATOM     97  O   UNL A   1      31.849  20.247  22.484  1.00  0.00    -0.274 OA
ATOM     98  C   UNL A   1      32.954  18.644  23.911  1.00  0.00     0.095 C 
ATOM     99  C   UNL A   1      34.389  18.869  24.355  1.00  0.00     0.095 C 
ATOM    100  O   UNL A   1      34.846  20.535  26.061  1.00  0.00    -0.274 OA
ATOM    101  C   UNL A   1      33.004  17.243  23.309  1.00  0.00     0.002 C 
ATOM    102  C   UNL A   1      34.802  17.436  24.677  1.00  0.00     0.002 C 
ATOM    103  C   UNL A   1      32.616  16.324  24.488  1.00  0.00     0.005 C 
ATOM    104  C   UNL A   1      34.506  16.880  23.259  1.00  0.00     0.009 C 
ATOM    105  C   UNL A   1      33.766  16.614  25.498  1.00  0.00     0.005 C 
ENDBRANCH  93  94
ENDBRANCH  86  88
ENDBRANCH  80  84
ENDBRANCH  75  78
ENDBRANCH  73  74
ENDBRANCH  72  73
ENDBRANCH   1  72
TORSDOF 17
ENDMDL
MODEL 2
REMARK VINA RESULT:     -13.8      3.044      8.145
REMARK SMILES O=C(NCCCCNC(=O)c1ccccc1C(=O)Nc1ccc(N2C(=O)[C@H]3[C@@H]4CC[C@@H](C4)[C@@H]3C2=O)cc1)c1ccc(-c2c3nc(c(-c4cccc(S(=O)(=O)[O-])c4F)c4ccc([nH]4)c(-c4cccc(S(=O)(=O)[O-])c4F)c4nc(c(-c5cccc(S(=O)(=O)[O-])c5F)c5ccc2[nH]5)C=C4)C=C3)cc1
REMARK SMILES IDX 5 1 4 2 3 3 1 4 2 5 38 7 39 8 100 9 40 10 99 11 41 12 42 13
REMARK SMILES IDX 43 14 93 15 44 16 98 17 92 18 94 19 45 20 97 21 91 22 90 23
REMARK SMILES IDX 46 25 78 26 58 27 77 28 59 29 62 30 76 31 95 32 60 33 61 34
REMARK SMILES IDX 75 36 96 37 63 38 47 39 48 40 56 41 49 42 51 43 57 44 50 45
REMARK SMILES IDX 52 46 53 47 54 48 55 49 79 50 80 51 88 52 81 53 83 54 89 55
REMARK SMILES IDX 82 56 84 57 85 58 86 59 87 60 64 61 65 62 73 63 66 64 68 65
REMARK SMILES IDX 74 66 67 67 69 68 70 69 71 70 72 71 6 72 7 73 8 74 9 75
REMARK SMILES IDX 10 77 11 78 12 79 16 80 13 81 15 82 14 83 17 84 18 85 19 86
REMARK SMILES IDX 20 88 21 89 37 90 22 91 36 92 23 93 24 94 25 95 34 96 26 97
REMARK SMILES IDX 27 98 33 99 35 100 28 101 31 102 29 103 32 104 30 105
REMARK H PARENT 3 6 94 24 62 35 8 76 19 87
REMARK Flexibility Score: inf
ROOT
ATOM      1  C   UNL A   1      33.489  29.087  27.353  1.00  0.00     0.023 C 
ENDROOT
BRANCH   1   2
ATOM      2  C   UNL A   1      34.367  30.275  26.971  1.00  0.00     0.116 C 
BRANCH   2   3
ATOM      3  N   UNL A   1      34.142  31.442  27.801  1.00  0.00    -0.352 N 
ATOM      4  O   UNL A   1      34.396  32.847  29.533  1.00  0.00    -0.269 OA
ATOM      5  C   UNL A   1      34.852  31.915  28.878  1.00  0.00     0.251 C 
ATOM      6  H   UNL A   1      33.356  31.981  27.555  1.00  0.00     0.163 HD
BRANCH   5   7
ATOM      7  C   UNL A   1      36.138  31.292  29.270  1.00  0.00     0.039 A 
ATOM      8  C   UNL A   1      37.362  31.820  28.855  1.00  0.00     0.014 A 
ATOM      9  C   UNL A   1      36.112  30.182  30.118  1.00  0.00     0.014 A 
ATOM     10  C   UNL A   1      38.551  31.165  29.179  1.00  0.00     0.010 A 
ATOM     11  C   UNL A   1      37.309  29.573  30.508  1.00  0.00     0.010 A 
ATOM     12  C   UNL A   1      38.538  30.043  30.022  1.00  0.00    -0.014 A 
BRANCH  12  13
ATOM     13  C   UNL A   1      39.817  29.421  30.460  1.00  0.00     0.031 A 
ATOM     14  C   UNL A   1      40.622  30.000  31.591  1.00  0.00     0.074 A 
ATOM     15  C   UNL A   1      40.285  28.351  29.787  1.00  0.00     0.049 A 
ATOM     16  N   UNL A   1      41.777  29.606  32.066  1.00  0.00    -0.248 NA
ATOM     17  C   UNL A   1      40.066  31.179  32.271  1.00  0.00     0.031 C 
ATOM     18  C   UNL A   1      39.627  27.731  28.635  1.00  0.00     0.029 A 
ATOM     19  N   UNL A   1      41.432  27.615  29.950  1.00  0.00    -0.354 N 
ATOM     20  C   UNL A   1      42.108  30.511  33.068  1.00  0.00     0.074 A 
ATOM     21  C   UNL A   1      41.033  31.479  33.128  1.00  0.00     0.031 C 
ATOM     22  C   UNL A   1      40.381  26.716  28.191  1.00  0.00     0.029 A 
ATOM     23  C   UNL A   1      41.601  26.647  28.988  1.00  0.00     0.049 A 
ATOM     24  H   UNL A   1      42.071  27.766  30.684  1.00  0.00     0.167 HD
ATOM     25  C   UNL A   1      43.202  30.530  33.869  1.00  0.00     0.034 A 
ATOM     26  C   UNL A   1      42.636  25.821  28.742  1.00  0.00     0.034 A 
ATOM     27  C   UNL A   1      44.263  29.556  33.811  1.00  0.00     0.049 A 
ATOM     28  C   UNL A   1      43.833  25.856  29.645  1.00  0.00     0.074 A 
ATOM     29  C   UNL A   1      45.369  29.442  34.636  1.00  0.00     0.029 A 
ATOM     30  N   UNL A   1      44.369  28.551  32.862  1.00  0.00    -0.354 N 
ATOM     31  N   UNL A   1      44.059  26.622  30.684  1.00  0.00    -0.248 NA
ATOM     32  C   UNL A   1      44.906  24.890  29.366  1.00  0.00     0.031 C 
ATOM     33  C   UNL A   1      46.167  28.397  34.157  1.00  0.00     0.029 A 
ATOM     34  C   UNL A   1      45.533  27.828  33.065  1.00  0.00     0.049 A 
ATOM     35  H   UNL A   1      43.713  28.376  32.150  1.00  0.00     0.167 HD
ATOM     36  C   UNL A   1      45.284  26.217  31.199  1.00  0.00     0.074 A 
ATOM     37  C   UNL A   1      45.742  25.121  30.369  1.00  0.00     0.031 C 
ATOM     38  C   UNL A   1      45.968  26.714  32.258  1.00  0.00     0.034 A 
BRANCH  25  39
ATOM     39  C   UNL A   1      43.307  31.636  34.890  1.00  0.00     0.023 A 
ATOM     40  C   UNL A   1      44.028  32.809  34.587  1.00  0.00     0.012 A 
ATOM     41  C   UNL A   1      42.648  31.535  36.132  1.00  0.00     0.148 A 
ATOM     42  C   UNL A   1      44.131  33.843  35.518  1.00  0.00     0.002 A 
ATOM     43  C   UNL A   1      42.715  32.589  37.036  1.00  0.00     0.091 A 
ATOM     44  F   UNL A   1      41.979  30.408  36.413  1.00  0.00    -0.205 F 
ATOM     45  C   UNL A   1      43.468  33.736  36.737  1.00  0.00     0.022 A 
BRANCH  43  46
ATOM     46  S   UNL A   1      41.826  32.584  38.598  1.00  0.00     0.127 S 
ATOM     47  O   UNL A   1      42.035  33.955  39.061  1.00  0.00    -0.237 OA
ATOM     48  O   UNL A   1      40.457  32.287  38.172  1.00  0.00    -0.237 OA
ATOM     49  O   UNL A   1      42.447  31.546  39.409  1.00  0.00    -0.744 OA
ENDBRANCH  43  46
ENDBRANCH  25  39
BRANCH  26  50
ATOM     50  C   UNL A   1      42.563  24.886  27.586  1.00  0.00     0.023 A 
ATOM     51  C   UNL A   1      43.108  25.262  26.345  1.00  0.00     0.012 A 
ATOM     52  C   UNL A   1      42.009  23.598  27.735  1.00  0.00     0.148 A 
ATOM     53  C   UNL A   1      43.084  24.379  25.264  1.00  0.00     0.002 A 
ATOM     54  C   UNL A   1      42.043  22.704  26.674  1.00  0.00     0.091 A 
ATOM     55  F   UNL A   1      41.490  23.266  28.925  1.00  0.00    -0.205 F 
ATOM     56  C   UNL A   1      42.564  23.097  25.432  1.00  0.00     0.022 A 
BRANCH  54  57
ATOM     57  S   UNL A   1      41.528  20.991  26.839  1.00  0.00     0.127 S 
ATOM     58  O   UNL A   1      40.088  21.131  27.037  1.00  0.00    -0.237 OA
ATOM     59  O   UNL A   1      41.922  20.435  25.544  1.00  0.00    -0.237 OA
ATOM     60  O   UNL A   1      42.272  20.461  27.973  1.00  0.00    -0.744 OA
ENDBRANCH  54  57
ENDBRANCH  26  50
BRANCH  38  61
ATOM     61  C   UNL A   1      47.276  26.057  32.618  1.00  0.00     0.023 A 
ATOM     62  C   UNL A   1      48.483  26.536  32.073  1.00  0.00     0.012 A 
ATOM     63  C   UNL A   1      47.311  25.009  33.560  1.00  0.00     0.148 A 
ATOM     64  C   UNL A   1      49.702  25.963  32.437  1.00  0.00     0.002 A 
ATOM     65  C   UNL A   1      48.531  24.479  33.958  1.00  0.00     0.091 A 
ATOM     66  F   UNL A   1      46.150  24.554  34.052  1.00  0.00    -0.205 F 
ATOM     67  C   UNL A   1      49.728  24.945  33.387  1.00  0.00     0.022 A 
BRANCH  65  68
ATOM     68  S   UNL A   1      48.670  23.236  35.247  1.00  0.00     0.127 S 
ATOM     69  O   UNL A   1      48.021  22.084  34.621  1.00  0.00    -0.237 OA
ATOM     70  O   UNL A   1      50.120  23.110  35.400  1.00  0.00    -0.237 OA
ATOM     71  O   UNL A   1      47.983  23.780  36.409  1.00  0.00    -0.744 OA
ENDBRANCH  65  68
ENDBRANCH  38  61
ENDBRANCH  12  13
ENDBRANCH   5   7
ENDBRANCH   2   3
ENDBRANCH   1   2
BRANCH   1  72
ATOM     72  C   UNL A   1      31.990  29.278  27.089  1.00  0.00     0.023 C 
BRANCH  72  73
ATOM     73  C   UNL A   1      31.094  28.190  27.679  1.00  0.00     0.116 C 
BRANCH  73  74
ATOM     74  N   UNL A   1      31.653  26.862  27.517  1.00  0.00    -0.352 N 
ATOM     75  C   UNL A   1      31.595  26.019  26.441  1.00  0.00     0.252 C 
ATOM     76  H   UNL A   1      32.146  26.517  28.295  1.00  0.00     0.163 HD
ATOM     77  O   UNL A   1      31.976  24.855  26.557  1.00  0.00    -0.269 OA
BRANCH  75  78
ATOM     78  C   UNL A   1      30.961  26.416  25.169  1.00  0.00     0.052 A 
ATOM     79  C   UNL A   1      29.606  26.009  25.100  1.00  0.00     0.014 A 
ATOM     80  C   UNL A   1      31.527  27.134  24.105  1.00  0.00     0.052 A 
ATOM     81  C   UNL A   1      28.779  26.397  24.052  1.00  0.00     0.001 A 
ATOM     82  C   UNL A   1      30.648  27.549  23.072  1.00  0.00     0.014 A 
ATOM     83  C   UNL A   1      29.294  27.201  23.051  1.00  0.00     0.001 A 
BRANCH  80  84
ATOM     84  C   UNL A   1      32.925  27.642  23.935  1.00  0.00     0.256 C 
ATOM     85  O   UNL A   1      33.068  28.869  23.872  1.00  0.00    -0.269 OA
ATOM     86  N   UNL A   1      34.083  26.901  23.928  1.00  0.00    -0.322 N 
ATOM     87  H   UNL A   1      34.904  27.446  23.907  1.00  0.00     0.170 HD
BRANCH  86  88
ATOM     88  C   UNL A   1      34.319  25.529  23.946  1.00  0.00     0.041 A 
ATOM     89  C   UNL A   1      34.861  25.004  25.123  1.00  0.00     0.028 A 
ATOM     90  C   UNL A   1      33.970  24.683  22.902  1.00  0.00     0.028 A 
ATOM     91  C   UNL A   1      34.777  23.638  25.375  1.00  0.00     0.029 A 
ATOM     92  C   UNL A   1      34.026  23.301  23.101  1.00  0.00     0.029 A 
ATOM     93  C   UNL A   1      34.323  22.785  24.373  1.00  0.00     0.052 A 
BRANCH  93  94
ATOM     94  N   UNL A   1      34.005  21.447  24.662  1.00  0.00    -0.250 N 
ATOM     95  C   UNL A   1      34.974  20.464  24.884  1.00  0.00     0.237 C 
ATOM     96  C   UNL A   1      32.720  20.900  24.449  1.00  0.00     0.237 C 
ATOM     97  O   UNL A   1      36.134  20.564  25.231  1.00  0.00    -0.274 OA
ATOM     98  C   UNL A   1      34.305  19.235  24.385  1.00  0.00     0.095 C 
ATOM     99  C   UNL A   1      32.888  19.472  24.878  1.00  0.00     0.095 C 
ATOM    100  O   UNL A   1      31.681  21.429  24.096  1.00  0.00    -0.274 OA
ATOM    101  C   UNL A   1      34.496  17.739  24.618  1.00  0.00     0.002 C 
ATOM    102  C   UNL A   1      32.261  18.117  24.565  1.00  0.00     0.002 C 
ATOM    103  C   UNL A   1      34.089  17.105  23.269  1.00  0.00     0.005 C 
ATOM    104  C   UNL A   1      33.256  17.296  25.428  1.00  0.00     0.009 C 
ATOM    105  C   UNL A   1      32.597  17.537  23.160  1.00  0.00     0.005 C 
ENDBRANCH  93  94
ENDBRANCH  86  88
ENDBRANCH  80  84
ENDBRANCH  75  78
ENDBRANCH  73  74
ENDBRANCH  72  73
ENDBRANCH   1  72
TORSDOF 17
ENDMDL
MODEL 3
REMARK VINA RESULT:     -13.7      0.507      7.318
REMARK SMILES O=C(NCCCCNC(=O)c1ccccc1C(=O)Nc1ccc(N2C(=O)[C@H]3[C@@H]4CC[C@@H](C4)[C@@H]3C2=O)cc1)c1ccc(-c2c3nc(c(-c4cccc(S(=O)(=O)[O-])c4F)c4ccc([nH]4)c(-c4cccc(S(=O)(=O)[O-])c4F)c4nc(c(-c5cccc(S(=O)(=O)[O-])c5F)c5ccc2[nH]5)C=C4)C=C3)cc1
REMARK SMILES IDX 5 1 4 2 3 3 1 4 2 5 38 7 39 8 100 9 40 10 99 11 41 12 42 13
REMARK SMILES IDX 43 14 93 15 44 16 98 17 92 18 94 19 45 20 97 21 91 22 90 23
REMARK SMILES IDX 46 25 78 26 58 27 77 28 59 29 62 30 76 31 95 32 60 33 61 34
REMARK SMILES IDX 75 36 96 37 63 38 47 39 48 40 56 41 49 42 51 43 57 44 50 45
REMARK SMILES IDX 52 46 53 47 54 48 55 49 79 50 80 51 88 52 81 53 83 54 89 55
REMARK SMILES IDX 82 56 84 57 85 58 86 59 87 60 64 61 65 62 73 63 66 64 68 65
REMARK SMILES IDX 74 66 67 67 69 68 70 69 71 70 72 71 6 72 7 73 8 74 9 75
REMARK SMILES IDX 10 77 11 78 12 79 16 80 13 81 15 82 14 83 17 84 18 85 19 86
REMARK SMILES IDX 20 88 21 89 37 90 22 91 36 92 23 93 24 94 25 95 34 96 26 97
REMARK SMILES IDX 27 98 33 99 35 100 28 101 31 102 29 103 32 104 30 105
REMARK H PARENT 3 6 94 24 62 35 8 76 19 87
REMARK Flexibility Score: inf
ROOT
ATOM      1  C   UNL A   1      31.492  32.953  26.414  1.00  0.00     0.023 C 
ENDROOT
BRANCH   1   2
ATOM      2  C   UNL A   1      32.538  33.220  27.493  1.00  0.00     0.116 C 
BRANCH   2   3
ATOM      3  N   UNL A   1      32.517  34.584  27.984  1.00  0.00    -0.352 N 
ATOM      4  O   UNL A   1      32.978  36.322  29.326  1.00  0.00    -0.269 OA
ATOM      5  C   UNL A   1      33.265  35.184  28.967  1.00  0.00     0.251 C 
ATOM      6  H   UNL A   1      31.864  35.173  27.543  1.00  0.00     0.163 HD
BRANCH   5   7
ATOM      7  C   UNL A   1      34.386  34.463  29.614  1.00  0.00     0.039 A 
ATOM      8  C   UNL A   1      35.692  34.552  29.124  1.00  0.00     0.014 A 
ATOM      9  C   UNL A   1      34.127  33.722  30.769  1.00  0.00     0.014 A 
ATOM     10  C   UNL A   1      36.710  33.800  29.710  1.00  0.00     0.010 A 
ATOM     11  C   UNL A   1      35.165  33.033  31.404  1.00  0.00     0.010 A 
ATOM     12  C   UNL A   1      36.461  33.043  30.866  1.00  0.00    -0.014 A 
BRANCH  12  13
ATOM     13  C   UNL A   1      37.576  32.339  31.555  1.00  0.00     0.031 A 
ATOM     14  C   UNL A   1      38.125  32.835  32.865  1.00  0.00     0.074 A 
ATOM     15  C   UNL A   1      38.137  31.269  30.959  1.00  0.00     0.049 A 
ATOM     16  N   UNL A   1      39.121  32.365  33.572  1.00  0.00    -0.248 NA
ATOM     17  C   UNL A   1      37.480  34.020  33.453  1.00  0.00     0.031 C 
ATOM     18  C   UNL A   1      37.735  30.725  29.660  1.00  0.00     0.029 A 
ATOM     19  N   UNL A   1      39.183  30.468  31.345  1.00  0.00    -0.354 N 
ATOM     20  C   UNL A   1      39.253  33.216  34.662  1.00  0.00     0.074 A 
ATOM     21  C   UNL A   1      38.238  34.238  34.520  1.00  0.00     0.031 C 
ATOM     22  C   UNL A   1      38.525  29.686  29.355  1.00  0.00     0.029 A 
ATOM     23  C   UNL A   1      39.525  29.525  30.404  1.00  0.00     0.049 A 
ATOM     24  H   UNL A   1      39.642  30.559  32.211  1.00  0.00     0.167 HD
ATOM     25  C   UNL A   1      40.134  33.150  35.691  1.00  0.00     0.034 A 
ATOM     26  C   UNL A   1      40.550  28.653  30.363  1.00  0.00     0.034 A 
ATOM     27  C   UNL A   1      41.136  32.123  35.832  1.00  0.00     0.049 A 
ATOM     28  C   UNL A   1      41.509  28.593  31.516  1.00  0.00     0.074 A 
ATOM     29  C   UNL A   1      42.017  31.922  36.882  1.00  0.00     0.029 A 
ATOM     30  N   UNL A   1      41.412  31.146  34.888  1.00  0.00    -0.354 N 
ATOM     31  N   UNL A   1      41.524  29.311  32.613  1.00  0.00    -0.248 NA
ATOM     32  C   UNL A   1      42.573  27.582  31.445  1.00  0.00     0.031 C 
ATOM     33  C   UNL A   1      42.856  30.852  36.550  1.00  0.00     0.029 A 
ATOM     34  C   UNL A   1      42.465  30.355  35.318  1.00  0.00     0.049 A 
ATOM     35  H   UNL A   1      40.930  31.031  34.038  1.00  0.00     0.167 HD
ATOM     36  C   UNL A   1      42.579  28.823  33.373  1.00  0.00     0.074 A 
ATOM     37  C   UNL A   1      43.166  27.733  32.622  1.00  0.00     0.031 C 
ATOM     38  C   UNL A   1      43.023  29.247  34.582  1.00  0.00     0.034 A 
BRANCH  25  39
ATOM     39  C   UNL A   1      40.051  34.213  36.758  1.00  0.00     0.023 A 
ATOM     40  C   UNL A   1      40.454  35.534  36.470  1.00  0.00     0.012 A 
ATOM     41  C   UNL A   1      39.526  33.917  38.032  1.00  0.00     0.148 A 
ATOM     42  C   UNL A   1      40.379  36.530  37.444  1.00  0.00     0.002 A 
ATOM     43  C   UNL A   1      39.409  34.925  38.982  1.00  0.00     0.091 A 
ATOM     44  F   UNL A   1      39.160  32.655  38.297  1.00  0.00    -0.205 F 
ATOM     45  C   UNL A   1      39.849  36.228  38.695  1.00  0.00     0.022 A 
BRANCH  43  46
ATOM     46  S   UNL A   1      38.661  34.656  40.594  1.00  0.00     0.127 S 
ATOM     47  O   UNL A   1      37.468  33.890  40.240  1.00  0.00    -0.237 OA
ATOM     48  O   UNL A   1      39.696  33.886  41.288  1.00  0.00    -0.237 OA
ATOM     49  O   UNL A   1      38.416  35.980  41.148  1.00  0.00    -0.744 OA
ENDBRANCH  43  46
ENDBRANCH  25  39
BRANCH  26  50
ATOM     50  C   UNL A   1      40.703  27.762  29.180  1.00  0.00     0.023 A 
ATOM     51  C   UNL A   1      39.895  26.617  29.056  1.00  0.00     0.012 A 
ATOM     52  C   UNL A   1      41.605  28.085  28.147  1.00  0.00     0.148 A 
ATOM     53  C   UNL A   1      39.998  25.796  27.932  1.00  0.00     0.002 A 
ATOM     54  C   UNL A   1      41.660  27.298  27.005  1.00  0.00     0.091 A 
ATOM     55  F   UNL A   1      42.369  29.178  28.291  1.00  0.00    -0.205 F 
ATOM     56  C   UNL A   1      40.870  26.143  26.903  1.00  0.00     0.022 A 
BRANCH  54  57
ATOM     57  S   UNL A   1      42.645  27.744  25.571  1.00  0.00     0.127 S 
ATOM     58  O   UNL A   1      41.944  28.929  25.085  1.00  0.00    -0.237 OA
ATOM     59  O   UNL A   1      43.951  28.005  26.176  1.00  0.00    -0.237 OA
ATOM     60  O   UNL A   1      42.609  26.585  24.689  1.00  0.00    -0.744 OA
ENDBRANCH  54  57
ENDBRANCH  26  50
BRANCH  38  61
ATOM     61  C   UNL A   1      44.183  28.509  35.200  1.00  0.00     0.023 A 
ATOM     62  C   UNL A   1      45.498  28.769  34.768  1.00  0.00     0.012 A 
ATOM     63  C   UNL A   1      43.969  27.611  36.265  1.00  0.00     0.148 A 
ATOM     64  C   UNL A   1      46.581  28.124  35.367  1.00  0.00     0.002 A 
ATOM     65  C   UNL A   1      45.055  27.013  36.892  1.00  0.00     0.091 A 
ATOM     66  F   UNL A   1      42.709  27.363  36.648  1.00  0.00    -0.205 F 
ATOM     67  C   UNL A   1      46.361  27.257  36.436  1.00  0.00     0.022 A 
BRANCH  65  68
ATOM     68  S   UNL A   1      44.877  25.962  38.337  1.00  0.00     0.127 S 
ATOM     69  O   UNL A   1      46.064  26.319  39.113  1.00  0.00    -0.237 OA
ATOM     70  O   UNL A   1      43.613  26.430  38.906  1.00  0.00    -0.237 OA
ATOM     71  O   UNL A   1      44.848  24.593  37.842  1.00  0.00    -0.744 OA
ENDBRANCH  65  68
ENDBRANCH  38  61
ENDBRANCH  12  13
ENDBRANCH   5   7
ENDBRANCH   2   3
ENDBRANCH   1   2
BRANCH   1  72
ATOM     72  C   UNL A   1      31.257  31.472  26.092  1.00  0.00     0.023 C 
BRANCH  72  73
ATOM     73  C   UNL A   1      32.262  30.513  26.729  1.00  0.00     0.116 C 
BRANCH  73  74
ATOM     74  N   UNL A   1      33.236  30.017  25.776  1.00  0.00    -0.352 N 
ATOM     75  C   UNL A   1      33.085  29.091  24.780  1.00  0.00     0.252 C 
ATOM     76  H   UNL A   1      34.137  30.403  25.858  1.00  0.00     0.163 HD
ATOM     77  O   UNL A   1      34.077  28.665  24.188  1.00  0.00    -0.269 OA
BRANCH  75  78
ATOM     78  C   UNL A   1      31.779  28.478  24.473  1.00  0.00     0.052 A 
ATOM     79  C   UNL A   1      31.250  28.942  23.243  1.00  0.00     0.014 A 
ATOM     80  C   UNL A   1      31.072  27.522  25.218  1.00  0.00     0.052 A 
ATOM     81  C   UNL A   1      30.097  28.395  22.691  1.00  0.00     0.001 A 
ATOM     82  C   UNL A   1      29.923  26.956  24.609  1.00  0.00     0.014 A 
ATOM     83  C   UNL A   1      29.450  27.372  23.361  1.00  0.00     0.001 A 
BRANCH  80  84
ATOM     84  C   UNL A   1      31.407  26.908  26.541  1.00  0.00     0.256 C 
ATOM     85  O   UNL A   1      31.362  27.653  27.528  1.00  0.00    -0.269 OA
ATOM     86  N   UNL A   1      31.676  25.585  26.800  1.00  0.00    -0.322 N 
ATOM     87  H   UNL A   1      31.770  25.377  27.758  1.00  0.00     0.170 HD
BRANCH  86  88
ATOM     88  C   UNL A   1      31.841  24.482  25.966  1.00  0.00     0.041 A 
ATOM     89  C   UNL A   1      32.974  24.481  25.147  1.00  0.00     0.028 A 
ATOM     90  C   UNL A   1      30.991  23.384  25.979  1.00  0.00     0.028 A 
ATOM     91  C   UNL A   1      33.419  23.291  24.580  1.00  0.00     0.029 A 
ATOM     92  C   UNL A   1      31.363  22.230  25.285  1.00  0.00     0.029 A 
ATOM     93  C   UNL A   1      32.628  22.150  24.680  1.00  0.00     0.052 A 
BRANCH  93  94
ATOM     94  N   UNL A   1      33.142  20.890  24.330  1.00  0.00    -0.250 N 
ATOM     95  C   UNL A   1      32.521  20.043  23.405  1.00  0.00     0.237 C 
ATOM     96  C   UNL A   1      34.135  20.229  25.086  1.00  0.00     0.237 C 
ATOM     97  O   UNL A   1      31.736  20.291  22.512  1.00  0.00    -0.274 OA
ATOM     98  C   UNL A   1      32.890  18.694  23.908  1.00  0.00     0.095 C 
ATOM     99  C   UNL A   1      34.326  18.942  24.337  1.00  0.00     0.095 C 
ATOM    100  O   UNL A   1      34.772  20.599  26.055  1.00  0.00    -0.274 OA
ATOM    101  C   UNL A   1      32.960  17.301  23.290  1.00  0.00     0.002 C 
ATOM    102  C   UNL A   1      34.771  17.514  24.638  1.00  0.00     0.002 C 
ATOM    103  C   UNL A   1      32.605  16.363  24.464  1.00  0.00     0.005 C 
ATOM    104  C   UNL A   1      34.468  16.968  23.218  1.00  0.00     0.009 C 
ATOM    105  C   UNL A   1      33.761  16.664  25.464  1.00  0.00     0.005 C 
ENDBRANCH  93  94
ENDBRANCH  86  88
ENDBRANCH  80  84
ENDBRANCH  75  78
ENDBRANCH  73  74
ENDBRANCH  72  73
ENDBRANCH   1  72
TORSDOF 17
ENDMDL
