MODEL 1
REMARK VINA RESULT:     -13.3      0.000      0.000
REMARK SMILES O=C(NCCCCNC(=O)c1cc(-c2ccc(C(F)(F)F)cc2)cc([N+](=O)[O-])c1)c1ccc(-c2c3nc(c(-c4cccc(S(=O)(=O)[O-])c4F)c4ccc([nH]4)c(-c4cccc(S(=O)(=O)[O-])c4F)c4nc(c(-c5cccc(S(=O)(=O)[O-])c5F)c5ccc2[nH]5)C=C4)C=C3)cc1
REMARK SMILES IDX 5 1 4 2 3 3 1 4 2 5 30 7 31 8 92 9 32 10 91 11 33 12 34 13
REMARK SMILES IDX 35 14 85 15 36 16 90 17 84 18 86 19 37 20 89 21 83 22 82 23
REMARK SMILES IDX 38 25 70 26 50 27 69 28 51 29 54 30 68 31 87 32 52 33 53 34
REMARK SMILES IDX 67 36 88 37 55 38 39 39 40 40 48 41 41 42 43 43 49 44 42 45
REMARK SMILES IDX 44 46 45 47 46 48 47 49 71 50 72 51 80 52 73 53 75 54 81 55
REMARK SMILES IDX 74 56 76 57 77 58 78 59 79 60 56 61 57 62 65 63 58 64 60 65
REMARK SMILES IDX 66 66 59 67 61 68 62 69 63 70 64 71 6 72 7 73 8 74 9 75
REMARK SMILES IDX 10 77 11 78 12 79 29 80 13 81 25 82 24 83 14 84 15 85 23 86
REMARK SMILES IDX 16 87 22 88 17 89 18 90 19 91 20 92 21 93 26 94 27 95 28 96
REMARK H PARENT 3 6 86 24 54 35 8 76
REMARK Flexibility Score: inf
ROOT
ATOM      1  C   UNL A   1      32.594  28.863  23.812  1.00  0.00     0.023 C 
ENDROOT
BRANCH   1   2
ATOM      2  C   UNL A   1      33.227  29.279  25.130  1.00  0.00     0.116 C 
BRANCH   2   3
ATOM      3  N   UNL A   1      32.582  30.435  25.741  1.00  0.00    -0.352 N 
ATOM      4  O   UNL A   1      32.274  32.045  27.298  1.00  0.00    -0.269 OA
ATOM      5  C   UNL A   1      33.003  31.182  26.821  1.00  0.00     0.251 C 
ATOM      6  H   UNL A   1      31.736  30.719  25.328  1.00  0.00     0.163 HD
BRANCH   5   7
ATOM      7  C   UNL A   1      34.326  30.893  27.413  1.00  0.00     0.039 A 
ATOM      8  C   UNL A   1      34.619  29.597  27.837  1.00  0.00     0.014 A 
ATOM      9  C   UNL A   1      35.241  31.927  27.625  1.00  0.00     0.014 A 
ATOM     10  C   UNL A   1      35.710  29.383  28.662  1.00  0.00     0.010 A 
ATOM     11  C   UNL A   1      36.418  31.672  28.337  1.00  0.00     0.010 A 
ATOM     12  C   UNL A   1      36.642  30.408  28.902  1.00  0.00    -0.014 A 
BRANCH  12  13
ATOM     13  C   UNL A   1      37.871  30.071  29.669  1.00  0.00     0.031 A 
ATOM     14  C   UNL A   1      38.113  30.577  31.065  1.00  0.00     0.074 A 
ATOM     15  C   UNL A   1      38.760  29.237  29.090  1.00  0.00     0.049 A 
ATOM     16  N   UNL A   1      39.103  30.297  31.875  1.00  0.00    -0.248 NA
ATOM     17  C   UNL A   1      37.132  31.519  31.627  1.00  0.00     0.031 C 
ATOM     18  C   UNL A   1      38.659  28.726  27.717  1.00  0.00     0.029 A 
ATOM     19  N   UNL A   1      39.903  28.657  29.573  1.00  0.00    -0.354 N 
ATOM     20  C   UNL A   1      38.885  31.045  33.025  1.00  0.00     0.074 A 
ATOM     21  C   UNL A   1      37.674  31.806  32.804  1.00  0.00     0.031 C 
ATOM     22  C   UNL A   1      39.665  27.873  27.488  1.00  0.00     0.029 A 
ATOM     23  C   UNL A   1      40.526  27.838  28.662  1.00  0.00     0.049 A 
ATOM     24  H   UNL A   1      40.245  28.812  30.483  1.00  0.00     0.167 HD
ATOM     25  C   UNL A   1      39.617  31.079  34.166  1.00  0.00     0.034 A 
ATOM     26  C   UNL A   1      41.681  27.153  28.742  1.00  0.00     0.034 A 
ATOM     27  C   UNL A   1      40.814  30.306  34.384  1.00  0.00     0.049 A 
ATOM     28  C   UNL A   1      42.459  27.201  30.021  1.00  0.00     0.074 A 
ATOM     29  C   UNL A   1      41.606  30.247  35.518  1.00  0.00     0.029 A 
ATOM     30  N   UNL A   1      41.398  29.464  33.449  1.00  0.00    -0.354 N 
ATOM     31  N   UNL A   1      42.174  27.831  31.134  1.00  0.00    -0.248 NA
ATOM     32  C   UNL A   1      43.701  26.422  30.067  1.00  0.00     0.031 C 
ATOM     33  C   UNL A   1      42.683  29.391  35.259  1.00  0.00     0.029 A 
ATOM     34  C   UNL A   1      42.541  28.884  33.978  1.00  0.00     0.049 A 
ATOM     35  H   UNL A   1      41.051  29.300  32.543  1.00  0.00     0.167 HD
ATOM     36  C   UNL A   1      43.192  27.509  32.022  1.00  0.00     0.074 A 
ATOM     37  C   UNL A   1      44.075  26.593  31.327  1.00  0.00     0.031 C 
ATOM     38  C   UNL A   1      43.392  27.947  33.289  1.00  0.00     0.034 A 
BRANCH  25  39
ATOM     39  C   UNL A   1      39.129  31.954  35.297  1.00  0.00     0.023 A 
ATOM     40  C   UNL A   1      38.187  31.444  36.213  1.00  0.00     0.012 A 
ATOM     41  C   UNL A   1      39.662  33.243  35.503  1.00  0.00     0.148 A 
ATOM     42  C   UNL A   1      37.762  32.209  37.300  1.00  0.00     0.002 A 
ATOM     43  C   UNL A   1      39.268  33.983  36.614  1.00  0.00     0.091 A 
ATOM     44  F   UNL A   1      40.548  33.718  34.617  1.00  0.00    -0.205 F 
ATOM     45  C   UNL A   1      38.310  33.472  37.506  1.00  0.00     0.022 A 
BRANCH  43  46
ATOM     46  S   UNL A   1      39.969  35.588  37.016  1.00  0.00     0.127 S 
ATOM     47  O   UNL A   1      39.273  35.910  38.262  1.00  0.00    -0.237 OA
ATOM     48  O   UNL A   1      41.387  35.271  37.175  1.00  0.00    -0.237 OA
ATOM     49  O   UNL A   1      39.660  36.457  35.890  1.00  0.00    -0.744 OA
ENDBRANCH  43  46
ENDBRANCH  25  39
BRANCH  26  50
ATOM     50  C   UNL A   1      42.161  26.370  27.569  1.00  0.00     0.023 A 
ATOM     51  C   UNL A   1      42.984  26.977  26.602  1.00  0.00     0.012 A 
ATOM     52  C   UNL A   1      41.820  25.010  27.428  1.00  0.00     0.148 A 
ATOM     53  C   UNL A   1      43.428  26.251  25.495  1.00  0.00     0.002 A 
ATOM     54  C   UNL A   1      42.322  24.277  26.361  1.00  0.00     0.091 A 
ATOM     55  F   UNL A   1      41.025  24.453  28.352  1.00  0.00    -0.205 F 
ATOM     56  C   UNL A   1      43.108  24.900  25.381  1.00  0.00     0.022 A 
BRANCH  54  57
ATOM     57  S   UNL A   1      42.085  22.502  26.229  1.00  0.00     0.127 S 
ATOM     58  O   UNL A   1      40.631  22.404  26.123  1.00  0.00    -0.237 OA
ATOM     59  O   UNL A   1      42.817  22.189  25.002  1.00  0.00    -0.237 OA
ATOM     60  O   UNL A   1      42.674  21.939  27.436  1.00  0.00    -0.744 OA
ENDBRANCH  54  57
ENDBRANCH  26  50
BRANCH  38  61
ATOM     61  C   UNL A   1      44.598  27.413  34.014  1.00  0.00     0.023 A 
ATOM     62  C   UNL A   1      45.845  28.056  33.876  1.00  0.00     0.012 A 
ATOM     63  C   UNL A   1      44.491  26.285  34.851  1.00  0.00     0.148 A 
ATOM     64  C   UNL A   1      46.977  27.553  34.517  1.00  0.00     0.002 A 
ATOM     65  C   UNL A   1      45.612  25.824  35.531  1.00  0.00     0.091 A 
ATOM     66  F   UNL A   1      43.301  25.675  34.955  1.00  0.00    -0.205 F 
ATOM     67  C   UNL A   1      46.858  26.445  35.350  1.00  0.00     0.022 A 
BRANCH  65  68
ATOM     68  S   UNL A   1      45.534  24.462  36.698  1.00  0.00     0.127 S 
ATOM     69  O   UNL A   1      44.391  24.844  37.526  1.00  0.00    -0.237 OA
ATOM     70  O   UNL A   1      45.297  23.316  35.820  1.00  0.00    -0.237 OA
ATOM     71  O   UNL A   1      46.821  24.444  37.381  1.00  0.00    -0.744 OA
ENDBRANCH  65  68
ENDBRANCH  38  61
ENDBRANCH  12  13
ENDBRANCH   5   7
ENDBRANCH   2   3
ENDBRANCH   1   2
BRANCH   1  72
ATOM     72  C   UNL A   1      31.222  28.218  23.941  1.00  0.00     0.023 C 
BRANCH  72  73
ATOM     73  C   UNL A   1      30.969  27.065  22.979  1.00  0.00     0.116 C 
BRANCH  73  74
ATOM     74  N   UNL A   1      32.183  26.617  22.309  1.00  0.00    -0.352 N 
ATOM     75  C   UNL A   1      32.938  25.500  22.546  1.00  0.00     0.251 C 
ATOM     76  H   UNL A   1      32.504  27.200  21.584  1.00  0.00     0.163 HD
ATOM     77  O   UNL A   1      34.025  25.341  21.996  1.00  0.00    -0.269 OA
BRANCH  75  78
ATOM     78  C   UNL A   1      32.447  24.481  23.492  1.00  0.00     0.047 A 
ATOM     79  C   UNL A   1      32.946  23.178  23.392  1.00  0.00     0.023 A 
ATOM     80  C   UNL A   1      31.486  24.806  24.450  1.00  0.00     0.099 A 
ATOM     81  C   UNL A   1      32.526  22.186  24.291  1.00  0.00    -0.011 A 
ATOM     82  C   UNL A   1      31.127  23.846  25.397  1.00  0.00     0.270 A 
ATOM     83  C   UNL A   1      31.645  22.547  25.326  1.00  0.00     0.094 A 
BRANCH  81  84
ATOM     84  C   UNL A   1      32.917  20.786  24.094  1.00  0.00    -0.018 A 
ATOM     85  C   UNL A   1      32.158  19.894  23.325  1.00  0.00     0.009 A 
ATOM     86  C   UNL A   1      34.063  20.298  24.743  1.00  0.00     0.009 A 
ATOM     87  C   UNL A   1      32.532  18.548  23.218  1.00  0.00     0.014 A 
ATOM     88  C   UNL A   1      34.436  18.957  24.643  1.00  0.00     0.014 A 
ATOM     89  C   UNL A   1      33.670  18.065  23.883  1.00  0.00     0.056 A 
BRANCH  89  90
ATOM     90  C   UNL A   1      34.050  16.609  23.792  1.00  0.00     0.416 C 
ATOM     91  F   UNL A   1      33.032  15.780  24.152  1.00  0.00    -0.166 F 
ATOM     92  F   UNL A   1      34.409  16.239  22.532  1.00  0.00    -0.166 F 
ATOM     93  F   UNL A   1      35.102  16.272  24.591  1.00  0.00    -0.166 F 
ENDBRANCH  89  90
ENDBRANCH  81  84
BRANCH  82  94
ATOM     94  N   UNL A   1      30.206  24.209  26.479  1.00  0.00     0.062 N 
ATOM     95  O   UNL A   1      29.923  23.337  27.310  1.00  0.00    -0.258 OA
ATOM     96  O   UNL A   1      29.779  25.371  26.502  1.00  0.00    -0.258 OA
ENDBRANCH  82  94
ENDBRANCH  75  78
ENDBRANCH  73  74
ENDBRANCH  72  73
ENDBRANCH   1  72
TORSDOF 17
ENDMDL
MODEL 2
REMARK VINA RESULT:     -13.3      5.885     10.517
REMARK SMILES O=C(NCCCCNC(=O)c1cc(-c2ccc(C(F)(F)F)cc2)cc([N+](=O)[O-])c1)c1ccc(-c2c3nc(c(-c4cccc(S(=O)(=O)[O-])c4F)c4ccc([nH]4)c(-c4cccc(S(=O)(=O)[O-])c4F)c4nc(c(-c5cccc(S(=O)(=O)[O-])c5F)c5ccc2[nH]5)C=C4)C=C3)cc1
REMARK SMILES IDX 5 1 4 2 3 3 1 4 2 5 30 7 31 8 92 9 32 10 91 11 33 12 34 13
REMARK SMILES IDX 35 14 85 15 36 16 90 17 84 18 86 19 37 20 89 21 83 22 82 23
REMARK SMILES IDX 38 25 70 26 50 27 69 28 51 29 54 30 68 31 87 32 52 33 53 34
REMARK SMILES IDX 67 36 88 37 55 38 39 39 40 40 48 41 41 42 43 43 49 44 42 45
REMARK SMILES IDX 44 46 45 47 46 48 47 49 71 50 72 51 80 52 73 53 75 54 81 55
REMARK SMILES IDX 74 56 76 57 77 58 78 59 79 60 56 61 57 62 65 63 58 64 60 65
REMARK SMILES IDX 66 66 59 67 61 68 62 69 63 70 64 71 6 72 7 73 8 74 9 75
REMARK SMILES IDX 10 77 11 78 12 79 29 80 13 81 25 82 24 83 14 84 15 85 23 86
REMARK SMILES IDX 16 87 22 88 17 89 18 90 19 91 20 92 21 93 26 94 27 95 28 96
REMARK H PARENT 3 6 86 24 54 35 8 76
REMARK Flexibility Score: inf
ROOT
ATOM      1  C   UNL A   1      34.742  21.841  25.839  1.00  0.00     0.023 C 
ENDROOT
BRANCH   1   2
ATOM      2  C   UNL A   1      36.192  22.297  25.846  1.00  0.00     0.116 C 
BRANCH   2   3
ATOM      3  N   UNL A   1      37.141  21.208  25.647  1.00  0.00    -0.352 N 
ATOM      4  O   UNL A   1      39.183  20.249  25.496  1.00  0.00    -0.269 OA
ATOM      5  C   UNL A   1      38.506  21.213  25.840  1.00  0.00     0.251 C 
ATOM      6  H   UNL A   1      36.756  20.358  25.334  1.00  0.00     0.163 HD
BRANCH   5   7
ATOM      7  C   UNL A   1      39.137  22.413  26.428  1.00  0.00     0.039 A 
ATOM      8  C   UNL A   1      38.734  23.678  26.001  1.00  0.00     0.014 A 
ATOM      9  C   UNL A   1      40.187  22.278  27.340  1.00  0.00     0.014 A 
ATOM     10  C   UNL A   1      39.517  24.779  26.306  1.00  0.00     0.010 A 
ATOM     11  C   UNL A   1      40.886  23.415  27.760  1.00  0.00     0.010 A 
ATOM     12  C   UNL A   1      40.587  24.672  27.212  1.00  0.00    -0.014 A 
BRANCH  12  13
ATOM     13  C   UNL A   1      41.290  25.918  27.615  1.00  0.00     0.031 A 
ATOM     14  C   UNL A   1      42.700  26.221  27.187  1.00  0.00     0.074 A 
ATOM     15  C   UNL A   1      40.599  26.817  28.346  1.00  0.00     0.049 A 
ATOM     16  N   UNL A   1      43.404  27.304  27.402  1.00  0.00    -0.248 NA
ATOM     17  C   UNL A   1      43.420  25.185  26.430  1.00  0.00     0.031 C 
ATOM     18  C   UNL A   1      39.243  26.608  28.868  1.00  0.00     0.029 A 
ATOM     19  N   UNL A   1      40.920  28.082  28.763  1.00  0.00    -0.354 N 
ATOM     20  C   UNL A   1      44.653  27.073  26.838  1.00  0.00     0.074 A 
ATOM     21  C   UNL A   1      44.618  25.737  26.282  1.00  0.00     0.031 C 
ATOM     22  C   UNL A   1      38.831  27.721  29.487  1.00  0.00     0.029 A 
ATOM     23  C   UNL A   1      39.918  28.690  29.481  1.00  0.00     0.049 A 
ATOM     24  H   UNL A   1      41.783  28.513  28.568  1.00  0.00     0.167 HD
ATOM     25  C   UNL A   1      45.722  27.905  26.774  1.00  0.00     0.034 A 
ATOM     26  C   UNL A   1      39.879  29.885  30.097  1.00  0.00     0.034 A 
ATOM     27  C   UNL A   1      45.743  29.241  27.317  1.00  0.00     0.049 A 
ATOM     28  C   UNL A   1      41.072  30.786  29.995  1.00  0.00     0.074 A 
ATOM     29  C   UNL A   1      46.766  30.172  27.272  1.00  0.00     0.029 A 
ATOM     30  N   UNL A   1      44.698  29.833  28.010  1.00  0.00    -0.354 N 
ATOM     31  N   UNL A   1      42.202  30.587  29.362  1.00  0.00    -0.248 NA
ATOM     32  C   UNL A   1      40.975  32.087  30.666  1.00  0.00     0.031 C 
ATOM     33  C   UNL A   1      46.351  31.317  27.962  1.00  0.00     0.029 A 
ATOM     34  C   UNL A   1      45.053  31.115  28.402  1.00  0.00     0.049 A 
ATOM     35  H   UNL A   1      43.831  29.408  28.196  1.00  0.00     0.167 HD
ATOM     36  C   UNL A   1      42.945  31.746  29.541  1.00  0.00     0.074 A 
ATOM     37  C   UNL A   1      42.116  32.657  30.307  1.00  0.00     0.031 C 
ATOM     38  C   UNL A   1      44.206  32.025  29.131  1.00  0.00     0.034 A 
BRANCH  25  39
ATOM     39  C   UNL A   1      46.958  27.417  26.055  1.00  0.00     0.023 A 
ATOM     40  C   UNL A   1      47.837  26.530  26.709  1.00  0.00     0.012 A 
ATOM     41  C   UNL A   1      47.205  27.765  24.711  1.00  0.00     0.148 A 
ATOM     42  C   UNL A   1      48.954  26.017  26.049  1.00  0.00     0.002 A 
ATOM     43  C   UNL A   1      48.295  27.215  24.045  1.00  0.00     0.091 A 
ATOM     44  F   UNL A   1      46.366  28.619  24.108  1.00  0.00    -0.205 F 
ATOM     45  C   UNL A   1      49.177  26.351  24.716  1.00  0.00     0.022 A 
BRANCH  43  46
ATOM     46  S   UNL A   1      48.630  27.517  22.306  1.00  0.00     0.127 S 
ATOM     47  O   UNL A   1      47.467  28.314  21.916  1.00  0.00    -0.237 OA
ATOM     48  O   UNL A   1      49.888  28.262  22.361  1.00  0.00    -0.237 OA
ATOM     49  O   UNL A   1      48.724  26.206  21.679  1.00  0.00    -0.744 OA
ENDBRANCH  43  46
ENDBRANCH  25  39
BRANCH  26  50
ATOM     50  C   UNL A   1      38.665  30.285  30.862  1.00  0.00     0.023 A 
ATOM     51  C   UNL A   1      38.556  29.970  32.230  1.00  0.00     0.012 A 
ATOM     52  C   UNL A   1      37.629  31.005  30.236  1.00  0.00     0.148 A 
ATOM     53  C   UNL A   1      37.416  30.333  32.950  1.00  0.00     0.002 A 
ATOM     54  C   UNL A   1      36.530  31.422  30.975  1.00  0.00     0.091 A 
ATOM     55  F   UNL A   1      37.746  31.284  28.930  1.00  0.00    -0.205 F 
ATOM     56  C   UNL A   1      36.410  31.069  32.327  1.00  0.00     0.022 A 
BRANCH  54  57
ATOM     57  S   UNL A   1      35.273  32.503  30.286  1.00  0.00     0.127 S 
ATOM     58  O   UNL A   1      34.349  32.637  31.410  1.00  0.00    -0.237 OA
ATOM     59  O   UNL A   1      36.045  33.706  29.973  1.00  0.00    -0.237 OA
ATOM     60  O   UNL A   1      34.756  31.806  29.117  1.00  0.00    -0.744 OA
ENDBRANCH  54  57
ENDBRANCH  26  50
BRANCH  38  61
ATOM     61  C   UNL A   1      44.751  33.385  29.477  1.00  0.00     0.023 A 
ATOM     62  C   UNL A   1      45.458  33.575  30.682  1.00  0.00     0.012 A 
ATOM     63  C   UNL A   1      44.583  34.471  28.595  1.00  0.00     0.148 A 
ATOM     64  C   UNL A   1      45.941  34.837  31.029  1.00  0.00     0.002 A 
ATOM     65  C   UNL A   1      45.116  35.711  28.922  1.00  0.00     0.091 A 
ATOM     66  F   UNL A   1      43.892  34.274  27.463  1.00  0.00    -0.205 F 
ATOM     67  C   UNL A   1      45.779  35.900  30.145  1.00  0.00     0.022 A 
BRANCH  65  68
ATOM     68  S   UNL A   1      45.039  37.114  27.804  1.00  0.00     0.127 S 
ATOM     69  O   UNL A   1      43.605  37.200  27.532  1.00  0.00    -0.237 OA
ATOM     70  O   UNL A   1      45.569  38.198  28.633  1.00  0.00    -0.237 OA
ATOM     71  O   UNL A   1      45.872  36.765  26.661  1.00  0.00    -0.744 OA
ENDBRANCH  65  68
ENDBRANCH  38  61
ENDBRANCH  12  13
ENDBRANCH   5   7
ENDBRANCH   2   3
ENDBRANCH   1   2
BRANCH   1  72
ATOM     72  C   UNL A   1      34.065  21.855  27.201  1.00  0.00     0.023 C 
BRANCH  72  73
ATOM     73  C   UNL A   1      33.146  23.045  27.442  1.00  0.00     0.116 C 
BRANCH  73  74
ATOM     74  N   UNL A   1      31.753  22.653  27.607  1.00  0.00    -0.352 N 
ATOM     75  C   UNL A   1      30.676  22.935  26.809  1.00  0.00     0.251 C 
ATOM     76  H   UNL A   1      31.558  22.109  28.404  1.00  0.00     0.163 HD
ATOM     77  O   UNL A   1      29.533  22.663  27.167  1.00  0.00    -0.269 OA
BRANCH  75  78
ATOM     78  C   UNL A   1      30.891  23.596  25.509  1.00  0.00     0.047 A 
ATOM     79  C   UNL A   1      30.401  24.893  25.326  1.00  0.00     0.023 A 
ATOM     80  C   UNL A   1      31.547  22.928  24.473  1.00  0.00     0.099 A 
ATOM     81  C   UNL A   1      30.609  25.567  24.114  1.00  0.00    -0.011 A 
ATOM     82  C   UNL A   1      31.827  23.622  23.296  1.00  0.00     0.270 A 
ATOM     83  C   UNL A   1      31.371  24.933  23.115  1.00  0.00     0.094 A 
BRANCH  81  84
ATOM     84  C   UNL A   1      29.962  26.858  23.856  1.00  0.00    -0.018 A 
ATOM     85  C   UNL A   1      28.593  26.972  23.581  1.00  0.00     0.009 A 
ATOM     86  C   UNL A   1      30.747  28.022  23.826  1.00  0.00     0.009 A 
ATOM     87  C   UNL A   1      28.029  28.217  23.274  1.00  0.00     0.014 A 
ATOM     88  C   UNL A   1      30.189  29.263  23.517  1.00  0.00     0.014 A 
ATOM     89  C   UNL A   1      28.823  29.373  23.231  1.00  0.00     0.056 A 
BRANCH  89  90
ATOM     90  C   UNL A   1      28.218  30.705  22.868  1.00  0.00     0.416 C 
ATOM     91  F   UNL A   1      27.306  31.132  23.785  1.00  0.00    -0.166 F 
ATOM     92  F   UNL A   1      29.148  31.694  22.773  1.00  0.00    -0.166 F 
ATOM     93  F   UNL A   1      27.564  30.696  21.671  1.00  0.00    -0.166 F 
ENDBRANCH  89  90
ENDBRANCH  81  84
BRANCH  82  94
ATOM     94  N   UNL A   1      32.617  22.970  22.246  1.00  0.00     0.062 N 
ATOM     95  O   UNL A   1      33.483  23.646  21.675  1.00  0.00    -0.258 OA
ATOM     96  O   UNL A   1      32.379  21.779  22.004  1.00  0.00    -0.258 OA
ENDBRANCH  82  94
ENDBRANCH  75  78
ENDBRANCH  73  74
ENDBRANCH  72  73
ENDBRANCH   1  72
TORSDOF 17
ENDMDL
MODEL 3
REMARK VINA RESULT:     -13.1      1.388      2.282
REMARK SMILES O=C(NCCCCNC(=O)c1cc(-c2ccc(C(F)(F)F)cc2)cc([N+](=O)[O-])c1)c1ccc(-c2c3nc(c(-c4cccc(S(=O)(=O)[O-])c4F)c4ccc([nH]4)c(-c4cccc(S(=O)(=O)[O-])c4F)c4nc(c(-c5cccc(S(=O)(=O)[O-])c5F)c5ccc2[nH]5)C=C4)C=C3)cc1
REMARK SMILES IDX 5 1 4 2 3 3 1 4 2 5 30 7 31 8 92 9 32 10 91 11 33 12 34 13
REMARK SMILES IDX 35 14 85 15 36 16 90 17 84 18 86 19 37 20 89 21 83 22 82 23
REMARK SMILES IDX 38 25 70 26 50 27 69 28 51 29 54 30 68 31 87 32 52 33 53 34
REMARK SMILES IDX 67 36 88 37 55 38 39 39 40 40 48 41 41 42 43 43 49 44 42 45
REMARK SMILES IDX 44 46 45 47 46 48 47 49 71 50 72 51 80 52 73 53 75 54 81 55
REMARK SMILES IDX 74 56 76 57 77 58 78 59 79 60 56 61 57 62 65 63 58 64 60 65
REMARK SMILES IDX 66 66 59 67 61 68 62 69 63 70 64 71 6 72 7 73 8 74 9 75
REMARK SMILES IDX 10 77 11 78 12 79 29 80 13 81 25 82 24 83 14 84 15 85 23 86
REMARK SMILES IDX 16 87 22 88 17 89 18 90 19 91 20 92 21 93 26 94 27 95 28 96
REMARK H PARENT 3 6 86 24 54 35 8 76
REMARK Flexibility Score: inf
ROOT
ATOM      1  C   UNL A   1      31.881  29.311  26.931  1.00  0.00     0.023 C 
ENDROOT
BRANCH   1   2
ATOM      2  C   UNL A   1      33.023  30.219  26.502  1.00  0.00     0.116 C 
BRANCH   2   3
ATOM      3  N   UNL A   1      32.808  31.619  26.845  1.00  0.00    -0.352 N 
ATOM      4  O   UNL A   1      33.205  33.567  27.922  1.00  0.00    -0.269 OA
ATOM      5  C   UNL A   1      33.597  32.446  27.616  1.00  0.00     0.251 C 
ATOM      6  H   UNL A   1      31.992  32.029  26.477  1.00  0.00     0.163 HD
BRANCH   5   7
ATOM      7  C   UNL A   1      34.900  31.939  28.097  1.00  0.00     0.039 A 
ATOM      8  C   UNL A   1      34.975  30.662  28.654  1.00  0.00     0.014 A 
ATOM      9  C   UNL A   1      36.026  32.765  28.074  1.00  0.00     0.014 A 
ATOM     10  C   UNL A   1      36.099  30.303  29.379  1.00  0.00     0.010 A 
ATOM     11  C   UNL A   1      37.209  32.335  28.685  1.00  0.00     0.010 A 
ATOM     12  C   UNL A   1      37.244  31.119  29.383  1.00  0.00    -0.014 A 
BRANCH  12  13
ATOM     13  C   UNL A   1      38.468  30.604  30.052  1.00  0.00     0.031 A 
ATOM     14  C   UNL A   1      38.858  31.018  31.445  1.00  0.00     0.074 A 
ATOM     15  C   UNL A   1      39.208  29.694  29.386  1.00  0.00     0.049 A 
ATOM     16  N   UNL A   1      39.856  30.588  32.175  1.00  0.00    -0.248 NA
ATOM     17  C   UNL A   1      38.039  32.048  32.103  1.00  0.00     0.031 C 
ATOM     18  C   UNL A   1      38.958  29.256  28.008  1.00  0.00     0.029 A 
ATOM     19  N   UNL A   1      40.299  28.960  29.770  1.00  0.00    -0.354 N 
ATOM     20  C   UNL A   1      39.805  31.308  33.362  1.00  0.00     0.074 A 
ATOM     21  C   UNL A   1      38.686  32.219  33.250  1.00  0.00     0.031 C 
ATOM     22  C   UNL A   1      39.834  28.298  27.682  1.00  0.00     0.029 A 
ATOM     23  C   UNL A   1      40.757  28.110  28.792  1.00  0.00     0.049 A 
ATOM     24  H   UNL A   1      40.715  29.034  30.659  1.00  0.00     0.167 HD
ATOM     25  C   UNL A   1      40.607  31.206  34.451  1.00  0.00     0.034 A 
ATOM     26  C   UNL A   1      41.822  27.288  28.770  1.00  0.00     0.034 A 
ATOM     27  C   UNL A   1      41.711  30.285  34.561  1.00  0.00     0.049 A 
ATOM     28  C   UNL A   1      42.679  27.189  29.994  1.00  0.00     0.074 A 
ATOM     29  C   UNL A   1      42.561  30.084  35.635  1.00  0.00     0.029 A 
ATOM     30  N   UNL A   1      42.126  29.418  33.561  1.00  0.00    -0.354 N 
ATOM     31  N   UNL A   1      42.546  27.802  31.145  1.00  0.00    -0.248 NA
ATOM     32  C   UNL A   1      43.816  26.263  29.930  1.00  0.00     0.031 C 
ATOM     33  C   UNL A   1      43.505  29.115  35.275  1.00  0.00     0.029 A 
ATOM     34  C   UNL A   1      43.220  28.684  33.990  1.00  0.00     0.049 A 
ATOM     35  H   UNL A   1      41.705  29.335  32.675  1.00  0.00     0.167 HD
ATOM     36  C   UNL A   1      43.570  27.321  31.950  1.00  0.00     0.074 A 
ATOM     37  C   UNL A   1      44.288  26.336  31.166  1.00  0.00     0.031 C 
ATOM     38  C   UNL A   1      43.903  27.679  33.214  1.00  0.00     0.034 A 
BRANCH  25  39
ATOM     39  C   UNL A   1      40.303  32.086  35.641  1.00  0.00     0.023 A 
ATOM     40  C   UNL A   1      41.074  33.246  35.862  1.00  0.00     0.012 A 
ATOM     41  C   UNL A   1      39.208  31.816  36.486  1.00  0.00     0.148 A 
ATOM     42  C   UNL A   1      40.778  34.108  36.918  1.00  0.00     0.002 A 
ATOM     43  C   UNL A   1      38.891  32.704  37.510  1.00  0.00     0.091 A 
ATOM     44  F   UNL A   1      38.492  30.704  36.270  1.00  0.00    -0.205 F 
ATOM     45  C   UNL A   1      39.682  33.843  37.734  1.00  0.00     0.022 A 
BRANCH  43  46
ATOM     46  S   UNL A   1      37.455  32.498  38.570  1.00  0.00     0.127 S 
ATOM     47  O   UNL A   1      36.380  32.992  37.709  1.00  0.00    -0.237 OA
ATOM     48  O   UNL A   1      37.442  31.052  38.790  1.00  0.00    -0.237 OA
ATOM     49  O   UNL A   1      37.714  33.295  39.760  1.00  0.00    -0.744 OA
ENDBRANCH  43  46
ENDBRANCH  25  39
BRANCH  26  50
ATOM     50  C   UNL A   1      42.125  26.502  27.542  1.00  0.00     0.023 A 
ATOM     51  C   UNL A   1      42.750  27.120  26.443  1.00  0.00     0.012 A 
ATOM     52  C   UNL A   1      41.817  25.129  27.475  1.00  0.00     0.148 A 
ATOM     53  C   UNL A   1      43.027  26.392  25.285  1.00  0.00     0.002 A 
ATOM     54  C   UNL A   1      42.158  24.396  26.347  1.00  0.00     0.091 A 
ATOM     55  F   UNL A   1      41.210  24.561  28.527  1.00  0.00    -0.205 F 
ATOM     56  C   UNL A   1      42.743  25.029  25.241  1.00  0.00     0.022 A 
BRANCH  54  57
ATOM     57  S   UNL A   1      41.968  22.612  26.277  1.00  0.00     0.127 S 
ATOM     58  O   UNL A   1      40.515  22.467  26.287  1.00  0.00    -0.237 OA
ATOM     59  O   UNL A   1      42.613  22.288  25.004  1.00  0.00    -0.237 OA
ATOM     60  O   UNL A   1      42.667  22.098  27.447  1.00  0.00    -0.744 OA
ENDBRANCH  54  57
ENDBRANCH  26  50
BRANCH  38  61
ATOM     61  C   UNL A   1      45.078  26.974  33.837  1.00  0.00     0.023 A 
ATOM     62  C   UNL A   1      46.379  27.490  33.670  1.00  0.00     0.012 A 
ATOM     63  C   UNL A   1      44.890  25.809  34.607  1.00  0.00     0.148 A 
ATOM     64  C   UNL A   1      47.480  26.829  34.216  1.00  0.00     0.002 A 
ATOM     65  C   UNL A   1      45.985  25.188  35.194  1.00  0.00     0.091 A 
ATOM     66  F   UNL A   1      43.647  25.322  34.738  1.00  0.00    -0.205 F 
ATOM     67  C   UNL A   1      47.281  25.685  34.984  1.00  0.00     0.022 A 
BRANCH  65  68
ATOM     68  S   UNL A   1      45.817  23.766  36.277  1.00  0.00     0.127 S 
ATOM     69  O   UNL A   1      45.178  22.792  35.393  1.00  0.00    -0.237 OA
ATOM     70  O   UNL A   1      47.209  23.466  36.612  1.00  0.00    -0.237 OA
ATOM     71  O   UNL A   1      45.007  24.212  37.403  1.00  0.00    -0.744 OA
ENDBRANCH  65  68
ENDBRANCH  38  61
ENDBRANCH  12  13
ENDBRANCH   5   7
ENDBRANCH   2   3
ENDBRANCH   1   2
BRANCH   1  72
ATOM     72  C   UNL A   1      32.256  27.843  27.073  1.00  0.00     0.023 C 
BRANCH  72  73
ATOM     73  C   UNL A   1      31.567  26.914  26.082  1.00  0.00     0.116 C 
BRANCH  73  74
ATOM     74  N   UNL A   1      30.864  25.819  26.737  1.00  0.00    -0.352 N 
ATOM     75  C   UNL A   1      30.706  24.524  26.321  1.00  0.00     0.251 C 
ATOM     76  H   UNL A   1      30.444  26.041  27.598  1.00  0.00     0.163 HD
ATOM     77  O   UNL A   1      29.950  23.756  26.912  1.00  0.00    -0.269 OA
BRANCH  75  78
ATOM     78  C   UNL A   1      31.438  24.049  25.132  1.00  0.00     0.047 A 
ATOM     79  C   UNL A   1      31.702  22.681  25.009  1.00  0.00     0.023 A 
ATOM     80  C   UNL A   1      31.880  24.951  24.164  1.00  0.00     0.099 A 
ATOM     81  C   UNL A   1      32.371  22.186  23.880  1.00  0.00    -0.011 A 
ATOM     82  C   UNL A   1      32.473  24.456  23.002  1.00  0.00     0.270 A 
ATOM     83  C   UNL A   1      32.712  23.084  22.853  1.00  0.00     0.094 A 
BRANCH  81  84
ATOM     84  C   UNL A   1      32.794  20.782  23.819  1.00  0.00    -0.018 A 
ATOM     85  C   UNL A   1      32.127  19.828  23.039  1.00  0.00     0.009 A 
ATOM     86  C   UNL A   1      33.874  20.358  24.611  1.00  0.00     0.009 A 
ATOM     87  C   UNL A   1      32.524  18.485  23.062  1.00  0.00     0.014 A 
ATOM     88  C   UNL A   1      34.269  19.021  24.639  1.00  0.00     0.014 A 
ATOM     89  C   UNL A   1      33.594  18.067  23.869  1.00  0.00     0.056 A 
BRANCH  89  90
ATOM     90  C   UNL A   1      33.996  16.615  23.915  1.00  0.00     0.416 C 
ATOM     91  F   UNL A   1      35.036  16.388  24.764  1.00  0.00    -0.166 F 
ATOM     92  F   UNL A   1      32.985  15.805  24.334  1.00  0.00    -0.166 F 
ATOM     93  F   UNL A   1      34.389  16.122  22.706  1.00  0.00    -0.166 F 
ENDBRANCH  89  90
ENDBRANCH  81  84
BRANCH  82  94
ATOM     94  N   UNL A   1      32.836  25.384  21.926  1.00  0.00     0.062 N 
ATOM     95  O   UNL A   1      31.990  25.608  21.050  1.00  0.00    -0.258 OA
ATOM     96  O   UNL A   1      33.963  25.897  21.967  1.00  0.00    -0.258 OA
ENDBRANCH  82  94
ENDBRANCH  75  78
ENDBRANCH  73  74
ENDBRANCH  72  73
ENDBRANCH   1  72
TORSDOF 17
ENDMDL
