MODEL 1
REMARK VINA RESULT:     -12.0      0.000      0.000
REMARK SMILES C[C@@H](C(=O)NCCCCNC(=O)c1ccc(-c2c3nc(c(-c4cccc(S(=O)(=O)[O-])c4F)c4ccc([nH]4)c(-c4cccc(S(=O)(=O)[O-])c4F)c4nc(c(-c5cccc(S(=O)(=O)[O-])c5F)c5ccc2[nH]5)C=C4)C=C3)cc1)c1ccc(C[C@H]2CCCC2=O)cc1I
REMARK SMILES IDX 7 1 6 2 5 3 3 4 4 5 2 7 1 8 76 9 77 10 88 11 78 12 87 13
REMARK SMILES IDX 89 14 79 15 80 16 81 17 82 18 85 19 83 20 84 21 86 22 8 23
REMARK SMILES IDX 9 24 10 25 11 26 12 28 13 29 14 30 75 31 15 32 74 33 16 34
REMARK SMILES IDX 17 35 18 36 68 37 19 38 73 39 67 40 69 41 20 42 72 43 66 44
REMARK SMILES IDX 65 45 21 47 53 48 33 49 52 50 34 51 37 52 51 53 70 54 35 55
REMARK SMILES IDX 36 56 50 58 71 59 38 60 22 61 23 62 31 63 24 64 26 65 32 66
REMARK SMILES IDX 25 67 27 68 28 69 29 70 30 71 54 72 55 73 63 74 56 75 58 76
REMARK SMILES IDX 64 77 57 78 59 79 60 80 61 81 62 82 39 83 40 84 48 85 41 86
REMARK SMILES IDX 43 87 49 88 42 89 44 90 45 91 46 92 47 93
REMARK H PARENT 5 6 10 27 69 46 37 57
REMARK Flexibility Score: inf
ROOT
ATOM      1  C   UNL A   1      36.876  23.065  25.709  1.00  0.00     0.023 C 
ENDROOT
BRANCH   1   2
ATOM      2  C   UNL A   1      35.421  23.503  25.508  1.00  0.00     0.116 C 
BRANCH   2   3
ATOM      3  N   UNL A   1      35.276  24.151  24.219  1.00  0.00    -0.356 N 
ATOM      4  C   UNL A   1      34.119  24.563  23.612  1.00  0.00     0.227 C 
ATOM      5  O   UNL A   1      34.095  24.612  22.382  1.00  0.00    -0.274 OA
ATOM      6  H   UNL A   1      36.109  24.317  23.721  1.00  0.00     0.163 HD
BRANCH   4   7
ATOM      7  C   UNL A   1      32.915  24.929  24.491  1.00  0.00     0.106 C 
ATOM      8  C   UNL A   1      31.991  23.692  24.447  1.00  0.00     0.023 C 
BRANCH   7   9
ATOM      9  C   UNL A   1      32.192  26.223  24.080  1.00  0.00    -0.022 A 
ATOM     10  C   UNL A   1      31.054  26.124  23.254  1.00  0.00     0.006 A 
ATOM     11  C   UNL A   1      32.551  27.524  24.484  1.00  0.00     0.017 A 
ATOM     12  C   UNL A   1      30.433  27.244  22.708  1.00  0.00     0.004 A 
ATOM     13  C   UNL A   1      31.982  28.652  23.860  1.00  0.00     0.018 A 
ATOM     14  I   UNL A   1      33.797  27.964  26.134  1.00  0.00    -0.044 I 
ATOM     15  C   UNL A   1      30.957  28.514  22.918  1.00  0.00    -0.046 A 
BRANCH  15  16
ATOM     16  C   UNL A   1      30.408  29.704  22.171  1.00  0.00     0.047 C 
BRANCH  16  17
ATOM     17  C   UNL A   1      29.031  30.218  22.624  1.00  0.00     0.060 C 
ATOM     18  C   UNL A   1      29.025  31.232  23.772  1.00  0.00     0.012 C 
ATOM     19  C   UNL A   1      28.279  30.961  21.544  1.00  0.00     0.136 C 
ATOM     20  C   UNL A   1      28.881  32.611  23.136  1.00  0.00     0.009 C 
ATOM     21  C   UNL A   1      28.032  32.407  21.890  1.00  0.00     0.076 C 
ATOM     22  O   UNL A   1      27.901  30.443  20.498  1.00  0.00    -0.299 OA
ENDBRANCH  16  17
ENDBRANCH  15  16
ENDBRANCH   7   9
ENDBRANCH   4   7
ENDBRANCH   2   3
ENDBRANCH   1   2
BRANCH   1  23
ATOM     23  C   UNL A   1      37.068  21.549  25.799  1.00  0.00     0.023 C 
BRANCH  23  24
ATOM     24  C   UNL A   1      38.012  20.965  24.757  1.00  0.00     0.116 C 
BRANCH  24  25
ATOM     25  N   UNL A   1      38.804  19.866  25.284  1.00  0.00    -0.352 N 
ATOM     26  C   UNL A   1      40.028  19.900  25.901  1.00  0.00     0.251 C 
ATOM     27  H   UNL A   1      38.407  18.970  25.184  1.00  0.00     0.163 HD
ATOM     28  O   UNL A   1      40.622  18.846  26.130  1.00  0.00    -0.269 OA
BRANCH  26  29
ATOM     29  C   UNL A   1      40.640  21.195  26.263  1.00  0.00     0.039 A 
ATOM     30  C   UNL A   1      41.667  21.695  25.461  1.00  0.00     0.014 A 
ATOM     31  C   UNL A   1      40.206  21.915  27.382  1.00  0.00     0.014 A 
ATOM     32  C   UNL A   1      42.221  22.943  25.751  1.00  0.00     0.010 A 
ATOM     33  C   UNL A   1      40.706  23.193  27.621  1.00  0.00     0.010 A 
ATOM     34  C   UNL A   1      41.722  23.718  26.812  1.00  0.00    -0.014 A 
BRANCH  34  35
ATOM     35  C   UNL A   1      42.242  25.089  27.053  1.00  0.00     0.031 A 
ATOM     36  C   UNL A   1      41.402  26.122  27.754  1.00  0.00     0.074 A 
ATOM     37  C   UNL A   1      43.467  25.415  26.593  1.00  0.00     0.049 A 
ATOM     38  N   UNL A   1      41.708  27.356  28.065  1.00  0.00    -0.248 NA
ATOM     39  C   UNL A   1      40.034  25.732  28.137  1.00  0.00     0.031 C 
ATOM     40  C   UNL A   1      44.340  24.532  25.815  1.00  0.00     0.029 A 
ATOM     41  N   UNL A   1      44.185  26.580  26.699  1.00  0.00    -0.354 N 
ATOM     42  C   UNL A   1      40.573  27.891  28.664  1.00  0.00     0.074 A 
ATOM     43  C   UNL A   1      39.556  26.864  28.634  1.00  0.00     0.031 C 
ATOM     44  C   UNL A   1      45.479  25.181  25.527  1.00  0.00     0.029 A 
ATOM     45  C   UNL A   1      45.409  26.532  26.072  1.00  0.00     0.049 A 
ATOM     46  H   UNL A   1      43.854  27.374  27.178  1.00  0.00     0.167 HD
ATOM     47  C   UNL A   1      40.405  29.115  29.221  1.00  0.00     0.034 A 
ATOM     48  C   UNL A   1      46.364  27.473  25.945  1.00  0.00     0.034 A 
ATOM     49  C   UNL A   1      41.427  30.126  29.272  1.00  0.00     0.049 A 
ATOM     50  C   UNL A   1      46.162  28.809  26.607  1.00  0.00     0.074 A 
ATOM     51  C   UNL A   1      41.375  31.371  29.874  1.00  0.00     0.029 A 
ATOM     52  N   UNL A   1      42.682  30.016  28.696  1.00  0.00    -0.354 N 
ATOM     53  N   UNL A   1      45.143  29.237  27.311  1.00  0.00    -0.248 NA
ATOM     54  C   UNL A   1      47.263  29.777  26.493  1.00  0.00     0.031 C 
ATOM     55  C   UNL A   1      42.590  32.023  29.640  1.00  0.00     0.029 A 
ATOM     56  C   UNL A   1      43.412  31.170  28.921  1.00  0.00     0.049 A 
ATOM     57  H   UNL A   1      43.008  29.230  28.199  1.00  0.00     0.167 HD
ATOM     58  C   UNL A   1      45.490  30.510  27.748  1.00  0.00     0.074 A 
ATOM     59  C   UNL A   1      46.830  30.767  27.261  1.00  0.00     0.031 C 
ATOM     60  C   UNL A   1      44.760  31.397  28.468  1.00  0.00     0.034 A 
BRANCH  47  61
ATOM     61  C   UNL A   1      39.082  29.411  29.881  1.00  0.00     0.023 A 
ATOM     62  C   UNL A   1      38.847  28.951  31.194  1.00  0.00     0.012 A 
ATOM     63  C   UNL A   1      38.111  30.210  29.245  1.00  0.00     0.148 A 
ATOM     64  C   UNL A   1      37.657  29.258  31.853  1.00  0.00     0.002 A 
ATOM     65  C   UNL A   1      36.947  30.549  29.925  1.00  0.00     0.091 A 
ATOM     66  F   UNL A   1      38.346  30.622  27.991  1.00  0.00    -0.205 F 
ATOM     67  C   UNL A   1      36.715  30.066  31.224  1.00  0.00     0.022 A 
BRANCH  65  68
ATOM     68  S   UNL A   1      35.703  31.648  29.239  1.00  0.00     0.127 S 
ATOM     69  O   UNL A   1      34.900  31.958  30.422  1.00  0.00    -0.237 OA
ATOM     70  O   UNL A   1      36.515  32.759  28.745  1.00  0.00    -0.237 OA
ATOM     71  O   UNL A   1      35.016  30.886  28.206  1.00  0.00    -0.744 OA
ENDBRANCH  65  68
ENDBRANCH  47  61
BRANCH  48  72
ATOM     72  C   UNL A   1      47.619  27.172  25.200  1.00  0.00     0.023 A 
ATOM     73  C   UNL A   1      48.671  26.492  25.845  1.00  0.00     0.012 A 
ATOM     74  C   UNL A   1      47.777  27.558  23.855  1.00  0.00     0.148 A 
ATOM     75  C   UNL A   1      49.873  26.244  25.180  1.00  0.00     0.002 A 
ATOM     76  C   UNL A   1      48.951  27.254  23.179  1.00  0.00     0.091 A 
ATOM     77  F   UNL A   1      46.770  28.216  23.261  1.00  0.00    -0.205 F 
ATOM     78  C   UNL A   1      50.009  26.617  23.846  1.00  0.00     0.022 A 
BRANCH  76  79
ATOM     79  S   UNL A   1      49.155  27.571  21.423  1.00  0.00     0.127 S 
ATOM     80  O   UNL A   1      47.912  27.034  20.876  1.00  0.00    -0.237 OA
ATOM     81  O   UNL A   1      49.265  29.030  21.390  1.00  0.00    -0.237 OA
ATOM     82  O   UNL A   1      50.374  26.872  21.040  1.00  0.00    -0.744 OA
ENDBRANCH  76  79
ENDBRANCH  48  72
BRANCH  60  83
ATOM     83  C   UNL A   1      45.407  32.718  28.797  1.00  0.00     0.023 A 
ATOM     84  C   UNL A   1      46.129  32.868  29.998  1.00  0.00     0.012 A 
ATOM     85  C   UNL A   1      45.329  33.803  27.900  1.00  0.00     0.148 A 
ATOM     86  C   UNL A   1      46.716  34.088  30.327  1.00  0.00     0.002 A 
ATOM     87  C   UNL A   1      45.963  35.000  28.210  1.00  0.00     0.091 A 
ATOM     88  F   UNL A   1      44.625  33.649  26.769  1.00  0.00    -0.205 F 
ATOM     89  C   UNL A   1      46.641  35.150  29.430  1.00  0.00     0.022 A 
BRANCH  87  90
ATOM     90  S   UNL A   1      46.002  36.389  27.072  1.00  0.00     0.127 S 
ATOM     91  O   UNL A   1      47.009  37.250  27.688  1.00  0.00    -0.237 OA
ATOM     92  O   UNL A   1      46.423  35.755  25.822  1.00  0.00    -0.237 OA
ATOM     93  O   UNL A   1      44.648  36.925  27.049  1.00  0.00    -0.744 OA
ENDBRANCH  87  90
ENDBRANCH  60  83
ENDBRANCH  34  35
ENDBRANCH  26  29
ENDBRANCH  24  25
ENDBRANCH  23  24
ENDBRANCH   1  23
TORSDOF 17
ENDMDL
MODEL 2
REMARK VINA RESULT:     -12.0      5.244     11.120
REMARK SMILES C[C@@H](C(=O)NCCCCNC(=O)c1ccc(-c2c3nc(c(-c4cccc(S(=O)(=O)[O-])c4F)c4ccc([nH]4)c(-c4cccc(S(=O)(=O)[O-])c4F)c4nc(c(-c5cccc(S(=O)(=O)[O-])c5F)c5ccc2[nH]5)C=C4)C=C3)cc1)c1ccc(C[C@H]2CCCC2=O)cc1I
REMARK SMILES IDX 7 1 6 2 5 3 3 4 4 5 2 7 1 8 76 9 77 10 88 11 78 12 87 13
REMARK SMILES IDX 89 14 79 15 80 16 81 17 82 18 85 19 83 20 84 21 86 22 8 23
REMARK SMILES IDX 9 24 10 25 11 26 12 28 13 29 14 30 75 31 15 32 74 33 16 34
REMARK SMILES IDX 17 35 18 36 68 37 19 38 73 39 67 40 69 41 20 42 72 43 66 44
REMARK SMILES IDX 65 45 21 47 53 48 33 49 52 50 34 51 37 52 51 53 70 54 35 55
REMARK SMILES IDX 36 56 50 58 71 59 38 60 22 61 23 62 31 63 24 64 26 65 32 66
REMARK SMILES IDX 25 67 27 68 28 69 29 70 30 71 54 72 55 73 63 74 56 75 58 76
REMARK SMILES IDX 64 77 57 78 59 79 60 80 61 81 62 82 39 83 40 84 48 85 41 86
REMARK SMILES IDX 43 87 49 88 42 89 44 90 45 91 46 92 47 93
REMARK H PARENT 5 6 10 27 69 46 37 57
REMARK Flexibility Score: inf
ROOT
ATOM      1  C   UNL A   1      42.366  20.228  26.154  1.00  0.00     0.023 C 
ENDROOT
BRANCH   1   2
ATOM      2  C   UNL A   1      43.053  21.434  25.503  1.00  0.00     0.116 C 
BRANCH   2   3
ATOM      3  N   UNL A   1      44.463  21.439  25.843  1.00  0.00    -0.356 N 
ATOM      4  C   UNL A   1      45.264  22.524  26.088  1.00  0.00     0.227 C 
ATOM      5  O   UNL A   1      46.469  22.419  25.858  1.00  0.00    -0.274 OA
ATOM      6  H   UNL A   1      44.897  20.558  25.906  1.00  0.00     0.163 HD
BRANCH   4   7
ATOM      7  C   UNL A   1      44.619  23.811  26.621  1.00  0.00     0.106 C 
ATOM      8  C   UNL A   1      45.241  24.952  25.787  1.00  0.00     0.023 C 
BRANCH   7   9
ATOM      9  C   UNL A   1      44.780  24.027  28.135  1.00  0.00    -0.022 A 
ATOM     10  C   UNL A   1      43.814  23.477  29.000  1.00  0.00     0.006 A 
ATOM     11  C   UNL A   1      45.843  24.715  28.754  1.00  0.00     0.017 A 
ATOM     12  C   UNL A   1      43.793  23.753  30.365  1.00  0.00     0.004 A 
ATOM     13  C   UNL A   1      45.771  25.070  30.116  1.00  0.00     0.018 A 
ATOM     14  I   UNL A   1      47.697  25.135  27.830  1.00  0.00    -0.044 I 
ATOM     15  C   UNL A   1      44.709  24.641  30.918  1.00  0.00    -0.046 A 
BRANCH  15  16
ATOM     16  C   UNL A   1      44.569  25.094  32.350  1.00  0.00     0.047 C 
BRANCH  16  17
ATOM     17  C   UNL A   1      44.540  26.615  32.584  1.00  0.00     0.060 C 
ATOM     18  C   UNL A   1      43.840  27.457  31.513  1.00  0.00     0.012 C 
ATOM     19  C   UNL A   1      43.797  27.017  33.837  1.00  0.00     0.136 C 
ATOM     20  C   UNL A   1      42.440  27.757  32.040  1.00  0.00     0.009 C 
ATOM     21  C   UNL A   1      42.577  27.854  33.552  1.00  0.00     0.076 C 
ATOM     22  O   UNL A   1      44.151  26.705  34.969  1.00  0.00    -0.299 OA
ENDBRANCH  16  17
ENDBRANCH  15  16
ENDBRANCH   7   9
ENDBRANCH   4   7
ENDBRANCH   2   3
ENDBRANCH   1   2
BRANCH   1  23
ATOM     23  C   UNL A   1      41.927  20.462  27.601  1.00  0.00     0.023 C 
BRANCH  23  24
ATOM     24  C   UNL A   1      40.996  21.650  27.799  1.00  0.00     0.116 C 
BRANCH  24  25
ATOM     25  N   UNL A   1      39.902  21.660  26.840  1.00  0.00    -0.352 N 
ATOM     26  C   UNL A   1      39.125  22.710  26.426  1.00  0.00     0.251 C 
ATOM     27  H   UNL A   1      39.689  20.790  26.431  1.00  0.00     0.163 HD
ATOM     28  O   UNL A   1      38.133  22.494  25.729  1.00  0.00    -0.269 OA
BRANCH  26  29
ATOM     29  C   UNL A   1      39.463  24.089  26.835  1.00  0.00     0.039 A 
ATOM     30  C   UNL A   1      39.140  24.499  28.130  1.00  0.00     0.014 A 
ATOM     31  C   UNL A   1      40.095  24.974  25.954  1.00  0.00     0.014 A 
ATOM     32  C   UNL A   1      39.501  25.778  28.557  1.00  0.00     0.010 A 
ATOM     33  C   UNL A   1      40.523  26.219  26.409  1.00  0.00     0.010 A 
ATOM     34  C   UNL A   1      40.225  26.637  27.713  1.00  0.00    -0.014 A 
BRANCH  34  35
ATOM     35  C   UNL A   1      40.698  27.956  28.207  1.00  0.00     0.031 A 
ATOM     36  C   UNL A   1      42.166  28.286  28.242  1.00  0.00     0.074 A 
ATOM     37  C   UNL A   1      39.796  28.844  28.670  1.00  0.00     0.049 A 
ATOM     38  N   UNL A   1      42.749  29.395  28.619  1.00  0.00    -0.248 NA
ATOM     39  C   UNL A   1      43.105  27.233  27.819  1.00  0.00     0.031 C 
ATOM     40  C   UNL A   1      38.354  28.605  28.778  1.00  0.00     0.029 A 
ATOM     41  N   UNL A   1      39.956  30.119  29.151  1.00  0.00    -0.354 N 
ATOM     42  C   UNL A   1      44.115  29.170  28.496  1.00  0.00     0.074 A 
ATOM     43  C   UNL A   1      44.279  27.804  28.049  1.00  0.00     0.031 C 
ATOM     44  C   UNL A   1      37.763  29.701  29.279  1.00  0.00     0.029 A 
ATOM     45  C   UNL A   1      38.781  30.709  29.554  1.00  0.00     0.049 A 
ATOM     46  H   UNL A   1      40.831  30.568  29.202  1.00  0.00     0.167 HD
ATOM     47  C   UNL A   1      45.140  30.033  28.699  1.00  0.00     0.034 A 
ATOM     48  C   UNL A   1      38.549  31.922  30.090  1.00  0.00     0.034 A 
ATOM     49  C   UNL A   1      44.973  31.399  29.118  1.00  0.00     0.049 A 
ATOM     50  C   UNL A   1      39.704  32.871  30.268  1.00  0.00     0.074 A 
ATOM     51  C   UNL A   1      45.944  32.371  29.287  1.00  0.00     0.029 A 
ATOM     52  N   UNL A   1      43.761  31.988  29.442  1.00  0.00    -0.354 N 
ATOM     53  N   UNL A   1      40.971  32.692  29.989  1.00  0.00    -0.248 NA
ATOM     54  C   UNL A   1      39.387  34.206  30.797  1.00  0.00     0.031 C 
ATOM     55  C   UNL A   1      45.321  33.540  29.737  1.00  0.00     0.029 A 
ATOM     56  C   UNL A   1      43.958  33.306  29.816  1.00  0.00     0.049 A 
ATOM     57  H   UNL A   1      42.887  31.535  29.411  1.00  0.00     0.167 HD
ATOM     58  C   UNL A   1      41.598  33.898  30.280  1.00  0.00     0.074 A 
ATOM     59  C   UNL A   1      40.563  34.811  30.719  1.00  0.00     0.031 C 
ATOM     60  C   UNL A   1      42.915  34.217  30.211  1.00  0.00     0.034 A 
BRANCH  47  61
ATOM     61  C   UNL A   1      46.537  29.546  28.410  1.00  0.00     0.023 A 
ATOM     62  C   UNL A   1      47.078  29.727  27.120  1.00  0.00     0.012 A 
ATOM     63  C   UNL A   1      47.342  28.993  29.425  1.00  0.00     0.148 A 
ATOM     64  C   UNL A   1      48.388  29.340  26.837  1.00  0.00     0.002 A 
ATOM     65  C   UNL A   1      48.661  28.653  29.148  1.00  0.00     0.091 A 
ATOM     66  F   UNL A   1      46.804  28.814  30.641  1.00  0.00    -0.205 F 
ATOM     67  C   UNL A   1      49.182  28.816  27.853  1.00  0.00     0.022 A 
BRANCH  65  68
ATOM     68  S   UNL A   1      49.795  28.043  30.401  1.00  0.00     0.127 S 
ATOM     69  O   UNL A   1      49.848  29.174  31.326  1.00  0.00    -0.237 OA
ATOM     70  O   UNL A   1      49.085  26.870  30.911  1.00  0.00    -0.237 OA
ATOM     71  O   UNL A   1      51.042  27.749  29.708  1.00  0.00    -0.744 OA
ENDBRANCH  65  68
ENDBRANCH  47  61
BRANCH  48  72
ATOM     72  C   UNL A   1      37.163  32.330  30.453  1.00  0.00     0.023 A 
ATOM     73  C   UNL A   1      36.694  32.125  31.766  1.00  0.00     0.012 A 
ATOM     74  C   UNL A   1      36.306  32.919  29.505  1.00  0.00     0.148 A 
ATOM     75  C   UNL A   1      35.383  32.455  32.114  1.00  0.00     0.002 A 
ATOM     76  C   UNL A   1      35.022  33.302  29.872  1.00  0.00     0.091 A 
ATOM     77  F   UNL A   1      36.764  33.094  28.256  1.00  0.00    -0.205 F 
ATOM     78  C   UNL A   1      34.551  33.051  31.170  1.00  0.00     0.022 A 
BRANCH  76  79
ATOM     79  S   UNL A   1      33.936  34.202  28.760  1.00  0.00     0.127 S 
ATOM     80  O   UNL A   1      33.572  33.167  27.797  1.00  0.00    -0.237 OA
ATOM     81  O   UNL A   1      32.859  34.617  29.659  1.00  0.00    -0.237 OA
ATOM     82  O   UNL A   1      34.737  35.302  28.241  1.00  0.00    -0.744 OA
ENDBRANCH  76  79
ENDBRANCH  48  72
BRANCH  60  83
ATOM     83  C   UNL A   1      43.305  35.622  30.594  1.00  0.00     0.023 A 
ATOM     84  C   UNL A   1      43.435  36.611  29.599  1.00  0.00     0.012 A 
ATOM     85  C   UNL A   1      43.513  35.970  31.944  1.00  0.00     0.148 A 
ATOM     86  C   UNL A   1      43.814  37.910  29.933  1.00  0.00     0.002 A 
ATOM     87  C   UNL A   1      43.838  37.280  32.275  1.00  0.00     0.091 A 
ATOM     88  F   UNL A   1      43.402  35.013  32.877  1.00  0.00    -0.205 F 
ATOM     89  C   UNL A   1      44.007  38.246  31.270  1.00  0.00     0.022 A 
BRANCH  87  90
ATOM     90  S   UNL A   1      44.010  37.826  33.977  1.00  0.00     0.127 S 
ATOM     91  O   UNL A   1      44.822  39.031  33.822  1.00  0.00    -0.237 OA
ATOM     92  O   UNL A   1      42.621  38.072  34.366  1.00  0.00    -0.237 OA
ATOM     93  O   UNL A   1      44.649  36.727  34.688  1.00  0.00    -0.744 OA
ENDBRANCH  87  90
ENDBRANCH  60  83
ENDBRANCH  34  35
ENDBRANCH  26  29
ENDBRANCH  24  25
ENDBRANCH  23  24
ENDBRANCH   1  23
TORSDOF 17
ENDMDL
MODEL 3
REMARK VINA RESULT:     -11.9      2.445      3.206
REMARK SMILES C[C@@H](C(=O)NCCCCNC(=O)c1ccc(-c2c3nc(c(-c4cccc(S(=O)(=O)[O-])c4F)c4ccc([nH]4)c(-c4cccc(S(=O)(=O)[O-])c4F)c4nc(c(-c5cccc(S(=O)(=O)[O-])c5F)c5ccc2[nH]5)C=C4)C=C3)cc1)c1ccc(C[C@H]2CCCC2=O)cc1I
REMARK SMILES IDX 7 1 6 2 5 3 3 4 4 5 2 7 1 8 76 9 77 10 88 11 78 12 87 13
REMARK SMILES IDX 89 14 79 15 80 16 81 17 82 18 85 19 83 20 84 21 86 22 8 23
REMARK SMILES IDX 9 24 10 25 11 26 12 28 13 29 14 30 75 31 15 32 74 33 16 34
REMARK SMILES IDX 17 35 18 36 68 37 19 38 73 39 67 40 69 41 20 42 72 43 66 44
REMARK SMILES IDX 65 45 21 47 53 48 33 49 52 50 34 51 37 52 51 53 70 54 35 55
REMARK SMILES IDX 36 56 50 58 71 59 38 60 22 61 23 62 31 63 24 64 26 65 32 66
REMARK SMILES IDX 25 67 27 68 28 69 29 70 30 71 54 72 55 73 63 74 56 75 58 76
REMARK SMILES IDX 64 77 57 78 59 79 60 80 61 81 62 82 39 83 40 84 48 85 41 86
REMARK SMILES IDX 43 87 49 88 42 89 44 90 45 91 46 92 47 93
REMARK H PARENT 5 6 10 27 69 46 37 57
REMARK Flexibility Score: inf
ROOT
ATOM      1  C   UNL A   1      39.372  22.788  26.407  1.00  0.00     0.023 C 
ENDROOT
BRANCH   1   2
ATOM      2  C   UNL A   1      38.091  23.603  26.200  1.00  0.00     0.116 C 
BRANCH   2   3
ATOM      3  N   UNL A   1      37.695  23.553  24.805  1.00  0.00    -0.356 N 
ATOM      4  C   UNL A   1      36.804  22.695  24.215  1.00  0.00     0.227 C 
ATOM      5  O   UNL A   1      36.952  22.438  23.020  1.00  0.00    -0.274 OA
ATOM      6  H   UNL A   1      38.117  24.215  24.211  1.00  0.00     0.163 HD
BRANCH   4   7
ATOM      7  C   UNL A   1      35.682  22.095  25.072  1.00  0.00     0.106 C 
ATOM      8  C   UNL A   1      35.867  20.565  24.969  1.00  0.00     0.023 C 
BRANCH   7   9
ATOM      9  C   UNL A   1      34.265  22.547  24.680  1.00  0.00    -0.022 A 
ATOM     10  C   UNL A   1      33.949  22.656  23.311  1.00  0.00     0.006 A 
ATOM     11  C   UNL A   1      33.222  22.843  25.579  1.00  0.00     0.017 A 
ATOM     12  C   UNL A   1      32.750  23.205  22.866  1.00  0.00     0.004 A 
ATOM     13  C   UNL A   1      32.048  23.482  25.133  1.00  0.00     0.018 A 
ATOM     14  I   UNL A   1      33.179  22.235  27.604  1.00  0.00    -0.044 I 
ATOM     15  C   UNL A   1      31.833  23.724  23.773  1.00  0.00    -0.046 A 
BRANCH  15  16
ATOM     16  C   UNL A   1      30.628  24.494  23.290  1.00  0.00     0.047 C 
BRANCH  16  17
ATOM     17  C   UNL A   1      30.719  26.027  23.378  1.00  0.00     0.060 C 
ATOM     18  C   UNL A   1      30.405  26.653  24.741  1.00  0.00     0.012 C 
ATOM     19  C   UNL A   1      32.103  26.566  23.096  1.00  0.00     0.136 C 
ATOM     20  C   UNL A   1      31.745  26.939  25.409  1.00  0.00     0.009 C 
ATOM     21  C   UNL A   1      32.710  27.271  24.281  1.00  0.00     0.076 C 
ATOM     22  O   UNL A   1      32.671  26.451  22.015  1.00  0.00    -0.299 OA
ENDBRANCH  16  17
ENDBRANCH  15  16
ENDBRANCH   7   9
ENDBRANCH   4   7
ENDBRANCH   2   3
ENDBRANCH   1   2
BRANCH   1  23
ATOM     23  C   UNL A   1      39.137  21.287  26.591  1.00  0.00     0.023 C 
BRANCH  23  24
ATOM     24  C   UNL A   1      39.616  20.422  25.434  1.00  0.00     0.116 C 
BRANCH  24  25
ATOM     25  N   UNL A   1      40.508  19.360  25.870  1.00  0.00    -0.352 N 
ATOM     26  C   UNL A   1      41.802  19.445  26.313  1.00  0.00     0.251 C 
ATOM     27  H   UNL A   1      40.129  18.451  25.844  1.00  0.00     0.163 HD
ATOM     28  O   UNL A   1      42.456  18.415  26.481  1.00  0.00    -0.269 OA
BRANCH  26  29
ATOM     29  C   UNL A   1      42.416  20.766  26.561  1.00  0.00     0.039 A 
ATOM     30  C   UNL A   1      42.860  21.511  25.468  1.00  0.00     0.014 A 
ATOM     31  C   UNL A   1      42.552  21.271  27.858  1.00  0.00     0.014 A 
ATOM     32  C   UNL A   1      43.391  22.785  25.673  1.00  0.00     0.010 A 
ATOM     33  C   UNL A   1      43.008  22.572  28.053  1.00  0.00     0.010 A 
ATOM     34  C   UNL A   1      43.438  23.342  26.963  1.00  0.00    -0.014 A 
BRANCH  34  35
ATOM     35  C   UNL A   1      43.906  24.737  27.165  1.00  0.00     0.031 A 
ATOM     36  C   UNL A   1      42.971  25.798  27.681  1.00  0.00     0.074 A 
ATOM     37  C   UNL A   1      45.173  25.058  26.836  1.00  0.00     0.049 A 
ATOM     38  N   UNL A   1      43.219  27.057  27.937  1.00  0.00    -0.248 NA
ATOM     39  C   UNL A   1      41.572  25.404  27.923  1.00  0.00     0.031 C 
ATOM     40  C   UNL A   1      46.148  24.142  26.236  1.00  0.00     0.029 A 
ATOM     41  N   UNL A   1      45.856  26.243  26.943  1.00  0.00    -0.354 N 
ATOM     42  C   UNL A   1      42.012  27.608  28.353  1.00  0.00     0.074 A 
ATOM     43  C   UNL A   1      41.021  26.558  28.274  1.00  0.00     0.031 C 
ATOM     44  C   UNL A   1      47.304  24.795  26.042  1.00  0.00     0.029 A 
ATOM     45  C   UNL A   1      47.148  26.179  26.475  1.00  0.00     0.049 A 
ATOM     46  H   UNL A   1      45.458  27.061  27.319  1.00  0.00     0.167 HD
ATOM     47  C   UNL A   1      41.760  28.863  28.795  1.00  0.00     0.034 A 
ATOM     48  C   UNL A   1      48.099  27.130  26.397  1.00  0.00     0.034 A 
ATOM     49  C   UNL A   1      42.753  29.898  28.897  1.00  0.00     0.049 A 
ATOM     50  C   UNL A   1      47.798  28.505  26.932  1.00  0.00     0.074 A 
ATOM     51  C   UNL A   1      42.611  31.181  29.396  1.00  0.00     0.029 A 
ATOM     52  N   UNL A   1      44.072  29.776  28.488  1.00  0.00    -0.354 N 
ATOM     53  N   UNL A   1      46.694  28.958  27.473  1.00  0.00    -0.248 NA
ATOM     54  C   UNL A   1      48.891  29.487  26.882  1.00  0.00     0.031 C 
ATOM     55  C   UNL A   1      43.836  31.842  29.265  1.00  0.00     0.029 A 
ATOM     56  C   UNL A   1      44.752  30.960  28.715  1.00  0.00     0.049 A 
ATOM     57  H   UNL A   1      44.467  28.965  28.092  1.00  0.00     0.167 HD
ATOM     58  C   UNL A   1      46.968  30.266  27.855  1.00  0.00     0.074 A 
ATOM     59  C   UNL A   1      48.354  30.518  27.518  1.00  0.00     0.031 C 
ATOM     60  C   UNL A   1      46.142  31.184  28.414  1.00  0.00     0.034 A 
BRANCH  47  61
ATOM     61  C   UNL A   1      40.361  29.175  29.266  1.00  0.00     0.023 A 
ATOM     62  C   UNL A   1      39.394  29.592  28.329  1.00  0.00     0.012 A 
ATOM     63  C   UNL A   1      39.982  28.974  30.608  1.00  0.00     0.148 A 
ATOM     64  C   UNL A   1      38.078  29.833  28.723  1.00  0.00     0.002 A 
ATOM     65  C   UNL A   1      38.658  29.172  30.984  1.00  0.00     0.091 A 
ATOM     66  F   UNL A   1      40.920  28.594  31.487  1.00  0.00    -0.205 F 
ATOM     67  C   UNL A   1      37.708  29.610  30.046  1.00  0.00     0.022 A 
BRANCH  65  68
ATOM     68  S   UNL A   1      38.056  28.839  32.644  1.00  0.00     0.127 S 
ATOM     69  O   UNL A   1      36.686  29.345  32.567  1.00  0.00    -0.237 OA
ATOM     70  O   UNL A   1      38.166  27.383  32.722  1.00  0.00    -0.237 OA
ATOM     71  O   UNL A   1      38.936  29.568  33.547  1.00  0.00    -0.744 OA
ENDBRANCH  65  68
ENDBRANCH  47  61
BRANCH  48  72
ATOM     72  C   UNL A   1      49.440  26.806  25.834  1.00  0.00     0.023 A 
ATOM     73  C   UNL A   1      50.388  26.130  26.628  1.00  0.00     0.012 A 
ATOM     74  C   UNL A   1      49.782  27.166  24.518  1.00  0.00     0.148 A 
ATOM     75  C   UNL A   1      51.666  25.860  26.136  1.00  0.00     0.002 A 
ATOM     76  C   UNL A   1      51.034  26.841  24.012  1.00  0.00     0.091 A 
ATOM     77  F   UNL A   1      48.873  27.822  23.781  1.00  0.00    -0.205 F 
ATOM     78  C   UNL A   1      51.986  26.208  24.827  1.00  0.00     0.022 A 
BRANCH  76  79
ATOM     79  S   UNL A   1      51.478  27.125  22.295  1.00  0.00     0.127 S 
ATOM     80  O   UNL A   1      52.675  26.301  22.155  1.00  0.00    -0.237 OA
ATOM     81  O   UNL A   1      50.297  26.625  21.590  1.00  0.00    -0.237 OA
ATOM     82  O   UNL A   1      51.677  28.563  22.178  1.00  0.00    -0.744 OA
ENDBRANCH  76  79
ENDBRANCH  48  72
BRANCH  60  83
ATOM     83  C   UNL A   1      46.726  32.540  28.723  1.00  0.00     0.023 A 
ATOM     84  C   UNL A   1      47.318  32.781  29.979  1.00  0.00     0.012 A 
ATOM     85  C   UNL A   1      46.716  33.566  27.757  1.00  0.00     0.148 A 
ATOM     86  C   UNL A   1      47.844  34.034  30.288  1.00  0.00     0.002 A 
ATOM     87  C   UNL A   1      47.292  34.796  28.052  1.00  0.00     0.091 A 
ATOM     88  F   UNL A   1      46.134  33.326  26.572  1.00  0.00    -0.205 F 
ATOM     89  C   UNL A   1      47.839  35.037  29.322  1.00  0.00     0.022 A 
BRANCH  87  90
ATOM     90  S   UNL A   1      47.417  36.115  26.840  1.00  0.00     0.127 S 
ATOM     91  O   UNL A   1      48.124  35.448  25.748  1.00  0.00    -0.237 OA
ATOM     92  O   UNL A   1      46.013  36.417  26.563  1.00  0.00    -0.237 OA
ATOM     93  O   UNL A   1      48.148  37.192  27.493  1.00  0.00    -0.744 OA
ENDBRANCH  87  90
ENDBRANCH  60  83
ENDBRANCH  34  35
ENDBRANCH  26  29
ENDBRANCH  24  25
ENDBRANCH  23  24
ENDBRANCH   1  23
TORSDOF 17
ENDMDL
