MODEL 1
REMARK VINA RESULT:     -12.5      0.000      0.000
REMARK SMILES O=C(NCCCCNC(=O)c1cc(NS(=O)(=O)c2cccc(F)c2)ccc1N1CCSCC1)c1ccc(-c2c3nc(c(-c4cccc(S(=O)(=O)[O-])c4F)c4ccc([nH]4)c(-c4cccc(S(=O)(=O)[O-])c4F)c4nc(c(-c5cccc(S(=O)(=O)[O-])c5F)c5ccc2[nH]5)C=C4)C=C3)cc1
REMARK SMILES IDX 5 1 4 2 3 3 1 4 2 5 34 7 35 8 96 9 36 10 95 11 37 12 38 13
REMARK SMILES IDX 39 14 89 15 40 16 94 17 88 18 90 19 41 20 93 21 87 22 86 23
REMARK SMILES IDX 42 25 74 26 54 27 73 28 55 29 58 30 72 31 91 32 56 33 57 34
REMARK SMILES IDX 71 36 92 37 59 38 43 39 44 40 52 41 45 42 47 43 53 44 46 45
REMARK SMILES IDX 48 46 49 47 50 48 51 49 75 50 76 51 84 52 77 53 79 54 85 55
REMARK SMILES IDX 78 56 80 57 81 58 82 59 83 60 60 61 61 62 69 63 62 64 64 65
REMARK SMILES IDX 70 66 63 67 65 68 66 69 67 70 68 71 6 72 7 73 8 74 9 75
REMARK SMILES IDX 10 77 11 78 12 79 27 80 13 81 26 82 25 83 28 84 29 85 33 86
REMARK SMILES IDX 30 87 32 88 31 89 14 90 15 92 16 93 17 94 18 95 19 96 24 97
REMARK SMILES IDX 20 98 22 99 21 100 23 101
REMARK H PARENT 3 6 90 24 58 35 8 76 14 91
REMARK Flexibility Score: inf
ROOT
ATOM      1  C   UNL A   1      31.784  32.043  26.962  1.00  0.00     0.023 C 
ENDROOT
BRANCH   1   2
ATOM      2  C   UNL A   1      32.834  33.144  26.869  1.00  0.00     0.116 C 
BRANCH   2   3
ATOM      3  N   UNL A   1      32.568  34.266  27.754  1.00  0.00    -0.352 N 
ATOM      4  O   UNL A   1      32.732  35.538  29.605  1.00  0.00    -0.269 OA
ATOM      5  C   UNL A   1      33.194  34.625  28.927  1.00  0.00     0.251 C 
ATOM      6  H   UNL A   1      31.831  34.857  27.474  1.00  0.00     0.163 HD
BRANCH   5   7
ATOM      7  C   UNL A   1      34.390  33.883  29.383  1.00  0.00     0.039 A 
ATOM      8  C   UNL A   1      34.262  32.715  30.138  1.00  0.00     0.014 A 
ATOM      9  C   UNL A   1      35.661  34.372  29.064  1.00  0.00     0.014 A 
ATOM     10  C   UNL A   1      35.389  32.139  30.717  1.00  0.00     0.010 A 
ATOM     11  C   UNL A   1      36.798  33.736  29.572  1.00  0.00     0.010 A 
ATOM     12  C   UNL A   1      36.672  32.640  30.438  1.00  0.00    -0.014 A 
BRANCH  12  13
ATOM     13  C   UNL A   1      37.861  31.958  31.014  1.00  0.00     0.031 A 
ATOM     14  C   UNL A   1      38.343  32.257  32.407  1.00  0.00     0.074 A 
ATOM     15  C   UNL A   1      38.503  31.042  30.262  1.00  0.00     0.049 A 
ATOM     16  N   UNL A   1      39.337  31.714  33.066  1.00  0.00    -0.248 NA
ATOM     17  C   UNL A   1      37.631  33.303  33.160  1.00  0.00     0.031 C 
ATOM     18  C   UNL A   1      38.159  30.702  28.879  1.00  0.00     0.029 A 
ATOM     19  N   UNL A   1      39.570  30.230  30.547  1.00  0.00    -0.354 N 
ATOM     20  C   UNL A   1      39.395  32.373  34.288  1.00  0.00     0.074 A 
ATOM     21  C   UNL A   1      38.339  33.364  34.281  1.00  0.00     0.031 C 
ATOM     22  C   UNL A   1      38.978  29.733  28.447  1.00  0.00     0.029 A 
ATOM     23  C   UNL A   1      39.934  29.415  29.501  1.00  0.00     0.049 A 
ATOM     24  H   UNL A   1      40.032  30.231  31.416  1.00  0.00     0.167 HD
ATOM     25  C   UNL A   1      40.238  32.159  35.328  1.00  0.00     0.034 A 
ATOM     26  C   UNL A   1      40.932  28.517  29.392  1.00  0.00     0.034 A 
ATOM     27  C   UNL A   1      41.258  31.143  35.348  1.00  0.00     0.049 A 
ATOM     28  C   UNL A   1      41.826  28.276  30.574  1.00  0.00     0.074 A 
ATOM     29  C   UNL A   1      42.114  30.805  36.382  1.00  0.00     0.029 A 
ATOM     30  N   UNL A   1      41.565  30.304  34.288  1.00  0.00    -0.354 N 
ATOM     31  N   UNL A   1      41.775  28.816  31.768  1.00  0.00    -0.248 NA
ATOM     32  C   UNL A   1      42.896  27.286  30.404  1.00  0.00     0.031 C 
ATOM     33  C   UNL A   1      42.947  29.770  35.941  1.00  0.00     0.029 A 
ATOM     34  C   UNL A   1      42.601  29.456  34.638  1.00  0.00     0.049 A 
ATOM     35  H   UNL A   1      41.112  30.311  33.413  1.00  0.00     0.167 HD
ATOM     36  C   UNL A   1      42.795  28.219  32.498  1.00  0.00     0.074 A 
ATOM     37  C   UNL A   1      43.425  27.253  31.621  1.00  0.00     0.031 C 
ATOM     38  C   UNL A   1      43.189  28.467  33.770  1.00  0.00     0.034 A 
BRANCH  25  39
ATOM     39  C   UNL A   1      40.067  33.006  36.562  1.00  0.00     0.023 A 
ATOM     40  C   UNL A   1      40.735  34.244  36.650  1.00  0.00     0.012 A 
ATOM     41  C   UNL A   1      39.186  32.622  37.593  1.00  0.00     0.148 A 
ATOM     42  C   UNL A   1      40.545  35.078  37.751  1.00  0.00     0.002 A 
ATOM     43  C   UNL A   1      38.975  33.475  38.672  1.00  0.00     0.091 A 
ATOM     44  F   UNL A   1      38.575  31.432  37.505  1.00  0.00    -0.205 F 
ATOM     45  C   UNL A   1      39.660  34.699  38.756  1.00  0.00     0.022 A 
BRANCH  43  46
ATOM     46  S   UNL A   1      37.800  33.107  39.981  1.00  0.00     0.127 S 
ATOM     47  O   UNL A   1      38.387  31.909  40.576  1.00  0.00    -0.237 OA
ATOM     48  O   UNL A   1      37.881  34.305  40.819  1.00  0.00    -0.237 OA
ATOM     49  O   UNL A   1      36.516  32.918  39.321  1.00  0.00    -0.744 OA
ENDBRANCH  43  46
ENDBRANCH  25  39
BRANCH  26  50
ATOM     50  C   UNL A   1      41.092  27.746  28.129  1.00  0.00     0.023 A 
ATOM     51  C   UNL A   1      41.688  28.361  27.012  1.00  0.00     0.012 A 
ATOM     52  C   UNL A   1      40.718  26.391  28.050  1.00  0.00     0.148 A 
ATOM     53  C   UNL A   1      41.892  27.644  25.832  1.00  0.00     0.002 A 
ATOM     54  C   UNL A   1      40.978  25.666  26.893  1.00  0.00     0.091 A 
ATOM     55  F   UNL A   1      40.132  25.828  29.116  1.00  0.00    -0.205 F 
ATOM     56  C   UNL A   1      41.551  26.295  25.777  1.00  0.00     0.022 A 
BRANCH  54  57
ATOM     57  S   UNL A   1      40.709  23.893  26.806  1.00  0.00     0.127 S 
ATOM     58  O   UNL A   1      39.290  23.820  26.471  1.00  0.00    -0.237 OA
ATOM     59  O   UNL A   1      41.618  23.494  25.730  1.00  0.00    -0.237 OA
ATOM     60  O   UNL A   1      41.085  23.383  28.119  1.00  0.00    -0.744 OA
ENDBRANCH  54  57
ENDBRANCH  26  50
BRANCH  38  61
ATOM     61  C   UNL A   1      44.355  27.674  34.297  1.00  0.00     0.023 A 
ATOM     62  C   UNL A   1      45.662  28.174  34.135  1.00  0.00     0.012 A 
ATOM     63  C   UNL A   1      44.156  26.470  35.000  1.00  0.00     0.148 A 
ATOM     64  C   UNL A   1      46.757  27.473  34.638  1.00  0.00     0.002 A 
ATOM     65  C   UNL A   1      45.249  25.797  35.534  1.00  0.00     0.091 A 
ATOM     66  F   UNL A   1      42.907  25.999  35.124  1.00  0.00    -0.205 F 
ATOM     67  C   UNL A   1      46.550  26.292  35.345  1.00  0.00     0.022 A 
BRANCH  65  68
ATOM     68  S   UNL A   1      45.065  24.315  36.533  1.00  0.00     0.127 S 
ATOM     69  O   UNL A   1      46.456  23.976  36.822  1.00  0.00    -0.237 OA
ATOM     70  O   UNL A   1      44.304  24.804  37.683  1.00  0.00    -0.237 OA
ATOM     71  O   UNL A   1      44.344  23.363  35.697  1.00  0.00    -0.744 OA
ENDBRANCH  65  68
ENDBRANCH  38  61
ENDBRANCH  12  13
ENDBRANCH   5   7
ENDBRANCH   2   3
ENDBRANCH   1   2
BRANCH   1  72
ATOM     72  C   UNL A   1      32.313  30.610  26.941  1.00  0.00     0.023 C 
BRANCH  72  73
ATOM     73  C   UNL A   1      31.673  29.686  25.913  1.00  0.00     0.116 C 
BRANCH  73  74
ATOM     74  N   UNL A   1      32.434  29.535  24.689  1.00  0.00    -0.352 N 
ATOM     75  C   UNL A   1      32.015  28.942  23.524  1.00  0.00     0.253 C 
ATOM     76  H   UNL A   1      33.350  29.896  24.694  1.00  0.00     0.163 HD
ATOM     77  O   UNL A   1      32.693  29.007  22.504  1.00  0.00    -0.269 OA
BRANCH  75  78
ATOM     78  C   UNL A   1      30.802  28.101  23.542  1.00  0.00     0.065 A 
ATOM     79  C   UNL A   1      31.059  26.798  23.999  1.00  0.00     0.042 A 
ATOM     80  C   UNL A   1      29.499  28.541  23.260  1.00  0.00     0.050 A 
ATOM     81  C   UNL A   1      30.037  25.893  24.234  1.00  0.00     0.050 A 
ATOM     82  C   UNL A   1      28.476  27.598  23.487  1.00  0.00     0.029 A 
ATOM     83  C   UNL A   1      28.733  26.305  23.983  1.00  0.00     0.029 A 
BRANCH  80  84
ATOM     84  N   UNL A   1      29.154  29.798  22.776  1.00  0.00    -0.369 N 
ATOM     85  C   UNL A   1      29.398  30.145  21.364  1.00  0.00     0.127 C 
ATOM     86  C   UNL A   1      29.090  30.922  23.729  1.00  0.00     0.127 C 
ATOM     87  C   UNL A   1      28.299  31.056  20.807  1.00  0.00     0.091 C 
ATOM     88  C   UNL A   1      27.959  31.896  23.396  1.00  0.00     0.091 C 
ATOM     89  S   UNL A   1      28.141  32.618  21.733  1.00  0.00    -0.158 SA
ENDBRANCH  80  84
BRANCH  81  90
ATOM     90  N   UNL A   1      30.260  24.653  24.903  1.00  0.00    -0.280 N 
ATOM     91  H   UNL A   1      29.941  23.828  24.472  1.00  0.00     0.180 HD
BRANCH  90  92
ATOM     92  S   UNL A   1      31.045  24.523  26.390  1.00  0.00     0.261 S 
ATOM     93  O   UNL A   1      31.119  25.860  26.924  1.00  0.00    -0.201 OA
ATOM     94  O   UNL A   1      30.407  23.453  27.136  1.00  0.00    -0.201 OA
BRANCH  92  95
ATOM     95  C   UNL A   1      32.703  24.031  25.992  1.00  0.00     0.090 A 
ATOM     96  C   UNL A   1      33.710  25.003  25.900  1.00  0.00     0.022 A 
ATOM     97  C   UNL A   1      32.939  22.713  25.592  1.00  0.00     0.061 A 
ATOM     98  C   UNL A   1      34.942  24.661  25.335  1.00  0.00     0.004 A 
ATOM     99  C   UNL A   1      34.171  22.393  25.038  1.00  0.00     0.124 A 
ATOM    100  C   UNL A   1      35.165  23.356  24.890  1.00  0.00     0.039 A 
ATOM    101  F   UNL A   1      34.391  21.146  24.600  1.00  0.00    -0.207 F 
ENDBRANCH  92  95
ENDBRANCH  90  92
ENDBRANCH  81  90
ENDBRANCH  75  78
ENDBRANCH  73  74
ENDBRANCH  72  73
ENDBRANCH   1  72
TORSDOF 18
ENDMDL
MODEL 2
REMARK VINA RESULT:     -12.4      0.454      7.241
REMARK SMILES O=C(NCCCCNC(=O)c1cc(NS(=O)(=O)c2cccc(F)c2)ccc1N1CCSCC1)c1ccc(-c2c3nc(c(-c4cccc(S(=O)(=O)[O-])c4F)c4ccc([nH]4)c(-c4cccc(S(=O)(=O)[O-])c4F)c4nc(c(-c5cccc(S(=O)(=O)[O-])c5F)c5ccc2[nH]5)C=C4)C=C3)cc1
REMARK SMILES IDX 5 1 4 2 3 3 1 4 2 5 34 7 35 8 96 9 36 10 95 11 37 12 38 13
REMARK SMILES IDX 39 14 89 15 40 16 94 17 88 18 90 19 41 20 93 21 87 22 86 23
REMARK SMILES IDX 42 25 74 26 54 27 73 28 55 29 58 30 72 31 91 32 56 33 57 34
REMARK SMILES IDX 71 36 92 37 59 38 43 39 44 40 52 41 45 42 47 43 53 44 46 45
REMARK SMILES IDX 48 46 49 47 50 48 51 49 75 50 76 51 84 52 77 53 79 54 85 55
REMARK SMILES IDX 78 56 80 57 81 58 82 59 83 60 60 61 61 62 69 63 62 64 64 65
REMARK SMILES IDX 70 66 63 67 65 68 66 69 67 70 68 71 6 72 7 73 8 74 9 75
REMARK SMILES IDX 10 77 11 78 12 79 27 80 13 81 26 82 25 83 28 84 29 85 33 86
REMARK SMILES IDX 30 87 32 88 31 89 14 90 15 92 16 93 17 94 18 95 19 96 24 97
REMARK SMILES IDX 20 98 22 99 21 100 23 101
REMARK H PARENT 3 6 90 24 58 35 8 76 14 91
REMARK Flexibility Score: inf
ROOT
ATOM      1  C   UNL A   1      31.662  31.794  26.967  1.00  0.00     0.023 C 
ENDROOT
BRANCH   1   2
ATOM      2  C   UNL A   1      32.620  32.924  26.604  1.00  0.00     0.116 C 
BRANCH   2   3
ATOM      3  N   UNL A   1      32.422  34.122  27.404  1.00  0.00    -0.352 N 
ATOM      4  O   UNL A   1      32.669  35.517  29.153  1.00  0.00    -0.269 OA
ATOM      5  C   UNL A   1      33.076  34.532  28.544  1.00  0.00     0.251 C 
ATOM      6  H   UNL A   1      31.717  34.730  27.082  1.00  0.00     0.163 HD
BRANCH   5   7
ATOM      7  C   UNL A   1      34.233  33.760  29.050  1.00  0.00     0.039 A 
ATOM      8  C   UNL A   1      34.044  32.584  29.778  1.00  0.00     0.014 A 
ATOM      9  C   UNL A   1      35.527  34.231  28.808  1.00  0.00     0.014 A 
ATOM     10  C   UNL A   1      35.127  31.979  30.407  1.00  0.00     0.010 A 
ATOM     11  C   UNL A   1      36.624  33.567  29.365  1.00  0.00     0.010 A 
ATOM     12  C   UNL A   1      36.432  32.459  30.205  1.00  0.00    -0.014 A 
BRANCH  12  13
ATOM     13  C   UNL A   1      37.577  31.746  30.831  1.00  0.00     0.031 A 
ATOM     14  C   UNL A   1      38.361  30.704  30.080  1.00  0.00     0.074 A 
ATOM     15  C   UNL A   1      37.915  32.060  32.097  1.00  0.00     0.049 A 
ATOM     16  N   UNL A   1      39.411  30.026  30.473  1.00  0.00    -0.248 NA
ATOM     17  C   UNL A   1      37.911  30.369  28.720  1.00  0.00     0.031 C 
ATOM     18  C   UNL A   1      37.199  33.018  32.944  1.00  0.00     0.029 A 
ATOM     19  N   UNL A   1      38.940  31.617  32.892  1.00  0.00    -0.354 N 
ATOM     20  C   UNL A   1      39.724  29.163  29.431  1.00  0.00     0.074 A 
ATOM     21  C   UNL A   1      38.749  29.394  28.387  1.00  0.00     0.031 C 
ATOM     22  C   UNL A   1      37.823  33.113  34.126  1.00  0.00     0.029 A 
ATOM     23  C   UNL A   1      38.952  32.191  34.142  1.00  0.00     0.049 A 
ATOM     24  H   UNL A   1      39.603  30.952  32.598  1.00  0.00     0.167 HD
ATOM     25  C   UNL A   1      40.742  28.272  29.345  1.00  0.00     0.034 A 
ATOM     26  C   UNL A   1      39.772  31.992  35.192  1.00  0.00     0.034 A 
ATOM     27  C   UNL A   1      41.736  28.075  30.368  1.00  0.00     0.049 A 
ATOM     28  C   UNL A   1      40.912  31.027  35.052  1.00  0.00     0.074 A 
ATOM     29  C   UNL A   1      42.845  27.247  30.342  1.00  0.00     0.029 A 
ATOM     30  N   UNL A   1      41.743  28.710  31.601  1.00  0.00    -0.354 N 
ATOM     31  N   UNL A   1      41.269  30.320  34.007  1.00  0.00    -0.248 NA
ATOM     32  C   UNL A   1      41.778  30.849  36.225  1.00  0.00     0.031 C 
ATOM     33  C   UNL A   1      43.514  27.370  31.565  1.00  0.00     0.029 A 
ATOM     34  C   UNL A   1      42.829  28.286  32.347  1.00  0.00     0.049 A 
ATOM     35  H   UNL A   1      41.073  29.366  31.902  1.00  0.00     0.167 HD
ATOM     36  C   UNL A   1      42.410  29.627  34.390  1.00  0.00     0.074 A 
ATOM     37  C   UNL A   1      42.704  30.025  35.752  1.00  0.00     0.031 C 
ATOM     38  C   UNL A   1      43.135  28.724  33.685  1.00  0.00     0.034 A 
BRANCH  25  39
ATOM     39  C   UNL A   1      40.873  27.468  28.077  1.00  0.00     0.023 A 
ATOM     40  C   UNL A   1      41.484  28.051  26.949  1.00  0.00     0.012 A 
ATOM     41  C   UNL A   1      40.472  26.118  28.025  1.00  0.00     0.148 A 
ATOM     42  C   UNL A   1      41.677  27.310  25.783  1.00  0.00     0.002 A 
ATOM     43  C   UNL A   1      40.699  25.376  26.871  1.00  0.00     0.091 A 
ATOM     44  F   UNL A   1      39.872  25.586  29.100  1.00  0.00    -0.205 F 
ATOM     45  C   UNL A   1      41.294  25.972  25.747  1.00  0.00     0.022 A 
BRANCH  43  46
ATOM     46  S   UNL A   1      40.305  23.626  26.752  1.00  0.00     0.127 S 
ATOM     47  O   UNL A   1      38.921  23.666  26.286  1.00  0.00    -0.237 OA
ATOM     48  O   UNL A   1      41.270  23.156  25.757  1.00  0.00    -0.237 OA
ATOM     49  O   UNL A   1      40.504  23.083  28.089  1.00  0.00    -0.744 OA
ENDBRANCH  43  46
ENDBRANCH  25  39
BRANCH  26  50
ATOM     50  C   UNL A   1      39.565  32.774  36.443  1.00  0.00     0.023 A 
ATOM     51  C   UNL A   1      40.186  34.028  36.587  1.00  0.00     0.012 A 
ATOM     52  C   UNL A   1      38.706  32.311  37.457  1.00  0.00     0.148 A 
ATOM     53  C   UNL A   1      39.969  34.800  37.729  1.00  0.00     0.002 A 
ATOM     54  C   UNL A   1      38.447  33.111  38.564  1.00  0.00     0.091 A 
ATOM     55  F   UNL A   1      38.140  31.104  37.313  1.00  0.00    -0.205 F 
ATOM     56  C   UNL A   1      39.090  34.348  38.710  1.00  0.00     0.022 A 
BRANCH  54  57
ATOM     57  S   UNL A   1      37.210  32.663  39.787  1.00  0.00     0.127 S 
ATOM     58  O   UNL A   1      37.320  33.761  40.742  1.00  0.00    -0.237 OA
ATOM     59  O   UNL A   1      35.979  32.657  38.994  1.00  0.00    -0.237 OA
ATOM     60  O   UNL A   1      37.608  31.347  40.272  1.00  0.00    -0.744 OA
ENDBRANCH  54  57
ENDBRANCH  26  50
BRANCH  38  61
ATOM     61  C   UNL A   1      44.324  28.108  34.372  1.00  0.00     0.023 A 
ATOM     62  C   UNL A   1      45.571  28.761  34.319  1.00  0.00     0.012 A 
ATOM     63  C   UNL A   1      44.195  26.918  35.117  1.00  0.00     0.148 A 
ATOM     64  C   UNL A   1      46.680  28.224  34.971  1.00  0.00     0.002 A 
ATOM     65  C   UNL A   1      45.296  26.412  35.798  1.00  0.00     0.091 A 
ATOM     66  F   UNL A   1      43.006  26.300  35.137  1.00  0.00    -0.205 F 
ATOM     67  C   UNL A   1      46.541  27.057  35.718  1.00  0.00     0.022 A 
BRANCH  65  68
ATOM     68  S   UNL A   1      45.183  24.962  36.853  1.00  0.00     0.127 S 
ATOM     69  O   UNL A   1      46.561  24.822  37.317  1.00  0.00    -0.237 OA
ATOM     70  O   UNL A   1      44.235  25.394  37.880  1.00  0.00    -0.237 OA
ATOM     71  O   UNL A   1      44.693  23.888  35.997  1.00  0.00    -0.744 OA
ENDBRANCH  65  68
ENDBRANCH  38  61
ENDBRANCH  12  13
ENDBRANCH   5   7
ENDBRANCH   2   3
ENDBRANCH   1   2
BRANCH   1  72
ATOM     72  C   UNL A   1      32.289  30.411  27.126  1.00  0.00     0.023 C 
BRANCH  72  73
ATOM     73  C   UNL A   1      31.825  29.358  26.128  1.00  0.00     0.116 C 
BRANCH  73  74
ATOM     74  N   UNL A   1      32.571  29.341  24.886  1.00  0.00    -0.352 N 
ATOM     75  C   UNL A   1      32.144  28.859  23.673  1.00  0.00     0.253 C 
ATOM     76  H   UNL A   1      33.481  29.715  24.914  1.00  0.00     0.163 HD
ATOM     77  O   UNL A   1      32.806  29.036  22.656  1.00  0.00    -0.269 OA
BRANCH  75  78
ATOM     78  C   UNL A   1      30.944  28.001  23.623  1.00  0.00     0.065 A 
ATOM     79  C   UNL A   1      31.209  26.684  24.034  1.00  0.00     0.042 A 
ATOM     80  C   UNL A   1      29.643  28.432  23.323  1.00  0.00     0.050 A 
ATOM     81  C   UNL A   1      30.196  25.755  24.204  1.00  0.00     0.050 A 
ATOM     82  C   UNL A   1      28.629  27.466  23.484  1.00  0.00     0.029 A 
ATOM     83  C   UNL A   1      28.893  26.157  23.933  1.00  0.00     0.029 A 
BRANCH  80  84
ATOM     84  N   UNL A   1      29.291  29.703  22.882  1.00  0.00    -0.369 N 
ATOM     85  C   UNL A   1      29.449  30.068  21.462  1.00  0.00     0.127 C 
ATOM     86  C   UNL A   1      29.310  30.813  23.853  1.00  0.00     0.127 C 
ATOM     87  C   UNL A   1      28.334  31.007  20.991  1.00  0.00     0.091 C 
ATOM     88  C   UNL A   1      28.179  31.812  23.609  1.00  0.00     0.091 C 
ATOM     89  S   UNL A   1      28.266  32.557  21.949  1.00  0.00    -0.158 SA
ENDBRANCH  80  84
BRANCH  81  90
ATOM     90  N   UNL A   1      30.421  24.492  24.828  1.00  0.00    -0.280 N 
ATOM     91  H   UNL A   1      30.112  23.682  24.362  1.00  0.00     0.180 HD
BRANCH  90  92
ATOM     92  S   UNL A   1      31.190  24.310  26.318  1.00  0.00     0.261 S 
ATOM     93  O   UNL A   1      31.260  25.628  26.897  1.00  0.00    -0.201 OA
ATOM     94  O   UNL A   1      30.544  23.216  27.020  1.00  0.00    -0.201 OA
BRANCH  92  95
ATOM     95  C   UNL A   1      32.852  23.831  25.919  1.00  0.00     0.090 A 
ATOM     96  C   UNL A   1      33.864  24.801  25.891  1.00  0.00     0.022 A 
ATOM     97  C   UNL A   1      33.088  22.533  25.458  1.00  0.00     0.061 A 
ATOM     98  C   UNL A   1      35.103  24.481  25.328  1.00  0.00     0.004 A 
ATOM     99  C   UNL A   1      34.327  22.235  24.906  1.00  0.00     0.124 A 
ATOM    100  C   UNL A   1      35.327  23.199  24.821  1.00  0.00     0.039 A 
ATOM    101  F   UNL A   1      34.547  21.010  24.410  1.00  0.00    -0.207 F 
ENDBRANCH  92  95
ENDBRANCH  90  92
ENDBRANCH  81  90
ENDBRANCH  75  78
ENDBRANCH  73  74
ENDBRANCH  72  73
ENDBRANCH   1  72
TORSDOF 18
ENDMDL
MODEL 3
REMARK VINA RESULT:     -12.3      1.490      7.505
REMARK SMILES O=C(NCCCCNC(=O)c1cc(NS(=O)(=O)c2cccc(F)c2)ccc1N1CCSCC1)c1ccc(-c2c3nc(c(-c4cccc(S(=O)(=O)[O-])c4F)c4ccc([nH]4)c(-c4cccc(S(=O)(=O)[O-])c4F)c4nc(c(-c5cccc(S(=O)(=O)[O-])c5F)c5ccc2[nH]5)C=C4)C=C3)cc1
REMARK SMILES IDX 5 1 4 2 3 3 1 4 2 5 34 7 35 8 96 9 36 10 95 11 37 12 38 13
REMARK SMILES IDX 39 14 89 15 40 16 94 17 88 18 90 19 41 20 93 21 87 22 86 23
REMARK SMILES IDX 42 25 74 26 54 27 73 28 55 29 58 30 72 31 91 32 56 33 57 34
REMARK SMILES IDX 71 36 92 37 59 38 43 39 44 40 52 41 45 42 47 43 53 44 46 45
REMARK SMILES IDX 48 46 49 47 50 48 51 49 75 50 76 51 84 52 77 53 79 54 85 55
REMARK SMILES IDX 78 56 80 57 81 58 82 59 83 60 60 61 61 62 69 63 62 64 64 65
REMARK SMILES IDX 70 66 63 67 65 68 66 69 67 70 68 71 6 72 7 73 8 74 9 75
REMARK SMILES IDX 10 77 11 78 12 79 27 80 13 81 26 82 25 83 28 84 29 85 33 86
REMARK SMILES IDX 30 87 32 88 31 89 14 90 15 92 16 93 17 94 18 95 19 96 24 97
REMARK SMILES IDX 20 98 22 99 21 100 23 101
REMARK H PARENT 3 6 90 24 58 35 8 76 14 91
REMARK Flexibility Score: inf
ROOT
ATOM      1  C   UNL A   1      31.863  32.145  26.896  1.00  0.00     0.023 C 
ENDROOT
BRANCH   1   2
ATOM      2  C   UNL A   1      33.061  33.038  27.195  1.00  0.00     0.116 C 
BRANCH   2   3
ATOM      3  N   UNL A   1      32.689  34.326  27.756  1.00  0.00    -0.352 N 
ATOM      4  O   UNL A   1      32.623  35.994  29.267  1.00  0.00    -0.269 OA
ATOM      5  C   UNL A   1      33.163  34.961  28.882  1.00  0.00     0.251 C 
ATOM      6  H   UNL A   1      31.997  34.818  27.257  1.00  0.00     0.163 HD
BRANCH   5   7
ATOM      7  C   UNL A   1      34.288  34.374  29.643  1.00  0.00     0.039 A 
ATOM      8  C   UNL A   1      35.608  34.565  29.228  1.00  0.00     0.014 A 
ATOM      9  C   UNL A   1      34.018  33.607  30.780  1.00  0.00     0.014 A 
ATOM     10  C   UNL A   1      36.634  33.852  29.840  1.00  0.00     0.010 A 
ATOM     11  C   UNL A   1      35.064  32.965  31.450  1.00  0.00     0.010 A 
ATOM     12  C   UNL A   1      36.377  33.046  30.962  1.00  0.00    -0.014 A 
BRANCH  12  13
ATOM     13  C   UNL A   1      37.506  32.356  31.638  1.00  0.00     0.031 A 
ATOM     14  C   UNL A   1      38.266  31.244  30.966  1.00  0.00     0.074 A 
ATOM     15  C   UNL A   1      37.855  32.756  32.877  1.00  0.00     0.049 A 
ATOM     16  N   UNL A   1      39.301  30.574  31.407  1.00  0.00    -0.248 NA
ATOM     17  C   UNL A   1      37.805  30.818  29.635  1.00  0.00     0.031 C 
ATOM     18  C   UNL A   1      37.163  33.790  33.650  1.00  0.00     0.029 A 
ATOM     19  N   UNL A   1      38.873  32.350  33.702  1.00  0.00    -0.354 N 
ATOM     20  C   UNL A   1      39.592  29.628  30.432  1.00  0.00     0.074 A 
ATOM     21  C   UNL A   1      38.620  29.803  29.374  1.00  0.00     0.031 C 
ATOM     22  C   UNL A   1      37.792  33.958  34.822  1.00  0.00     0.029 A 
ATOM     23  C   UNL A   1      38.901  33.015  34.905  1.00  0.00     0.049 A 
ATOM     24  H   UNL A   1      39.520  31.651  33.457  1.00  0.00     0.167 HD
ATOM     25  C   UNL A   1      40.590  28.711  30.411  1.00  0.00     0.034 A 
ATOM     26  C   UNL A   1      39.719  32.877  35.966  1.00  0.00     0.034 A 
ATOM     27  C   UNL A   1      41.582  28.569  31.445  1.00  0.00     0.049 A 
ATOM     28  C   UNL A   1      40.837  31.879  35.897  1.00  0.00     0.074 A 
ATOM     29  C   UNL A   1      42.672  27.716  31.480  1.00  0.00     0.029 A 
ATOM     30  N   UNL A   1      41.607  29.293  32.627  1.00  0.00    -0.354 N 
ATOM     31  N   UNL A   1      41.175  31.088  34.907  1.00  0.00    -0.248 NA
ATOM     32  C   UNL A   1      41.702  31.770  37.079  1.00  0.00     0.031 C 
ATOM     33  C   UNL A   1      43.348  27.916  32.690  1.00  0.00     0.029 A 
ATOM     34  C   UNL A   1      42.685  28.902  33.402  1.00  0.00     0.049 A 
ATOM     35  H   UNL A   1      40.953  29.984  32.879  1.00  0.00     0.167 HD
ATOM     36  C   UNL A   1      42.302  30.400  35.339  1.00  0.00     0.074 A 
ATOM     37  C   UNL A   1      42.608  30.892  36.668  1.00  0.00     0.031 C 
ATOM     38  C   UNL A   1      43.005  29.432  34.703  1.00  0.00     0.034 A 
BRANCH  25  39
ATOM     39  C   UNL A   1      40.699  27.812  29.207  1.00  0.00     0.023 A 
ATOM     40  C   UNL A   1      39.867  26.678  29.113  1.00  0.00     0.012 A 
ATOM     41  C   UNL A   1      41.557  28.129  28.135  1.00  0.00     0.148 A 
ATOM     42  C   UNL A   1      39.899  25.864  27.981  1.00  0.00     0.002 A 
ATOM     43  C   UNL A   1      41.559  27.332  26.995  1.00  0.00     0.091 A 
ATOM     44  F   UNL A   1      42.358  29.198  28.251  1.00  0.00    -0.205 F 
ATOM     45  C   UNL A   1      40.737  26.196  26.920  1.00  0.00     0.022 A 
BRANCH  43  46
ATOM     46  S   UNL A   1      42.552  27.717  25.547  1.00  0.00     0.127 S 
ATOM     47  O   UNL A   1      42.312  26.547  24.706  1.00  0.00    -0.237 OA
ATOM     48  O   UNL A   1      41.931  28.952  25.063  1.00  0.00    -0.237 OA
ATOM     49  O   UNL A   1      43.916  27.877  26.031  1.00  0.00    -0.744 OA
ENDBRANCH  43  46
ENDBRANCH  25  39
BRANCH  26  50
ATOM     50  C   UNL A   1      39.533  33.754  37.155  1.00  0.00     0.023 A 
ATOM     51  C   UNL A   1      39.970  35.091  37.106  1.00  0.00     0.012 A 
ATOM     52  C   UNL A   1      38.867  33.290  38.306  1.00  0.00     0.148 A 
ATOM     53  C   UNL A   1      39.764  35.945  38.190  1.00  0.00     0.002 A 
ATOM     54  C   UNL A   1      38.612  34.162  39.357  1.00  0.00     0.091 A 
ATOM     55  F   UNL A   1      38.477  32.008  38.343  1.00  0.00    -0.205 F 
ATOM     56  C   UNL A   1      39.073  35.485  39.308  1.00  0.00     0.022 A 
BRANCH  54  57
ATOM     57  S   UNL A   1      37.594  33.683  40.758  1.00  0.00     0.127 S 
ATOM     58  O   UNL A   1      36.408  33.146  40.099  1.00  0.00    -0.237 OA
ATOM     59  O   UNL A   1      38.434  32.685  41.423  1.00  0.00    -0.237 OA
ATOM     60  O   UNL A   1      37.403  34.905  41.529  1.00  0.00    -0.744 OA
ENDBRANCH  54  57
ENDBRANCH  26  50
BRANCH  38  61
ATOM     61  C   UNL A   1      44.181  28.842  35.433  1.00  0.00     0.023 A 
ATOM     62  C   UNL A   1      45.470  29.360  35.203  1.00  0.00     0.012 A 
ATOM     63  C   UNL A   1      44.005  27.819  36.386  1.00  0.00     0.148 A 
ATOM     64  C   UNL A   1      46.572  28.849  35.887  1.00  0.00     0.002 A 
ATOM     65  C   UNL A   1      45.103  27.344  37.094  1.00  0.00     0.091 A 
ATOM     66  F   UNL A   1      42.773  27.323  36.574  1.00  0.00    -0.205 F 
ATOM     67  C   UNL A   1      46.387  27.850  36.839  1.00  0.00     0.022 A 
BRANCH  65  68
ATOM     68  S   UNL A   1      44.940  26.119  38.399  1.00  0.00     0.127 S 
ATOM     69  O   UNL A   1      43.997  26.771  39.305  1.00  0.00    -0.237 OA
ATOM     70  O   UNL A   1      44.398  24.965  37.681  1.00  0.00    -0.237 OA
ATOM     71  O   UNL A   1      46.285  25.921  38.925  1.00  0.00    -0.744 OA
ENDBRANCH  65  68
ENDBRANCH  38  61
ENDBRANCH  12  13
ENDBRANCH   5   7
ENDBRANCH   2   3
ENDBRANCH   1   2
BRANCH   1  72
ATOM     72  C   UNL A   1      32.145  30.645  26.831  1.00  0.00     0.023 C 
BRANCH  72  73
ATOM     73  C   UNL A   1      31.403  29.880  25.743  1.00  0.00     0.116 C 
BRANCH  73  74
ATOM     74  N   UNL A   1      32.164  29.680  24.527  1.00  0.00    -0.352 N 
ATOM     75  C   UNL A   1      31.754  29.018  23.396  1.00  0.00     0.253 C 
ATOM     76  H   UNL A   1      33.073  30.059  24.510  1.00  0.00     0.163 HD
ATOM     77  O   UNL A   1      32.429  29.043  22.372  1.00  0.00    -0.269 OA
BRANCH  75  78
ATOM     78  C   UNL A   1      30.558  28.156  23.461  1.00  0.00     0.065 A 
ATOM     79  C   UNL A   1      30.862  26.847  23.869  1.00  0.00     0.042 A 
ATOM     80  C   UNL A   1      29.234  28.580  23.266  1.00  0.00     0.050 A 
ATOM     81  C   UNL A   1      29.870  25.919  24.139  1.00  0.00     0.050 A 
ATOM     82  C   UNL A   1      28.242  27.614  23.527  1.00  0.00     0.029 A 
ATOM     83  C   UNL A   1      28.548  26.313  23.973  1.00  0.00     0.029 A 
BRANCH  80  84
ATOM     84  N   UNL A   1      28.841  29.843  22.836  1.00  0.00    -0.369 N 
ATOM     85  C   UNL A   1      28.683  30.942  23.806  1.00  0.00     0.127 C 
ATOM     86  C   UNL A   1      28.063  29.948  21.588  1.00  0.00     0.127 C 
ATOM     87  C   UNL A   1      29.101  32.289  23.207  1.00  0.00     0.091 C 
ATOM     88  C   UNL A   1      28.431  31.194  20.783  1.00  0.00     0.091 C 
ATOM     89  S   UNL A   1      28.141  32.729  21.721  1.00  0.00    -0.158 SA
ENDBRANCH  80  84
BRANCH  81  90
ATOM     90  N   UNL A   1      30.152  24.666  24.762  1.00  0.00    -0.280 N 
ATOM     91  H   UNL A   1      29.870  23.844  24.300  1.00  0.00     0.180 HD
BRANCH  90  92
ATOM     92  S   UNL A   1      30.945  24.517  26.243  1.00  0.00     0.261 S 
ATOM     93  O   UNL A   1      31.390  25.843  26.595  1.00  0.00    -0.201 OA
ATOM     94  O   UNL A   1      30.086  23.755  27.131  1.00  0.00    -0.201 OA
BRANCH  92  95
ATOM     95  C   UNL A   1      32.397  23.559  25.891  1.00  0.00     0.090 A 
ATOM     96  C   UNL A   1      32.263  22.230  25.466  1.00  0.00     0.022 A 
ATOM     97  C   UNL A   1      33.649  24.084  26.225  1.00  0.00     0.061 A 
ATOM     98  C   UNL A   1      33.389  21.401  25.443  1.00  0.00     0.004 A 
ATOM     99  C   UNL A   1      34.755  23.246  26.191  1.00  0.00     0.124 A 
ATOM    100  C   UNL A   1      34.634  21.909  25.822  1.00  0.00     0.039 A 
ATOM    101  F   UNL A   1      35.951  23.722  26.561  1.00  0.00    -0.207 F 
ENDBRANCH  92  95
ENDBRANCH  90  92
ENDBRANCH  81  90
ENDBRANCH  75  78
ENDBRANCH  73  74
ENDBRANCH  72  73
ENDBRANCH   1  72
TORSDOF 18
ENDMDL
