MODEL 1
REMARK VINA RESULT:     -11.5      0.000      0.000
REMARK SMILES CSc1nc2nnc(C(=O)NCCCCNC(=O)c3ccc(-c4c5nc(c(-c6cccc(S(=O)(=O)[O-])c6F)c6ccc([nH]6)c(-c6cccc(S(=O)(=O)[O-])c6F)c6nc(c(-c7cccc(S(=O)(=O)[O-])c7F)c7ccc4[nH]7)C=C6)C=C5)cc3)c(O)n2n1
REMARK SMILES IDX 14 1 13 2 12 3 11 4 9 5 10 6 8 8 3 9 4 10 85 11 5 12 84 13
REMARK SMILES IDX 6 14 82 15 7 16 2 17 1 18 83 19 15 21 16 22 17 23 18 25
REMARK SMILES IDX 19 26 20 27 81 28 21 29 80 30 22 31 23 32 24 33 74 34 25 35
REMARK SMILES IDX 79 36 73 37 75 38 26 39 78 40 72 41 71 42 27 44 59 45 39 46
REMARK SMILES IDX 58 47 40 48 43 49 57 50 76 51 41 52 42 53 56 55 77 56 44 57
REMARK SMILES IDX 28 58 29 59 37 60 30 61 32 62 38 63 31 64 33 65 34 66 35 67
REMARK SMILES IDX 36 68 60 69 61 70 69 71 62 72 64 73 70 74 63 75 65 76 66 77
REMARK SMILES IDX 67 78 68 79 45 80 46 81 54 82 47 83 49 84 55 85 48 86 50 87
REMARK SMILES IDX 51 88 52 89 53 90
REMARK H PARENT 11 7 83 20 16 24 75 43 43 54
REMARK Flexibility Score: inf
ROOT
ATOM      1  C   UNL A   1      31.397  31.630  26.444  1.00  0.00     0.023 C 
ENDROOT
BRANCH   1   2
ATOM      2  C   UNL A   1      31.573  30.118  26.220  1.00  0.00     0.023 C 
BRANCH   2   3
ATOM      3  C   UNL A   1      32.287  29.725  24.923  1.00  0.00     0.116 C 
BRANCH   3   4
ATOM      4  N   UNL A   1      31.346  29.482  23.842  1.00  0.00    -0.350 N 
ATOM      5  C   UNL A   1      31.208  28.491  22.921  1.00  0.00     0.277 C 
ATOM      6  O   UNL A   1      30.313  28.632  22.077  1.00  0.00    -0.267 OA
ATOM      7  H   UNL A   1      30.662  30.185  23.758  1.00  0.00     0.163 HD
BRANCH   5   8
ATOM      8  C   UNL A   1      32.075  27.262  22.869  1.00  0.00     0.212 A 
ATOM      9  C   UNL A   1      33.774  23.395  23.950  1.00  0.00     0.210 A 
ATOM     10  N   UNL A   1      34.322  23.958  22.838  1.00  0.00    -0.182 NA
ATOM     11  N   UNL A   1      32.795  24.089  24.525  1.00  0.00    -0.134 NA
ATOM     12  C   UNL A   1      33.668  25.094  22.723  1.00  0.00     0.275 A 
ATOM     13  N   UNL A   1      32.733  25.199  23.745  1.00  0.00    -0.159 N 
ATOM     14  N   UNL A   1      33.766  26.091  21.797  1.00  0.00    -0.108 NA
ATOM     15  C   UNL A   1      31.903  26.318  23.828  1.00  0.00     0.249 A 
ATOM     16  N   UNL A   1      33.012  27.101  21.865  1.00  0.00    -0.136 NA
BRANCH   9  17
ATOM     17  S   UNL A   1      34.294  21.837  24.541  1.00  0.00    -0.088 SA
ATOM     18  C   UNL A   1      36.085  21.981  24.366  1.00  0.00     0.094 C 
ENDBRANCH   9  17
BRANCH  15  19
ATOM     19  O   UNL A   1      30.978  26.375  24.863  1.00  0.00    -0.491 OA
ATOM     20  H   UNL A   1      30.373  25.671  24.990  1.00  0.00     0.295 HD
ENDBRANCH  15  19
ENDBRANCH   5   8
ENDBRANCH   3   4
ENDBRANCH   2   3
ENDBRANCH   1   2
BRANCH   1  21
ATOM     21  C   UNL A   1      32.549  32.300  27.184  1.00  0.00     0.116 C 
BRANCH  21  22
ATOM     22  N   UNL A   1      32.277  33.699  27.506  1.00  0.00    -0.352 N 
ATOM     23  C   UNL A   1      32.945  34.494  28.415  1.00  0.00     0.251 C 
ATOM     24  H   UNL A   1      31.532  34.123  27.021  1.00  0.00     0.163 HD
ATOM     25  O   UNL A   1      32.437  35.524  28.850  1.00  0.00    -0.269 OA
BRANCH  23  26
ATOM     26  C   UNL A   1      34.283  34.073  28.860  1.00  0.00     0.039 A 
ATOM     27  C   UNL A   1      34.458  33.407  30.076  1.00  0.00     0.014 A 
ATOM     28  C   UNL A   1      35.356  34.294  27.999  1.00  0.00     0.014 A 
ATOM     29  C   UNL A   1      35.710  32.880  30.382  1.00  0.00     0.010 A 
ATOM     30  C   UNL A   1      36.562  33.678  28.252  1.00  0.00     0.010 A 
ATOM     31  C   UNL A   1      36.755  32.997  29.455  1.00  0.00    -0.014 A 
BRANCH  31  32
ATOM     32  C   UNL A   1      38.031  32.321  29.688  1.00  0.00     0.031 A 
ATOM     33  C   UNL A   1      38.139  30.911  29.207  1.00  0.00     0.074 A 
ATOM     34  C   UNL A   1      39.138  32.989  30.079  1.00  0.00     0.049 A 
ATOM     35  N   UNL A   1      38.411  29.853  29.899  1.00  0.00    -0.248 NA
ATOM     36  C   UNL A   1      37.844  30.632  27.793  1.00  0.00     0.031 C 
ATOM     37  C   UNL A   1      39.298  34.436  30.273  1.00  0.00     0.029 A 
ATOM     38  N   UNL A   1      40.408  32.521  30.219  1.00  0.00    -0.354 N 
ATOM     39  C   UNL A   1      38.510  28.801  28.985  1.00  0.00     0.074 A 
ATOM     40  C   UNL A   1      38.012  29.310  27.734  1.00  0.00     0.031 C 
ATOM     41  C   UNL A   1      40.611  34.748  30.226  1.00  0.00     0.029 A 
ATOM     42  C   UNL A   1      41.376  33.517  30.186  1.00  0.00     0.049 A 
ATOM     43  H   UNL A   1      40.621  31.567  30.333  1.00  0.00     0.167 HD
ATOM     44  C   UNL A   1      39.168  27.643  29.279  1.00  0.00     0.034 A 
ATOM     45  C   UNL A   1      42.713  33.345  30.085  1.00  0.00     0.034 A 
ATOM     46  C   UNL A   1      39.430  27.524  30.690  1.00  0.00     0.049 A 
ATOM     47  C   UNL A   1      43.013  31.964  30.521  1.00  0.00     0.074 A 
ATOM     48  C   UNL A   1      38.654  27.476  31.829  1.00  0.00     0.029 A 
ATOM     49  N   UNL A   1      40.708  27.790  31.117  1.00  0.00    -0.354 N 
ATOM     50  N   UNL A   1      42.838  31.541  31.744  1.00  0.00    -0.248 NA
ATOM     51  C   UNL A   1      43.122  30.927  29.511  1.00  0.00     0.031 C 
ATOM     52  C   UNL A   1      39.399  28.202  32.805  1.00  0.00     0.029 A 
ATOM     53  C   UNL A   1      40.600  28.603  32.213  1.00  0.00     0.049 A 
ATOM     54  H   UNL A   1      41.543  27.459  30.713  1.00  0.00     0.167 HD
ATOM     55  C   UNL A   1      42.369  30.242  31.599  1.00  0.00     0.074 A 
ATOM     56  C   UNL A   1      42.691  29.880  30.219  1.00  0.00     0.031 C 
ATOM     57  C   UNL A   1      41.510  29.691  32.509  1.00  0.00     0.034 A 
BRANCH  44  58
ATOM     58  C   UNL A   1      39.851  26.728  28.288  1.00  0.00     0.023 A 
ATOM     59  C   UNL A   1      39.590  25.339  28.390  1.00  0.00     0.012 A 
ATOM     60  C   UNL A   1      40.914  27.114  27.443  1.00  0.00     0.148 A 
ATOM     61  C   UNL A   1      40.375  24.389  27.727  1.00  0.00     0.002 A 
ATOM     62  C   UNL A   1      41.638  26.169  26.719  1.00  0.00     0.091 A 
ATOM     63  F   UNL A   1      41.328  28.385  27.429  1.00  0.00    -0.205 F 
ATOM     64  C   UNL A   1      41.394  24.804  26.882  1.00  0.00     0.022 A 
BRANCH  62  65
ATOM     65  S   UNL A   1      42.917  26.660  25.556  1.00  0.00     0.127 S 
ATOM     66  O   UNL A   1      43.943  27.186  26.453  1.00  0.00    -0.237 OA
ATOM     67  O   UNL A   1      43.248  25.387  24.915  1.00  0.00    -0.237 OA
ATOM     68  O   UNL A   1      42.277  27.623  24.670  1.00  0.00    -0.744 OA
ENDBRANCH  62  65
ENDBRANCH  44  58
BRANCH  45  69
ATOM     69  C   UNL A   1      43.716  34.222  29.445  1.00  0.00     0.023 A 
ATOM     70  C   UNL A   1      44.471  35.113  30.228  1.00  0.00     0.012 A 
ATOM     71  C   UNL A   1      44.109  34.009  28.103  1.00  0.00     0.148 A 
ATOM     72  C   UNL A   1      45.598  35.755  29.701  1.00  0.00     0.002 A 
ATOM     73  C   UNL A   1      45.226  34.652  27.581  1.00  0.00     0.091 A 
ATOM     74  F   UNL A   1      43.436  33.111  27.370  1.00  0.00    -0.205 F 
ATOM     75  C   UNL A   1      45.980  35.520  28.382  1.00  0.00     0.022 A 
BRANCH  73  76
ATOM     76  S   UNL A   1      45.796  34.377  25.898  1.00  0.00     0.127 S 
ATOM     77  O   UNL A   1      46.341  33.022  25.982  1.00  0.00    -0.237 OA
ATOM     78  O   UNL A   1      44.556  34.494  25.136  1.00  0.00    -0.237 OA
ATOM     79  O   UNL A   1      46.793  35.410  25.640  1.00  0.00    -0.744 OA
ENDBRANCH  73  76
ENDBRANCH  45  69
BRANCH  57  80
ATOM     80  C   UNL A   1      41.240  30.440  33.796  1.00  0.00     0.023 A 
ATOM     81  C   UNL A   1      42.116  30.357  34.899  1.00  0.00     0.012 A 
ATOM     82  C   UNL A   1      40.224  31.412  33.816  1.00  0.00     0.148 A 
ATOM     83  C   UNL A   1      41.977  31.206  35.999  1.00  0.00     0.002 A 
ATOM     84  C   UNL A   1      40.121  32.291  34.889  1.00  0.00     0.091 A 
ATOM     85  F   UNL A   1      39.401  31.491  32.760  1.00  0.00    -0.205 F 
ATOM     86  C   UNL A   1      40.988  32.185  35.988  1.00  0.00     0.022 A 
BRANCH  84  87
ATOM     87  S   UNL A   1      38.971  33.670  34.873  1.00  0.00     0.127 S 
ATOM     88  O   UNL A   1      39.208  34.283  36.178  1.00  0.00    -0.237 OA
ATOM     89  O   UNL A   1      39.441  34.460  33.733  1.00  0.00    -0.237 OA
ATOM     90  O   UNL A   1      37.648  33.087  34.684  1.00  0.00    -0.744 OA
ENDBRANCH  84  87
ENDBRANCH  57  80
ENDBRANCH  31  32
ENDBRANCH  23  26
ENDBRANCH  21  22
ENDBRANCH   1  21
TORSDOF 16
ENDMDL
MODEL 2
REMARK VINA RESULT:     -11.4      4.110      9.602
REMARK SMILES CSc1nc2nnc(C(=O)NCCCCNC(=O)c3ccc(-c4c5nc(c(-c6cccc(S(=O)(=O)[O-])c6F)c6ccc([nH]6)c(-c6cccc(S(=O)(=O)[O-])c6F)c6nc(c(-c7cccc(S(=O)(=O)[O-])c7F)c7ccc4[nH]7)C=C6)C=C5)cc3)c(O)n2n1
REMARK SMILES IDX 14 1 13 2 12 3 11 4 9 5 10 6 8 8 3 9 4 10 85 11 5 12 84 13
REMARK SMILES IDX 6 14 82 15 7 16 2 17 1 18 83 19 15 21 16 22 17 23 18 25
REMARK SMILES IDX 19 26 20 27 81 28 21 29 80 30 22 31 23 32 24 33 74 34 25 35
REMARK SMILES IDX 79 36 73 37 75 38 26 39 78 40 72 41 71 42 27 44 59 45 39 46
REMARK SMILES IDX 58 47 40 48 43 49 57 50 76 51 41 52 42 53 56 55 77 56 44 57
REMARK SMILES IDX 28 58 29 59 37 60 30 61 32 62 38 63 31 64 33 65 34 66 35 67
REMARK SMILES IDX 36 68 60 69 61 70 69 71 62 72 64 73 70 74 63 75 65 76 66 77
REMARK SMILES IDX 67 78 68 79 45 80 46 81 54 82 47 83 49 84 55 85 48 86 50 87
REMARK SMILES IDX 51 88 52 89 53 90
REMARK H PARENT 11 7 83 20 16 24 75 43 43 54
REMARK Flexibility Score: inf
ROOT
ATOM      1  C   UNL A   1      37.649  20.026  24.696  1.00  0.00     0.023 C 
ENDROOT
BRANCH   1   2
ATOM      2  C   UNL A   1      36.686  21.205  24.475  1.00  0.00     0.023 C 
BRANCH   2   3
ATOM      3  C   UNL A   1      35.450  21.221  25.382  1.00  0.00     0.116 C 
BRANCH   3   4
ATOM      4  N   UNL A   1      34.251  20.814  24.667  1.00  0.00    -0.350 N 
ATOM      5  C   UNL A   1      33.327  21.482  23.925  1.00  0.00     0.277 C 
ATOM      6  O   UNL A   1      32.367  20.824  23.503  1.00  0.00    -0.267 OA
ATOM      7  H   UNL A   1      34.069  19.849  24.733  1.00  0.00     0.163 HD
BRANCH   5   8
ATOM      8  C   UNL A   1      33.404  22.951  23.606  1.00  0.00     0.212 A 
ATOM      9  C   UNL A   1      33.189  27.275  24.124  1.00  0.00     0.210 A 
ATOM     10  N   UNL A   1      33.570  26.876  22.878  1.00  0.00    -0.182 NA
ATOM     11  N   UNL A   1      32.963  26.296  24.998  1.00  0.00    -0.134 NA
ATOM     12  C   UNL A   1      33.552  25.563  22.964  1.00  0.00     0.275 A 
ATOM     13  N   UNL A   1      33.180  25.185  24.248  1.00  0.00    -0.159 N 
ATOM     14  N   UNL A   1      33.845  24.603  22.040  1.00  0.00    -0.108 NA
ATOM     15  C   UNL A   1      33.101  23.834  24.590  1.00  0.00     0.249 A 
ATOM     16  N   UNL A   1      33.782  23.381  22.347  1.00  0.00    -0.136 NA
BRANCH   9  17
ATOM     17  S   UNL A   1      33.064  28.963  24.548  1.00  0.00    -0.088 SA
ATOM     18  C   UNL A   1      31.350  29.307  24.095  1.00  0.00     0.094 C 
ENDBRANCH   9  17
BRANCH  15  19
ATOM     19  O   UNL A   1      32.733  23.505  25.888  1.00  0.00    -0.491 OA
ATOM     20  H   UNL A   1      32.511  22.621  26.103  1.00  0.00     0.295 HD
ENDBRANCH  15  19
ENDBRANCH   5   8
ENDBRANCH   3   4
ENDBRANCH   2   3
ENDBRANCH   1   2
BRANCH   1  21
ATOM     21  C   UNL A   1      38.750  20.291  25.717  1.00  0.00     0.116 C 
BRANCH  21  22
ATOM     22  N   UNL A   1      39.758  19.232  25.747  1.00  0.00    -0.352 N 
ATOM     23  C   UNL A   1      41.113  19.374  25.967  1.00  0.00     0.251 C 
ATOM     24  H   UNL A   1      39.435  18.315  25.594  1.00  0.00     0.163 HD
ATOM     25  O   UNL A   1      41.904  18.492  25.643  1.00  0.00    -0.269 OA
BRANCH  23  26
ATOM     26  C   UNL A   1      41.593  20.616  26.595  1.00  0.00     0.039 A 
ATOM     27  C   UNL A   1      42.166  21.633  25.826  1.00  0.00     0.014 A 
ATOM     28  C   UNL A   1      41.392  20.775  27.964  1.00  0.00     0.014 A 
ATOM     29  C   UNL A   1      42.454  22.855  26.431  1.00  0.00     0.010 A 
ATOM     30  C   UNL A   1      41.574  22.015  28.534  1.00  0.00     0.010 A 
ATOM     31  C   UNL A   1      42.133  23.050  27.782  1.00  0.00    -0.014 A 
BRANCH  31  32
ATOM     32  C   UNL A   1      42.285  24.368  28.395  1.00  0.00     0.031 A 
ATOM     33  C   UNL A   1      41.154  25.327  28.211  1.00  0.00     0.074 A 
ATOM     34  C   UNL A   1      43.260  24.637  29.290  1.00  0.00     0.049 A 
ATOM     35  N   UNL A   1      41.187  26.502  27.672  1.00  0.00    -0.248 NA
ATOM     36  C   UNL A   1      39.806  24.900  28.617  1.00  0.00     0.031 C 
ATOM     37  C   UNL A   1      44.258  23.713  29.844  1.00  0.00     0.029 A 
ATOM     38  N   UNL A   1      43.452  25.767  30.024  1.00  0.00    -0.354 N 
ATOM     39  C   UNL A   1      39.911  27.045  27.837  1.00  0.00     0.074 A 
ATOM     40  C   UNL A   1      39.073  25.966  28.292  1.00  0.00     0.031 C 
ATOM     41  C   UNL A   1      44.745  24.222  30.995  1.00  0.00     0.029 A 
ATOM     42  C   UNL A   1      44.238  25.570  31.153  1.00  0.00     0.049 A 
ATOM     43  H   UNL A   1      43.071  26.640  29.778  1.00  0.00     0.167 HD
ATOM     44  C   UNL A   1      39.678  28.387  27.766  1.00  0.00     0.034 A 
ATOM     45  C   UNL A   1      44.422  26.439  32.173  1.00  0.00     0.034 A 
ATOM     46  C   UNL A   1      40.794  29.090  27.190  1.00  0.00     0.049 A 
ATOM     47  C   UNL A   1      44.082  27.787  31.670  1.00  0.00     0.074 A 
ATOM     48  C   UNL A   1      41.458  29.052  25.981  1.00  0.00     0.029 A 
ATOM     49  N   UNL A   1      41.621  29.770  28.050  1.00  0.00    -0.354 N 
ATOM     50  N   UNL A   1      44.765  28.403  30.743  1.00  0.00    -0.248 NA
ATOM     51  C   UNL A   1      42.740  28.294  31.899  1.00  0.00     0.031 C 
ATOM     52  C   UNL A   1      42.829  29.260  26.314  1.00  0.00     0.029 A 
ATOM     53  C   UNL A   1      42.906  29.459  27.695  1.00  0.00     0.049 A 
ATOM     54  H   UNL A   1      41.343  30.367  28.782  1.00  0.00     0.167 HD
ATOM     55  C   UNL A   1      43.804  29.056  29.980  1.00  0.00     0.074 A 
ATOM     56  C   UNL A   1      42.603  29.059  30.813  1.00  0.00     0.031 C 
ATOM     57  C   UNL A   1      43.986  29.270  28.642  1.00  0.00     0.034 A 
BRANCH  44  58
ATOM     58  C   UNL A   1      38.573  29.140  28.472  1.00  0.00     0.023 A 
ATOM     59  C   UNL A   1      37.752  29.987  27.688  1.00  0.00     0.012 A 
ATOM     60  C   UNL A   1      38.458  29.264  29.874  1.00  0.00     0.148 A 
ATOM     61  C   UNL A   1      36.902  30.936  28.267  1.00  0.00     0.002 A 
ATOM     62  C   UNL A   1      37.548  30.151  30.445  1.00  0.00     0.091 A 
ATOM     63  F   UNL A   1      39.318  28.625  30.673  1.00  0.00    -0.205 F 
ATOM     64  C   UNL A   1      36.791  31.012  29.648  1.00  0.00     0.022 A 
BRANCH  62  65
ATOM     65  S   UNL A   1      37.315  30.234  32.226  1.00  0.00     0.127 S 
ATOM     66  O   UNL A   1      37.040  28.838  32.552  1.00  0.00    -0.237 OA
ATOM     67  O   UNL A   1      38.614  30.732  32.678  1.00  0.00    -0.237 OA
ATOM     68  O   UNL A   1      36.217  31.173  32.423  1.00  0.00    -0.744 OA
ENDBRANCH  62  65
ENDBRANCH  44  58
BRANCH  45  69
ATOM     69  C   UNL A   1      44.672  26.153  33.602  1.00  0.00     0.023 A 
ATOM     70  C   UNL A   1      45.992  26.092  34.085  1.00  0.00     0.012 A 
ATOM     71  C   UNL A   1      43.615  26.187  34.540  1.00  0.00     0.148 A 
ATOM     72  C   UNL A   1      46.254  26.089  35.460  1.00  0.00     0.002 A 
ATOM     73  C   UNL A   1      43.878  26.180  35.906  1.00  0.00     0.091 A 
ATOM     74  F   UNL A   1      42.358  26.314  34.090  1.00  0.00    -0.205 F 
ATOM     75  C   UNL A   1      45.200  26.141  36.369  1.00  0.00     0.022 A 
BRANCH  73  76
ATOM     76  S   UNL A   1      42.573  26.272  37.139  1.00  0.00     0.127 S 
ATOM     77  O   UNL A   1      41.892  27.513  36.765  1.00  0.00    -0.237 OA
ATOM     78  O   UNL A   1      41.816  25.053  36.870  1.00  0.00    -0.237 OA
ATOM     79  O   UNL A   1      43.247  26.324  38.431  1.00  0.00    -0.744 OA
ENDBRANCH  73  76
ENDBRANCH  45  69
BRANCH  57  80
ATOM     80  C   UNL A   1      45.343  28.976  28.039  1.00  0.00     0.023 A 
ATOM     81  C   UNL A   1      46.411  29.893  28.137  1.00  0.00     0.012 A 
ATOM     82  C   UNL A   1      45.613  27.677  27.574  1.00  0.00     0.148 A 
ATOM     83  C   UNL A   1      47.709  29.535  27.767  1.00  0.00     0.002 A 
ATOM     84  C   UNL A   1      46.916  27.306  27.256  1.00  0.00     0.091 A 
ATOM     85  F   UNL A   1      44.594  26.808  27.492  1.00  0.00    -0.205 F 
ATOM     86  C   UNL A   1      47.965  28.235  27.341  1.00  0.00     0.022 A 
BRANCH  84  87
ATOM     87  S   UNL A   1      47.342  25.611  26.848  1.00  0.00     0.127 S 
ATOM     88  O   UNL A   1      46.934  24.893  28.053  1.00  0.00    -0.237 OA
ATOM     89  O   UNL A   1      46.511  25.351  25.671  1.00  0.00    -0.237 OA
ATOM     90  O   UNL A   1      48.774  25.613  26.573  1.00  0.00    -0.744 OA
ENDBRANCH  84  87
ENDBRANCH  57  80
ENDBRANCH  31  32
ENDBRANCH  23  26
ENDBRANCH  21  22
ENDBRANCH   1  21
TORSDOF 16
ENDMDL
MODEL 3
REMARK VINA RESULT:     -11.4      3.411      7.530
REMARK SMILES CSc1nc2nnc(C(=O)NCCCCNC(=O)c3ccc(-c4c5nc(c(-c6cccc(S(=O)(=O)[O-])c6F)c6ccc([nH]6)c(-c6cccc(S(=O)(=O)[O-])c6F)c6nc(c(-c7cccc(S(=O)(=O)[O-])c7F)c7ccc4[nH]7)C=C6)C=C5)cc3)c(O)n2n1
REMARK SMILES IDX 14 1 13 2 12 3 11 4 9 5 10 6 8 8 3 9 4 10 85 11 5 12 84 13
REMARK SMILES IDX 6 14 82 15 7 16 2 17 1 18 83 19 15 21 16 22 17 23 18 25
REMARK SMILES IDX 19 26 20 27 81 28 21 29 80 30 22 31 23 32 24 33 74 34 25 35
REMARK SMILES IDX 79 36 73 37 75 38 26 39 78 40 72 41 71 42 27 44 59 45 39 46
REMARK SMILES IDX 58 47 40 48 43 49 57 50 76 51 41 52 42 53 56 55 77 56 44 57
REMARK SMILES IDX 28 58 29 59 37 60 30 61 32 62 38 63 31 64 33 65 34 66 35 67
REMARK SMILES IDX 36 68 60 69 61 70 69 71 62 72 64 73 70 74 63 75 65 76 66 77
REMARK SMILES IDX 67 78 68 79 45 80 46 81 54 82 47 83 49 84 55 85 48 86 50 87
REMARK SMILES IDX 51 88 52 89 53 90
REMARK H PARENT 11 7 83 20 16 24 75 43 43 54
REMARK Flexibility Score: inf
ROOT
ATOM      1  C   UNL A   1      33.126  29.819  27.260  1.00  0.00     0.023 C 
ENDROOT
BRANCH   1   2
ATOM      2  C   UNL A   1      32.105  29.765  26.110  1.00  0.00     0.023 C 
BRANCH   2   3
ATOM      3  C   UNL A   1      32.676  29.372  24.743  1.00  0.00     0.116 C 
BRANCH   3   4
ATOM      4  N   UNL A   1      31.653  29.380  23.710  1.00  0.00    -0.350 N 
ATOM      5  C   UNL A   1      31.282  28.493  22.747  1.00  0.00     0.277 C 
ATOM      6  O   UNL A   1      30.391  28.853  21.968  1.00  0.00    -0.267 OA
ATOM      7  H   UNL A   1      31.113  30.203  23.705  1.00  0.00     0.163 HD
BRANCH   5   8
ATOM      8  C   UNL A   1      31.895  27.129  22.578  1.00  0.00     0.212 A 
ATOM      9  C   UNL A   1      32.396  22.803  22.800  1.00  0.00     0.210 A 
ATOM     10  N   UNL A   1      33.423  23.457  22.189  1.00  0.00    -0.182 NA
ATOM     11  N   UNL A   1      31.390  23.570  23.215  1.00  0.00    -0.134 NA
ATOM     12  C   UNL A   1      33.055  24.719  22.251  1.00  0.00     0.275 A 
ATOM     13  N   UNL A   1      31.819  24.814  22.878  1.00  0.00    -0.159 N 
ATOM     14  N   UNL A   1      33.668  25.851  21.801  1.00  0.00    -0.108 NA
ATOM     15  C   UNL A   1      31.210  26.058  23.051  1.00  0.00     0.249 A 
ATOM     16  N   UNL A   1      33.117  26.977  21.949  1.00  0.00    -0.136 NA
BRANCH   9  17
ATOM     17  S   UNL A   1      32.388  21.066  22.972  1.00  0.00    -0.088 SA
ATOM     18  C   UNL A   1      32.258  20.896  24.765  1.00  0.00     0.094 C 
ENDBRANCH   9  17
BRANCH  15  19
ATOM     19  O   UNL A   1      29.970  26.102  23.676  1.00  0.00    -0.491 OA
ATOM     20  H   UNL A   1      29.916  26.120  24.610  1.00  0.00     0.295 HD
ENDBRANCH  15  19
ENDBRANCH   5   8
ENDBRANCH   3   4
ENDBRANCH   2   3
ENDBRANCH   1   2
BRANCH   1  21
ATOM     21  C   UNL A   1      34.051  31.031  27.230  1.00  0.00     0.116 C 
BRANCH  21  22
ATOM     22  N   UNL A   1      33.989  31.819  28.459  1.00  0.00    -0.352 N 
ATOM     23  C   UNL A   1      34.860  31.772  29.528  1.00  0.00     0.251 C 
ATOM     24  H   UNL A   1      33.241  32.455  28.534  1.00  0.00     0.163 HD
ATOM     25  O   UNL A   1      34.539  32.214  30.628  1.00  0.00    -0.269 OA
BRANCH  23  26
ATOM     26  C   UNL A   1      36.187  31.172  29.320  1.00  0.00     0.039 A 
ATOM     27  C   UNL A   1      37.325  31.974  29.186  1.00  0.00     0.014 A 
ATOM     28  C   UNL A   1      36.284  29.782  29.335  1.00  0.00     0.014 A 
ATOM     29  C   UNL A   1      38.578  31.367  29.159  1.00  0.00     0.010 A 
ATOM     30  C   UNL A   1      37.526  29.193  29.418  1.00  0.00     0.010 A 
ATOM     31  C   UNL A   1      38.676  29.975  29.300  1.00  0.00    -0.014 A 
BRANCH  31  32
ATOM     32  C   UNL A   1      39.985  29.334  29.426  1.00  0.00     0.031 A 
ATOM     33  C   UNL A   1      40.493  29.120  30.814  1.00  0.00     0.074 A 
ATOM     34  C   UNL A   1      40.595  28.735  28.382  1.00  0.00     0.049 A 
ATOM     35  N   UNL A   1      41.593  29.558  31.335  1.00  0.00    -0.248 NA
ATOM     36  C   UNL A   1      39.644  28.381  31.762  1.00  0.00     0.031 C 
ATOM     37  C   UNL A   1      40.084  28.555  27.017  1.00  0.00     0.029 A 
ATOM     38  N   UNL A   1      41.744  28.004  28.374  1.00  0.00    -0.354 N 
ATOM     39  C   UNL A   1      41.672  28.999  32.613  1.00  0.00     0.074 A 
ATOM     40  C   UNL A   1      40.386  28.407  32.870  1.00  0.00     0.031 C 
ATOM     41  C   UNL A   1      40.762  27.555  26.415  1.00  0.00     0.029 A 
ATOM     42  C   UNL A   1      41.860  27.161  27.276  1.00  0.00     0.049 A 
ATOM     43  H   UNL A   1      42.427  28.067  29.080  1.00  0.00     0.167 HD
ATOM     44  C   UNL A   1      42.851  28.902  33.291  1.00  0.00     0.034 A 
ATOM     45  C   UNL A   1      42.768  26.174  27.105  1.00  0.00     0.034 A 
ATOM     46  C   UNL A   1      43.876  29.718  32.694  1.00  0.00     0.049 A 
ATOM     47  C   UNL A   1      43.904  26.460  28.007  1.00  0.00     0.074 A 
ATOM     48  C   UNL A   1      44.032  31.064  32.438  1.00  0.00     0.029 A 
ATOM     49  N   UNL A   1      44.822  29.079  31.930  1.00  0.00    -0.354 N 
ATOM     50  N   UNL A   1      44.689  27.494  27.871  1.00  0.00    -0.248 NA
ATOM     51  C   UNL A   1      43.928  25.823  29.313  1.00  0.00     0.031 C 
ATOM     52  C   UNL A   1      44.706  31.119  31.182  1.00  0.00     0.029 A 
ATOM     53  C   UNL A   1      44.959  29.805  30.777  1.00  0.00     0.049 A 
ATOM     54  H   UNL A   1      45.310  28.257  32.166  1.00  0.00     0.167 HD
ATOM     55  C   UNL A   1      44.952  27.903  29.172  1.00  0.00     0.074 A 
ATOM     56  C   UNL A   1      44.569  26.767  30.007  1.00  0.00     0.031 C 
ATOM     57  C   UNL A   1      45.177  29.219  29.470  1.00  0.00     0.034 A 
BRANCH  44  58
ATOM     58  C   UNL A   1      43.202  27.859  34.328  1.00  0.00     0.023 A 
ATOM     59  C   UNL A   1      43.471  28.308  35.644  1.00  0.00     0.012 A 
ATOM     60  C   UNL A   1      43.530  26.518  34.035  1.00  0.00     0.148 A 
ATOM     61  C   UNL A   1      44.077  27.481  36.598  1.00  0.00     0.002 A 
ATOM     62  C   UNL A   1      44.055  25.675  35.012  1.00  0.00     0.091 A 
ATOM     63  F   UNL A   1      43.465  26.075  32.775  1.00  0.00    -0.205 F 
ATOM     64  C   UNL A   1      44.360  26.159  36.285  1.00  0.00     0.022 A 
BRANCH  62  65
ATOM     65  S   UNL A   1      44.370  23.937  34.678  1.00  0.00     0.127 S 
ATOM     66  O   UNL A   1      43.049  23.473  34.264  1.00  0.00    -0.237 OA
ATOM     67  O   UNL A   1      45.365  24.010  33.608  1.00  0.00    -0.237 OA
ATOM     68  O   UNL A   1      44.882  23.395  35.930  1.00  0.00    -0.744 OA
ENDBRANCH  62  65
ENDBRANCH  44  58
BRANCH  45  69
ATOM     69  C   UNL A   1      42.626  24.900  26.369  1.00  0.00     0.023 A 
ATOM     70  C   UNL A   1      43.589  24.530  25.413  1.00  0.00     0.012 A 
ATOM     71  C   UNL A   1      41.682  23.930  26.781  1.00  0.00     0.148 A 
ATOM     72  C   UNL A   1      43.629  23.228  24.900  1.00  0.00     0.002 A 
ATOM     73  C   UNL A   1      41.722  22.639  26.265  1.00  0.00     0.091 A 
ATOM     74  F   UNL A   1      40.804  24.253  27.740  1.00  0.00    -0.205 F 
ATOM     75  C   UNL A   1      42.702  22.282  25.330  1.00  0.00     0.022 A 
BRANCH  73  76
ATOM     76  S   UNL A   1      40.577  21.356  26.793  1.00  0.00     0.127 S 
ATOM     77  O   UNL A   1      41.059  20.195  26.043  1.00  0.00    -0.237 OA
ATOM     78  O   UNL A   1      40.825  21.303  28.231  1.00  0.00    -0.237 OA
ATOM     79  O   UNL A   1      39.251  21.816  26.399  1.00  0.00    -0.744 OA
ENDBRANCH  73  76
ENDBRANCH  45  69
BRANCH  57  80
ATOM     80  C   UNL A   1      45.347  30.201  28.332  1.00  0.00     0.023 A 
ATOM     81  C   UNL A   1      44.238  30.797  27.696  1.00  0.00     0.012 A 
ATOM     82  C   UNL A   1      46.631  30.703  28.053  1.00  0.00     0.148 A 
ATOM     83  C   UNL A   1      44.400  31.852  26.795  1.00  0.00     0.002 A 
ATOM     84  C   UNL A   1      46.786  31.787  27.196  1.00  0.00     0.091 A 
ATOM     85  F   UNL A   1      47.681  30.136  28.668  1.00  0.00    -0.205 F 
ATOM     86  C   UNL A   1      45.674  32.359  26.557  1.00  0.00     0.022 A 
BRANCH  84  87
ATOM     87  S   UNL A   1      48.376  32.587  26.961  1.00  0.00     0.127 S 
ATOM     88  O   UNL A   1      48.064  33.603  25.960  1.00  0.00    -0.237 OA
ATOM     89  O   UNL A   1      48.664  33.113  28.296  1.00  0.00    -0.237 OA
ATOM     90  O   UNL A   1      49.291  31.538  26.527  1.00  0.00    -0.744 OA
ENDBRANCH  84  87
ENDBRANCH  57  80
ENDBRANCH  31  32
ENDBRANCH  23  26
ENDBRANCH  21  22
ENDBRANCH   1  21
TORSDOF 16
ENDMDL
