MODEL 1
REMARK VINA RESULT:     -11.9      0.000      0.000
REMARK SMILES C[NH2+][C@@]1(C(=O)NCCCCNC(=O)c2ccc(-c3c4nc(c(-c5cccc(S(=O)(=O)[O-])c5F)c5ccc([nH]5)c(-c5cccc(S(=O)(=O)[O-])c5F)c5nc(c(-c6cccc(S(=O)(=O)[O-])c6F)c6ccc3[nH]6)C=C5)C=C4)cc2)CC[C@H](n2ccc(C)n2)C1
REMARK SMILES IDX 9 1 8 2 7 3 6 4 4 5 5 6 3 8 77 9 86 10 78 11 79 12 2 13 1 14
REMARK SMILES IDX 80 17 81 18 85 19 82 20 83 21 84 22 10 23 11 24 12 25 13 27
REMARK SMILES IDX 14 28 15 29 76 30 16 31 75 32 17 33 18 34 19 35 69 36 20 37
REMARK SMILES IDX 74 38 68 39 70 40 21 41 73 42 67 43 66 44 22 46 54 47 34 48
REMARK SMILES IDX 53 49 35 50 38 51 52 52 71 53 36 54 37 55 51 57 72 58 39 59
REMARK SMILES IDX 23 60 24 61 32 62 25 63 27 64 33 65 26 66 28 67 29 68 30 69
REMARK SMILES IDX 31 70 55 71 56 72 64 73 57 74 59 75 65 76 58 77 60 78 61 79
REMARK SMILES IDX 62 80 63 81 40 82 41 83 49 84 42 85 44 86 50 87 43 88 45 89
REMARK SMILES IDX 46 90 47 91 48 92
REMARK H PARENT 6 7 2 15 2 16 11 26 70 45 38 56
REMARK Flexibility Score: inf
ROOT
ATOM      1  C   UNL A   1      32.021  29.247  27.243  1.00  0.00     0.023 C 
ENDROOT
BRANCH   1   2
ATOM      2  C   UNL A   1      32.329  27.793  26.925  1.00  0.00     0.023 C 
BRANCH   2   3
ATOM      3  C   UNL A   1      31.205  27.016  26.252  1.00  0.00     0.116 C 
BRANCH   3   4
ATOM      4  N   UNL A   1      31.067  25.706  26.854  1.00  0.00    -0.351 N 
ATOM      5  C   UNL A   1      31.461  24.463  26.502  1.00  0.00     0.281 C 
ATOM      6  O   UNL A   1      30.966  23.554  27.192  1.00  0.00    -0.268 OA
ATOM      7  H   UNL A   1      30.579  25.727  27.709  1.00  0.00     0.163 HD
BRANCH   5   8
ATOM      8  C   UNL A   1      32.462  24.062  25.343  1.00  0.00     0.177 C 
ATOM      9  C   UNL A   1      33.895  24.587  25.317  1.00  0.00     0.081 C 
ATOM     10  C   UNL A   1      31.879  24.468  23.974  1.00  0.00     0.106 C 
ATOM     11  C   UNL A   1      33.919  25.780  24.369  1.00  0.00     0.034 C 
ATOM     12  C   UNL A   1      32.751  25.601  23.390  1.00  0.00     0.114 C 
BRANCH   8  13
ATOM     13  N   UNL A   1      32.486  22.555  25.352  1.00  0.00    -0.336 N 
ATOM     14  C   UNL A   1      33.693  21.981  24.760  1.00  0.00     0.331 C 
ATOM     15  H   UNL A   1      32.421  22.237  26.320  1.00  0.00     0.346 HD
ATOM     16  H   UNL A   1      31.699  22.240  24.786  1.00  0.00     0.346 HD
ENDBRANCH   8  13
BRANCH  12  17
ATOM     17  N   UNL A   1      32.053  26.844  23.079  1.00  0.00    -0.269 N 
ATOM     18  C   UNL A   1      32.589  28.103  23.028  1.00  0.00     0.109 A 
ATOM     19  N   UNL A   1      30.732  26.840  22.831  1.00  0.00    -0.178 NA
ATOM     20  C   UNL A   1      31.524  28.966  22.896  1.00  0.00     0.045 A 
ATOM     21  C   UNL A   1      30.389  28.132  22.801  1.00  0.00     0.059 A 
ATOM     22  C   UNL A   1      28.959  28.526  22.734  1.00  0.00     0.069 C 
ENDBRANCH  12  17
ENDBRANCH   5   8
ENDBRANCH   3   4
ENDBRANCH   2   3
ENDBRANCH   1   2
BRANCH   1  23
ATOM     23  C   UNL A   1      32.822  30.243  26.418  1.00  0.00     0.116 C 
BRANCH  23  24
ATOM     24  N   UNL A   1      32.761  31.613  26.919  1.00  0.00    -0.352 N 
ATOM     25  C   UNL A   1      33.691  32.313  27.661  1.00  0.00     0.251 C 
ATOM     26  H   UNL A   1      31.940  32.109  26.697  1.00  0.00     0.163 HD
ATOM     27  O   UNL A   1      33.440  33.445  28.056  1.00  0.00    -0.269 OA
BRANCH  25  28
ATOM     28  C   UNL A   1      34.971  31.660  28.021  1.00  0.00     0.039 A 
ATOM     29  C   UNL A   1      36.122  32.440  28.155  1.00  0.00     0.014 A 
ATOM     30  C   UNL A   1      35.010  30.299  28.318  1.00  0.00     0.014 A 
ATOM     31  C   UNL A   1      37.281  31.874  28.696  1.00  0.00     0.010 A 
ATOM     32  C   UNL A   1      36.118  29.774  28.970  1.00  0.00     0.010 A 
ATOM     33  C   UNL A   1      37.269  30.551  29.166  1.00  0.00    -0.014 A 
BRANCH  33  34
ATOM     34  C   UNL A   1      38.430  29.947  29.876  1.00  0.00     0.031 A 
ATOM     35  C   UNL A   1      38.781  30.409  31.267  1.00  0.00     0.074 A 
ATOM     36  C   UNL A   1      39.250  29.094  29.227  1.00  0.00     0.049 A 
ATOM     37  N   UNL A   1      39.836  30.133  31.989  1.00  0.00    -0.248 NA
ATOM     38  C   UNL A   1      37.851  31.355  31.910  1.00  0.00     0.031 C 
ATOM     39  C   UNL A   1      39.091  28.650  27.839  1.00  0.00     0.029 A 
ATOM     40  N   UNL A   1      40.403  28.472  29.639  1.00  0.00    -0.354 N 
ATOM     41  C   UNL A   1      39.732  30.924  33.128  1.00  0.00     0.074 A 
ATOM     42  C   UNL A   1      38.534  31.718  32.985  1.00  0.00     0.031 C 
ATOM     43  C   UNL A   1      40.098  27.818  27.522  1.00  0.00     0.029 A 
ATOM     44  C   UNL A   1      40.991  27.692  28.669  1.00  0.00     0.049 A 
ATOM     45  H   UNL A   1      40.775  28.574  30.545  1.00  0.00     0.167 HD
ATOM     46  C   UNL A   1      40.538  30.958  34.216  1.00  0.00     0.034 A 
ATOM     47  C   UNL A   1      42.121  26.958  28.699  1.00  0.00     0.034 A 
ATOM     48  C   UNL A   1      41.663  30.086  34.404  1.00  0.00     0.049 A 
ATOM     49  C   UNL A   1      42.925  26.911  29.970  1.00  0.00     0.074 A 
ATOM     50  C   UNL A   1      42.461  29.940  35.524  1.00  0.00     0.029 A 
ATOM     51  N   UNL A   1      42.137  29.194  33.454  1.00  0.00    -0.354 N 
ATOM     52  N   UNL A   1      42.716  27.540  31.100  1.00  0.00    -0.248 NA
ATOM     53  C   UNL A   1      44.097  26.022  29.985  1.00  0.00     0.031 C 
ATOM     54  C   UNL A   1      43.420  28.958  35.251  1.00  0.00     0.029 A 
ATOM     55  C   UNL A   1      43.212  28.488  33.964  1.00  0.00     0.049 A 
ATOM     56  H   UNL A   1      41.764  29.080  32.550  1.00  0.00     0.167 HD
ATOM     57  C   UNL A   1      43.709  27.102  31.970  1.00  0.00     0.074 A 
ATOM     58  C   UNL A   1      44.505  26.135  31.243  1.00  0.00     0.031 C 
ATOM     59  C   UNL A   1      43.951  27.481  33.249  1.00  0.00     0.034 A 
BRANCH  46  60
ATOM     60  C   UNL A   1      40.177  31.911  35.323  1.00  0.00     0.023 A 
ATOM     61  C   UNL A   1      40.858  33.142  35.429  1.00  0.00     0.012 A 
ATOM     62  C   UNL A   1      39.141  31.616  36.230  1.00  0.00     0.148 A 
ATOM     63  C   UNL A   1      40.545  34.044  36.445  1.00  0.00     0.002 A 
ATOM     64  C   UNL A   1      38.802  32.541  37.212  1.00  0.00     0.091 A 
ATOM     65  F   UNL A   1      38.518  30.433  36.130  1.00  0.00    -0.205 F 
ATOM     66  C   UNL A   1      39.511  33.749  37.329  1.00  0.00     0.022 A 
BRANCH  64  67
ATOM     67  S   UNL A   1      37.434  32.289  38.350  1.00  0.00     0.127 S 
ATOM     68  O   UNL A   1      37.933  32.943  39.559  1.00  0.00    -0.237 OA
ATOM     69  O   UNL A   1      36.342  32.997  37.681  1.00  0.00    -0.237 OA
ATOM     70  O   UNL A   1      37.254  30.848  38.444  1.00  0.00    -0.744 OA
ENDBRANCH  64  67
ENDBRANCH  46  60
BRANCH  47  71
ATOM     71  C   UNL A   1      42.503  26.130  27.518  1.00  0.00     0.023 A 
ATOM     72  C   UNL A   1      43.334  26.694  26.529  1.00  0.00     0.012 A 
ATOM     73  C   UNL A   1      42.090  24.791  27.387  1.00  0.00     0.148 A 
ATOM     74  C   UNL A   1      43.722  25.949  25.415  1.00  0.00     0.002 A 
ATOM     75  C   UNL A   1      42.523  24.038  26.299  1.00  0.00     0.091 A 
ATOM     76  F   UNL A   1      41.291  24.275  28.331  1.00  0.00    -0.205 F 
ATOM     77  C   UNL A   1      43.325  24.619  25.305  1.00  0.00     0.022 A 
BRANCH  75  78
ATOM     78  S   UNL A   1      42.171  22.282  26.145  1.00  0.00     0.127 S 
ATOM     79  O   UNL A   1      42.886  21.940  24.919  1.00  0.00    -0.237 OA
ATOM     80  O   UNL A   1      42.758  21.745  27.373  1.00  0.00    -0.237 OA
ATOM     81  O   UNL A   1      40.719  22.183  26.084  1.00  0.00    -0.744 OA
ENDBRANCH  75  78
ENDBRANCH  47  71
BRANCH  59  82
ATOM     82  C   UNL A   1      45.102  26.831  33.967  1.00  0.00     0.023 A 
ATOM     83  C   UNL A   1      46.372  27.440  33.938  1.00  0.00     0.012 A 
ATOM     84  C   UNL A   1      44.905  25.674  34.745  1.00  0.00     0.148 A 
ATOM     85  C   UNL A   1      47.434  26.893  34.656  1.00  0.00     0.002 A 
ATOM     86  C   UNL A   1      45.957  25.160  35.493  1.00  0.00     0.091 A 
ATOM     87  F   UNL A   1      43.693  25.098  34.741  1.00  0.00    -0.205 F 
ATOM     88  C   UNL A   1      47.224  25.763  35.443  1.00  0.00     0.022 A 
BRANCH  86  89
ATOM     89  S   UNL A   1      45.747  23.766  36.607  1.00  0.00     0.127 S 
ATOM     90  O   UNL A   1      47.131  23.460  36.964  1.00  0.00    -0.237 OA
ATOM     91  O   UNL A   1      44.952  24.346  37.690  1.00  0.00    -0.237 OA
ATOM     92  O   UNL A   1      45.054  22.743  35.836  1.00  0.00    -0.744 OA
ENDBRANCH  86  89
ENDBRANCH  59  82
ENDBRANCH  33  34
ENDBRANCH  25  28
ENDBRANCH  23  24
ENDBRANCH   1  23
TORSDOF 16
ENDMDL
MODEL 2
REMARK VINA RESULT:     -11.8      1.593      7.894
REMARK SMILES C[NH2+][C@@]1(C(=O)NCCCCNC(=O)c2ccc(-c3c4nc(c(-c5cccc(S(=O)(=O)[O-])c5F)c5ccc([nH]5)c(-c5cccc(S(=O)(=O)[O-])c5F)c5nc(c(-c6cccc(S(=O)(=O)[O-])c6F)c6ccc3[nH]6)C=C5)C=C4)cc2)CC[C@H](n2ccc(C)n2)C1
REMARK SMILES IDX 9 1 8 2 7 3 6 4 4 5 5 6 3 8 77 9 86 10 78 11 79 12 2 13 1 14
REMARK SMILES IDX 80 17 81 18 85 19 82 20 83 21 84 22 10 23 11 24 12 25 13 27
REMARK SMILES IDX 14 28 15 29 76 30 16 31 75 32 17 33 18 34 19 35 69 36 20 37
REMARK SMILES IDX 74 38 68 39 70 40 21 41 73 42 67 43 66 44 22 46 54 47 34 48
REMARK SMILES IDX 53 49 35 50 38 51 52 52 71 53 36 54 37 55 51 57 72 58 39 59
REMARK SMILES IDX 23 60 24 61 32 62 25 63 27 64 33 65 26 66 28 67 29 68 30 69
REMARK SMILES IDX 31 70 55 71 56 72 64 73 57 74 59 75 65 76 58 77 60 78 61 79
REMARK SMILES IDX 62 80 63 81 40 82 41 83 49 84 42 85 44 86 50 87 43 88 45 89
REMARK SMILES IDX 46 90 47 91 48 92
REMARK H PARENT 6 7 2 15 2 16 11 26 70 45 38 56
REMARK Flexibility Score: inf
ROOT
ATOM      1  C   UNL A   1      31.698  28.789  25.346  1.00  0.00     0.023 C 
ENDROOT
BRANCH   1   2
ATOM      2  C   UNL A   1      31.356  27.782  26.433  1.00  0.00     0.023 C 
BRANCH   2   3
ATOM      3  C   UNL A   1      32.201  26.515  26.445  1.00  0.00     0.116 C 
BRANCH   3   4
ATOM      4  N   UNL A   1      31.428  25.397  26.942  1.00  0.00    -0.351 N 
ATOM      5  C   UNL A   1      31.531  24.056  26.823  1.00  0.00     0.281 C 
ATOM      6  O   UNL A   1      30.538  23.428  27.233  1.00  0.00    -0.268 OA
ATOM      7  H   UNL A   1      30.657  25.677  27.487  1.00  0.00     0.163 HD
BRANCH   5   8
ATOM      8  C   UNL A   1      32.750  23.231  26.241  1.00  0.00     0.177 C 
ATOM      9  C   UNL A   1      34.192  23.646  26.520  1.00  0.00     0.081 C 
ATOM     10  C   UNL A   1      32.660  23.165  24.703  1.00  0.00     0.106 C 
ATOM     11  C   UNL A   1      34.675  24.434  25.309  1.00  0.00     0.034 C 
ATOM     12  C   UNL A   1      33.829  23.983  24.111  1.00  0.00     0.114 C 
BRANCH   8  13
ATOM     13  N   UNL A   1      32.536  21.821  26.730  1.00  0.00    -0.336 N 
ATOM     14  C   UNL A   1      33.777  21.091  26.983  1.00  0.00     0.331 C 
ATOM     15  H   UNL A   1      32.003  21.858  27.599  1.00  0.00     0.346 HD
ATOM     16  H   UNL A   1      32.043  21.321  25.990  1.00  0.00     0.346 HD
ENDBRANCH   8  13
BRANCH  12  17
ATOM     17  N   UNL A   1      33.454  25.073  23.218  1.00  0.00    -0.269 N 
ATOM     18  C   UNL A   1      32.803  24.972  22.017  1.00  0.00     0.109 A 
ATOM     19  N   UNL A   1      33.770  26.343  23.522  1.00  0.00    -0.178 NA
ATOM     20  C   UNL A   1      32.847  26.227  21.452  1.00  0.00     0.045 A 
ATOM     21  C   UNL A   1      33.480  27.039  22.418  1.00  0.00     0.059 A 
ATOM     22  C   UNL A   1      33.872  28.466  22.307  1.00  0.00     0.069 C 
ENDBRANCH  12  17
ENDBRANCH   5   8
ENDBRANCH   3   4
ENDBRANCH   2   3
ENDBRANCH   1   2
BRANCH   1  23
ATOM     23  C   UNL A   1      32.857  29.708  25.699  1.00  0.00     0.116 C 
BRANCH  23  24
ATOM     24  N   UNL A   1      32.447  30.981  26.286  1.00  0.00    -0.352 N 
ATOM     25  C   UNL A   1      33.131  31.799  27.162  1.00  0.00     0.251 C 
ATOM     26  H   UNL A   1      31.555  31.301  26.020  1.00  0.00     0.163 HD
ATOM     27  O   UNL A   1      32.599  32.808  27.607  1.00  0.00    -0.269 OA
BRANCH  25  28
ATOM     28  C   UNL A   1      34.493  31.414  27.598  1.00  0.00     0.039 A 
ATOM     29  C   UNL A   1      35.468  32.404  27.747  1.00  0.00     0.014 A 
ATOM     30  C   UNL A   1      34.776  30.096  27.950  1.00  0.00     0.014 A 
ATOM     31  C   UNL A   1      36.688  32.087  28.355  1.00  0.00     0.010 A 
ATOM     32  C   UNL A   1      35.932  29.812  28.665  1.00  0.00     0.010 A 
ATOM     33  C   UNL A   1      36.905  30.801  28.877  1.00  0.00    -0.014 A 
BRANCH  33  34
ATOM     34  C   UNL A   1      38.125  30.452  29.655  1.00  0.00     0.031 A 
ATOM     35  C   UNL A   1      39.131  29.489  29.079  1.00  0.00     0.074 A 
ATOM     36  C   UNL A   1      38.261  30.882  30.927  1.00  0.00     0.049 A 
ATOM     37  N   UNL A   1      40.166  28.933  29.652  1.00  0.00    -0.248 NA
ATOM     38  C   UNL A   1      38.910  29.046  27.690  1.00  0.00     0.031 C 
ATOM     39  C   UNL A   1      37.305  31.727  31.647  1.00  0.00     0.029 A 
ATOM     40  N   UNL A   1      39.246  30.639  31.853  1.00  0.00    -0.354 N 
ATOM     41  C   UNL A   1      40.669  28.026  28.727  1.00  0.00     0.074 A 
ATOM     42  C   UNL A   1      39.805  28.077  27.570  1.00  0.00     0.031 C 
ATOM     43  C   UNL A   1      37.756  31.944  32.894  1.00  0.00     0.029 A 
ATOM     44  C   UNL A   1      39.016  31.230  33.075  1.00  0.00     0.049 A 
ATOM     45  H   UNL A   1      40.042  30.094  31.661  1.00  0.00     0.167 HD
ATOM     46  C   UNL A   1      41.776  27.249  28.812  1.00  0.00     0.034 A 
ATOM     47  C   UNL A   1      39.738  31.201  34.213  1.00  0.00     0.034 A 
ATOM     48  C   UNL A   1      42.693  27.286  29.915  1.00  0.00     0.049 A 
ATOM     49  C   UNL A   1      41.033  30.436  34.234  1.00  0.00     0.074 A 
ATOM     50  C   UNL A   1      43.913  26.645  30.041  1.00  0.00     0.029 A 
ATOM     51  N   UNL A   1      42.503  28.020  31.076  1.00  0.00    -0.354 N 
ATOM     52  N   UNL A   1      41.580  29.715  33.285  1.00  0.00    -0.248 NA
ATOM     53  C   UNL A   1      41.833  30.511  35.466  1.00  0.00     0.031 C 
ATOM     54  C   UNL A   1      44.461  26.993  31.280  1.00  0.00     0.029 A 
ATOM     55  C   UNL A   1      43.586  27.856  31.921  1.00  0.00     0.049 A 
ATOM     56  H   UNL A   1      41.714  28.575  31.270  1.00  0.00     0.167 HD
ATOM     57  C   UNL A   1      42.798  29.277  33.792  1.00  0.00     0.074 A 
ATOM     58  C   UNL A   1      42.921  29.833  35.123  1.00  0.00     0.031 C 
ATOM     59  C   UNL A   1      43.723  28.471  33.214  1.00  0.00     0.034 A 
BRANCH  46  60
ATOM     60  C   UNL A   1      42.097  26.359  27.640  1.00  0.00     0.023 A 
ATOM     61  C   UNL A   1      42.840  26.877  26.560  1.00  0.00     0.012 A 
ATOM     62  C   UNL A   1      41.705  25.007  27.623  1.00  0.00     0.148 A 
ATOM     63  C   UNL A   1      43.151  26.078  25.461  1.00  0.00     0.002 A 
ATOM     64  C   UNL A   1      42.060  24.202  26.546  1.00  0.00     0.091 A 
ATOM     65  F   UNL A   1      40.980  24.536  28.648  1.00  0.00    -0.205 F 
ATOM     66  C   UNL A   1      42.771  24.739  25.459  1.00  0.00     0.022 A 
BRANCH  64  67
ATOM     67  S   UNL A   1      41.684  22.446  26.483  1.00  0.00     0.127 S 
ATOM     68  O   UNL A   1      40.228  22.460  26.358  1.00  0.00    -0.237 OA
ATOM     69  O   UNL A   1      42.395  22.021  25.276  1.00  0.00    -0.237 OA
ATOM     70  O   UNL A   1      42.204  21.884  27.721  1.00  0.00    -0.744 OA
ENDBRANCH  64  67
ENDBRANCH  46  60
BRANCH  47  71
ATOM     71  C   UNL A   1      39.301  32.001  35.393  1.00  0.00     0.023 A 
ATOM     72  C   UNL A   1      38.449  31.405  36.345  1.00  0.00     0.012 A 
ATOM     73  C   UNL A   1      39.748  33.320  35.602  1.00  0.00     0.148 A 
ATOM     74  C   UNL A   1      38.027  32.117  37.468  1.00  0.00     0.002 A 
ATOM     75  C   UNL A   1      39.363  34.005  36.750  1.00  0.00     0.091 A 
ATOM     76  F   UNL A   1      40.548  33.874  34.681  1.00  0.00    -0.205 F 
ATOM     77  C   UNL A   1      38.491  33.413  37.676  1.00  0.00     0.022 A 
BRANCH  75  78
ATOM     78  S   UNL A   1      40.018  35.627  37.166  1.00  0.00     0.127 S 
ATOM     79  O   UNL A   1      41.453  35.366  37.221  1.00  0.00    -0.237 OA
ATOM     80  O   UNL A   1      39.580  36.433  36.025  1.00  0.00    -0.237 OA
ATOM     81  O   UNL A   1      39.387  35.988  38.428  1.00  0.00    -0.744 OA
ENDBRANCH  75  78
ENDBRANCH  47  71
BRANCH  59  82
ATOM     82  C   UNL A   1      44.970  28.161  33.997  1.00  0.00     0.023 A 
ATOM     83  C   UNL A   1      46.077  29.028  33.912  1.00  0.00     0.012 A 
ATOM     84  C   UNL A   1      45.009  27.070  34.887  1.00  0.00     0.148 A 
ATOM     85  C   UNL A   1      47.215  28.799  34.684  1.00  0.00     0.002 A 
ATOM     86  C   UNL A   1      46.129  26.875  35.686  1.00  0.00     0.091 A 
ATOM     87  F   UNL A   1      43.952  26.246  34.937  1.00  0.00    -0.205 F 
ATOM     88  C   UNL A   1      47.235  27.732  35.579  1.00  0.00     0.022 A 
BRANCH  86  89
ATOM     89  S   UNL A   1      46.199  25.583  36.933  1.00  0.00     0.127 S 
ATOM     90  O   UNL A   1      47.515  25.814  37.527  1.00  0.00    -0.237 OA
ATOM     91  O   UNL A   1      45.070  25.922  37.801  1.00  0.00    -0.237 OA
ATOM     92  O   UNL A   1      46.046  24.326  36.213  1.00  0.00    -0.744 OA
ENDBRANCH  86  89
ENDBRANCH  59  82
ENDBRANCH  33  34
ENDBRANCH  25  28
ENDBRANCH  23  24
ENDBRANCH   1  23
TORSDOF 16
ENDMDL
MODEL 3
REMARK VINA RESULT:     -11.7      5.141     10.183
REMARK SMILES C[NH2+][C@@]1(C(=O)NCCCCNC(=O)c2ccc(-c3c4nc(c(-c5cccc(S(=O)(=O)[O-])c5F)c5ccc([nH]5)c(-c5cccc(S(=O)(=O)[O-])c5F)c5nc(c(-c6cccc(S(=O)(=O)[O-])c6F)c6ccc3[nH]6)C=C5)C=C4)cc2)CC[C@H](n2ccc(C)n2)C1
REMARK SMILES IDX 9 1 8 2 7 3 6 4 4 5 5 6 3 8 77 9 86 10 78 11 79 12 2 13 1 14
REMARK SMILES IDX 80 17 81 18 85 19 82 20 83 21 84 22 10 23 11 24 12 25 13 27
REMARK SMILES IDX 14 28 15 29 76 30 16 31 75 32 17 33 18 34 19 35 69 36 20 37
REMARK SMILES IDX 74 38 68 39 70 40 21 41 73 42 67 43 66 44 22 46 54 47 34 48
REMARK SMILES IDX 53 49 35 50 38 51 52 52 71 53 36 54 37 55 51 57 72 58 39 59
REMARK SMILES IDX 23 60 24 61 32 62 25 63 27 64 33 65 26 66 28 67 29 68 30 69
REMARK SMILES IDX 31 70 55 71 56 72 64 73 57 74 59 75 65 76 58 77 60 78 61 79
REMARK SMILES IDX 62 80 63 81 40 82 41 83 49 84 42 85 44 86 50 87 43 88 45 89
REMARK SMILES IDX 46 90 47 91 48 92
REMARK H PARENT 6 7 2 15 2 16 11 26 70 45 38 56
REMARK Flexibility Score: inf
ROOT
ATOM      1  C   UNL A   1      35.486  21.562  24.618  1.00  0.00     0.023 C 
ENDROOT
BRANCH   1   2
ATOM      2  C   UNL A   1      34.270  22.464  24.753  1.00  0.00     0.023 C 
BRANCH   2   3
ATOM      3  C   UNL A   1      33.984  22.975  26.159  1.00  0.00     0.116 C 
BRANCH   3   4
ATOM      4  N   UNL A   1      33.756  24.404  26.140  1.00  0.00    -0.351 N 
ATOM      5  C   UNL A   1      32.695  25.183  25.835  1.00  0.00     0.281 C 
ATOM      6  O   UNL A   1      32.960  26.395  25.742  1.00  0.00    -0.268 OA
ATOM      7  H   UNL A   1      34.548  24.922  26.409  1.00  0.00     0.163 HD
BRANCH   5   8
ATOM      8  C   UNL A   1      31.199  24.724  25.600  1.00  0.00     0.177 C 
ATOM      9  C   UNL A   1      30.817  23.846  24.411  1.00  0.00     0.081 C 
ATOM     10  C   UNL A   1      30.278  25.956  25.478  1.00  0.00     0.106 C 
ATOM     11  C   UNL A   1      30.275  24.768  23.326  1.00  0.00     0.034 C 
ATOM     12  C   UNL A   1      29.752  26.029  24.028  1.00  0.00     0.114 C 
BRANCH   8  13
ATOM     13  N   UNL A   1      30.797  24.031  26.877  1.00  0.00    -0.336 N 
ATOM     14  C   UNL A   1      30.235  22.698  26.672  1.00  0.00     0.331 C 
ATOM     15  H   UNL A   1      31.624  23.943  27.469  1.00  0.00     0.346 HD
ATOM     16  H   UNL A   1      30.068  24.599  27.307  1.00  0.00     0.346 HD
ENDBRANCH   8  13
BRANCH  12  17
ATOM     17  N   UNL A   1      30.046  27.262  23.307  1.00  0.00    -0.269 N 
ATOM     18  C   UNL A   1      31.247  27.639  22.766  1.00  0.00     0.109 A 
ATOM     19  N   UNL A   1      29.093  28.195  23.136  1.00  0.00    -0.178 NA
ATOM     20  C   UNL A   1      31.092  28.949  22.368  1.00  0.00     0.045 A 
ATOM     21  C   UNL A   1      29.741  29.255  22.642  1.00  0.00     0.059 A 
ATOM     22  C   UNL A   1      29.044  30.558  22.495  1.00  0.00     0.069 C 
ENDBRANCH  12  17
ENDBRANCH   5   8
ENDBRANCH   3   4
ENDBRANCH   2   3
ENDBRANCH   1   2
BRANCH   1  23
ATOM     23  C   UNL A   1      36.563  21.818  25.660  1.00  0.00     0.116 C 
BRANCH  23  24
ATOM     24  N   UNL A   1      37.694  20.896  25.584  1.00  0.00    -0.352 N 
ATOM     25  C   UNL A   1      39.009  21.096  25.952  1.00  0.00     0.251 C 
ATOM     26  H   UNL A   1      37.489  20.006  25.217  1.00  0.00     0.163 HD
ATOM     27  O   UNL A   1      39.845  20.224  25.752  1.00  0.00    -0.269 OA
BRANCH  25  28
ATOM     28  C   UNL A   1      39.407  22.396  26.540  1.00  0.00     0.039 A 
ATOM     29  C   UNL A   1      40.471  22.439  27.445  1.00  0.00     0.014 A 
ATOM     30  C   UNL A   1      38.795  23.577  26.124  1.00  0.00     0.014 A 
ATOM     31  C   UNL A   1      40.989  23.676  27.843  1.00  0.00     0.010 A 
ATOM     32  C   UNL A   1      39.390  24.795  26.419  1.00  0.00     0.010 A 
ATOM     33  C   UNL A   1      40.493  24.864  27.283  1.00  0.00    -0.014 A 
BRANCH  33  34
ATOM     34  C   UNL A   1      41.102  26.193  27.565  1.00  0.00     0.031 A 
ATOM     35  C   UNL A   1      42.503  26.490  27.093  1.00  0.00     0.074 A 
ATOM     36  C   UNL A   1      40.462  27.075  28.361  1.00  0.00     0.049 A 
ATOM     37  N   UNL A   1      43.269  27.512  27.372  1.00  0.00    -0.248 NA
ATOM     38  C   UNL A   1      43.149  25.475  26.242  1.00  0.00     0.031 C 
ATOM     39  C   UNL A   1      39.149  26.867  28.980  1.00  0.00     0.029 A 
ATOM     40  N   UNL A   1      40.845  28.313  28.815  1.00  0.00    -0.354 N 
ATOM     41  C   UNL A   1      44.503  27.227  26.797  1.00  0.00     0.074 A 
ATOM     42  C   UNL A   1      44.395  25.922  26.187  1.00  0.00     0.031 C 
ATOM     43  C   UNL A   1      38.831  27.944  29.717  1.00  0.00     0.029 A 
ATOM     44  C   UNL A   1      39.927  28.906  29.652  1.00  0.00     0.049 A 
ATOM     45  H   UNL A   1      41.697  28.738  28.564  1.00  0.00     0.167 HD
ATOM     46  C   UNL A   1      45.615  27.999  26.743  1.00  0.00     0.034 A 
ATOM     47  C   UNL A   1      39.962  30.091  30.294  1.00  0.00     0.034 A 
ATOM     48  C   UNL A   1      45.681  29.340  27.249  1.00  0.00     0.049 A 
ATOM     49  C   UNL A   1      41.157  30.986  30.106  1.00  0.00     0.074 A 
ATOM     50  C   UNL A   1      46.709  30.257  27.124  1.00  0.00     0.029 A 
ATOM     51  N   UNL A   1      44.668  29.966  27.960  1.00  0.00    -0.354 N 
ATOM     52  N   UNL A   1      42.250  30.767  29.416  1.00  0.00    -0.248 NA
ATOM     53  C   UNL A   1      41.108  32.307  30.749  1.00  0.00     0.031 C 
ATOM     54  C   UNL A   1      46.317  31.440  27.761  1.00  0.00     0.029 A 
ATOM     55  C   UNL A   1      45.042  31.260  28.275  1.00  0.00     0.049 A 
ATOM     56  H   UNL A   1      43.810  29.550  28.205  1.00  0.00     0.167 HD
ATOM     57  C   UNL A   1      43.005  31.930  29.517  1.00  0.00     0.074 A 
ATOM     58  C   UNL A   1      42.233  32.861  30.313  1.00  0.00     0.031 C 
ATOM     59  C   UNL A   1      44.234  32.196  29.011  1.00  0.00     0.034 A 
BRANCH  46  60
ATOM     60  C   UNL A   1      46.820  27.438  26.035  1.00  0.00     0.023 A 
ATOM     61  C   UNL A   1      47.674  26.549  26.719  1.00  0.00     0.012 A 
ATOM     62  C   UNL A   1      47.085  27.752  24.688  1.00  0.00     0.148 A 
ATOM     63  C   UNL A   1      48.798  26.016  26.090  1.00  0.00     0.002 A 
ATOM     64  C   UNL A   1      48.182  27.179  24.053  1.00  0.00     0.091 A 
ATOM     65  F   UNL A   1      46.276  28.615  24.059  1.00  0.00    -0.205 F 
ATOM     66  C   UNL A   1      49.046  26.321  24.755  1.00  0.00     0.022 A 
BRANCH  64  67
ATOM     67  S   UNL A   1      48.542  27.448  22.312  1.00  0.00     0.127 S 
ATOM     68  O   UNL A   1      47.381  28.229  21.889  1.00  0.00    -0.237 OA
ATOM     69  O   UNL A   1      49.795  28.203  22.370  1.00  0.00    -0.237 OA
ATOM     70  O   UNL A   1      48.660  26.124  21.721  1.00  0.00    -0.744 OA
ENDBRANCH  64  67
ENDBRANCH  46  60
BRANCH  47  71
ATOM     71  C   UNL A   1      38.786  30.540  31.093  1.00  0.00     0.023 A 
ATOM     72  C   UNL A   1      38.784  30.325  32.486  1.00  0.00     0.012 A 
ATOM     73  C   UNL A   1      37.697  31.208  30.501  1.00  0.00     0.148 A 
ATOM     74  C   UNL A   1      37.707  30.740  33.270  1.00  0.00     0.002 A 
ATOM     75  C   UNL A   1      36.651  31.664  31.296  1.00  0.00     0.091 A 
ATOM     76  F   UNL A   1      37.710  31.393  29.173  1.00  0.00    -0.205 F 
ATOM     77  C   UNL A   1      36.646  31.418  32.677  1.00  0.00     0.022 A 
BRANCH  75  78
ATOM     78  S   UNL A   1      35.308  32.662  30.638  1.00  0.00     0.127 S 
ATOM     79  O   UNL A   1      34.382  32.699  31.765  1.00  0.00    -0.237 OA
ATOM     80  O   UNL A   1      35.983  33.929  30.351  1.00  0.00    -0.237 OA
ATOM     81  O   UNL A   1      34.843  31.952  29.454  1.00  0.00    -0.744 OA
ENDBRANCH  75  78
ENDBRANCH  47  71
BRANCH  59  82
ATOM     82  C   UNL A   1      44.818  33.558  29.269  1.00  0.00     0.023 A 
ATOM     83  C   UNL A   1      45.542  33.790  30.455  1.00  0.00     0.012 A 
ATOM     84  C   UNL A   1      44.733  34.574  28.298  1.00  0.00     0.148 A 
ATOM     85  C   UNL A   1      46.153  35.023  30.680  1.00  0.00     0.002 A 
ATOM     86  C   UNL A   1      45.383  35.784  28.509  1.00  0.00     0.091 A 
ATOM     87  F   UNL A   1      44.022  34.339  27.185  1.00  0.00    -0.205 F 
ATOM     88  C   UNL A   1      46.085  36.013  29.704  1.00  0.00     0.022 A 
BRANCH  86  89
ATOM     89  S   UNL A   1      45.426  37.077  27.263  1.00  0.00     0.127 S 
ATOM     90  O   UNL A   1      45.998  36.369  26.119  1.00  0.00    -0.237 OA
ATOM     91  O   UNL A   1      44.011  37.424  27.120  1.00  0.00    -0.237 OA
ATOM     92  O   UNL A   1      46.250  38.140  27.821  1.00  0.00    -0.744 OA
ENDBRANCH  86  89
ENDBRANCH  59  82
ENDBRANCH  33  34
ENDBRANCH  25  28
ENDBRANCH  23  24
ENDBRANCH   1  23
TORSDOF 16
ENDMDL
