MODEL 1
REMARK VINA RESULT:     -11.6      0.000      0.000
REMARK SMILES Cc1cc(C(=O)N(C)[C@H]2CCSC2)sc1/C=C/C(=O)NCCCCNC(=O)c1ccc(-c2c3nc(c(-c4cccc(S(=O)(=O)[O-])c4F)c4ccc([nH]4)c(-c4cccc(S(=O)(=O)[O-])c4F)c4nc(c(-c5cccc(S(=O)(=O)[O-])c5F)c5ccc2[nH]5)C=C4)C=C3)cc1
REMARK SMILES IDX 22 1 21 2 20 3 18 4 19 5 17 7 16 8 15 9 1 10 2 11 3 12 4 13
REMARK SMILES IDX 14 14 5 15 6 16 7 17 8 18 9 19 10 20 13 21 11 22 12 23 23 24
REMARK SMILES IDX 24 25 25 26 26 27 27 29 28 30 29 31 90 32 30 33 89 34 31 35
REMARK SMILES IDX 32 36 33 37 83 38 34 39 88 40 82 41 84 42 35 43 87 44 81 45
REMARK SMILES IDX 80 46 36 48 68 49 48 50 67 51 49 52 52 53 66 54 85 55 50 56
REMARK SMILES IDX 51 57 65 59 86 60 53 61 37 62 38 63 46 64 39 65 41 66 47 67
REMARK SMILES IDX 40 68 42 69 43 70 44 71 45 72 69 73 70 74 78 75 71 76 73 77
REMARK SMILES IDX 79 78 72 79 74 80 75 81 76 82 77 83 54 84 55 85 63 86 56 87
REMARK SMILES IDX 58 88 64 89 57 90 59 91 60 92 61 93 62 94
REMARK H PARENT 20 6 25 28 84 47 52 58
REMARK Flexibility Score: inf
ROOT
ATOM      1  C   UNL A   1      31.043  29.873  24.538  1.00  0.00     0.023 C 
ENDROOT
BRANCH   1   2
ATOM      2  C   UNL A   1      30.906  29.035  23.266  1.00  0.00     0.116 C 
BRANCH   2   3
ATOM      3  N   UNL A   1      32.154  29.003  22.527  1.00  0.00    -0.353 N 
ATOM      4  C   UNL A   1      33.101  28.030  22.445  1.00  0.00     0.244 C 
ATOM      5  O   UNL A   1      34.056  28.158  21.683  1.00  0.00    -0.270 OA
ATOM      6  H   UNL A   1      32.347  29.813  22.002  1.00  0.00     0.163 HD
BRANCH   4   7
ATOM      7  C   UNL A   1      32.954  26.768  23.202  1.00  0.00     0.072 C 
ATOM      8  C   UNL A   1      32.249  25.717  22.759  1.00  0.00     0.025 C 
BRANCH   8   9
ATOM      9  C   UNL A   1      32.058  24.518  23.509  1.00  0.00     0.031 A 
ATOM     10  C   UNL A   1      30.745  25.423  25.535  1.00  0.00     0.046 C 
ATOM     11  C   UNL A   1      31.475  24.370  24.762  1.00  0.00    -0.032 A 
ATOM     12  C   UNL A   1      31.684  23.046  25.269  1.00  0.00     0.029 A 
ATOM     13  C   UNL A   1      32.376  22.208  24.407  1.00  0.00     0.093 A 
ATOM     14  S   UNL A   1      32.594  22.998  22.918  1.00  0.00    -0.130 S 
BRANCH  13  15
ATOM     15  C   UNL A   1      32.739  20.821  24.718  1.00  0.00     0.263 C 
ATOM     16  O   UNL A   1      31.834  19.993  24.873  1.00  0.00    -0.268 OA
BRANCH  15  17
ATOM     17  N   UNL A   1      34.073  20.376  24.861  1.00  0.00    -0.337 N 
ATOM     18  C   UNL A   1      34.515  18.989  24.757  1.00  0.00     0.147 C 
BRANCH  17  19
ATOM     19  C   UNL A   1      35.113  21.418  24.957  1.00  0.00     0.095 C 
ATOM     20  C   UNL A   1      35.086  22.248  26.243  1.00  0.00     0.037 C 
ATOM     21  C   UNL A   1      36.527  20.838  24.832  1.00  0.00     0.094 C 
ATOM     22  C   UNL A   1      36.307  23.151  26.180  1.00  0.00     0.072 C 
ATOM     23  S   UNL A   1      37.635  22.098  25.535  1.00  0.00    -0.160 SA
ENDBRANCH  17  19
ENDBRANCH  15  17
ENDBRANCH  13  15
ENDBRANCH   8   9
ENDBRANCH   4   7
ENDBRANCH   2   3
ENDBRANCH   1   2
BRANCH   1  24
ATOM     24  C   UNL A   1      31.736  29.152  25.698  1.00  0.00     0.023 C 
BRANCH  24  25
ATOM     25  C   UNL A   1      33.007  29.825  26.206  1.00  0.00     0.116 C 
BRANCH  25  26
ATOM     26  N   UNL A   1      32.794  31.189  26.668  1.00  0.00    -0.352 N 
ATOM     27  C   UNL A   1      33.593  31.934  27.505  1.00  0.00     0.251 C 
ATOM     28  H   UNL A   1      31.977  31.632  26.343  1.00  0.00     0.163 HD
ATOM     29  O   UNL A   1      33.234  33.040  27.886  1.00  0.00    -0.269 OA
BRANCH  27  30
ATOM     30  C   UNL A   1      34.870  31.355  27.970  1.00  0.00     0.039 A 
ATOM     31  C   UNL A   1      36.002  32.172  28.022  1.00  0.00     0.014 A 
ATOM     32  C   UNL A   1      34.929  30.029  28.408  1.00  0.00     0.014 A 
ATOM     33  C   UNL A   1      37.181  31.678  28.583  1.00  0.00     0.010 A 
ATOM     34  C   UNL A   1      36.084  29.561  29.023  1.00  0.00     0.010 A 
ATOM     35  C   UNL A   1      37.220  30.381  29.119  1.00  0.00    -0.014 A 
BRANCH  35  36
ATOM     36  C   UNL A   1      38.429  29.864  29.807  1.00  0.00     0.031 A 
ATOM     37  C   UNL A   1      38.792  30.370  31.175  1.00  0.00     0.074 A 
ATOM     38  C   UNL A   1      39.253  29.020  29.155  1.00  0.00     0.049 A 
ATOM     39  N   UNL A   1      39.843  30.096  31.902  1.00  0.00    -0.248 NA
ATOM     40  C   UNL A   1      37.871  31.338  31.794  1.00  0.00     0.031 C 
ATOM     41  C   UNL A   1      39.054  28.529  27.789  1.00  0.00     0.029 A 
ATOM     42  N   UNL A   1      40.440  28.452  29.541  1.00  0.00    -0.354 N 
ATOM     43  C   UNL A   1      39.732  30.882  33.041  1.00  0.00     0.074 A 
ATOM     44  C   UNL A   1      38.526  31.667  32.897  1.00  0.00     0.031 C 
ATOM     45  C   UNL A   1      40.082  27.733  27.453  1.00  0.00     0.029 A 
ATOM     46  C   UNL A   1      41.023  27.673  28.567  1.00  0.00     0.049 A 
ATOM     47  H   UNL A   1      40.838  28.588  30.432  1.00  0.00     0.167 HD
ATOM     48  C   UNL A   1      40.541  30.921  34.126  1.00  0.00     0.034 A 
ATOM     49  C   UNL A   1      42.185  26.990  28.573  1.00  0.00     0.034 A 
ATOM     50  C   UNL A   1      41.704  30.093  34.291  1.00  0.00     0.049 A 
ATOM     51  C   UNL A   1      43.028  26.995  29.818  1.00  0.00     0.074 A 
ATOM     52  C   UNL A   1      42.535  29.986  35.392  1.00  0.00     0.029 A 
ATOM     53  N   UNL A   1      42.200  29.227  33.328  1.00  0.00    -0.354 N 
ATOM     54  N   UNL A   1      42.815  27.614  30.955  1.00  0.00    -0.248 NA
ATOM     55  C   UNL A   1      44.250  26.177  29.801  1.00  0.00     0.031 C 
ATOM     56  C   UNL A   1      43.539  29.059  35.092  1.00  0.00     0.029 A 
ATOM     57  C   UNL A   1      43.326  28.581  33.809  1.00  0.00     0.049 A 
ATOM     58  H   UNL A   1      41.810  29.093  32.435  1.00  0.00     0.167 HD
ATOM     59  C   UNL A   1      43.852  27.231  31.798  1.00  0.00     0.074 A 
ATOM     60  C   UNL A   1      44.684  26.313  31.046  1.00  0.00     0.031 C 
ATOM     61  C   UNL A   1      44.103  27.618  33.072  1.00  0.00     0.034 A 
BRANCH  48  62
ATOM     62  C   UNL A   1      40.153  31.841  35.253  1.00  0.00     0.023 A 
ATOM     63  C   UNL A   1      40.748  33.116  35.338  1.00  0.00     0.012 A 
ATOM     64  C   UNL A   1      39.170  31.473  36.191  1.00  0.00     0.148 A 
ATOM     65  C   UNL A   1      40.396  33.999  36.358  1.00  0.00     0.002 A 
ATOM     66  C   UNL A   1      38.794  32.373  37.181  1.00  0.00     0.091 A 
ATOM     67  F   UNL A   1      38.633  30.247  36.109  1.00  0.00    -0.205 F 
ATOM     68  C   UNL A   1      39.412  33.632  37.272  1.00  0.00     0.022 A 
BRANCH  66  69
ATOM     69  S   UNL A   1      37.485  32.022  38.359  1.00  0.00     0.127 S 
ATOM     70  O   UNL A   1      37.198  30.617  38.073  1.00  0.00    -0.237 OA
ATOM     71  O   UNL A   1      38.149  32.258  39.642  1.00  0.00    -0.237 OA
ATOM     72  O   UNL A   1      36.412  32.958  38.054  1.00  0.00    -0.744 OA
ENDBRANCH  66  69
ENDBRANCH  48  62
BRANCH  49  73
ATOM     73  C   UNL A   1      42.568  26.170  27.389  1.00  0.00     0.023 A 
ATOM     74  C   UNL A   1      43.325  26.764  26.360  1.00  0.00     0.012 A 
ATOM     75  C   UNL A   1      42.229  24.806  27.292  1.00  0.00     0.148 A 
ATOM     76  C   UNL A   1      43.711  26.024  25.242  1.00  0.00     0.002 A 
ATOM     77  C   UNL A   1      42.661  24.062  26.200  1.00  0.00     0.091 A 
ATOM     78  F   UNL A   1      41.497  24.262  28.275  1.00  0.00    -0.205 F 
ATOM     79  C   UNL A   1      43.389  24.672  25.167  1.00  0.00     0.022 A 
BRANCH  77  80
ATOM     80  S   UNL A   1      42.404  22.287  26.090  1.00  0.00     0.127 S 
ATOM     81  O   UNL A   1      43.002  21.820  27.337  1.00  0.00    -0.237 OA
ATOM     82  O   UNL A   1      40.944  22.192  26.032  1.00  0.00    -0.237 OA
ATOM     83  O   UNL A   1      43.075  21.875  24.864  1.00  0.00    -0.744 OA
ENDBRANCH  77  80
ENDBRANCH  49  73
BRANCH  61  84
ATOM     84  C   UNL A   1      45.302  27.027  33.762  1.00  0.00     0.023 A 
ATOM     85  C   UNL A   1      46.533  27.711  33.725  1.00  0.00     0.012 A 
ATOM     86  C   UNL A   1      45.187  25.846  34.521  1.00  0.00     0.148 A 
ATOM     87  C   UNL A   1      47.639  27.214  34.416  1.00  0.00     0.002 A 
ATOM     88  C   UNL A   1      46.280  25.381  35.242  1.00  0.00     0.091 A 
ATOM     89  F   UNL A   1      44.011  25.200  34.525  1.00  0.00    -0.205 F 
ATOM     90  C   UNL A   1      47.508  26.059  35.183  1.00  0.00     0.022 A 
BRANCH  88  91
ATOM     91  S   UNL A   1      46.174  23.956  36.330  1.00  0.00     0.127 S 
ATOM     92  O   UNL A   1      45.098  24.352  37.237  1.00  0.00    -0.237 OA
ATOM     93  O   UNL A   1      45.825  22.879  35.402  1.00  0.00    -0.237 OA
ATOM     94  O   UNL A   1      47.491  23.821  36.938  1.00  0.00    -0.744 OA
ENDBRANCH  88  91
ENDBRANCH  61  84
ENDBRANCH  35  36
ENDBRANCH  27  30
ENDBRANCH  25  26
ENDBRANCH  24  25
ENDBRANCH   1  24
TORSDOF 18
ENDMDL
MODEL 2
REMARK VINA RESULT:     -11.6      3.518      5.868
REMARK SMILES Cc1cc(C(=O)N(C)[C@H]2CCSC2)sc1/C=C/C(=O)NCCCCNC(=O)c1ccc(-c2c3nc(c(-c4cccc(S(=O)(=O)[O-])c4F)c4ccc([nH]4)c(-c4cccc(S(=O)(=O)[O-])c4F)c4nc(c(-c5cccc(S(=O)(=O)[O-])c5F)c5ccc2[nH]5)C=C4)C=C3)cc1
REMARK SMILES IDX 22 1 21 2 20 3 18 4 19 5 17 7 16 8 15 9 1 10 2 11 3 12 4 13
REMARK SMILES IDX 14 14 5 15 6 16 7 17 8 18 9 19 10 20 13 21 11 22 12 23 23 24
REMARK SMILES IDX 24 25 25 26 26 27 27 29 28 30 29 31 90 32 30 33 89 34 31 35
REMARK SMILES IDX 32 36 33 37 83 38 34 39 88 40 82 41 84 42 35 43 87 44 81 45
REMARK SMILES IDX 80 46 36 48 68 49 48 50 67 51 49 52 52 53 66 54 85 55 50 56
REMARK SMILES IDX 51 57 65 59 86 60 53 61 37 62 38 63 46 64 39 65 41 66 47 67
REMARK SMILES IDX 40 68 42 69 43 70 44 71 45 72 69 73 70 74 78 75 71 76 73 77
REMARK SMILES IDX 79 78 72 79 74 80 75 81 76 82 77 83 54 84 55 85 63 86 56 87
REMARK SMILES IDX 58 88 64 89 57 90 59 91 60 92 61 93 62 94
REMARK H PARENT 20 6 25 28 84 47 52 58
REMARK Flexibility Score: inf
ROOT
ATOM      1  C   UNL A   1      34.497  33.315  28.529  1.00  0.00     0.023 C 
ENDROOT
BRANCH   1   2
ATOM      2  C   UNL A   1      34.048  31.875  28.275  1.00  0.00     0.116 C 
BRANCH   2   3
ATOM      3  N   UNL A   1      35.105  30.935  28.598  1.00  0.00    -0.353 N 
ATOM      4  C   UNL A   1      35.437  29.753  28.013  1.00  0.00     0.244 C 
ATOM      5  O   UNL A   1      36.435  29.139  28.380  1.00  0.00    -0.270 OA
ATOM      6  H   UNL A   1      35.672  31.192  29.361  1.00  0.00     0.163 HD
BRANCH   4   7
ATOM      7  C   UNL A   1      34.654  29.229  26.872  1.00  0.00     0.072 C 
ATOM      8  C   UNL A   1      33.586  28.432  27.012  1.00  0.00     0.025 C 
BRANCH   8   9
ATOM      9  C   UNL A   1      32.859  27.879  25.916  1.00  0.00     0.031 A 
ATOM     10  C   UNL A   1      34.057  25.613  25.640  1.00  0.00     0.046 C 
ATOM     11  C   UNL A   1      33.093  26.686  25.243  1.00  0.00    -0.032 A 
ATOM     12  C   UNL A   1      32.292  26.603  24.056  1.00  0.00     0.029 A 
ATOM     13  C   UNL A   1      31.454  27.690  23.858  1.00  0.00     0.093 A 
ATOM     14  S   UNL A   1      31.522  28.703  25.221  1.00  0.00    -0.130 S 
BRANCH  13  15
ATOM     15  C   UNL A   1      30.567  27.848  22.700  1.00  0.00     0.263 C 
ATOM     16  O   UNL A   1      30.935  27.400  21.607  1.00  0.00    -0.268 OA
BRANCH  15  17
ATOM     17  N   UNL A   1      29.312  28.496  22.760  1.00  0.00    -0.337 N 
ATOM     18  C   UNL A   1      28.106  27.942  23.369  1.00  0.00     0.147 C 
BRANCH  17  19
ATOM     19  C   UNL A   1      29.270  29.904  22.321  1.00  0.00     0.095 C 
ATOM     20  C   UNL A   1      28.178  30.235  21.300  1.00  0.00     0.037 C 
ATOM     21  C   UNL A   1      29.087  30.871  23.496  1.00  0.00     0.094 C 
ATOM     22  C   UNL A   1      28.240  31.740  21.101  1.00  0.00     0.072 C 
ATOM     23  S   UNL A   1      28.487  32.423  22.762  1.00  0.00    -0.160 SA
ENDBRANCH  17  19
ENDBRANCH  15  17
ENDBRANCH  13  15
ENDBRANCH   8   9
ENDBRANCH   4   7
ENDBRANCH   2   3
ENDBRANCH   1   2
BRANCH   1  24
ATOM     24  C   UNL A   1      33.349  34.306  28.736  1.00  0.00     0.023 C 
BRANCH  24  25
ATOM     25  C   UNL A   1      33.704  35.539  29.561  1.00  0.00     0.116 C 
BRANCH  25  26
ATOM     26  N   UNL A   1      32.678  35.905  30.526  1.00  0.00    -0.352 N 
ATOM     27  C   UNL A   1      32.658  35.652  31.878  1.00  0.00     0.251 C 
ATOM     28  H   UNL A   1      31.903  36.394  30.167  1.00  0.00     0.163 HD
ATOM     29  O   UNL A   1      31.676  35.937  32.550  1.00  0.00    -0.269 OA
BRANCH  27  30
ATOM     30  C   UNL A   1      33.825  34.987  32.494  1.00  0.00     0.039 A 
ATOM     31  C   UNL A   1      33.669  33.703  33.022  1.00  0.00     0.014 A 
ATOM     32  C   UNL A   1      35.077  35.607  32.492  1.00  0.00     0.014 A 
ATOM     33  C   UNL A   1      34.789  33.010  33.487  1.00  0.00     0.010 A 
ATOM     34  C   UNL A   1      36.198  34.891  32.895  1.00  0.00     0.010 A 
ATOM     35  C   UNL A   1      36.065  33.586  33.393  1.00  0.00    -0.014 A 
BRANCH  35  36
ATOM     36  C   UNL A   1      37.283  32.836  33.790  1.00  0.00     0.031 A 
ATOM     37  C   UNL A   1      38.074  33.264  34.994  1.00  0.00     0.074 A 
ATOM     38  C   UNL A   1      37.731  31.837  33.004  1.00  0.00     0.049 A 
ATOM     39  N   UNL A   1      39.199  32.783  35.453  1.00  0.00    -0.248 NA
ATOM     40  C   UNL A   1      37.549  34.404  35.764  1.00  0.00     0.031 C 
ATOM     41  C   UNL A   1      37.099  31.389  31.760  1.00  0.00     0.029 A 
ATOM     42  N   UNL A   1      38.841  31.038  33.117  1.00  0.00    -0.354 N 
ATOM     43  C   UNL A   1      39.538  33.583  36.538  1.00  0.00     0.074 A 
ATOM     44  C   UNL A   1      38.514  34.599  36.651  1.00  0.00     0.031 C 
ATOM     45  C   UNL A   1      37.830  30.397  31.227  1.00  0.00     0.029 A 
ATOM     46  C   UNL A   1      38.992  30.151  32.076  1.00  0.00     0.049 A 
ATOM     47  H   UNL A   1      39.471  31.095  33.872  1.00  0.00     0.167 HD
ATOM     48  C   UNL A   1      40.587  33.461  37.384  1.00  0.00     0.034 A 
ATOM     49  C   UNL A   1      39.959  29.243  31.834  1.00  0.00     0.034 A 
ATOM     50  C   UNL A   1      41.567  32.412  37.305  1.00  0.00     0.049 A 
ATOM     51  C   UNL A   1      41.074  29.082  32.830  1.00  0.00     0.074 A 
ATOM     52  C   UNL A   1      42.612  32.143  38.171  1.00  0.00     0.029 A 
ATOM     53  N   UNL A   1      41.621  31.457  36.301  1.00  0.00    -0.354 N 
ATOM     54  N   UNL A   1      41.283  29.738  33.946  1.00  0.00    -0.248 NA
ATOM     55  C   UNL A   1      42.065  28.030  32.558  1.00  0.00     0.031 C 
ATOM     56  C   UNL A   1      43.303  31.028  37.686  1.00  0.00     0.029 A 
ATOM     57  C   UNL A   1      42.681  30.596  36.525  1.00  0.00     0.049 A 
ATOM     58  H   UNL A   1      40.999  31.401  35.541  1.00  0.00     0.167 HD
ATOM     59  C   UNL A   1      42.403  29.155  34.527  1.00  0.00     0.074 A 
ATOM     60  C   UNL A   1      42.819  28.081  33.648  1.00  0.00     0.031 C 
ATOM     61  C   UNL A   1      43.040  29.490  35.676  1.00  0.00     0.034 A 
BRANCH  48  62
ATOM     62  C   UNL A   1      40.687  34.447  38.518  1.00  0.00     0.023 A 
ATOM     63  C   UNL A   1      41.527  35.571  38.381  1.00  0.00     0.012 A 
ATOM     64  C   UNL A   1      39.919  34.297  39.688  1.00  0.00     0.148 A 
ATOM     65  C   UNL A   1      41.627  36.513  39.404  1.00  0.00     0.002 A 
ATOM     66  C   UNL A   1      39.991  35.261  40.686  1.00  0.00     0.091 A 
ATOM     67  F   UNL A   1      39.144  33.209  39.810  1.00  0.00    -0.205 F 
ATOM     68  C   UNL A   1      40.851  36.364  40.550  1.00  0.00     0.022 A 
BRANCH  66  69
ATOM     69  S   UNL A   1      38.978  35.197  42.167  1.00  0.00     0.127 S 
ATOM     70  O   UNL A   1      39.303  36.471  42.804  1.00  0.00    -0.237 OA
ATOM     71  O   UNL A   1      37.624  35.120  41.615  1.00  0.00    -0.237 OA
ATOM     72  O   UNL A   1      39.403  34.005  42.889  1.00  0.00    -0.744 OA
ENDBRANCH  66  69
ENDBRANCH  48  62
BRANCH  49  73
ATOM     73  C   UNL A   1      39.860  28.355  30.642  1.00  0.00     0.023 A 
ATOM     74  C   UNL A   1      38.998  27.241  30.687  1.00  0.00     0.012 A 
ATOM     75  C   UNL A   1      40.573  28.623  29.458  1.00  0.00     0.148 A 
ATOM     76  C   UNL A   1      38.873  26.393  29.586  1.00  0.00     0.002 A 
ATOM     77  C   UNL A   1      40.404  27.804  28.347  1.00  0.00     0.091 A 
ATOM     78  F   UNL A   1      41.398  29.680  29.438  1.00  0.00    -0.205 F 
ATOM     79  C   UNL A   1      39.566  26.680  28.413  1.00  0.00     0.022 A 
BRANCH  77  80
ATOM     80  S   UNL A   1      41.156  28.178  26.759  1.00  0.00     0.127 S 
ATOM     81  O   UNL A   1      42.531  28.485  27.143  1.00  0.00    -0.237 OA
ATOM     82  O   UNL A   1      40.984  26.917  26.035  1.00  0.00    -0.237 OA
ATOM     83  O   UNL A   1      40.381  29.286  26.215  1.00  0.00    -0.744 OA
ENDBRANCH  77  80
ENDBRANCH  49  73
BRANCH  61  84
ATOM     84  C   UNL A   1      44.234  28.668  36.081  1.00  0.00     0.023 A 
ATOM     85  C   UNL A   1      45.524  29.076  35.689  1.00  0.00     0.012 A 
ATOM     86  C   UNL A   1      44.086  27.550  36.924  1.00  0.00     0.148 A 
ATOM     87  C   UNL A   1      46.648  28.367  36.112  1.00  0.00     0.002 A 
ATOM     88  C   UNL A   1      45.213  26.875  37.377  1.00  0.00     0.091 A 
ATOM     89  F   UNL A   1      42.847  27.167  37.268  1.00  0.00    -0.205 F 
ATOM     90  C   UNL A   1      46.493  27.277  36.965  1.00  0.00     0.022 A 
BRANCH  88  91
ATOM     91  S   UNL A   1      45.110  25.520  38.552  1.00  0.00     0.127 S 
ATOM     92  O   UNL A   1      44.458  26.162  39.691  1.00  0.00    -0.237 OA
ATOM     93  O   UNL A   1      44.278  24.550  37.839  1.00  0.00    -0.237 OA
ATOM     94  O   UNL A   1      46.482  25.084  38.777  1.00  0.00    -0.744 OA
ENDBRANCH  88  91
ENDBRANCH  61  84
ENDBRANCH  35  36
ENDBRANCH  27  30
ENDBRANCH  25  26
ENDBRANCH  24  25
ENDBRANCH   1  24
TORSDOF 18
ENDMDL
MODEL 3
REMARK VINA RESULT:     -11.5      5.339      8.914
REMARK SMILES Cc1cc(C(=O)N(C)[C@H]2CCSC2)sc1/C=C/C(=O)NCCCCNC(=O)c1ccc(-c2c3nc(c(-c4cccc(S(=O)(=O)[O-])c4F)c4ccc([nH]4)c(-c4cccc(S(=O)(=O)[O-])c4F)c4nc(c(-c5cccc(S(=O)(=O)[O-])c5F)c5ccc2[nH]5)C=C4)C=C3)cc1
REMARK SMILES IDX 22 1 21 2 20 3 18 4 19 5 17 7 16 8 15 9 1 10 2 11 3 12 4 13
REMARK SMILES IDX 14 14 5 15 6 16 7 17 8 18 9 19 10 20 13 21 11 22 12 23 23 24
REMARK SMILES IDX 24 25 25 26 26 27 27 29 28 30 29 31 90 32 30 33 89 34 31 35
REMARK SMILES IDX 32 36 33 37 83 38 34 39 88 40 82 41 84 42 35 43 87 44 81 45
REMARK SMILES IDX 80 46 36 48 68 49 48 50 67 51 49 52 52 53 66 54 85 55 50 56
REMARK SMILES IDX 51 57 65 59 86 60 53 61 37 62 38 63 46 64 39 65 41 66 47 67
REMARK SMILES IDX 40 68 42 69 43 70 44 71 45 72 69 73 70 74 78 75 71 76 73 77
REMARK SMILES IDX 79 78 72 79 74 80 75 81 76 82 77 83 54 84 55 85 63 86 56 87
REMARK SMILES IDX 58 88 64 89 57 90 59 91 60 92 61 93 62 94
REMARK H PARENT 20 6 25 28 84 47 52 58
REMARK Flexibility Score: inf
ROOT
ATOM      1  C   UNL A   1      36.315  19.689  24.987  1.00  0.00     0.023 C 
ENDROOT
BRANCH   1   2
ATOM      2  C   UNL A   1      35.582  21.028  25.084  1.00  0.00     0.116 C 
BRANCH   2   3
ATOM      3  N   UNL A   1      35.243  21.338  26.460  1.00  0.00    -0.353 N 
ATOM      4  C   UNL A   1      34.407  22.285  26.965  1.00  0.00     0.244 C 
ATOM      5  O   UNL A   1      34.180  22.330  28.171  1.00  0.00    -0.270 OA
ATOM      6  H   UNL A   1      35.688  20.776  27.135  1.00  0.00     0.163 HD
BRANCH   4   7
ATOM      7  C   UNL A   1      33.692  23.218  26.067  1.00  0.00     0.072 C 
ATOM      8  C   UNL A   1      34.308  24.160  25.338  1.00  0.00     0.025 C 
BRANCH   8   9
ATOM      9  C   UNL A   1      33.620  25.098  24.513  1.00  0.00     0.031 A 
ATOM     10  C   UNL A   1      33.372  23.732  22.340  1.00  0.00     0.046 C 
ATOM     11  C   UNL A   1      33.268  24.970  23.174  1.00  0.00    -0.032 A 
ATOM     12  C   UNL A   1      32.800  26.219  22.647  1.00  0.00     0.029 A 
ATOM     13  C   UNL A   1      32.768  27.251  23.573  1.00  0.00     0.093 A 
ATOM     14  S   UNL A   1      33.131  26.631  25.113  1.00  0.00    -0.130 S 
BRANCH  13  15
ATOM     15  C   UNL A   1      32.360  28.626  23.262  1.00  0.00     0.263 C 
ATOM     16  O   UNL A   1      32.930  29.219  22.338  1.00  0.00    -0.268 OA
BRANCH  15  17
ATOM     17  N   UNL A   1      31.352  29.320  23.970  1.00  0.00    -0.337 N 
ATOM     18  C   UNL A   1      31.484  29.846  25.325  1.00  0.00     0.147 C 
BRANCH  17  19
ATOM     19  C   UNL A   1      30.138  29.681  23.213  1.00  0.00     0.095 C 
ATOM     20  C   UNL A   1      29.089  28.572  23.100  1.00  0.00     0.037 C 
ATOM     21  C   UNL A   1      29.429  30.905  23.805  1.00  0.00     0.094 C 
ATOM     22  C   UNL A   1      27.892  29.203  22.407  1.00  0.00     0.072 C 
ATOM     23  S   UNL A   1      27.731  30.847  23.155  1.00  0.00    -0.160 SA
ENDBRANCH  17  19
ENDBRANCH  15  17
ENDBRANCH  13  15
ENDBRANCH   8   9
ENDBRANCH   4   7
ENDBRANCH   2   3
ENDBRANCH   1   2
BRANCH   1  24
ATOM     24  C   UNL A   1      37.794  19.805  24.609  1.00  0.00     0.023 C 
BRANCH  24  25
ATOM     25  C   UNL A   1      38.704  20.317  25.722  1.00  0.00     0.116 C 
BRANCH  25  26
ATOM     26  N   UNL A   1      39.841  19.447  25.985  1.00  0.00    -0.352 N 
ATOM     27  C   UNL A   1      41.098  19.805  26.416  1.00  0.00     0.251 C 
ATOM     28  H   UNL A   1      39.692  18.486  25.836  1.00  0.00     0.163 HD
ATOM     29  O   UNL A   1      41.987  18.969  26.502  1.00  0.00    -0.269 OA
BRANCH  27  30
ATOM     30  C   UNL A   1      41.366  21.223  26.729  1.00  0.00     0.039 A 
ATOM     31  C   UNL A   1      41.616  21.586  28.054  1.00  0.00     0.014 A 
ATOM     32  C   UNL A   1      41.428  22.175  25.707  1.00  0.00     0.014 A 
ATOM     33  C   UNL A   1      42.000  22.896  28.348  1.00  0.00     0.010 A 
ATOM     34  C   UNL A   1      41.873  23.460  25.994  1.00  0.00     0.010 A 
ATOM     35  C   UNL A   1      42.165  23.832  27.315  1.00  0.00    -0.014 A 
BRANCH  35  36
ATOM     36  C   UNL A   1      42.665  25.203  27.587  1.00  0.00     0.031 A 
ATOM     37  C   UNL A   1      41.758  26.227  28.209  1.00  0.00     0.074 A 
ATOM     38  C   UNL A   1      43.900  25.551  27.176  1.00  0.00     0.049 A 
ATOM     39  N   UNL A   1      41.987  27.490  28.455  1.00  0.00    -0.248 NA
ATOM     40  C   UNL A   1      40.402  25.782  28.573  1.00  0.00     0.031 C 
ATOM     41  C   UNL A   1      44.841  24.671  26.479  1.00  0.00     0.029 A 
ATOM     42  N   UNL A   1      44.566  26.749  27.256  1.00  0.00    -0.354 N 
ATOM     43  C   UNL A   1      40.799  28.000  28.962  1.00  0.00     0.074 A 
ATOM     44  C   UNL A   1      39.840  26.917  28.963  1.00  0.00     0.031 C 
ATOM     45  C   UNL A   1      45.960  25.357  26.197  1.00  0.00     0.029 A 
ATOM     46  C   UNL A   1      45.811  26.730  26.672  1.00  0.00     0.049 A 
ATOM     47  H   UNL A   1      44.187  27.547  27.692  1.00  0.00     0.167 HD
ATOM     48  C   UNL A   1      40.540  29.247  29.420  1.00  0.00     0.034 A 
ATOM     49  C   UNL A   1      46.728  27.708  26.534  1.00  0.00     0.034 A 
ATOM     50  C   UNL A   1      41.514  30.302  29.475  1.00  0.00     0.049 A 
ATOM     51  C   UNL A   1      46.440  29.065  27.116  1.00  0.00     0.074 A 
ATOM     52  C   UNL A   1      41.380  31.571  30.010  1.00  0.00     0.029 A 
ATOM     53  N   UNL A   1      42.806  30.210  28.979  1.00  0.00    -0.354 N 
ATOM     54  N   UNL A   1      45.369  29.479  27.748  1.00  0.00    -0.248 NA
ATOM     55  C   UNL A   1      47.499  30.078  27.003  1.00  0.00     0.031 C 
ATOM     56  C   UNL A   1      42.590  32.249  29.831  1.00  0.00     0.029 A 
ATOM     57  C   UNL A   1      43.481  31.399  29.196  1.00  0.00     0.049 A 
ATOM     58  H   UNL A   1      43.187  29.417  28.538  1.00  0.00     0.167 HD
ATOM     59  C   UNL A   1      45.639  30.785  28.142  1.00  0.00     0.074 A 
ATOM     60  C   UNL A   1      46.982  31.087  27.691  1.00  0.00     0.031 C 
ATOM     61  C   UNL A   1      44.841  31.659  28.801  1.00  0.00     0.034 A 
BRANCH  48  62
ATOM     62  C   UNL A   1      39.164  29.517  29.967  1.00  0.00     0.023 A 
ATOM     63  C   UNL A   1      38.869  29.161  31.299  1.00  0.00     0.012 A 
ATOM     64  C   UNL A   1      38.184  30.167  29.192  1.00  0.00     0.148 A 
ATOM     65  C   UNL A   1      37.610  29.417  31.842  1.00  0.00     0.002 A 
ATOM     66  C   UNL A   1      36.945  30.456  29.753  1.00  0.00     0.091 A 
ATOM     67  F   UNL A   1      38.474  30.476  27.920  1.00  0.00    -0.205 F 
ATOM     68  C   UNL A   1      36.653  30.073  31.073  1.00  0.00     0.022 A 
BRANCH  66  69
ATOM     69  S   UNL A   1      35.672  31.363  28.867  1.00  0.00     0.127 S 
ATOM     70  O   UNL A   1      35.166  30.344  27.950  1.00  0.00    -0.237 OA
ATOM     71  O   UNL A   1      34.747  31.729  29.941  1.00  0.00    -0.237 OA
ATOM     72  O   UNL A   1      36.349  32.492  28.243  1.00  0.00    -0.744 OA
ENDBRANCH  66  69
ENDBRANCH  48  62
BRANCH  49  73
ATOM     73  C   UNL A   1      48.041  27.409  25.896  1.00  0.00     0.023 A 
ATOM     74  C   UNL A   1      49.092  26.913  26.692  1.00  0.00     0.012 A 
ATOM     75  C   UNL A   1      48.246  27.572  24.512  1.00  0.00     0.148 A 
ATOM     76  C   UNL A   1      50.332  26.612  26.126  1.00  0.00     0.002 A 
ATOM     77  C   UNL A   1      49.467  27.222  23.947  1.00  0.00     0.091 A 
ATOM     78  F   UNL A   1      47.238  28.059  23.774  1.00  0.00    -0.205 F 
ATOM     79  C   UNL A   1      50.516  26.756  24.754  1.00  0.00     0.022 A 
BRANCH  77  80
ATOM     80  S   UNL A   1      49.744  27.251  22.172  1.00  0.00     0.127 S 
ATOM     81  O   UNL A   1      48.766  26.274  21.701  1.00  0.00    -0.237 OA
ATOM     82  O   UNL A   1      49.437  28.642  21.837  1.00  0.00    -0.237 OA
ATOM     83  O   UNL A   1      51.145  26.891  21.993  1.00  0.00    -0.744 OA
ENDBRANCH  77  80
ENDBRANCH  49  73
BRANCH  61  84
ATOM     84  C   UNL A   1      45.402  33.020  29.116  1.00  0.00     0.023 A 
ATOM     85  C   UNL A   1      46.128  33.214  30.307  1.00  0.00     0.012 A 
ATOM     86  C   UNL A   1      45.289  34.077  28.193  1.00  0.00     0.148 A 
ATOM     87  C   UNL A   1      46.714  34.449  30.585  1.00  0.00     0.002 A 
ATOM     88  C   UNL A   1      45.912  35.291  28.455  1.00  0.00     0.091 A 
ATOM     89  F   UNL A   1      44.575  33.876  27.074  1.00  0.00    -0.205 F 
ATOM     90  C   UNL A   1      46.617  35.481  29.654  1.00  0.00     0.022 A 
BRANCH  88  91
ATOM     91  S   UNL A   1      45.918  36.641  27.270  1.00  0.00     0.127 S 
ATOM     92  O   UNL A   1      46.528  36.009  26.101  1.00  0.00    -0.237 OA
ATOM     93  O   UNL A   1      44.493  36.939  27.128  1.00  0.00    -0.237 OA
ATOM     94  O   UNL A   1      46.697  37.707  27.886  1.00  0.00    -0.744 OA
ENDBRANCH  88  91
ENDBRANCH  61  84
ENDBRANCH  35  36
ENDBRANCH  27  30
ENDBRANCH  25  26
ENDBRANCH  24  25
ENDBRANCH   1  24
TORSDOF 18
ENDMDL
