MODEL 1
REMARK VINA RESULT:     -11.4      0.000      0.000
REMARK SMILES CC[C@H](C)[NH+]1CCN(C(=O)CC(=O)NCCCCNC(=O)c2ccc(-c3c4nc(c(-c5cccc(S(=O)(=O)[O-])c5F)c5ccc([nH]5)c(-c5cccc(S(=O)(=O)[O-])c5F)c5nc(c(-c6cccc(S(=O)(=O)[O-])c6F)c6ccc3[nH]6)C=C5)C=C4)cc2)CC1
REMARK SMILES IDX 16 1 15 2 14 3 12 4 13 5 11 7 9 8 5 9 6 10 86 11 7 13 85 14
REMARK SMILES IDX 8 15 10 16 3 17 4 18 2 19 1 20 17 21 18 22 19 23 20 24 21 26
REMARK SMILES IDX 22 27 23 28 84 29 24 30 83 31 25 32 26 33 27 34 77 35 28 36
REMARK SMILES IDX 82 37 76 38 78 39 29 40 81 41 75 42 74 43 30 45 62 46 42 47
REMARK SMILES IDX 61 48 43 49 46 50 60 51 79 52 44 53 45 54 59 56 80 57 47 58
REMARK SMILES IDX 31 59 32 60 40 61 33 62 35 63 41 64 34 65 36 66 37 67 38 68
REMARK SMILES IDX 39 69 63 70 64 71 72 72 65 73 67 74 73 75 66 76 68 77 69 78
REMARK SMILES IDX 70 79 71 80 48 81 49 82 57 83 50 84 52 85 58 86 51 87 53 88
REMARK SMILES IDX 54 89 55 90 56 91
REMARK H PARENT 14 6 5 12 19 25 78 44 46 55
REMARK Flexibility Score: inf
ROOT
ATOM      1  C   UNL A   1      34.685  20.178  24.857  1.00  0.00     0.023 C 
ENDROOT
BRANCH   1   2
ATOM      2  C   UNL A   1      33.374  20.008  25.624  1.00  0.00     0.116 C 
BRANCH   2   3
ATOM      3  N   UNL A   1      33.375  20.780  26.852  1.00  0.00    -0.356 N 
ATOM      4  C   UNL A   1      32.667  21.903  27.152  1.00  0.00     0.229 C 
ATOM      5  O   UNL A   1      32.854  22.443  28.245  1.00  0.00    -0.275 OA
ATOM      6  H   UNL A   1      33.968  20.447  27.564  1.00  0.00     0.163 HD
BRANCH   4   7
ATOM      7  C   UNL A   1      31.641  22.441  26.189  1.00  0.00     0.200 C 
BRANCH   7   8
ATOM      8  C   UNL A   1      31.011  23.756  26.581  1.00  0.00     0.232 C 
ATOM      9  N   UNL A   1      33.037  27.510  25.789  1.00  0.00    -0.330 N 
ATOM     10  C   UNL A   1      31.853  27.438  26.665  1.00  0.00     0.284 C 
ATOM     11  C   UNL A   1      33.743  26.221  25.831  1.00  0.00     0.284 C 
ATOM     12  H   UNL A   1      33.679  28.205  26.169  1.00  0.00     0.348 HD
ATOM     13  C   UNL A   1      30.943  26.201  26.486  1.00  0.00     0.181 C 
ATOM     14  C   UNL A   1      32.879  25.016  25.454  1.00  0.00     0.181 C 
ATOM     15  N   UNL A   1      31.657  24.938  26.260  1.00  0.00    -0.331 N 
ATOM     16  O   UNL A   1      29.945  23.753  27.205  1.00  0.00    -0.274 OA
BRANCH   9  17
ATOM     17  C   UNL A   1      32.832  28.138  24.462  1.00  0.00     0.180 C 
ATOM     18  C   UNL A   1      31.946  29.394  24.535  1.00  0.00     0.075 C 
BRANCH  17  19
ATOM     19  C   UNL A   1      34.101  28.382  23.609  1.00  0.00     0.061 C 
ATOM     20  C   UNL A   1      33.874  28.353  22.102  1.00  0.00     0.010 C 
ENDBRANCH  17  19
ENDBRANCH   9  17
ENDBRANCH   7   8
ENDBRANCH   4   7
ENDBRANCH   2   3
ENDBRANCH   1   2
BRANCH   1  21
ATOM     21  C   UNL A   1      35.124  21.634  24.660  1.00  0.00     0.023 C 
BRANCH  21  22
ATOM     22  C   UNL A   1      36.369  22.055  25.438  1.00  0.00     0.116 C 
BRANCH  22  23
ATOM     23  N   UNL A   1      37.354  20.991  25.551  1.00  0.00    -0.352 N 
ATOM     24  C   UNL A   1      38.676  21.067  25.910  1.00  0.00     0.251 C 
ATOM     25  H   UNL A   1      37.026  20.088  25.339  1.00  0.00     0.163 HD
ATOM     26  O   UNL A   1      39.385  20.064  25.820  1.00  0.00    -0.269 OA
BRANCH  24  27
ATOM     27  C   UNL A   1      39.259  22.345  26.374  1.00  0.00     0.039 A 
ATOM     28  C   UNL A   1      40.379  22.304  27.208  1.00  0.00     0.014 A 
ATOM     29  C   UNL A   1      38.709  23.577  26.006  1.00  0.00     0.014 A 
ATOM     30  C   UNL A   1      40.972  23.494  27.634  1.00  0.00     0.010 A 
ATOM     31  C   UNL A   1      39.349  24.762  26.367  1.00  0.00     0.010 A 
ATOM     32  C   UNL A   1      40.481  24.735  27.194  1.00  0.00    -0.014 A 
BRANCH  32  33
ATOM     33  C   UNL A   1      41.159  25.999  27.588  1.00  0.00     0.031 A 
ATOM     34  C   UNL A   1      42.587  26.267  27.193  1.00  0.00     0.074 A 
ATOM     35  C   UNL A   1      40.496  26.893  28.349  1.00  0.00     0.049 A 
ATOM     36  N   UNL A   1      43.316  27.331  27.416  1.00  0.00    -0.248 NA
ATOM     37  C   UNL A   1      43.299  25.196  26.476  1.00  0.00     0.031 C 
ATOM     38  C   UNL A   1      39.142  26.713  28.880  1.00  0.00     0.029 A 
ATOM     39  N   UNL A   1      40.872  28.127  28.818  1.00  0.00    -0.354 N 
ATOM     40  C   UNL A   1      44.573  27.049  26.893  1.00  0.00     0.074 A 
ATOM     41  C   UNL A   1      44.521  25.699  26.379  1.00  0.00     0.031 C 
ATOM     42  C   UNL A   1      38.795  27.803  29.581  1.00  0.00     0.029 A 
ATOM     43  C   UNL A   1      39.906  28.749  29.573  1.00  0.00     0.049 A 
ATOM     44  H   UNL A   1      41.751  28.529  28.632  1.00  0.00     0.167 HD
ATOM     45  C   UNL A   1      45.663  27.851  26.819  1.00  0.00     0.034 A 
ATOM     46  C   UNL A   1      39.909  29.948  30.188  1.00  0.00     0.034 A 
ATOM     47  C   UNL A   1      45.703  29.205  27.302  1.00  0.00     0.049 A 
ATOM     48  C   UNL A   1      41.113  30.839  30.044  1.00  0.00     0.074 A 
ATOM     49  C   UNL A   1      46.729  30.128  27.196  1.00  0.00     0.029 A 
ATOM     50  N   UNL A   1      44.677  29.830  27.994  1.00  0.00    -0.354 N 
ATOM     51  N   UNL A   1      42.231  30.619  29.396  1.00  0.00    -0.248 NA
ATOM     52  C   UNL A   1      41.036  32.163  30.678  1.00  0.00     0.031 C 
ATOM     53  C   UNL A   1      46.335  31.300  27.851  1.00  0.00     0.029 A 
ATOM     54  C   UNL A   1      45.049  31.122  28.331  1.00  0.00     0.049 A 
ATOM     55  H   UNL A   1      43.811  29.417  28.214  1.00  0.00     0.167 HD
ATOM     56  C   UNL A   1      42.976  31.786  29.513  1.00  0.00     0.074 A 
ATOM     57  C   UNL A   1      42.167  32.722  30.270  1.00  0.00     0.031 C 
ATOM     58  C   UNL A   1      44.221  32.058  29.048  1.00  0.00     0.034 A 
BRANCH  45  59
ATOM     59  C   UNL A   1      46.895  27.299  26.144  1.00  0.00     0.023 A 
ATOM     60  C   UNL A   1      47.069  27.479  24.756  1.00  0.00     0.012 A 
ATOM     61  C   UNL A   1      47.905  26.660  26.888  1.00  0.00     0.148 A 
ATOM     62  C   UNL A   1      48.209  26.999  24.113  1.00  0.00     0.002 A 
ATOM     63  C   UNL A   1      49.062  26.227  26.248  1.00  0.00     0.091 A 
ATOM     64  F   UNL A   1      47.716  26.480  28.203  1.00  0.00    -0.205 F 
ATOM     65  C   UNL A   1      49.208  26.383  24.860  1.00  0.00     0.022 A 
BRANCH  63  66
ATOM     66  S   UNL A   1      50.446  25.497  27.132  1.00  0.00     0.127 S 
ATOM     67  O   UNL A   1      49.839  24.283  27.677  1.00  0.00    -0.237 OA
ATOM     68  O   UNL A   1      51.409  25.267  26.056  1.00  0.00    -0.237 OA
ATOM     69  O   UNL A   1      50.859  26.485  28.118  1.00  0.00    -0.744 OA
ENDBRANCH  63  66
ENDBRANCH  45  59
BRANCH  46  70
ATOM     70  C   UNL A   1      38.704  30.406  30.936  1.00  0.00     0.023 A 
ATOM     71  C   UNL A   1      38.612  30.165  32.321  1.00  0.00     0.012 A 
ATOM     72  C   UNL A   1      37.662  31.096  30.288  1.00  0.00     0.148 A 
ATOM     73  C   UNL A   1      37.486  30.570  33.039  1.00  0.00     0.002 A 
ATOM     74  C   UNL A   1      36.571  31.548  31.021  1.00  0.00     0.091 A 
ATOM     75  F   UNL A   1      37.765  31.307  28.969  1.00  0.00    -0.205 F 
ATOM     76  C   UNL A   1      36.472  31.269  32.393  1.00  0.00     0.022 A 
BRANCH  74  77
ATOM     77  S   UNL A   1      35.285  32.572  30.299  1.00  0.00     0.127 S 
ATOM     78  O   UNL A   1      34.854  31.758  29.167  1.00  0.00    -0.237 OA
ATOM     79  O   UNL A   1      34.321  32.665  31.396  1.00  0.00    -0.237 OA
ATOM     80  O   UNL A   1      35.930  33.835  29.962  1.00  0.00    -0.744 OA
ENDBRANCH  74  77
ENDBRANCH  46  70
BRANCH  58  81
ATOM     81  C   UNL A   1      44.775  33.436  29.309  1.00  0.00     0.023 A 
ATOM     82  C   UNL A   1      45.440  33.711  30.520  1.00  0.00     0.012 A 
ATOM     83  C   UNL A   1      44.674  34.446  28.332  1.00  0.00     0.148 A 
ATOM     84  C   UNL A   1      45.951  34.984  30.776  1.00  0.00     0.002 A 
ATOM     85  C   UNL A   1      45.233  35.695  28.571  1.00  0.00     0.091 A 
ATOM     86  F   UNL A   1      44.022  34.172  27.192  1.00  0.00    -0.205 F 
ATOM     87  C   UNL A   1      45.857  35.971  29.798  1.00  0.00     0.022 A 
BRANCH  85  88
ATOM     88  S   UNL A   1      45.247  36.993  27.330  1.00  0.00     0.127 S 
ATOM     89  O   UNL A   1      46.040  36.380  26.266  1.00  0.00    -0.237 OA
ATOM     90  O   UNL A   1      43.824  37.144  27.021  1.00  0.00    -0.237 OA
ATOM     91  O   UNL A   1      45.849  38.154  27.971  1.00  0.00    -0.744 OA
ENDBRANCH  85  88
ENDBRANCH  58  81
ENDBRANCH  32  33
ENDBRANCH  24  27
ENDBRANCH  22  23
ENDBRANCH  21  22
ENDBRANCH   1  21
TORSDOF 17
ENDMDL
MODEL 2
REMARK VINA RESULT:     -11.0      1.909      2.529
REMARK SMILES CC[C@H](C)[NH+]1CCN(C(=O)CC(=O)NCCCCNC(=O)c2ccc(-c3c4nc(c(-c5cccc(S(=O)(=O)[O-])c5F)c5ccc([nH]5)c(-c5cccc(S(=O)(=O)[O-])c5F)c5nc(c(-c6cccc(S(=O)(=O)[O-])c6F)c6ccc3[nH]6)C=C5)C=C4)cc2)CC1
REMARK SMILES IDX 16 1 15 2 14 3 12 4 13 5 11 7 9 8 5 9 6 10 86 11 7 13 85 14
REMARK SMILES IDX 8 15 10 16 3 17 4 18 2 19 1 20 17 21 18 22 19 23 20 24 21 26
REMARK SMILES IDX 22 27 23 28 84 29 24 30 83 31 25 32 26 33 27 34 77 35 28 36
REMARK SMILES IDX 82 37 76 38 78 39 29 40 81 41 75 42 74 43 30 45 62 46 42 47
REMARK SMILES IDX 61 48 43 49 46 50 60 51 79 52 44 53 45 54 59 56 80 57 47 58
REMARK SMILES IDX 31 59 32 60 40 61 33 62 35 63 41 64 34 65 36 66 37 67 38 68
REMARK SMILES IDX 39 69 63 70 64 71 72 72 65 73 67 74 73 75 66 76 68 77 69 78
REMARK SMILES IDX 70 79 71 80 48 81 49 82 57 83 50 84 52 85 58 86 51 87 53 88
REMARK SMILES IDX 54 89 55 90 56 91
REMARK H PARENT 14 6 5 12 19 25 78 44 46 55
REMARK Flexibility Score: inf
ROOT
ATOM      1  C   UNL A   1      35.816  21.227  24.561  1.00  0.00     0.023 C 
ENDROOT
BRANCH   1   2
ATOM      2  C   UNL A   1      34.526  20.656  25.147  1.00  0.00     0.116 C 
BRANCH   2   3
ATOM      3  N   UNL A   1      34.318  21.107  26.510  1.00  0.00    -0.356 N 
ATOM      4  C   UNL A   1      33.340  21.919  26.998  1.00  0.00     0.229 C 
ATOM      5  O   UNL A   1      33.374  22.230  28.191  1.00  0.00    -0.275 OA
ATOM      6  H   UNL A   1      34.972  20.783  27.171  1.00  0.00     0.163 HD
BRANCH   4   7
ATOM      7  C   UNL A   1      32.217  22.384  26.109  1.00  0.00     0.200 C 
BRANCH   7   8
ATOM      8  C   UNL A   1      31.487  23.619  26.579  1.00  0.00     0.232 C 
ATOM      9  N   UNL A   1      33.059  27.576  25.746  1.00  0.00    -0.330 N 
ATOM     10  C   UNL A   1      31.956  27.366  26.701  1.00  0.00     0.284 C 
ATOM     11  C   UNL A   1      33.893  26.367  25.703  1.00  0.00     0.284 C 
ATOM     12  H   UNL A   1      33.653  28.327  26.097  1.00  0.00     0.348 HD
ATOM     13  C   UNL A   1      31.165  26.046  26.554  1.00  0.00     0.181 C 
ATOM     14  C   UNL A   1      33.131  25.087  25.356  1.00  0.00     0.181 C 
ATOM     15  N   UNL A   1      31.985  24.868  26.245  1.00  0.00    -0.331 N 
ATOM     16  O   UNL A   1      30.475  23.495  27.277  1.00  0.00    -0.274 OA
BRANCH   9  17
ATOM     17  C   UNL A   1      32.695  28.206  24.454  1.00  0.00     0.180 C 
ATOM     18  C   UNL A   1      31.672  29.343  24.620  1.00  0.00     0.075 C 
BRANCH  17  19
ATOM     19  C   UNL A   1      33.868  28.621  23.532  1.00  0.00     0.061 C 
ATOM     20  C   UNL A   1      33.741  28.154  22.086  1.00  0.00     0.010 C 
ENDBRANCH  17  19
ENDBRANCH   9  17
ENDBRANCH   7   8
ENDBRANCH   4   7
ENDBRANCH   2   3
ENDBRANCH   1   2
BRANCH   1  21
ATOM     21  C   UNL A   1      35.936  22.753  24.652  1.00  0.00     0.023 C 
BRANCH  21  22
ATOM     22  C   UNL A   1      36.870  23.274  25.741  1.00  0.00     0.116 C 
BRANCH  22  23
ATOM     23  N   UNL A   1      37.964  22.362  26.034  1.00  0.00    -0.352 N 
ATOM     24  C   UNL A   1      39.220  22.638  26.514  1.00  0.00     0.251 C 
ATOM     25  H   UNL A   1      37.779  21.410  25.862  1.00  0.00     0.163 HD
ATOM     26  O   UNL A   1      40.056  21.736  26.573  1.00  0.00    -0.269 OA
BRANCH  24  27
ATOM     27  C   UNL A   1      39.582  24.010  26.931  1.00  0.00     0.039 A 
ATOM     28  C   UNL A   1      39.428  24.362  28.275  1.00  0.00     0.014 A 
ATOM     29  C   UNL A   1      40.059  24.953  26.015  1.00  0.00     0.014 A 
ATOM     30  C   UNL A   1      39.794  25.639  28.705  1.00  0.00     0.010 A 
ATOM     31  C   UNL A   1      40.497  26.199  26.460  1.00  0.00     0.010 A 
ATOM     32  C   UNL A   1      40.360  26.561  27.808  1.00  0.00    -0.014 A 
BRANCH  32  33
ATOM     33  C   UNL A   1      40.818  27.894  28.283  1.00  0.00     0.031 A 
ATOM     34  C   UNL A   1      42.277  28.260  28.271  1.00  0.00     0.074 A 
ATOM     35  C   UNL A   1      39.913  28.765  28.774  1.00  0.00     0.049 A 
ATOM     36  N   UNL A   1      42.845  29.390  28.609  1.00  0.00    -0.248 NA
ATOM     37  C   UNL A   1      43.229  27.219  27.847  1.00  0.00     0.031 C 
ATOM     38  C   UNL A   1      38.481  28.498  28.931  1.00  0.00     0.029 A 
ATOM     39  N   UNL A   1      40.063  30.047  29.242  1.00  0.00    -0.354 N 
ATOM     40  C   UNL A   1      44.213  29.189  28.466  1.00  0.00     0.074 A 
ATOM     41  C   UNL A   1      44.395  27.816  28.050  1.00  0.00     0.031 C 
ATOM     42  C   UNL A   1      37.882  29.588  29.436  1.00  0.00     0.029 A 
ATOM     43  C   UNL A   1      38.887  30.622  29.664  1.00  0.00     0.049 A 
ATOM     44  H   UNL A   1      40.931  30.511  29.273  1.00  0.00     0.167 HD
ATOM     45  C   UNL A   1      45.226  30.073  28.633  1.00  0.00     0.034 A 
ATOM     46  C   UNL A   1      38.642  31.845  30.174  1.00  0.00     0.034 A 
ATOM     47  C   UNL A   1      45.041  31.448  29.016  1.00  0.00     0.049 A 
ATOM     48  C   UNL A   1      39.777  32.824  30.299  1.00  0.00     0.074 A 
ATOM     49  C   UNL A   1      45.993  32.446  29.128  1.00  0.00     0.029 A 
ATOM     50  N   UNL A   1      43.826  32.018  29.361  1.00  0.00    -0.354 N 
ATOM     51  N   UNL A   1      41.041  32.667  29.994  1.00  0.00    -0.248 NA
ATOM     52  C   UNL A   1      39.441  34.166  30.797  1.00  0.00     0.031 C 
ATOM     53  C   UNL A   1      45.358  33.611  29.571  1.00  0.00     0.029 A 
ATOM     54  C   UNL A   1      44.003  33.350  29.697  1.00  0.00     0.049 A 
ATOM     55  H   UNL A   1      42.962  31.546  29.367  1.00  0.00     0.167 HD
ATOM     56  C   UNL A   1      41.646  33.897  30.228  1.00  0.00     0.074 A 
ATOM     57  C   UNL A   1      40.601  34.797  30.672  1.00  0.00     0.031 C 
ATOM     58  C   UNL A   1      42.950  34.248  30.098  1.00  0.00     0.034 A 
BRANCH  45  59
ATOM     59  C   UNL A   1      46.629  29.595  28.355  1.00  0.00     0.023 A 
ATOM     60  C   UNL A   1      47.173  29.742  27.062  1.00  0.00     0.012 A 
ATOM     61  C   UNL A   1      47.430  29.057  29.382  1.00  0.00     0.148 A 
ATOM     62  C   UNL A   1      48.475  29.328  26.786  1.00  0.00     0.002 A 
ATOM     63  C   UNL A   1      48.744  28.692  29.110  1.00  0.00     0.091 A 
ATOM     64  F   UNL A   1      46.892  28.907  30.601  1.00  0.00    -0.205 F 
ATOM     65  C   UNL A   1      49.263  28.813  27.810  1.00  0.00     0.022 A 
BRANCH  63  66
ATOM     66  S   UNL A   1      49.869  28.098  30.379  1.00  0.00     0.127 S 
ATOM     67  O   UNL A   1      49.098  27.001  30.965  1.00  0.00    -0.237 OA
ATOM     68  O   UNL A   1      51.025  27.675  29.590  1.00  0.00    -0.237 OA
ATOM     69  O   UNL A   1      50.114  29.229  31.262  1.00  0.00    -0.744 OA
ENDBRANCH  63  66
ENDBRANCH  45  59
BRANCH  46  70
ATOM     70  C   UNL A   1      37.250  32.236  30.536  1.00  0.00     0.023 A 
ATOM     71  C   UNL A   1      36.791  32.036  31.852  1.00  0.00     0.012 A 
ATOM     72  C   UNL A   1      36.389  32.825  29.590  1.00  0.00     0.148 A 
ATOM     73  C   UNL A   1      35.487  32.379  32.210  1.00  0.00     0.002 A 
ATOM     74  C   UNL A   1      35.110  33.219  29.969  1.00  0.00     0.091 A 
ATOM     75  F   UNL A   1      36.841  32.999  28.341  1.00  0.00    -0.205 F 
ATOM     76  C   UNL A   1      34.651  32.979  31.274  1.00  0.00     0.022 A 
BRANCH  74  77
ATOM     77  S   UNL A   1      34.015  34.120  28.868  1.00  0.00     0.127 S 
ATOM     78  O   UNL A   1      33.064  34.707  29.806  1.00  0.00    -0.237 OA
ATOM     79  O   UNL A   1      34.934  35.072  28.242  1.00  0.00    -0.237 OA
ATOM     80  O   UNL A   1      33.471  33.125  27.953  1.00  0.00    -0.744 OA
ENDBRANCH  74  77
ENDBRANCH  46  70
BRANCH  58  81
ATOM     81  C   UNL A   1      43.318  35.678  30.404  1.00  0.00     0.023 A 
ATOM     82  C   UNL A   1      43.835  36.018  31.670  1.00  0.00     0.012 A 
ATOM     83  C   UNL A   1      43.192  36.677  29.419  1.00  0.00     0.148 A 
ATOM     84  C   UNL A   1      44.173  37.338  31.967  1.00  0.00     0.002 A 
ATOM     85  C   UNL A   1      43.582  37.980  29.704  1.00  0.00     0.091 A 
ATOM     86  F   UNL A   1      42.683  36.339  28.225  1.00  0.00    -0.205 F 
ATOM     87  C   UNL A   1      44.057  38.316  30.982  1.00  0.00     0.022 A 
BRANCH  85  88
ATOM     88  S   UNL A   1      43.561  39.280  28.465  1.00  0.00     0.127 S 
ATOM     89  O   UNL A   1      44.724  38.934  27.649  1.00  0.00    -0.237 OA
ATOM     90  O   UNL A   1      42.270  39.066  27.810  1.00  0.00    -0.237 OA
ATOM     91  O   UNL A   1      43.662  40.534  29.199  1.00  0.00    -0.744 OA
ENDBRANCH  85  88
ENDBRANCH  58  81
ENDBRANCH  32  33
ENDBRANCH  24  27
ENDBRANCH  22  23
ENDBRANCH  21  22
ENDBRANCH   1  21
TORSDOF 17
ENDMDL
MODEL 3
REMARK VINA RESULT:     -10.9      5.098     10.126
REMARK SMILES CC[C@H](C)[NH+]1CCN(C(=O)CC(=O)NCCCCNC(=O)c2ccc(-c3c4nc(c(-c5cccc(S(=O)(=O)[O-])c5F)c5ccc([nH]5)c(-c5cccc(S(=O)(=O)[O-])c5F)c5nc(c(-c6cccc(S(=O)(=O)[O-])c6F)c6ccc3[nH]6)C=C5)C=C4)cc2)CC1
REMARK SMILES IDX 16 1 15 2 14 3 12 4 13 5 11 7 9 8 5 9 6 10 86 11 7 13 85 14
REMARK SMILES IDX 8 15 10 16 3 17 4 18 2 19 1 20 17 21 18 22 19 23 20 24 21 26
REMARK SMILES IDX 22 27 23 28 84 29 24 30 83 31 25 32 26 33 27 34 77 35 28 36
REMARK SMILES IDX 82 37 76 38 78 39 29 40 81 41 75 42 74 43 30 45 62 46 42 47
REMARK SMILES IDX 61 48 43 49 46 50 60 51 79 52 44 53 45 54 59 56 80 57 47 58
REMARK SMILES IDX 31 59 32 60 40 61 33 62 35 63 41 64 34 65 36 66 37 67 38 68
REMARK SMILES IDX 39 69 63 70 64 71 72 72 65 73 67 74 73 75 66 76 68 77 69 78
REMARK SMILES IDX 70 79 71 80 48 81 49 82 57 83 50 84 52 85 58 86 51 87 53 88
REMARK SMILES IDX 54 89 55 90 56 91
REMARK H PARENT 14 6 5 12 19 25 78 44 46 55
REMARK Flexibility Score: inf
ROOT
ATOM      1  C   UNL A   1      33.123  27.672  24.117  1.00  0.00     0.023 C 
ENDROOT
BRANCH   1   2
ATOM      2  C   UNL A   1      32.220  27.282  22.949  1.00  0.00     0.116 C 
BRANCH   2   3
ATOM      3  N   UNL A   1      30.863  27.753  23.147  1.00  0.00    -0.356 N 
ATOM      4  C   UNL A   1      29.758  27.040  23.501  1.00  0.00     0.229 C 
ATOM      5  O   UNL A   1      28.675  27.627  23.564  1.00  0.00    -0.275 OA
ATOM      6  H   UNL A   1      30.721  28.717  23.007  1.00  0.00     0.163 HD
BRANCH   4   7
ATOM      7  C   UNL A   1      29.869  25.581  23.855  1.00  0.00     0.200 C 
BRANCH   7   8
ATOM      8  C   UNL A   1      30.549  25.283  25.169  1.00  0.00     0.232 C 
ATOM      9  N   UNL A   1      33.181  21.858  25.580  1.00  0.00    -0.330 N 
ATOM     10  C   UNL A   1      32.710  22.619  26.752  1.00  0.00     0.284 C 
ATOM     11  C   UNL A   1      32.184  21.967  24.506  1.00  0.00     0.284 C 
ATOM     12  H   UNL A   1      33.229  20.872  25.833  1.00  0.00     0.348 HD
ATOM     13  C   UNL A   1      32.214  24.058  26.481  1.00  0.00     0.181 C 
ATOM     14  C   UNL A   1      31.845  23.404  24.103  1.00  0.00     0.181 C 
ATOM     15  N   UNL A   1      31.429  24.217  25.250  1.00  0.00    -0.331 N 
ATOM     16  O   UNL A   1      30.286  25.978  26.157  1.00  0.00    -0.274 OA
BRANCH   9  17
ATOM     17  C   UNL A   1      34.607  22.036  25.215  1.00  0.00     0.180 C 
ATOM     18  C   UNL A   1      35.333  20.696  25.004  1.00  0.00     0.075 C 
BRANCH  17  19
ATOM     19  C   UNL A   1      34.908  23.037  24.073  1.00  0.00     0.061 C 
ATOM     20  C   UNL A   1      36.320  22.951  23.503  1.00  0.00     0.010 C 
ENDBRANCH  17  19
ENDBRANCH   9  17
ENDBRANCH   7   8
ENDBRANCH   4   7
ENDBRANCH   2   3
ENDBRANCH   1   2
BRANCH   1  21
ATOM     21  C   UNL A   1      32.988  29.132  24.566  1.00  0.00     0.023 C 
BRANCH  21  22
ATOM     22  C   UNL A   1      33.026  29.361  26.076  1.00  0.00     0.116 C 
BRANCH  22  23
ATOM     23  N   UNL A   1      32.811  30.751  26.444  1.00  0.00    -0.352 N 
ATOM     24  C   UNL A   1      33.538  31.547  27.293  1.00  0.00     0.251 C 
ATOM     25  H   UNL A   1      32.032  31.183  26.025  1.00  0.00     0.163 HD
ATOM     26  O   UNL A   1      33.118  32.669  27.579  1.00  0.00    -0.269 OA
BRANCH  24  27
ATOM     27  C   UNL A   1      34.802  31.058  27.887  1.00  0.00     0.039 A 
ATOM     28  C   UNL A   1      35.872  31.949  28.004  1.00  0.00     0.014 A 
ATOM     29  C   UNL A   1      34.946  29.735  28.316  1.00  0.00     0.014 A 
ATOM     30  C   UNL A   1      37.066  31.526  28.592  1.00  0.00     0.010 A 
ATOM     31  C   UNL A   1      36.110  29.338  28.973  1.00  0.00     0.010 A 
ATOM     32  C   UNL A   1      37.188  30.225  29.110  1.00  0.00    -0.014 A 
BRANCH  32  33
ATOM     33  C   UNL A   1      38.433  29.800  29.802  1.00  0.00     0.031 A 
ATOM     34  C   UNL A   1      38.786  30.342  31.161  1.00  0.00     0.074 A 
ATOM     35  C   UNL A   1      39.277  28.953  29.179  1.00  0.00     0.049 A 
ATOM     36  N   UNL A   1      39.808  30.047  31.924  1.00  0.00    -0.248 NA
ATOM     37  C   UNL A   1      37.892  31.363  31.732  1.00  0.00     0.031 C 
ATOM     38  C   UNL A   1      39.100  28.429  27.822  1.00  0.00     0.029 A 
ATOM     39  N   UNL A   1      40.457  28.391  29.599  1.00  0.00    -0.354 N 
ATOM     40  C   UNL A   1      39.696  30.861  33.046  1.00  0.00     0.074 A 
ATOM     41  C   UNL A   1      38.529  31.692  32.846  1.00  0.00     0.031 C 
ATOM     42  C   UNL A   1      40.121  27.607  27.531  1.00  0.00     0.029 A 
ATOM     43  C   UNL A   1      41.037  27.564  28.666  1.00  0.00     0.049 A 
ATOM     44  H   UNL A   1      40.851  28.563  30.484  1.00  0.00     0.167 HD
ATOM     45  C   UNL A   1      40.473  30.894  34.155  1.00  0.00     0.034 A 
ATOM     46  C   UNL A   1      42.176  26.846  28.717  1.00  0.00     0.034 A 
ATOM     47  C   UNL A   1      41.615  30.044  34.365  1.00  0.00     0.049 A 
ATOM     48  C   UNL A   1      42.992  26.860  29.981  1.00  0.00     0.074 A 
ATOM     49  C   UNL A   1      42.415  29.939  35.490  1.00  0.00     0.029 A 
ATOM     50  N   UNL A   1      42.128  29.161  33.428  1.00  0.00    -0.354 N 
ATOM     51  N   UNL A   1      42.772  27.508  31.099  1.00  0.00    -0.248 NA
ATOM     52  C   UNL A   1      44.188  26.006  30.007  1.00  0.00     0.031 C 
ATOM     53  C   UNL A   1      43.431  29.015  35.221  1.00  0.00     0.029 A 
ATOM     54  C   UNL A   1      43.241  28.515  33.944  1.00  0.00     0.049 A 
ATOM     55  H   UNL A   1      41.758  29.014  32.529  1.00  0.00     0.167 HD
ATOM     56  C   UNL A   1      43.779  27.115  31.972  1.00  0.00     0.074 A 
ATOM     57  C   UNL A   1      44.593  26.149  31.261  1.00  0.00     0.031 C 
ATOM     58  C   UNL A   1      44.018  27.525  33.244  1.00  0.00     0.034 A 
BRANCH  45  59
ATOM     59  C   UNL A   1      40.085  31.850  35.256  1.00  0.00     0.023 A 
ATOM     60  C   UNL A   1      40.670  33.133  35.302  1.00  0.00     0.012 A 
ATOM     61  C   UNL A   1      39.104  31.506  36.205  1.00  0.00     0.148 A 
ATOM     62  C   UNL A   1      40.312  34.043  36.296  1.00  0.00     0.002 A 
ATOM     63  C   UNL A   1      38.717  32.436  37.164  1.00  0.00     0.091 A 
ATOM     64  F   UNL A   1      38.572  30.276  36.159  1.00  0.00    -0.205 F 
ATOM     65  C   UNL A   1      39.329  33.699  37.219  1.00  0.00     0.022 A 
BRANCH  63  66
ATOM     66  S   UNL A   1      37.400  32.121  38.346  1.00  0.00     0.127 S 
ATOM     67  O   UNL A   1      36.352  33.021  37.865  1.00  0.00    -0.237 OA
ATOM     68  O   UNL A   1      37.129  30.700  38.131  1.00  0.00    -0.237 OA
ATOM     69  O   UNL A   1      37.949  32.445  39.655  1.00  0.00    -0.744 OA
ENDBRANCH  63  66
ENDBRANCH  45  59
BRANCH  46  70
ATOM     70  C   UNL A   1      42.575  25.996  27.559  1.00  0.00     0.023 A 
ATOM     71  C   UNL A   1      43.425  26.526  26.569  1.00  0.00     0.012 A 
ATOM     72  C   UNL A   1      42.136  24.663  27.447  1.00  0.00     0.148 A 
ATOM     73  C   UNL A   1      43.798  25.755  25.467  1.00  0.00     0.002 A 
ATOM     74  C   UNL A   1      42.560  23.883  26.378  1.00  0.00     0.091 A 
ATOM     75  F   UNL A   1      41.321  24.181  28.396  1.00  0.00    -0.205 F 
ATOM     76  C   UNL A   1      43.375  24.433  25.376  1.00  0.00     0.022 A 
BRANCH  74  77
ATOM     77  S   UNL A   1      42.175  22.133  26.252  1.00  0.00     0.127 S 
ATOM     78  O   UNL A   1      42.673  21.625  27.527  1.00  0.00    -0.237 OA
ATOM     79  O   UNL A   1      40.718  22.154  26.121  1.00  0.00    -0.237 OA
ATOM     80  O   UNL A   1      42.876  21.660  25.065  1.00  0.00    -0.744 OA
ENDBRANCH  74  77
ENDBRANCH  46  70
BRANCH  58  81
ATOM     81  C   UNL A   1      45.186  26.902  33.966  1.00  0.00     0.023 A 
ATOM     82  C   UNL A   1      46.446  27.533  33.948  1.00  0.00     0.012 A 
ATOM     83  C   UNL A   1      45.022  25.711  34.700  1.00  0.00     0.148 A 
ATOM     84  C   UNL A   1      47.535  26.963  34.607  1.00  0.00     0.002 A 
ATOM     85  C   UNL A   1      46.097  25.178  35.400  1.00  0.00     0.091 A 
ATOM     86  F   UNL A   1      43.821  25.114  34.693  1.00  0.00    -0.205 F 
ATOM     87  C   UNL A   1      47.358  25.793  35.341  1.00  0.00     0.022 A 
BRANCH  85  88
ATOM     88  S   UNL A   1      45.936  23.731  36.451  1.00  0.00     0.127 S 
ATOM     89  O   UNL A   1      45.590  22.694  35.480  1.00  0.00    -0.237 OA
ATOM     90  O   UNL A   1      47.278  23.609  37.022  1.00  0.00    -0.237 OA
ATOM     91  O   UNL A   1      44.897  24.053  37.420  1.00  0.00    -0.744 OA
ENDBRANCH  85  88
ENDBRANCH  58  81
ENDBRANCH  32  33
ENDBRANCH  24  27
ENDBRANCH  22  23
ENDBRANCH  21  22
ENDBRANCH   1  21
TORSDOF 17
ENDMDL
