MODEL 1
REMARK VINA RESULT:     -12.9      0.000      0.000
REMARK SMILES C[C@H]1[C@H]([NH+]2CCC(CC(=O)NCCCCNC(=O)c3ccc(-c4c5nc(c(-c6cccc(S(=O)(=O)[O-])c6F)c6ccc([nH]6)c(-c6cccc(S(=O)(=O)[O-])c6F)c6nc(c(-c7cccc(S(=O)(=O)[O-])c7F)c7ccc4[nH]7)C=C6)C=C5)cc3)CC2)CCC[C@@H]1C
REMARK SMILES IDX 14 1 13 2 12 3 11 4 9 5 10 6 8 8 7 9 4 10 5 11 83 12 6 14
REMARK SMILES IDX 82 15 3 16 1 17 2 18 87 19 84 20 86 21 88 22 85 23 15 24
REMARK SMILES IDX 16 25 17 26 18 28 19 29 20 30 81 31 21 32 80 33 22 34 23 35
REMARK SMILES IDX 24 36 74 37 25 38 79 39 73 40 75 41 26 42 78 43 72 44 71 45
REMARK SMILES IDX 27 47 59 48 39 49 58 50 40 51 43 52 57 53 76 54 41 55 42 56
REMARK SMILES IDX 56 58 77 59 44 60 28 61 29 62 37 63 30 64 32 65 38 66 31 67
REMARK SMILES IDX 33 68 34 69 35 70 36 71 60 72 61 73 69 74 62 75 64 76 70 77
REMARK SMILES IDX 63 78 65 79 66 80 67 81 68 82 45 83 46 84 54 85 47 86 49 87
REMARK SMILES IDX 55 88 48 89 50 90 51 91 52 92 53 93
REMARK H PARENT 11 7 4 13 16 27 75 46 43 57
REMARK Flexibility Score: inf
ROOT
ATOM      1  C   UNL A   1      31.687  29.260  27.062  1.00  0.00     0.023 C 
ENDROOT
BRANCH   1   2
ATOM      2  C   UNL A   1      32.293  27.875  27.120  1.00  0.00     0.023 C 
BRANCH   2   3
ATOM      3  C   UNL A   1      33.357  27.513  26.068  1.00  0.00     0.116 C 
BRANCH   3   4
ATOM      4  N   UNL A   1      32.818  27.472  24.704  1.00  0.00    -0.356 N 
ATOM      5  C   UNL A   1      31.697  27.058  24.060  1.00  0.00     0.220 C 
ATOM      6  O   UNL A   1      31.638  27.355  22.858  1.00  0.00    -0.275 OA
ATOM      7  H   UNL A   1      33.460  27.859  24.066  1.00  0.00     0.163 HD
BRANCH   5   8
ATOM      8  C   UNL A   1      30.525  26.274  24.665  1.00  0.00     0.104 C 
BRANCH   8   9
ATOM      9  C   UNL A   1      30.781  24.757  24.811  1.00  0.00     0.009 C 
ATOM     10  N   UNL A   1      32.661  21.466  24.900  1.00  0.00    -0.332 N 
ATOM     11  C   UNL A   1      32.229  22.327  26.508  1.00  0.00     0.262 C 
ATOM     12  C   UNL A   1      31.845  22.021  23.300  1.00  0.00     0.262 C 
ATOM     13  H   UNL A   1      32.549  20.469  25.086  1.00  0.00     0.348 HD
ATOM     14  C   UNL A   1      31.499  24.135  26.461  1.00  0.00     0.066 C 
ATOM     15  C   UNL A   1      31.150  23.806  23.225  1.00  0.00     0.066 C 
BRANCH  10  16
ATOM     16  C   UNL A   1      33.781  22.205  24.556  1.00  0.00     0.187 C 
ATOM     17  C   UNL A   1      33.079  19.440  25.485  1.00  0.00     0.014 C 
ATOM     18  C   UNL A   1      34.461  20.830  24.703  1.00  0.00     0.047 C 
ATOM     19  C   UNL A   1      36.030  21.503  24.917  1.00  0.00    -0.006 C 
ATOM     20  C   UNL A   1      33.974  22.964  23.266  1.00  0.00     0.065 C 
ATOM     21  C   UNL A   1      36.378  22.529  23.743  1.00  0.00     0.004 C 
ATOM     22  C   UNL A   1      37.295  20.652  24.880  1.00  0.00     0.008 C 
ATOM     23  C   UNL A   1      35.349  23.595  23.399  1.00  0.00     0.006 C 
ENDBRANCH  10  16
ENDBRANCH   8   9
ENDBRANCH   5   8
ENDBRANCH   3   4
ENDBRANCH   2   3
ENDBRANCH   1   2
BRANCH   1  24
ATOM     24  C   UNL A   1      32.617  30.321  26.513  1.00  0.00     0.116 C 
BRANCH  24  25
ATOM     25  N   UNL A   1      32.430  31.676  27.033  1.00  0.00    -0.352 N 
ATOM     26  C   UNL A   1      33.400  32.471  27.630  1.00  0.00     0.251 C 
ATOM     27  H   UNL A   1      31.528  32.062  26.951  1.00  0.00     0.163 HD
ATOM     28  O   UNL A   1      33.152  33.592  28.042  1.00  0.00    -0.269 OA
BRANCH  26  29
ATOM     29  C   UNL A   1      34.741  31.869  27.800  1.00  0.00     0.039 A 
ATOM     30  C   UNL A   1      35.845  32.709  27.964  1.00  0.00     0.014 A 
ATOM     31  C   UNL A   1      34.829  30.506  28.081  1.00  0.00     0.014 A 
ATOM     32  C   UNL A   1      37.011  32.193  28.533  1.00  0.00     0.010 A 
ATOM     33  C   UNL A   1      35.931  30.040  28.783  1.00  0.00     0.010 A 
ATOM     34  C   UNL A   1      37.040  30.871  29.012  1.00  0.00    -0.014 A 
BRANCH  34  35
ATOM     35  C   UNL A   1      38.218  30.324  29.737  1.00  0.00     0.031 A 
ATOM     36  C   UNL A   1      38.471  30.753  31.160  1.00  0.00     0.074 A 
ATOM     37  C   UNL A   1      39.106  29.524  29.108  1.00  0.00     0.049 A 
ATOM     38  N   UNL A   1      39.473  30.458  31.947  1.00  0.00    -0.248 NA
ATOM     39  C   UNL A   1      37.494  31.677  31.765  1.00  0.00     0.031 C 
ATOM     40  C   UNL A   1      39.041  29.114  27.702  1.00  0.00     0.029 A 
ATOM     41  N   UNL A   1      40.256  28.927  29.568  1.00  0.00    -0.354 N 
ATOM     42  C   UNL A   1      39.267  31.191  33.108  1.00  0.00     0.074 A 
ATOM     43  C   UNL A   1      38.089  32.001  32.900  1.00  0.00     0.031 C 
ATOM     44  C   UNL A   1      40.083  28.313  27.425  1.00  0.00     0.029 A 
ATOM     45  C   UNL A   1      40.912  28.175  28.618  1.00  0.00     0.049 A 
ATOM     46  H   UNL A   1      40.580  29.027  30.491  1.00  0.00     0.167 HD
ATOM     47  C   UNL A   1      39.957  31.158  34.272  1.00  0.00     0.034 A 
ATOM     48  C   UNL A   1      42.049  27.455  28.704  1.00  0.00     0.034 A 
ATOM     49  C   UNL A   1      41.084  30.302  34.504  1.00  0.00     0.049 A 
ATOM     50  C   UNL A   1      42.771  27.388  30.026  1.00  0.00     0.074 A 
ATOM     51  C   UNL A   1      41.798  30.119  35.674  1.00  0.00     0.029 A 
ATOM     52  N   UNL A   1      41.658  29.480  33.548  1.00  0.00    -0.354 N 
ATOM     53  N   UNL A   1      42.463  27.963  31.163  1.00  0.00    -0.248 NA
ATOM     54  C   UNL A   1      43.972  26.542  30.087  1.00  0.00     0.031 C 
ATOM     55  C   UNL A   1      42.821  29.201  35.419  1.00  0.00     0.029 A 
ATOM     56  C   UNL A   1      42.723  28.790  34.099  1.00  0.00     0.049 A 
ATOM     57  H   UNL A   1      41.354  29.399  32.616  1.00  0.00     0.167 HD
ATOM     58  C   UNL A   1      43.407  27.519  32.083  1.00  0.00     0.074 A 
ATOM     59  C   UNL A   1      44.284  26.610  31.374  1.00  0.00     0.031 C 
ATOM     60  C   UNL A   1      43.546  27.844  33.392  1.00  0.00     0.034 A 
BRANCH  47  61
ATOM     61  C   UNL A   1      39.462  32.027  35.398  1.00  0.00     0.023 A 
ATOM     62  C   UNL A   1      38.548  31.500  36.334  1.00  0.00     0.012 A 
ATOM     63  C   UNL A   1      39.918  33.350  35.548  1.00  0.00     0.148 A 
ATOM     64  C   UNL A   1      38.060  32.288  37.375  1.00  0.00     0.002 A 
ATOM     65  C   UNL A   1      39.468  34.113  36.619  1.00  0.00     0.091 A 
ATOM     66  F   UNL A   1      40.767  33.842  34.635  1.00  0.00    -0.205 F 
ATOM     67  C   UNL A   1      38.529  33.590  37.523  1.00  0.00     0.022 A 
BRANCH  65  68
ATOM     68  S   UNL A   1      40.071  35.773  36.948  1.00  0.00     0.127 S 
ATOM     69  O   UNL A   1      39.364  36.102  38.184  1.00  0.00    -0.237 OA
ATOM     70  O   UNL A   1      41.508  35.549  37.107  1.00  0.00    -0.237 OA
ATOM     71  O   UNL A   1      39.705  36.571  35.786  1.00  0.00    -0.744 OA
ENDBRANCH  65  68
ENDBRANCH  47  61
BRANCH  48  72
ATOM     72  C   UNL A   1      42.542  26.675  27.529  1.00  0.00     0.023 A 
ATOM     73  C   UNL A   1      43.343  27.314  26.561  1.00  0.00     0.012 A 
ATOM     74  C   UNL A   1      42.228  25.312  27.365  1.00  0.00     0.148 A 
ATOM     75  C   UNL A   1      43.787  26.622  25.432  1.00  0.00     0.002 A 
ATOM     76  C   UNL A   1      42.720  24.614  26.267  1.00  0.00     0.091 A 
ATOM     77  F   UNL A   1      41.455  24.723  28.289  1.00  0.00    -0.205 F 
ATOM     78  C   UNL A   1      43.483  25.272  25.290  1.00  0.00     0.022 A 
BRANCH  76  79
ATOM     79  S   UNL A   1      42.486  22.845  26.067  1.00  0.00     0.127 S 
ATOM     80  O   UNL A   1      43.255  22.312  27.188  1.00  0.00    -0.237 OA
ATOM     81  O   UNL A   1      41.034  22.716  26.197  1.00  0.00    -0.237 OA
ATOM     82  O   UNL A   1      42.998  22.530  24.740  1.00  0.00    -0.744 OA
ENDBRANCH  76  79
ENDBRANCH  48  72
BRANCH  60  83
ATOM     83  C   UNL A   1      44.656  27.182  34.165  1.00  0.00     0.023 A 
ATOM     84  C   UNL A   1      45.942  27.756  34.179  1.00  0.00     0.012 A 
ATOM     85  C   UNL A   1      44.397  26.039  34.948  1.00  0.00     0.148 A 
ATOM     86  C   UNL A   1      46.963  27.182  34.936  1.00  0.00     0.002 A 
ATOM     87  C   UNL A   1      45.405  25.506  35.740  1.00  0.00     0.091 A 
ATOM     88  F   UNL A   1      43.169  25.501  34.907  1.00  0.00    -0.205 F 
ATOM     89  C   UNL A   1      46.691  26.067  35.726  1.00  0.00     0.022 A 
BRANCH  87  90
ATOM     90  S   UNL A   1      45.118  24.135  36.866  1.00  0.00     0.127 S 
ATOM     91  O   UNL A   1      44.164  24.719  37.807  1.00  0.00    -0.237 OA
ATOM     92  O   UNL A   1      44.555  23.118  35.978  1.00  0.00    -0.237 OA
ATOM     93  O   UNL A   1      46.420  23.796  37.425  1.00  0.00    -0.744 OA
ENDBRANCH  87  90
ENDBRANCH  60  83
ENDBRANCH  34  35
ENDBRANCH  26  29
ENDBRANCH  24  25
ENDBRANCH   1  24
TORSDOF 16
ENDMDL
MODEL 2
REMARK VINA RESULT:     -12.8      4.968     10.346
REMARK SMILES C[C@H]1[C@H]([NH+]2CCC(CC(=O)NCCCCNC(=O)c3ccc(-c4c5nc(c(-c6cccc(S(=O)(=O)[O-])c6F)c6ccc([nH]6)c(-c6cccc(S(=O)(=O)[O-])c6F)c6nc(c(-c7cccc(S(=O)(=O)[O-])c7F)c7ccc4[nH]7)C=C6)C=C5)cc3)CC2)CCC[C@@H]1C
REMARK SMILES IDX 14 1 13 2 12 3 11 4 9 5 10 6 8 8 7 9 4 10 5 11 83 12 6 14
REMARK SMILES IDX 82 15 3 16 1 17 2 18 87 19 84 20 86 21 88 22 85 23 15 24
REMARK SMILES IDX 16 25 17 26 18 28 19 29 20 30 81 31 21 32 80 33 22 34 23 35
REMARK SMILES IDX 24 36 74 37 25 38 79 39 73 40 75 41 26 42 78 43 72 44 71 45
REMARK SMILES IDX 27 47 59 48 39 49 58 50 40 51 43 52 57 53 76 54 41 55 42 56
REMARK SMILES IDX 56 58 77 59 44 60 28 61 29 62 37 63 30 64 32 65 38 66 31 67
REMARK SMILES IDX 33 68 34 69 35 70 36 71 60 72 61 73 69 74 62 75 64 76 70 77
REMARK SMILES IDX 63 78 65 79 66 80 67 81 68 82 45 83 46 84 54 85 47 86 49 87
REMARK SMILES IDX 55 88 48 89 50 90 51 91 52 92 53 93
REMARK H PARENT 11 7 4 13 16 27 75 46 43 57
REMARK Flexibility Score: inf
ROOT
ATOM      1  C   UNL A   1      36.910  21.904  24.201  1.00  0.00     0.023 C 
ENDROOT
BRANCH   1   2
ATOM      2  C   UNL A   1      36.424  23.317  23.962  1.00  0.00     0.023 C 
BRANCH   2   3
ATOM      3  C   UNL A   1      35.671  24.019  25.107  1.00  0.00     0.116 C 
BRANCH   3   4
ATOM      4  N   UNL A   1      34.486  23.274  25.551  1.00  0.00    -0.356 N 
ATOM      5  C   UNL A   1      33.404  22.660  25.010  1.00  0.00     0.220 C 
ATOM      6  O   UNL A   1      32.700  22.028  25.810  1.00  0.00    -0.275 OA
ATOM      7  H   UNL A   1      34.473  23.198  26.533  1.00  0.00     0.163 HD
BRANCH   5   8
ATOM      8  C   UNL A   1      32.978  22.675  23.536  1.00  0.00     0.104 C 
BRANCH   8   9
ATOM      9  C   UNL A   1      32.298  23.988  23.082  1.00  0.00     0.009 C 
ATOM     10  N   UNL A   1      31.001  27.547  23.224  1.00  0.00    -0.332 N 
ATOM     11  C   UNL A   1      32.627  27.189  22.362  1.00  0.00     0.262 C 
ATOM     12  C   UNL A   1      29.853  26.126  23.669  1.00  0.00     0.262 C 
ATOM     13  H   UNL A   1      30.550  28.271  22.666  1.00  0.00     0.348 HD
ATOM     14  C   UNL A   1      33.422  25.415  22.511  1.00  0.00     0.066 C 
ATOM     15  C   UNL A   1      30.623  24.380  23.852  1.00  0.00     0.066 C 
BRANCH  10  16
ATOM     16  C   UNL A   1      31.453  27.559  24.534  1.00  0.00     0.187 C 
ATOM     17  C   UNL A   1      30.430  29.475  22.463  1.00  0.00     0.014 C 
ATOM     18  C   UNL A   1      30.977  29.022  24.451  1.00  0.00     0.047 C 
ATOM     19  C   UNL A   1      31.948  29.531  25.777  1.00  0.00    -0.006 C 
ATOM     20  C   UNL A   1      30.926  26.697  25.655  1.00  0.00     0.065 C 
ATOM     21  C   UNL A   1      31.704  28.603  27.055  1.00  0.00     0.004 C 
ATOM     22  C   UNL A   1      31.784  30.898  26.433  1.00  0.00     0.008 C 
ATOM     23  C   UNL A   1      31.757  27.096  26.862  1.00  0.00     0.006 C 
ENDBRANCH  10  16
ENDBRANCH   8   9
ENDBRANCH   5   8
ENDBRANCH   3   4
ENDBRANCH   2   3
ENDBRANCH   1   2
BRANCH   1  24
ATOM     24  C   UNL A   1      37.578  21.697  25.544  1.00  0.00     0.116 C 
BRANCH  24  25
ATOM     25  N   UNL A   1      38.773  20.854  25.547  1.00  0.00    -0.352 N 
ATOM     26  C   UNL A   1      39.970  21.123  26.198  1.00  0.00     0.251 C 
ATOM     27  H   UNL A   1      38.725  20.012  25.038  1.00  0.00     0.163 HD
ATOM     28  O   UNL A   1      40.922  20.362  26.142  1.00  0.00    -0.269 OA
BRANCH  26  29
ATOM     29  C   UNL A   1      40.060  22.413  26.918  1.00  0.00     0.039 A 
ATOM     30  C   UNL A   1      40.942  22.527  27.995  1.00  0.00     0.014 A 
ATOM     31  C   UNL A   1      39.492  23.544  26.333  1.00  0.00     0.014 A 
ATOM     32  C   UNL A   1      41.350  23.799  28.405  1.00  0.00     0.010 A 
ATOM     33  C   UNL A   1      40.017  24.790  26.644  1.00  0.00     0.010 A 
ATOM     34  C   UNL A   1      40.945  24.938  27.688  1.00  0.00    -0.014 A 
BRANCH  34  35
ATOM     35  C   UNL A   1      41.457  26.296  28.014  1.00  0.00     0.031 A 
ATOM     36  C   UNL A   1      42.883  26.647  27.672  1.00  0.00     0.074 A 
ATOM     37  C   UNL A   1      40.691  27.178  28.691  1.00  0.00     0.049 A 
ATOM     38  N   UNL A   1      43.551  27.740  27.933  1.00  0.00    -0.248 NA
ATOM     39  C   UNL A   1      43.682  25.613  26.988  1.00  0.00     0.031 C 
ATOM     40  C   UNL A   1      39.330  26.933  29.177  1.00  0.00     0.029 A 
ATOM     41  N   UNL A   1      40.959  28.461  29.108  1.00  0.00    -0.354 N 
ATOM     42  C   UNL A   1      44.846  27.504  27.489  1.00  0.00     0.074 A 
ATOM     43  C   UNL A   1      44.893  26.143  27.011  1.00  0.00     0.031 C 
ATOM     44  C   UNL A   1      38.875  28.035  29.797  1.00  0.00     0.029 A 
ATOM     45  C   UNL A   1      39.917  29.056  29.785  1.00  0.00     0.049 A 
ATOM     46  H   UNL A   1      41.816  28.913  28.938  1.00  0.00     0.167 HD
ATOM     47  C   UNL A   1      45.895  28.357  27.429  1.00  0.00     0.034 A 
ATOM     48  C   UNL A   1      39.816  30.286  30.330  1.00  0.00     0.034 A 
ATOM     49  C   UNL A   1      45.829  29.730  27.837  1.00  0.00     0.049 A 
ATOM     50  C   UNL A   1      40.978  31.237  30.200  1.00  0.00     0.074 A 
ATOM     51  C   UNL A   1      46.803  30.706  27.732  1.00  0.00     0.029 A 
ATOM     52  N   UNL A   1      44.724  30.324  28.427  1.00  0.00    -0.354 N 
ATOM     53  N   UNL A   1      42.141  31.045  29.627  1.00  0.00    -0.248 NA
ATOM     54  C   UNL A   1      40.799  32.587  30.756  1.00  0.00     0.031 C 
ATOM     55  C   UNL A   1      46.294  31.888  28.278  1.00  0.00     0.029 A 
ATOM     56  C   UNL A   1      44.993  31.654  28.696  1.00  0.00     0.049 A 
ATOM     57  H   UNL A   1      43.875  29.867  28.625  1.00  0.00     0.167 HD
ATOM     58  C   UNL A   1      42.817  32.258  29.718  1.00  0.00     0.074 A 
ATOM     59  C   UNL A   1      41.923  33.184  30.383  1.00  0.00     0.031 C 
ATOM     60  C   UNL A   1      44.068  32.575  29.304  1.00  0.00     0.034 A 
BRANCH  47  61
ATOM     61  C   UNL A   1      47.177  27.837  26.834  1.00  0.00     0.023 A 
ATOM     62  C   UNL A   1      48.195  27.357  27.685  1.00  0.00     0.012 A 
ATOM     63  C   UNL A   1      47.366  27.796  25.440  1.00  0.00     0.148 A 
ATOM     64  C   UNL A   1      49.398  26.887  27.161  1.00  0.00     0.002 A 
ATOM     65  C   UNL A   1      48.547  27.277  24.923  1.00  0.00     0.091 A 
ATOM     66  F   UNL A   1      46.399  28.279  24.648  1.00  0.00    -0.205 F 
ATOM     67  C   UNL A   1      49.569  26.836  25.781  1.00  0.00     0.022 A 
BRANCH  65  68
ATOM     68  S   UNL A   1      48.834  27.092  23.160  1.00  0.00     0.127 S 
ATOM     69  O   UNL A   1      48.187  25.809  22.890  1.00  0.00    -0.237 OA
ATOM     70  O   UNL A   1      48.136  28.255  22.614  1.00  0.00    -0.237 OA
ATOM     71  O   UNL A   1      50.280  27.112  22.984  1.00  0.00    -0.744 OA
ENDBRANCH  65  68
ENDBRANCH  47  61
BRANCH  48  72
ATOM     72  C   UNL A   1      38.546  30.722  30.982  1.00  0.00     0.023 A 
ATOM     73  C   UNL A   1      38.359  30.491  32.361  1.00  0.00     0.012 A 
ATOM     74  C   UNL A   1      37.525  31.364  30.254  1.00  0.00     0.148 A 
ATOM     75  C   UNL A   1      37.167  30.853  32.991  1.00  0.00     0.002 A 
ATOM     76  C   UNL A   1      36.363  31.773  30.900  1.00  0.00     0.091 A 
ATOM     77  F   UNL A   1      37.713  31.565  28.942  1.00  0.00    -0.205 F 
ATOM     78  C   UNL A   1      36.174  31.501  32.264  1.00  0.00     0.022 A 
BRANCH  76  79
ATOM     79  S   UNL A   1      35.085  32.726  30.072  1.00  0.00     0.127 S 
ATOM     80  O   UNL A   1      34.139  32.966  31.158  1.00  0.00    -0.237 OA
ATOM     81  O   UNL A   1      35.829  33.905  29.628  1.00  0.00    -0.237 OA
ATOM     82  O   UNL A   1      34.606  31.878  28.988  1.00  0.00    -0.744 OA
ENDBRANCH  76  79
ENDBRANCH  48  72
BRANCH  60  83
ATOM     83  C   UNL A   1      44.538  33.990  29.508  1.00  0.00     0.023 A 
ATOM     84  C   UNL A   1      45.110  34.370  30.738  1.00  0.00     0.012 A 
ATOM     85  C   UNL A   1      44.491  34.918  28.448  1.00  0.00     0.148 A 
ATOM     86  C   UNL A   1      45.599  35.663  30.919  1.00  0.00     0.002 A 
ATOM     87  C   UNL A   1      45.028  36.186  28.620  1.00  0.00     0.091 A 
ATOM     88  F   UNL A   1      43.927  34.538  27.292  1.00  0.00    -0.205 F 
ATOM     89  C   UNL A   1      45.571  36.566  29.858  1.00  0.00     0.022 A 
BRANCH  87  90
ATOM     90  S   UNL A   1      45.128  37.378  27.279  1.00  0.00     0.127 S 
ATOM     91  O   UNL A   1      45.906  36.642  26.285  1.00  0.00    -0.237 OA
ATOM     92  O   UNL A   1      43.719  37.570  26.931  1.00  0.00    -0.237 OA
ATOM     93  O   UNL A   1      45.779  38.555  27.836  1.00  0.00    -0.744 OA
ENDBRANCH  87  90
ENDBRANCH  60  83
ENDBRANCH  34  35
ENDBRANCH  26  29
ENDBRANCH  24  25
ENDBRANCH   1  24
TORSDOF 16
ENDMDL
MODEL 3
REMARK VINA RESULT:     -12.7      1.416      2.143
REMARK SMILES C[C@H]1[C@H]([NH+]2CCC(CC(=O)NCCCCNC(=O)c3ccc(-c4c5nc(c(-c6cccc(S(=O)(=O)[O-])c6F)c6ccc([nH]6)c(-c6cccc(S(=O)(=O)[O-])c6F)c6nc(c(-c7cccc(S(=O)(=O)[O-])c7F)c7ccc4[nH]7)C=C6)C=C5)cc3)CC2)CCC[C@@H]1C
REMARK SMILES IDX 14 1 13 2 12 3 11 4 9 5 10 6 8 8 7 9 4 10 5 11 83 12 6 14
REMARK SMILES IDX 82 15 3 16 1 17 2 18 87 19 84 20 86 21 88 22 85 23 15 24
REMARK SMILES IDX 16 25 17 26 18 28 19 29 20 30 81 31 21 32 80 33 22 34 23 35
REMARK SMILES IDX 24 36 74 37 25 38 79 39 73 40 75 41 26 42 78 43 72 44 71 45
REMARK SMILES IDX 27 47 59 48 39 49 58 50 40 51 43 52 57 53 76 54 41 55 42 56
REMARK SMILES IDX 56 58 77 59 44 60 28 61 29 62 37 63 30 64 32 65 38 66 31 67
REMARK SMILES IDX 33 68 34 69 35 70 36 71 60 72 61 73 69 74 62 75 64 76 70 77
REMARK SMILES IDX 63 78 65 79 66 80 67 81 68 82 45 83 46 84 54 85 47 86 49 87
REMARK SMILES IDX 55 88 48 89 50 90 51 91 52 92 53 93
REMARK H PARENT 11 7 4 13 16 27 75 46 43 57
REMARK Flexibility Score: inf
ROOT
ATOM      1  C   UNL A   1      31.750  30.443  26.763  1.00  0.00     0.023 C 
ENDROOT
BRANCH   1   2
ATOM      2  C   UNL A   1      32.293  29.111  27.231  1.00  0.00     0.023 C 
BRANCH   2   3
ATOM      3  C   UNL A   1      33.400  28.451  26.388  1.00  0.00     0.116 C 
BRANCH   3   4
ATOM      4  N   UNL A   1      33.072  28.400  24.957  1.00  0.00    -0.356 N 
ATOM      5  C   UNL A   1      32.576  27.516  24.055  1.00  0.00     0.220 C 
ATOM      6  O   UNL A   1      32.350  27.982  22.929  1.00  0.00    -0.275 OA
ATOM      7  H   UNL A   1      33.272  29.261  24.525  1.00  0.00     0.163 HD
BRANCH   5   8
ATOM      8  C   UNL A   1      32.277  26.030  24.290  1.00  0.00     0.104 C 
BRANCH   8   9
ATOM      9  C   UNL A   1      33.532  25.153  24.503  1.00  0.00     0.009 C 
ATOM     10  N   UNL A   1      35.657  22.046  24.945  1.00  0.00    -0.332 N 
ATOM     11  C   UNL A   1      35.588  22.888  23.271  1.00  0.00     0.262 C 
ATOM     12  C   UNL A   1      34.999  22.938  26.463  1.00  0.00     0.262 C 
ATOM     13  H   UNL A   1      36.621  21.727  25.050  1.00  0.00     0.348 HD
ATOM     14  C   UNL A   1      34.302  24.323  22.972  1.00  0.00     0.066 C 
ATOM     15  C   UNL A   1      33.710  24.331  26.190  1.00  0.00     0.066 C 
BRANCH  10  16
ATOM     16  C   UNL A   1      34.469  21.338  24.876  1.00  0.00     0.187 C 
ATOM     17  C   UNL A   1      37.425  20.821  24.905  1.00  0.00     0.014 C 
ATOM     18  C   UNL A   1      35.430  20.142  25.022  1.00  0.00     0.047 C 
ATOM     19  C   UNL A   1      34.304  19.014  24.374  1.00  0.00    -0.006 C 
ATOM     20  C   UNL A   1      33.318  21.453  25.846  1.00  0.00     0.065 C 
ATOM     21  C   UNL A   1      32.901  19.105  25.132  1.00  0.00     0.004 C 
ATOM     22  C   UNL A   1      34.524  17.506  24.448  1.00  0.00     0.008 C 
ATOM     23  C   UNL A   1      32.278  20.480  25.318  1.00  0.00     0.006 C 
ENDBRANCH  10  16
ENDBRANCH   8   9
ENDBRANCH   5   8
ENDBRANCH   3   4
ENDBRANCH   2   3
ENDBRANCH   1   2
BRANCH   1  24
ATOM     24  C   UNL A   1      32.812  31.496  26.524  1.00  0.00     0.116 C 
BRANCH  24  25
ATOM     25  N   UNL A   1      32.725  32.699  27.352  1.00  0.00    -0.352 N 
ATOM     26  C   UNL A   1      33.717  33.201  28.184  1.00  0.00     0.251 C 
ATOM     27  H   UNL A   1      31.881  33.204  27.314  1.00  0.00     0.163 HD
ATOM     28  O   UNL A   1      33.556  34.213  28.846  1.00  0.00    -0.269 OA
BRANCH  26  29
ATOM     29  C   UNL A   1      34.966  32.412  28.281  1.00  0.00     0.039 A 
ATOM     30  C   UNL A   1      36.193  33.072  28.190  1.00  0.00     0.014 A 
ATOM     31  C   UNL A   1      34.890  31.099  28.745  1.00  0.00     0.014 A 
ATOM     32  C   UNL A   1      37.339  32.446  28.687  1.00  0.00     0.010 A 
ATOM     33  C   UNL A   1      35.999  30.549  29.373  1.00  0.00     0.010 A 
ATOM     34  C   UNL A   1      37.239  31.208  29.346  1.00  0.00    -0.014 A 
BRANCH  34  35
ATOM     35  C   UNL A   1      38.413  30.569  30.000  1.00  0.00     0.031 A 
ATOM     36  C   UNL A   1      38.798  30.990  31.396  1.00  0.00     0.074 A 
ATOM     37  C   UNL A   1      39.184  29.689  29.326  1.00  0.00     0.049 A 
ATOM     38  N   UNL A   1      39.822  30.619  32.118  1.00  0.00    -0.248 NA
ATOM     39  C   UNL A   1      37.946  32.001  32.050  1.00  0.00     0.031 C 
ATOM     40  C   UNL A   1      38.989  29.271  27.935  1.00  0.00     0.029 A 
ATOM     41  N   UNL A   1      40.308  29.000  29.718  1.00  0.00    -0.354 N 
ATOM     42  C   UNL A   1      39.759  31.379  33.279  1.00  0.00     0.074 A 
ATOM     43  C   UNL A   1      38.643  32.285  33.137  1.00  0.00     0.031 C 
ATOM     44  C   UNL A   1      39.938  28.381  27.602  1.00  0.00     0.029 A 
ATOM     45  C   UNL A   1      40.831  28.184  28.739  1.00  0.00     0.049 A 
ATOM     46  H   UNL A   1      40.702  29.082  30.615  1.00  0.00     0.167 HD
ATOM     47  C   UNL A   1      40.522  31.299  34.394  1.00  0.00     0.034 A 
ATOM     48  C   UNL A   1      41.906  27.370  28.760  1.00  0.00     0.034 A 
ATOM     49  C   UNL A   1      41.585  30.352  34.564  1.00  0.00     0.049 A 
ATOM     50  C   UNL A   1      42.708  27.256  30.031  1.00  0.00     0.074 A 
ATOM     51  C   UNL A   1      42.359  30.121  35.687  1.00  0.00     0.029 A 
ATOM     52  N   UNL A   1      42.020  29.473  33.585  1.00  0.00    -0.354 N 
ATOM     53  N   UNL A   1      42.528  27.867  31.177  1.00  0.00    -0.248 NA
ATOM     54  C   UNL A   1      43.834  26.310  30.026  1.00  0.00     0.031 C 
ATOM     55  C   UNL A   1      43.280  29.115  35.378  1.00  0.00     0.029 A 
ATOM     56  C   UNL A   1      43.057  28.700  34.075  1.00  0.00     0.049 A 
ATOM     57  H   UNL A   1      41.648  29.409  32.677  1.00  0.00     0.167 HD
ATOM     58  C   UNL A   1      43.492  27.353  32.039  1.00  0.00     0.074 A 
ATOM     59  C   UNL A   1      44.238  26.365  31.288  1.00  0.00     0.031 C 
ATOM     60  C   UNL A   1      43.748  27.679  33.330  1.00  0.00     0.034 A 
BRANCH  47  61
ATOM     61  C   UNL A   1      40.180  32.220  35.536  1.00  0.00     0.023 A 
ATOM     62  C   UNL A   1      40.898  33.423  35.699  1.00  0.00     0.012 A 
ATOM     63  C   UNL A   1      39.135  31.913  36.427  1.00  0.00     0.148 A 
ATOM     64  C   UNL A   1      40.613  34.284  36.758  1.00  0.00     0.002 A 
ATOM     65  C   UNL A   1      38.822  32.802  37.449  1.00  0.00     0.091 A 
ATOM     66  F   UNL A   1      38.480  30.754  36.271  1.00  0.00    -0.205 F 
ATOM     67  C   UNL A   1      39.569  33.979  37.625  1.00  0.00     0.022 A 
BRANCH  65  68
ATOM     68  S   UNL A   1      37.443  32.542  38.570  1.00  0.00     0.127 S 
ATOM     69  O   UNL A   1      36.310  32.949  37.741  1.00  0.00    -0.237 OA
ATOM     70  O   UNL A   1      37.526  31.105  38.827  1.00  0.00    -0.237 OA
ATOM     71  O   UNL A   1      37.704  33.384  39.729  1.00  0.00    -0.744 OA
ENDBRANCH  65  68
ENDBRANCH  47  61
BRANCH  48  72
ATOM     72  C   UNL A   1      42.249  26.538  27.568  1.00  0.00     0.023 A 
ATOM     73  C   UNL A   1      42.927  27.130  26.482  1.00  0.00     0.012 A 
ATOM     74  C   UNL A   1      41.915  25.172  27.502  1.00  0.00     0.148 A 
ATOM     75  C   UNL A   1      43.227  26.388  25.338  1.00  0.00     0.002 A 
ATOM     76  C   UNL A   1      42.267  24.425  26.382  1.00  0.00     0.091 A 
ATOM     77  F   UNL A   1      41.260  24.628  28.537  1.00  0.00    -0.205 F 
ATOM     78  C   UNL A   1      42.906  25.035  25.292  1.00  0.00     0.022 A 
BRANCH  76  79
ATOM     79  S   UNL A   1      42.007  22.651  26.288  1.00  0.00     0.127 S 
ATOM     80  O   UNL A   1      40.549  22.561  26.280  1.00  0.00    -0.237 OA
ATOM     81  O   UNL A   1      42.653  22.319  25.017  1.00  0.00    -0.237 OA
ATOM     82  O   UNL A   1      42.670  22.095  27.460  1.00  0.00    -0.744 OA
ENDBRANCH  76  79
ENDBRANCH  48  72
BRANCH  60  83
ATOM     83  C   UNL A   1      44.847  26.933  34.038  1.00  0.00     0.023 A 
ATOM     84  C   UNL A   1      46.164  27.432  34.014  1.00  0.00     0.012 A 
ATOM     85  C   UNL A   1      44.554  25.784  34.799  1.00  0.00     0.148 A 
ATOM     86  C   UNL A   1      47.179  26.779  34.712  1.00  0.00     0.002 A 
ATOM     87  C   UNL A   1      45.559  25.170  35.534  1.00  0.00     0.091 A 
ATOM     88  F   UNL A   1      43.296  25.317  34.794  1.00  0.00    -0.205 F 
ATOM     89  C   UNL A   1      46.875  25.658  35.482  1.00  0.00     0.022 A 
BRANCH  87  90
ATOM     90  S   UNL A   1      45.240  23.785  36.632  1.00  0.00     0.127 S 
ATOM     91  O   UNL A   1      44.509  24.432  37.720  1.00  0.00    -0.237 OA
ATOM     92  O   UNL A   1      44.428  22.904  35.791  1.00  0.00    -0.237 OA
ATOM     93  O   UNL A   1      46.544  23.246  36.989  1.00  0.00    -0.744 OA
ENDBRANCH  87  90
ENDBRANCH  60  83
ENDBRANCH  34  35
ENDBRANCH  26  29
ENDBRANCH  24  25
ENDBRANCH   1  24
TORSDOF 16
ENDMDL
