MODEL 1
REMARK VINA RESULT:     -12.2      0.000      0.000
REMARK SMILES CC(C)[C@H](C)CNC(=O)N1CC(n2cc(C(=O)NCCCCNC(=O)c3ccc(-c4c5nc(c(-c6cccc(S(=O)(=O)[O-])c6F)c6ccc([nH]6)c(-c6cccc(S(=O)(=O)[O-])c6F)c6nc(c(-c7cccc(S(=O)(=O)[O-])c7F)c7ccc4[nH]7)C=C6)C=C5)cc3)nn2)C1
REMARK SMILES IDX 20 1 19 2 18 3 16 4 17 5 15 7 13 8 14 9 90 10 89 11 12 12
REMARK SMILES IDX 7 13 8 14 9 16 10 17 11 18 91 19 6 20 4 21 5 22 2 23 1 24
REMARK SMILES IDX 3 25 21 26 22 27 23 28 24 29 25 31 26 32 27 33 88 34 28 35
REMARK SMILES IDX 87 36 29 37 30 38 31 39 81 40 32 41 86 42 80 43 82 44 33 45
REMARK SMILES IDX 85 46 79 47 78 48 34 50 66 51 46 52 65 53 47 54 50 55 64 56
REMARK SMILES IDX 83 57 48 58 49 59 63 61 84 62 51 63 35 64 36 65 44 66 37 67
REMARK SMILES IDX 39 68 45 69 38 70 40 71 41 72 42 73 43 74 67 75 68 76 76 77
REMARK SMILES IDX 69 78 71 79 77 80 70 81 72 82 73 83 74 84 75 85 52 86 53 87
REMARK SMILES IDX 61 88 54 89 56 90 62 91 55 92 57 93 58 94 59 95 60 96
REMARK H PARENT 18 6 7 15 23 30 82 49 50 60
REMARK Flexibility Score: inf
ROOT
ATOM      1  C   UNL A   1      36.384  20.222  25.147  1.00  0.00     0.023 C 
ENDROOT
BRANCH   1   2
ATOM      2  C   UNL A   1      36.199  21.599  25.794  1.00  0.00     0.116 C 
BRANCH   2   3
ATOM      3  N   UNL A   1      35.186  21.577  26.831  1.00  0.00    -0.351 N 
ATOM      4  C   UNL A   1      33.943  22.152  26.917  1.00  0.00     0.273 C 
ATOM      5  O   UNL A   1      33.301  21.933  27.957  1.00  0.00    -0.267 OA
ATOM      6  H   UNL A   1      35.437  21.050  27.624  1.00  0.00     0.163 HD
BRANCH   4   7
ATOM      7  C   UNL A   1      33.390  22.987  25.858  1.00  0.00     0.170 A 
ATOM      8  N   UNL A   1      32.892  24.500  24.378  1.00  0.00    -0.245 N 
ATOM      9  C   UNL A   1      33.689  24.280  25.468  1.00  0.00     0.145 A 
ATOM     10  N   UNL A   1      32.079  23.466  24.149  1.00  0.00    -0.066 NA
ATOM     11  N   UNL A   1      32.353  22.541  25.058  1.00  0.00    -0.125 NA
BRANCH   8  12
ATOM     12  C   UNL A   1      32.950  25.687  23.587  1.00  0.00     0.148 C 
ATOM     13  N   UNL A   1      31.394  29.476  22.892  1.00  0.00    -0.338 N 
ATOM     14  C   UNL A   1      32.576  28.842  23.087  1.00  0.00     0.317 C 
ATOM     15  H   UNL A   1      31.377  30.100  22.131  1.00  0.00     0.165 HD
ATOM     16  O   UNL A   1      33.592  29.333  22.594  1.00  0.00    -0.249 OA
ATOM     17  N   UNL A   1      32.598  27.690  23.801  1.00  0.00    -0.320 N 
ATOM     18  C   UNL A   1      33.755  26.863  24.153  1.00  0.00     0.150 C 
ATOM     19  C   UNL A   1      31.691  26.552  23.806  1.00  0.00     0.150 C 
BRANCH  13  20
ATOM     20  C   UNL A   1      30.144  29.379  23.635  1.00  0.00     0.121 C 
BRANCH  20  21
ATOM     21  C   UNL A   1      28.973  28.922  22.738  1.00  0.00     0.008 C 
ATOM     22  C   UNL A   1      28.200  27.764  23.388  1.00  0.00     0.010 C 
BRANCH  21  23
ATOM     23  C   UNL A   1      28.056  30.119  22.347  1.00  0.00    -0.013 C 
ATOM     24  C   UNL A   1      27.682  30.980  23.557  1.00  0.00     0.008 C 
ATOM     25  C   UNL A   1      28.632  31.013  21.242  1.00  0.00     0.008 C 
ENDBRANCH  21  23
ENDBRANCH  20  21
ENDBRANCH  13  20
ENDBRANCH   8  12
ENDBRANCH   4   7
ENDBRANCH   2   3
ENDBRANCH   1   2
BRANCH   1  26
ATOM     26  C   UNL A   1      37.806  19.912  24.646  1.00  0.00     0.023 C 
BRANCH  26  27
ATOM     27  C   UNL A   1      38.933  20.283  25.608  1.00  0.00     0.116 C 
BRANCH  27  28
ATOM     28  N   UNL A   1      39.945  19.229  25.743  1.00  0.00    -0.352 N 
ATOM     29  C   UNL A   1      41.297  19.377  25.983  1.00  0.00     0.251 C 
ATOM     30  H   UNL A   1      39.621  18.305  25.652  1.00  0.00     0.163 HD
ATOM     31  O   UNL A   1      42.090  18.477  25.707  1.00  0.00    -0.269 OA
BRANCH  29  32
ATOM     32  C   UNL A   1      41.774  20.629  26.590  1.00  0.00     0.039 A 
ATOM     33  C   UNL A   1      42.292  21.672  25.818  1.00  0.00     0.014 A 
ATOM     34  C   UNL A   1      41.615  20.769  27.964  1.00  0.00     0.014 A 
ATOM     35  C   UNL A   1      42.553  22.895  26.431  1.00  0.00     0.010 A 
ATOM     36  C   UNL A   1      41.722  22.013  28.532  1.00  0.00     0.010 A 
ATOM     37  C   UNL A   1      42.237  23.071  27.788  1.00  0.00    -0.014 A 
BRANCH  37  38
ATOM     38  C   UNL A   1      42.341  24.387  28.415  1.00  0.00     0.031 A 
ATOM     39  C   UNL A   1      41.159  25.281  28.246  1.00  0.00     0.074 A 
ATOM     40  C   UNL A   1      43.331  24.716  29.275  1.00  0.00     0.049 A 
ATOM     41  N   UNL A   1      41.107  26.394  27.590  1.00  0.00    -0.248 NA
ATOM     42  C   UNL A   1      39.859  24.842  28.773  1.00  0.00     0.031 C 
ATOM     43  C   UNL A   1      44.401  23.861  29.806  1.00  0.00     0.029 A 
ATOM     44  N   UNL A   1      43.485  25.863  29.991  1.00  0.00    -0.354 N 
ATOM     45  C   UNL A   1      39.831  26.913  27.812  1.00  0.00     0.074 A 
ATOM     46  C   UNL A   1      39.060  25.839  28.383  1.00  0.00     0.031 C 
ATOM     47  C   UNL A   1      44.889  24.407  30.940  1.00  0.00     0.029 A 
ATOM     48  C   UNL A   1      44.310  25.726  31.103  1.00  0.00     0.049 A 
ATOM     49  H   UNL A   1      43.053  26.713  29.744  1.00  0.00     0.167 HD
ATOM     50  C   UNL A   1      39.581  28.250  27.723  1.00  0.00     0.034 A 
ATOM     51  C   UNL A   1      44.463  26.617  32.109  1.00  0.00     0.034 A 
ATOM     52  C   UNL A   1      40.666  28.951  27.083  1.00  0.00     0.049 A 
ATOM     53  C   UNL A   1      44.045  27.937  31.584  1.00  0.00     0.074 A 
ATOM     54  C   UNL A   1      41.322  28.840  25.872  1.00  0.00     0.029 A 
ATOM     55  N   UNL A   1      41.495  29.696  27.887  1.00  0.00    -0.354 N 
ATOM     56  N   UNL A   1      44.689  28.568  30.641  1.00  0.00    -0.248 NA
ATOM     57  C   UNL A   1      42.669  28.355  31.793  1.00  0.00     0.031 C 
ATOM     58  C   UNL A   1      42.696  29.056  26.188  1.00  0.00     0.029 A 
ATOM     59  C   UNL A   1      42.778  29.358  27.549  1.00  0.00     0.049 A 
ATOM     60  H   UNL A   1      41.221  30.347  28.572  1.00  0.00     0.167 HD
ATOM     61  C   UNL A   1      43.688  29.108  29.845  1.00  0.00     0.074 A 
ATOM     62  C   UNL A   1      42.478  29.044  30.665  1.00  0.00     0.031 C 
ATOM     63  C   UNL A   1      43.864  29.280  28.500  1.00  0.00     0.034 A 
BRANCH  50  64
ATOM     64  C   UNL A   1      38.538  29.008  28.516  1.00  0.00     0.023 A 
ATOM     65  C   UNL A   1      37.767  29.971  27.820  1.00  0.00     0.012 A 
ATOM     66  C   UNL A   1      38.470  29.038  29.927  1.00  0.00     0.148 A 
ATOM     67  C   UNL A   1      37.028  30.950  28.492  1.00  0.00     0.002 A 
ATOM     68  C   UNL A   1      37.669  29.963  30.589  1.00  0.00     0.091 A 
ATOM     69  F   UNL A   1      39.285  28.266  30.651  1.00  0.00    -0.205 F 
ATOM     70  C   UNL A   1      36.974  30.944  29.879  1.00  0.00     0.022 A 
BRANCH  68  71
ATOM     71  S   UNL A   1      37.521  29.961  32.379  1.00  0.00     0.127 S 
ATOM     72  O   UNL A   1      38.868  30.350  32.783  1.00  0.00    -0.237 OA
ATOM     73  O   UNL A   1      36.489  30.975  32.597  1.00  0.00    -0.237 OA
ATOM     74  O   UNL A   1      37.108  28.606  32.729  1.00  0.00    -0.744 OA
ENDBRANCH  68  71
ENDBRANCH  50  64
BRANCH  51  75
ATOM     75  C   UNL A   1      44.727  26.381  33.546  1.00  0.00     0.023 A 
ATOM     76  C   UNL A   1      46.038  26.514  34.044  1.00  0.00     0.012 A 
ATOM     77  C   UNL A   1      43.667  26.300  34.477  1.00  0.00     0.148 A 
ATOM     78  C   UNL A   1      46.282  26.607  35.419  1.00  0.00     0.002 A 
ATOM     79  C   UNL A   1      43.915  26.384  35.844  1.00  0.00     0.091 A 
ATOM     80  F   UNL A   1      42.408  26.239  34.023  1.00  0.00    -0.205 F 
ATOM     81  C   UNL A   1      45.221  26.551  36.319  1.00  0.00     0.022 A 
BRANCH  79  82
ATOM     82  S   UNL A   1      42.587  26.340  37.056  1.00  0.00     0.127 S 
ATOM     83  O   UNL A   1      41.841  27.556  36.733  1.00  0.00    -0.237 OA
ATOM     84  O   UNL A   1      41.910  25.094  36.712  1.00  0.00    -0.237 OA
ATOM     85  O   UNL A   1      43.247  26.371  38.355  1.00  0.00    -0.744 OA
ENDBRANCH  79  82
ENDBRANCH  51  75
BRANCH  63  86
ATOM     86  C   UNL A   1      45.242  29.091  27.916  1.00  0.00     0.023 A 
ATOM     87  C   UNL A   1      46.211  30.117  27.925  1.00  0.00     0.012 A 
ATOM     88  C   UNL A   1      45.635  27.795  27.538  1.00  0.00     0.148 A 
ATOM     89  C   UNL A   1      47.532  29.862  27.548  1.00  0.00     0.002 A 
ATOM     90  C   UNL A   1      46.960  27.535  27.211  1.00  0.00     0.091 A 
ATOM     91  F   UNL A   1      44.707  26.826  27.539  1.00  0.00    -0.205 F 
ATOM     92  C   UNL A   1      47.911  28.567  27.206  1.00  0.00     0.022 A 
BRANCH  90  93
ATOM     93  S   UNL A   1      47.536  25.864  26.894  1.00  0.00     0.127 S 
ATOM     94  O   UNL A   1      48.935  26.087  26.536  1.00  0.00    -0.237 OA
ATOM     95  O   UNL A   1      47.332  25.210  28.187  1.00  0.00    -0.237 OA
ATOM     96  O   UNL A   1      46.689  25.345  25.828  1.00  0.00    -0.744 OA
ENDBRANCH  90  93
ENDBRANCH  63  86
ENDBRANCH  37  38
ENDBRANCH  29  32
ENDBRANCH  27  28
ENDBRANCH  26  27
ENDBRANCH   1  26
TORSDOF 18
ENDMDL
MODEL 2
REMARK VINA RESULT:     -11.4      1.862      2.487
REMARK SMILES CC(C)[C@H](C)CNC(=O)N1CC(n2cc(C(=O)NCCCCNC(=O)c3ccc(-c4c5nc(c(-c6cccc(S(=O)(=O)[O-])c6F)c6ccc([nH]6)c(-c6cccc(S(=O)(=O)[O-])c6F)c6nc(c(-c7cccc(S(=O)(=O)[O-])c7F)c7ccc4[nH]7)C=C6)C=C5)cc3)nn2)C1
REMARK SMILES IDX 20 1 19 2 18 3 16 4 17 5 15 7 13 8 14 9 90 10 89 11 12 12
REMARK SMILES IDX 7 13 8 14 9 16 10 17 11 18 91 19 6 20 4 21 5 22 2 23 1 24
REMARK SMILES IDX 3 25 21 26 22 27 23 28 24 29 25 31 26 32 27 33 88 34 28 35
REMARK SMILES IDX 87 36 29 37 30 38 31 39 81 40 32 41 86 42 80 43 82 44 33 45
REMARK SMILES IDX 85 46 79 47 78 48 34 50 66 51 46 52 65 53 47 54 50 55 64 56
REMARK SMILES IDX 83 57 48 58 49 59 63 61 84 62 51 63 35 64 36 65 44 66 37 67
REMARK SMILES IDX 39 68 45 69 38 70 40 71 41 72 42 73 43 74 67 75 68 76 76 77
REMARK SMILES IDX 69 78 71 79 77 80 70 81 72 82 73 83 74 84 75 85 52 86 53 87
REMARK SMILES IDX 61 88 54 89 56 90 62 91 55 92 57 93 58 94 59 95 60 96
REMARK H PARENT 18 6 7 15 23 30 82 49 50 60
REMARK Flexibility Score: inf
ROOT
ATOM      1  C   UNL A   1      36.559  19.008  25.153  1.00  0.00     0.023 C 
ENDROOT
BRANCH   1   2
ATOM      2  C   UNL A   1      35.474  18.482  24.206  1.00  0.00     0.116 C 
BRANCH   2   3
ATOM      3  N   UNL A   1      34.302  18.027  24.928  1.00  0.00    -0.351 N 
ATOM      4  C   UNL A   1      33.143  18.662  25.296  1.00  0.00     0.273 C 
ATOM      5  O   UNL A   1      32.308  17.980  25.915  1.00  0.00    -0.267 OA
ATOM      6  H   UNL A   1      34.346  17.084  25.208  1.00  0.00     0.163 HD
BRANCH   4   7
ATOM      7  C   UNL A   1      32.887  20.065  24.995  1.00  0.00     0.170 A 
ATOM      8  N   UNL A   1      32.337  22.002  24.175  1.00  0.00    -0.245 N 
ATOM      9  C   UNL A   1      32.458  20.683  23.833  1.00  0.00     0.145 A 
ATOM     10  N   UNL A   1      32.747  22.224  25.427  1.00  0.00    -0.066 NA
ATOM     11  N   UNL A   1      33.108  21.055  25.935  1.00  0.00    -0.125 NA
BRANCH   8  12
ATOM     12  C   UNL A   1      31.818  23.000  23.296  1.00  0.00     0.148 C 
ATOM     13  N   UNL A   1      30.610  26.951  22.853  1.00  0.00    -0.338 N 
ATOM     14  C   UNL A   1      31.419  26.025  22.280  1.00  0.00     0.317 C 
ATOM     15  H   UNL A   1      30.032  27.442  22.226  1.00  0.00     0.165 HD
ATOM     16  O   UNL A   1      31.656  26.121  21.075  1.00  0.00    -0.249 OA
ATOM     17  N   UNL A   1      31.925  25.027  23.044  1.00  0.00    -0.320 N 
ATOM     18  C   UNL A   1      32.832  23.949  22.643  1.00  0.00     0.150 C 
ATOM     19  C   UNL A   1      31.314  24.222  24.091  1.00  0.00     0.150 C 
BRANCH  13  20
ATOM     20  C   UNL A   1      30.464  27.331  24.251  1.00  0.00     0.121 C 
BRANCH  20  21
ATOM     21  C   UNL A   1      31.720  28.053  24.788  1.00  0.00     0.008 C 
ATOM     22  C   UNL A   1      31.454  29.554  24.980  1.00  0.00     0.010 C 
BRANCH  21  23
ATOM     23  C   UNL A   1      32.265  27.364  26.074  1.00  0.00    -0.013 C 
ATOM     24  C   UNL A   1      33.790  27.459  26.179  1.00  0.00     0.008 C 
ATOM     25  C   UNL A   1      31.630  27.873  27.374  1.00  0.00     0.008 C 
ENDBRANCH  21  23
ENDBRANCH  20  21
ENDBRANCH  13  20
ENDBRANCH   8  12
ENDBRANCH   4   7
ENDBRANCH   2   3
ENDBRANCH   1   2
BRANCH   1  26
ATOM     26  C   UNL A   1      36.923  20.493  24.980  1.00  0.00     0.023 C 
BRANCH  26  27
ATOM     27  C   UNL A   1      38.381  20.846  25.268  1.00  0.00     0.116 C 
BRANCH  27  28
ATOM     28  N   UNL A   1      39.223  19.668  25.502  1.00  0.00    -0.352 N 
ATOM     29  C   UNL A   1      40.560  19.636  25.852  1.00  0.00     0.251 C 
ATOM     30  H   UNL A   1      38.783  18.795  25.399  1.00  0.00     0.163 HD
ATOM     31  O   UNL A   1      41.240  18.629  25.655  1.00  0.00    -0.269 OA
BRANCH  29  32
ATOM     32  C   UNL A   1      41.155  20.827  26.476  1.00  0.00     0.039 A 
ATOM     33  C   UNL A   1      41.732  21.847  25.717  1.00  0.00     0.014 A 
ATOM     34  C   UNL A   1      41.050  20.938  27.859  1.00  0.00     0.014 A 
ATOM     35  C   UNL A   1      42.111  23.026  26.355  1.00  0.00     0.010 A 
ATOM     36  C   UNL A   1      41.276  22.151  28.457  1.00  0.00     0.010 A 
ATOM     37  C   UNL A   1      41.852  23.186  27.726  1.00  0.00    -0.014 A 
BRANCH  37  38
ATOM     38  C   UNL A   1      42.082  24.470  28.385  1.00  0.00     0.031 A 
ATOM     39  C   UNL A   1      40.993  25.479  28.239  1.00  0.00     0.074 A 
ATOM     40  C   UNL A   1      43.097  24.680  29.253  1.00  0.00     0.049 A 
ATOM     41  N   UNL A   1      41.050  26.607  27.611  1.00  0.00    -0.248 NA
ATOM     42  C   UNL A   1      39.655  25.154  28.756  1.00  0.00     0.031 C 
ATOM     43  C   UNL A   1      44.079  23.713  29.761  1.00  0.00     0.029 A 
ATOM     44  N   UNL A   1      43.361  25.788  29.997  1.00  0.00    -0.354 N 
ATOM     45  C   UNL A   1      39.830  27.242  27.847  1.00  0.00     0.074 A 
ATOM     46  C   UNL A   1      38.958  26.233  28.391  1.00  0.00     0.031 C 
ATOM     47  C   UNL A   1      44.615  24.181  30.908  1.00  0.00     0.029 A 
ATOM     48  C   UNL A   1      44.167  25.545  31.104  1.00  0.00     0.049 A 
ATOM     49  H   UNL A   1      43.014  26.682  29.771  1.00  0.00     0.167 HD
ATOM     50  C   UNL A   1      39.710  28.599  27.791  1.00  0.00     0.034 A 
ATOM     51  C   UNL A   1      44.404  26.392  32.132  1.00  0.00     0.034 A 
ATOM     52  C   UNL A   1      40.859  29.207  27.168  1.00  0.00     0.049 A 
ATOM     53  C   UNL A   1      44.116  27.758  31.640  1.00  0.00     0.074 A 
ATOM     54  C   UNL A   1      41.503  29.063  25.954  1.00  0.00     0.029 A 
ATOM     55  N   UNL A   1      41.756  29.847  27.990  1.00  0.00    -0.354 N 
ATOM     56  N   UNL A   1      44.820  28.347  30.713  1.00  0.00    -0.248 NA
ATOM     57  C   UNL A   1      42.786  28.303  31.860  1.00  0.00     0.031 C 
ATOM     58  C   UNL A   1      42.891  29.136  26.274  1.00  0.00     0.029 A 
ATOM     59  C   UNL A   1      43.000  29.395  27.642  1.00  0.00     0.049 A 
ATOM     60  H   UNL A   1      41.544  30.505  28.691  1.00  0.00     0.167 HD
ATOM     61  C   UNL A   1      43.878  29.001  29.931  1.00  0.00     0.074 A 
ATOM     62  C   UNL A   1      42.665  29.035  30.749  1.00  0.00     0.031 C 
ATOM     63  C   UNL A   1      44.071  29.189  28.591  1.00  0.00     0.034 A 
BRANCH  50  64
ATOM     64  C   UNL A   1      38.744  29.434  28.603  1.00  0.00     0.023 A 
ATOM     65  C   UNL A   1      38.776  29.279  30.010  1.00  0.00     0.012 A 
ATOM     66  C   UNL A   1      37.639  30.129  28.064  1.00  0.00     0.148 A 
ATOM     67  C   UNL A   1      37.732  29.727  30.826  1.00  0.00     0.002 A 
ATOM     68  C   UNL A   1      36.643  30.645  28.888  1.00  0.00     0.091 A 
ATOM     69  F   UNL A   1      37.461  30.180  26.742  1.00  0.00    -0.205 F 
ATOM     70  C   UNL A   1      36.665  30.416  30.265  1.00  0.00     0.022 A 
BRANCH  68  71
ATOM     71  S   UNL A   1      35.271  31.591  28.218  1.00  0.00     0.127 S 
ATOM     72  O   UNL A   1      34.536  31.937  29.431  1.00  0.00    -0.237 OA
ATOM     73  O   UNL A   1      35.962  32.706  27.571  1.00  0.00    -0.237 OA
ATOM     74  O   UNL A   1      34.599  30.689  27.290  1.00  0.00    -0.744 OA
ENDBRANCH  68  71
ENDBRANCH  50  64
BRANCH  51  75
ATOM     75  C   UNL A   1      44.641  26.095  33.563  1.00  0.00     0.023 A 
ATOM     76  C   UNL A   1      45.960  26.032  34.051  1.00  0.00     0.012 A 
ATOM     77  C   UNL A   1      43.587  26.150  34.502  1.00  0.00     0.148 A 
ATOM     78  C   UNL A   1      46.225  26.065  35.425  1.00  0.00     0.002 A 
ATOM     79  C   UNL A   1      43.854  26.175  35.867  1.00  0.00     0.091 A 
ATOM     80  F   UNL A   1      42.329  26.277  34.058  1.00  0.00    -0.205 F 
ATOM     81  C   UNL A   1      45.173  26.146  36.333  1.00  0.00     0.022 A 
BRANCH  79  82
ATOM     82  S   UNL A   1      42.541  26.299  37.090  1.00  0.00     0.127 S 
ATOM     83  O   UNL A   1      41.900  27.562  36.721  1.00  0.00    -0.237 OA
ATOM     84  O   UNL A   1      41.753  25.104  36.807  1.00  0.00    -0.237 OA
ATOM     85  O   UNL A   1      43.216  26.327  38.382  1.00  0.00    -0.744 OA
ENDBRANCH  79  82
ENDBRANCH  51  75
BRANCH  63  86
ATOM     86  C   UNL A   1      45.426  28.881  28.001  1.00  0.00     0.023 A 
ATOM     87  C   UNL A   1      46.497  29.799  28.056  1.00  0.00     0.012 A 
ATOM     88  C   UNL A   1      45.683  27.569  27.568  1.00  0.00     0.148 A 
ATOM     89  C   UNL A   1      47.786  29.423  27.670  1.00  0.00     0.002 A 
ATOM     90  C   UNL A   1      46.976  27.186  27.232  1.00  0.00     0.091 A 
ATOM     91  F   UNL A   1      44.659  26.704  27.526  1.00  0.00    -0.205 F 
ATOM     92  C   UNL A   1      48.029  28.112  27.273  1.00  0.00     0.022 A 
BRANCH  90  93
ATOM     93  S   UNL A   1      47.376  25.479  26.843  1.00  0.00     0.127 S 
ATOM     94  O   UNL A   1      47.057  24.799  28.095  1.00  0.00    -0.237 OA
ATOM     95  O   UNL A   1      46.463  25.185  25.737  1.00  0.00    -0.237 OA
ATOM     96  O   UNL A   1      48.784  25.474  26.466  1.00  0.00    -0.744 OA
ENDBRANCH  90  93
ENDBRANCH  63  86
ENDBRANCH  37  38
ENDBRANCH  29  32
ENDBRANCH  27  28
ENDBRANCH  26  27
ENDBRANCH   1  26
TORSDOF 18
ENDMDL
MODEL 3
REMARK VINA RESULT:     -11.3      1.872      2.370
REMARK SMILES CC(C)[C@H](C)CNC(=O)N1CC(n2cc(C(=O)NCCCCNC(=O)c3ccc(-c4c5nc(c(-c6cccc(S(=O)(=O)[O-])c6F)c6ccc([nH]6)c(-c6cccc(S(=O)(=O)[O-])c6F)c6nc(c(-c7cccc(S(=O)(=O)[O-])c7F)c7ccc4[nH]7)C=C6)C=C5)cc3)nn2)C1
REMARK SMILES IDX 20 1 19 2 18 3 16 4 17 5 15 7 13 8 14 9 90 10 89 11 12 12
REMARK SMILES IDX 7 13 8 14 9 16 10 17 11 18 91 19 6 20 4 21 5 22 2 23 1 24
REMARK SMILES IDX 3 25 21 26 22 27 23 28 24 29 25 31 26 32 27 33 88 34 28 35
REMARK SMILES IDX 87 36 29 37 30 38 31 39 81 40 32 41 86 42 80 43 82 44 33 45
REMARK SMILES IDX 85 46 79 47 78 48 34 50 66 51 46 52 65 53 47 54 50 55 64 56
REMARK SMILES IDX 83 57 48 58 49 59 63 61 84 62 51 63 35 64 36 65 44 66 37 67
REMARK SMILES IDX 39 68 45 69 38 70 40 71 41 72 42 73 43 74 67 75 68 76 76 77
REMARK SMILES IDX 69 78 71 79 77 80 70 81 72 82 73 83 74 84 75 85 52 86 53 87
REMARK SMILES IDX 61 88 54 89 56 90 62 91 55 92 57 93 58 94 59 95 60 96
REMARK H PARENT 18 6 7 15 23 30 82 49 50 60
REMARK Flexibility Score: inf
ROOT
ATOM      1  C   UNL A   1      36.165  19.701  25.002  1.00  0.00     0.023 C 
ENDROOT
BRANCH   1   2
ATOM      2  C   UNL A   1      35.557  18.374  24.534  1.00  0.00     0.116 C 
BRANCH   2   3
ATOM      3  N   UNL A   1      34.305  18.086  25.207  1.00  0.00    -0.351 N 
ATOM      4  C   UNL A   1      33.039  18.590  25.050  1.00  0.00     0.273 C 
ATOM      5  O   UNL A   1      32.159  18.121  25.792  1.00  0.00    -0.267 OA
ATOM      6  H   UNL A   1      34.378  17.400  25.908  1.00  0.00     0.163 HD
BRANCH   4   7
ATOM      7  C   UNL A   1      32.721  19.628  24.078  1.00  0.00     0.170 A 
ATOM      8  N   UNL A   1      32.446  21.442  22.910  1.00  0.00    -0.245 N 
ATOM      9  C   UNL A   1      32.830  21.006  24.148  1.00  0.00     0.145 A 
ATOM     10  N   UNL A   1      32.033  20.430  22.141  1.00  0.00    -0.066 NA
ATOM     11  N   UNL A   1      32.172  19.317  22.847  1.00  0.00    -0.125 NA
BRANCH   8  12
ATOM     12  C   UNL A   1      32.504  22.808  22.503  1.00  0.00     0.148 C 
ATOM     13  N   UNL A   1      32.844  26.775  23.691  1.00  0.00    -0.338 N 
ATOM     14  C   UNL A   1      33.393  25.881  22.831  1.00  0.00     0.317 C 
ATOM     15  H   UNL A   1      32.620  27.648  23.296  1.00  0.00     0.165 HD
ATOM     16  O   UNL A   1      33.906  26.305  21.795  1.00  0.00    -0.249 OA
ATOM     17  N   UNL A   1      33.349  24.561  23.133  1.00  0.00    -0.320 N 
ATOM     18  C   UNL A   1      33.897  23.437  22.371  1.00  0.00     0.150 C 
ATOM     19  C   UNL A   1      32.286  23.748  23.707  1.00  0.00     0.150 C 
BRANCH  13  20
ATOM     20  C   UNL A   1      32.535  26.644  25.108  1.00  0.00     0.121 C 
BRANCH  20  21
ATOM     21  C   UNL A   1      31.454  27.651  25.559  1.00  0.00     0.008 C 
ATOM     22  C   UNL A   1      31.428  27.785  27.089  1.00  0.00     0.010 C 
BRANCH  21  23
ATOM     23  C   UNL A   1      31.614  29.020  24.833  1.00  0.00    -0.013 C 
ATOM     24  C   UNL A   1      30.465  29.296  23.859  1.00  0.00     0.008 C 
ATOM     25  C   UNL A   1      31.781  30.215  25.779  1.00  0.00     0.008 C 
ENDBRANCH  21  23
ENDBRANCH  20  21
ENDBRANCH  13  20
ENDBRANCH   8  12
ENDBRANCH   4   7
ENDBRANCH   2   3
ENDBRANCH   1   2
BRANCH   1  26
ATOM     26  C   UNL A   1      37.609  19.966  24.542  1.00  0.00     0.023 C 
BRANCH  26  27
ATOM     27  C   UNL A   1      38.620  20.199  25.663  1.00  0.00     0.116 C 
BRANCH  27  28
ATOM     28  N   UNL A   1      39.636  19.145  25.751  1.00  0.00    -0.352 N 
ATOM     29  C   UNL A   1      40.997  19.292  25.940  1.00  0.00     0.251 C 
ATOM     30  H   UNL A   1      39.309  18.221  25.666  1.00  0.00     0.163 HD
ATOM     31  O   UNL A   1      41.779  18.393  25.626  1.00  0.00    -0.269 OA
BRANCH  29  32
ATOM     32  C   UNL A   1      41.496  20.540  26.536  1.00  0.00     0.039 A 
ATOM     33  C   UNL A   1      41.947  21.603  25.751  1.00  0.00     0.014 A 
ATOM     34  C   UNL A   1      41.430  20.652  27.921  1.00  0.00     0.014 A 
ATOM     35  C   UNL A   1      42.233  22.819  26.368  1.00  0.00     0.010 A 
ATOM     36  C   UNL A   1      41.559  21.887  28.504  1.00  0.00     0.010 A 
ATOM     37  C   UNL A   1      42.007  22.965  27.747  1.00  0.00    -0.014 A 
BRANCH  37  38
ATOM     38  C   UNL A   1      42.135  24.272  28.390  1.00  0.00     0.031 A 
ATOM     39  C   UNL A   1      40.988  25.205  28.199  1.00  0.00     0.074 A 
ATOM     40  C   UNL A   1      43.111  24.560  29.281  1.00  0.00     0.049 A 
ATOM     41  N   UNL A   1      40.990  26.326  27.553  1.00  0.00    -0.248 NA
ATOM     42  C   UNL A   1      39.661  24.803  28.685  1.00  0.00     0.031 C 
ATOM     43  C   UNL A   1      44.139  23.666  29.831  1.00  0.00     0.029 A 
ATOM     44  N   UNL A   1      43.282  25.694  30.013  1.00  0.00    -0.354 N 
ATOM     45  C   UNL A   1      39.725  26.883  27.746  1.00  0.00     0.074 A 
ATOM     46  C   UNL A   1      38.905  25.828  28.284  1.00  0.00     0.031 C 
ATOM     47  C   UNL A   1      44.612  24.185  30.984  1.00  0.00     0.029 A 
ATOM     48  C   UNL A   1      44.071  25.521  31.145  1.00  0.00     0.049 A 
ATOM     49  H   UNL A   1      42.885  26.560  29.763  1.00  0.00     0.167 HD
ATOM     50  C   UNL A   1      39.520  28.228  27.664  1.00  0.00     0.034 A 
ATOM     51  C   UNL A   1      44.225  26.396  32.165  1.00  0.00     0.034 A 
ATOM     52  C   UNL A   1      40.644  28.900  27.061  1.00  0.00     0.049 A 
ATOM     53  C   UNL A   1      43.864  27.734  31.642  1.00  0.00     0.074 A 
ATOM     54  C   UNL A   1      41.330  28.780  25.868  1.00  0.00     0.029 A 
ATOM     55  N   UNL A   1      41.475  29.610  27.896  1.00  0.00    -0.354 N 
ATOM     56  N   UNL A   1      44.554  28.353  30.724  1.00  0.00    -0.248 NA
ATOM     57  C   UNL A   1      42.496  28.194  31.818  1.00  0.00     0.031 C 
ATOM     58  C   UNL A   1      42.700  28.948  26.223  1.00  0.00     0.029 A 
ATOM     59  C   UNL A   1      42.755  29.234  27.589  1.00  0.00     0.049 A 
ATOM     60  H   UNL A   1      41.202  30.263  28.580  1.00  0.00     0.167 HD
ATOM     61  C   UNL A   1      43.593  28.933  29.906  1.00  0.00     0.074 A 
ATOM     62  C   UNL A   1      42.359  28.900  30.692  1.00  0.00     0.031 C 
ATOM     63  C   UNL A   1      43.811  29.112  28.569  1.00  0.00     0.034 A 
BRANCH  50  64
ATOM     64  C   UNL A   1      38.480  29.012  28.436  1.00  0.00     0.023 A 
ATOM     65  C   UNL A   1      37.745  29.990  27.725  1.00  0.00     0.012 A 
ATOM     66  C   UNL A   1      38.388  29.045  29.845  1.00  0.00     0.148 A 
ATOM     67  C   UNL A   1      37.016  30.988  28.381  1.00  0.00     0.002 A 
ATOM     68  C   UNL A   1      37.596  29.990  30.491  1.00  0.00     0.091 A 
ATOM     69  F   UNL A   1      39.171  28.257  30.586  1.00  0.00    -0.205 F 
ATOM     70  C   UNL A   1      36.937  30.985  29.767  1.00  0.00     0.022 A 
BRANCH  68  71
ATOM     71  S   UNL A   1      37.415  29.995  32.279  1.00  0.00     0.127 S 
ATOM     72  O   UNL A   1      38.712  30.513  32.701  1.00  0.00    -0.237 OA
ATOM     73  O   UNL A   1      36.289  30.911  32.464  1.00  0.00    -0.237 OA
ATOM     74  O   UNL A   1      37.123  28.612  32.639  1.00  0.00    -0.744 OA
ENDBRANCH  68  71
ENDBRANCH  50  64
BRANCH  51  75
ATOM     75  C   UNL A   1      44.441  26.137  33.606  1.00  0.00     0.023 A 
ATOM     76  C   UNL A   1      43.404  25.577  34.375  1.00  0.00     0.012 A 
ATOM     77  C   UNL A   1      45.738  26.175  34.165  1.00  0.00     0.148 A 
ATOM     78  C   UNL A   1      43.655  25.034  35.641  1.00  0.00     0.002 A 
ATOM     79  C   UNL A   1      45.983  25.641  35.426  1.00  0.00     0.091 A 
ATOM     80  F   UNL A   1      46.751  26.644  33.423  1.00  0.00    -0.205 F 
ATOM     81  C   UNL A   1      44.946  25.057  36.163  1.00  0.00     0.022 A 
BRANCH  79  82
ATOM     82  S   UNL A   1      47.630  25.622  36.148  1.00  0.00     0.127 S 
ATOM     83  O   UNL A   1      48.008  27.034  36.080  1.00  0.00    -0.237 OA
ATOM     84  O   UNL A   1      47.362  25.120  37.492  1.00  0.00    -0.237 OA
ATOM     85  O   UNL A   1      48.420  24.750  35.287  1.00  0.00    -0.744 OA
ENDBRANCH  79  82
ENDBRANCH  51  75
BRANCH  63  86
ATOM     86  C   UNL A   1      45.198  28.884  28.021  1.00  0.00     0.023 A 
ATOM     87  C   UNL A   1      46.195  29.882  28.058  1.00  0.00     0.012 A 
ATOM     88  C   UNL A   1      45.563  27.579  27.650  1.00  0.00     0.148 A 
ATOM     89  C   UNL A   1      47.518  29.590  27.715  1.00  0.00     0.002 A 
ATOM     90  C   UNL A   1      46.889  27.281  27.357  1.00  0.00     0.091 A 
ATOM     91  F   UNL A   1      44.608  26.637  27.624  1.00  0.00    -0.205 F 
ATOM     92  C   UNL A   1      47.868  28.285  27.379  1.00  0.00     0.022 A 
BRANCH  90  93
ATOM     93  S   UNL A   1      47.425  25.595  27.050  1.00  0.00     0.127 S 
ATOM     94  O   UNL A   1      48.853  25.770  26.802  1.00  0.00    -0.237 OA
ATOM     95  O   UNL A   1      47.099  24.927  28.312  1.00  0.00    -0.237 OA
ATOM     96  O   UNL A   1      46.641  25.127  25.914  1.00  0.00    -0.744 OA
ENDBRANCH  90  93
ENDBRANCH  63  86
ENDBRANCH  37  38
ENDBRANCH  29  32
ENDBRANCH  27  28
ENDBRANCH  26  27
ENDBRANCH   1  26
TORSDOF 18
ENDMDL
