MODEL 1
REMARK VINA RESULT:     -12.6      0.000      0.000
REMARK SMILES Cc1cc2c(c(C)c1Cl)C=C(C(=O)NCCCCNC(=O)c1ccc(-c3c4nc(c(-c5cccc(S(=O)(=O)[O-])c5F)c5ccc([nH]5)c(-c5cccc(S(=O)(=O)[O-])c5F)c5nc(c(-c6cccc(S(=O)(=O)[O-])c6F)c6ccc3[nH]6)C=C5)C=C4)cc1)[C@@H](C(F)(F)F)O2
REMARK SMILES IDX 17 1 16 2 15 3 14 4 12 5 13 6 11 8 1 9 2 10 3 11 8 12 4 13
REMARK SMILES IDX 6 14 9 15 5 16 90 17 7 18 10 19 85 20 86 21 87 22 88 23
REMARK SMILES IDX 89 24 18 25 19 26 20 27 21 29 22 30 23 31 84 32 24 33 83 34
REMARK SMILES IDX 25 35 26 36 27 37 77 38 28 39 82 40 76 41 78 42 29 43 81 44
REMARK SMILES IDX 75 45 74 46 30 48 62 49 42 50 61 51 43 52 46 53 60 54 79 55
REMARK SMILES IDX 44 56 45 57 59 59 80 60 47 61 31 62 32 63 40 64 33 65 35 66
REMARK SMILES IDX 41 67 34 68 36 69 37 70 38 71 39 72 63 73 64 74 72 75 65 76
REMARK SMILES IDX 67 77 73 78 66 79 68 80 69 81 70 82 71 83 48 84 49 85 57 86
REMARK SMILES IDX 50 87 52 88 58 89 51 90 53 91 54 92 55 93 56 94
REMARK H PARENT 14 7 19 28 78 47 46 58
REMARK Flexibility Score: inf
ROOT
ATOM      1  C   UNL A   1      32.487  29.486  24.780  1.00  0.00     0.023 C 
ENDROOT
BRANCH   1   2
ATOM      2  C   UNL A   1      33.609  28.614  24.209  1.00  0.00     0.023 C 
BRANCH   2   3
ATOM      3  C   UNL A   1      33.312  27.117  24.234  1.00  0.00     0.116 C 
BRANCH   3   4
ATOM      4  N   UNL A   1      32.423  26.757  25.324  1.00  0.00    -0.352 N 
ATOM      5  C   UNL A   1      32.029  25.622  25.944  1.00  0.00     0.251 C 
ATOM      6  O   UNL A   1      31.227  25.778  26.872  1.00  0.00    -0.270 OA
ATOM      7  H   UNL A   1      31.993  27.551  25.717  1.00  0.00     0.163 HD
BRANCH   5   8
ATOM      8  C   UNL A   1      32.486  24.241  25.598  1.00  0.00     0.067 C 
ATOM      9  C   UNL A   1      35.684  18.649  24.626  1.00  0.00     0.046 C 
ATOM     10  C   UNL A   1      35.255  20.060  24.921  1.00  0.00    -0.028 A 
ATOM     11  C   UNL A   1      33.891  20.363  24.901  1.00  0.00     0.052 A 
ATOM     12  C   UNL A   1      36.175  21.080  25.239  1.00  0.00     0.047 A 
ATOM     13  C   UNL A   1      33.451  21.653  25.176  1.00  0.00     0.128 A 
ATOM     14  C   UNL A   1      35.740  22.399  25.522  1.00  0.00    -0.021 A 
ATOM     15  Cl  UNL A   1      37.866  20.675  25.295  1.00  0.00    -0.084 Cl
ATOM     16  C   UNL A   1      34.350  22.674  25.497  1.00  0.00     0.022 A 
ATOM     17  O   UNL A   1      32.095  21.826  25.158  1.00  0.00    -0.475 OA
ATOM     18  C   UNL A   1      36.711  23.505  25.863  1.00  0.00     0.047 C 
ATOM     19  C   UNL A   1      33.786  23.984  25.838  1.00  0.00     0.026 C 
ATOM     20  C   UNL A   1      31.615  23.187  24.987  1.00  0.00     0.314 C 
BRANCH  20  21
ATOM     21  C   UNL A   1      31.329  23.439  23.495  1.00  0.00     0.429 C 
ATOM     22  F   UNL A   1      32.398  24.031  22.903  1.00  0.00    -0.167 F 
ATOM     23  F   UNL A   1      31.094  22.298  22.808  1.00  0.00    -0.167 F 
ATOM     24  F   UNL A   1      30.262  24.246  23.299  1.00  0.00    -0.167 F 
ENDBRANCH  20  21
ENDBRANCH   5   8
ENDBRANCH   3   4
ENDBRANCH   2   3
ENDBRANCH   1   2
BRANCH   1  25
ATOM     25  C   UNL A   1      32.605  29.818  26.267  1.00  0.00     0.116 C 
BRANCH  25  26
ATOM     26  N   UNL A   1      32.403  31.229  26.572  1.00  0.00    -0.352 N 
ATOM     27  C   UNL A   1      33.233  32.068  27.277  1.00  0.00     0.251 C 
ATOM     28  H   UNL A   1      31.570  31.630  26.232  1.00  0.00     0.163 HD
ATOM     29  O   UNL A   1      32.897  33.222  27.521  1.00  0.00    -0.269 OA
BRANCH  27  30
ATOM     30  C   UNL A   1      34.518  31.538  27.770  1.00  0.00     0.039 A 
ATOM     31  C   UNL A   1      35.570  32.426  28.000  1.00  0.00     0.014 A 
ATOM     32  C   UNL A   1      34.643  30.181  28.083  1.00  0.00     0.014 A 
ATOM     33  C   UNL A   1      36.733  31.963  28.616  1.00  0.00     0.010 A 
ATOM     34  C   UNL A   1      35.778  29.735  28.751  1.00  0.00     0.010 A 
ATOM     35  C   UNL A   1      36.830  30.624  29.027  1.00  0.00    -0.014 A 
BRANCH  35  36
ATOM     36  C   UNL A   1      38.016  30.134  29.767  1.00  0.00     0.031 A 
ATOM     37  C   UNL A   1      38.285  30.622  31.161  1.00  0.00     0.074 A 
ATOM     38  C   UNL A   1      38.890  29.311  29.153  1.00  0.00     0.049 A 
ATOM     39  N   UNL A   1      39.287  30.339  31.951  1.00  0.00    -0.248 NA
ATOM     40  C   UNL A   1      37.316  31.571  31.734  1.00  0.00     0.031 C 
ATOM     41  C   UNL A   1      38.771  28.832  27.773  1.00  0.00     0.029 A 
ATOM     42  N   UNL A   1      40.057  28.748  29.600  1.00  0.00    -0.354 N 
ATOM     43  C   UNL A   1      39.084  31.090  33.101  1.00  0.00     0.074 A 
ATOM     44  C   UNL A   1      37.887  31.873  32.892  1.00  0.00     0.031 C 
ATOM     45  C   UNL A   1      39.814  28.034  27.496  1.00  0.00     0.029 A 
ATOM     46  C   UNL A   1      40.687  27.962  28.663  1.00  0.00     0.049 A 
ATOM     47  H   UNL A   1      40.412  28.895  30.507  1.00  0.00     0.167 HD
ATOM     48  C   UNL A   1      39.805  31.094  34.246  1.00  0.00     0.034 A 
ATOM     49  C   UNL A   1      41.830  27.254  28.743  1.00  0.00     0.034 A 
ATOM     50  C   UNL A   1      40.964  30.274  34.468  1.00  0.00     0.049 A 
ATOM     51  C   UNL A   1      42.596  27.248  30.039  1.00  0.00     0.074 A 
ATOM     52  C   UNL A   1      41.718  30.148  35.620  1.00  0.00     0.029 A 
ATOM     53  N   UNL A   1      41.533  29.436  33.521  1.00  0.00    -0.354 N 
ATOM     54  N   UNL A   1      42.305  27.848  31.168  1.00  0.00    -0.248 NA
ATOM     55  C   UNL A   1      43.827  26.446  30.085  1.00  0.00     0.031 C 
ATOM     56  C   UNL A   1      42.747  29.236  35.368  1.00  0.00     0.029 A 
ATOM     57  C   UNL A   1      42.630  28.790  34.061  1.00  0.00     0.049 A 
ATOM     58  H   UNL A   1      41.204  29.319  32.601  1.00  0.00     0.167 HD
ATOM     59  C   UNL A   1      43.301  27.477  32.066  1.00  0.00     0.074 A 
ATOM     60  C   UNL A   1      44.190  26.581  31.355  1.00  0.00     0.031 C 
ATOM     61  C   UNL A   1      43.473  27.859  33.355  1.00  0.00     0.034 A 
BRANCH  48  62
ATOM     62  C   UNL A   1      39.310  31.953  35.378  1.00  0.00     0.023 A 
ATOM     63  C   UNL A   1      38.373  31.413  36.284  1.00  0.00     0.012 A 
ATOM     64  C   UNL A   1      39.800  33.256  35.583  1.00  0.00     0.148 A 
ATOM     65  C   UNL A   1      37.913  32.166  37.363  1.00  0.00     0.002 A 
ATOM     66  C   UNL A   1      39.365  33.987  36.683  1.00  0.00     0.091 A 
ATOM     67  F   UNL A   1      40.670  33.760  34.696  1.00  0.00    -0.205 F 
ATOM     68  C   UNL A   1      38.415  33.447  37.568  1.00  0.00     0.022 A 
BRANCH  66  69
ATOM     69  S   UNL A   1      40.005  35.619  37.075  1.00  0.00     0.127 S 
ATOM     70  O   UNL A   1      41.434  35.347  37.225  1.00  0.00    -0.237 OA
ATOM     71  O   UNL A   1      39.653  36.385  35.878  1.00  0.00    -0.237 OA
ATOM     72  O   UNL A   1      39.315  36.038  38.287  1.00  0.00    -0.744 OA
ENDBRANCH  66  69
ENDBRANCH  48  62
BRANCH  49  73
ATOM     73  C   UNL A   1      42.256  26.410  27.590  1.00  0.00     0.023 A 
ATOM     74  C   UNL A   1      43.127  26.960  26.629  1.00  0.00     0.012 A 
ATOM     75  C   UNL A   1      41.865  25.062  27.471  1.00  0.00     0.148 A 
ATOM     76  C   UNL A   1      43.590  26.188  25.563  1.00  0.00     0.002 A 
ATOM     77  C   UNL A   1      42.371  24.284  26.434  1.00  0.00     0.091 A 
ATOM     78  F   UNL A   1      41.024  24.561  28.387  1.00  0.00    -0.205 F 
ATOM     79  C   UNL A   1      43.223  24.849  25.471  1.00  0.00     0.022 A 
BRANCH  77  80
ATOM     80  S   UNL A   1      42.062  22.518  26.316  1.00  0.00     0.127 S 
ATOM     81  O   UNL A   1      42.657  22.026  27.555  1.00  0.00    -0.237 OA
ATOM     82  O   UNL A   1      40.600  22.469  26.272  1.00  0.00    -0.237 OA
ATOM     83  O   UNL A   1      42.712  22.089  25.085  1.00  0.00    -0.744 OA
ENDBRANCH  77  80
ENDBRANCH  49  73
BRANCH  61  84
ATOM     84  C   UNL A   1      44.666  27.319  34.097  1.00  0.00     0.023 A 
ATOM     85  C   UNL A   1      45.871  28.047  34.089  1.00  0.00     0.012 A 
ATOM     86  C   UNL A   1      44.558  26.164  34.898  1.00  0.00     0.148 A 
ATOM     87  C   UNL A   1      46.956  27.630  34.857  1.00  0.00     0.002 A 
ATOM     88  C   UNL A   1      45.630  25.778  35.694  1.00  0.00     0.091 A 
ATOM     89  F   UNL A   1      43.408  25.474  34.877  1.00  0.00    -0.205 F 
ATOM     90  C   UNL A   1      46.831  26.505  35.669  1.00  0.00     0.022 A 
BRANCH  88  91
ATOM     91  S   UNL A   1      45.524  24.402  36.846  1.00  0.00     0.127 S 
ATOM     92  O   UNL A   1      44.427  24.825  37.714  1.00  0.00    -0.237 OA
ATOM     93  O   UNL A   1      45.205  23.279  35.964  1.00  0.00    -0.237 OA
ATOM     94  O   UNL A   1      46.831  24.314  37.483  1.00  0.00    -0.744 OA
ENDBRANCH  88  91
ENDBRANCH  61  84
ENDBRANCH  35  36
ENDBRANCH  27  30
ENDBRANCH  25  26
ENDBRANCH   1  25
TORSDOF 15
ENDMDL
MODEL 2
REMARK VINA RESULT:     -12.5      4.869      9.951
REMARK SMILES Cc1cc2c(c(C)c1Cl)C=C(C(=O)NCCCCNC(=O)c1ccc(-c3c4nc(c(-c5cccc(S(=O)(=O)[O-])c5F)c5ccc([nH]5)c(-c5cccc(S(=O)(=O)[O-])c5F)c5nc(c(-c6cccc(S(=O)(=O)[O-])c6F)c6ccc3[nH]6)C=C5)C=C4)cc1)[C@@H](C(F)(F)F)O2
REMARK SMILES IDX 17 1 16 2 15 3 14 4 12 5 13 6 11 8 1 9 2 10 3 11 8 12 4 13
REMARK SMILES IDX 6 14 9 15 5 16 90 17 7 18 10 19 85 20 86 21 87 22 88 23
REMARK SMILES IDX 89 24 18 25 19 26 20 27 21 29 22 30 23 31 84 32 24 33 83 34
REMARK SMILES IDX 25 35 26 36 27 37 77 38 28 39 82 40 76 41 78 42 29 43 81 44
REMARK SMILES IDX 75 45 74 46 30 48 62 49 42 50 61 51 43 52 46 53 60 54 79 55
REMARK SMILES IDX 44 56 45 57 59 59 80 60 47 61 31 62 32 63 40 64 33 65 35 66
REMARK SMILES IDX 41 67 34 68 36 69 37 70 38 71 39 72 63 73 64 74 72 75 65 76
REMARK SMILES IDX 67 77 73 78 66 79 68 80 69 81 70 82 71 83 48 84 49 85 57 86
REMARK SMILES IDX 50 87 52 88 58 89 51 90 53 91 54 92 55 93 56 94
REMARK H PARENT 14 7 19 28 78 47 46 58
REMARK Flexibility Score: inf
ROOT
ATOM      1  C   UNL A   1      35.520  21.337  24.919  1.00  0.00     0.023 C 
ENDROOT
BRANCH   1   2
ATOM      2  C   UNL A   1      34.517  20.697  25.882  1.00  0.00     0.023 C 
BRANCH   2   3
ATOM      3  C   UNL A   1      34.398  21.409  27.226  1.00  0.00     0.116 C 
BRANCH   3   4
ATOM      4  N   UNL A   1      33.033  21.813  27.509  1.00  0.00    -0.352 N 
ATOM      5  C   UNL A   1      32.187  22.788  27.106  1.00  0.00     0.251 C 
ATOM      6  O   UNL A   1      31.062  22.757  27.619  1.00  0.00    -0.270 OA
ATOM      7  H   UNL A   1      32.610  21.218  28.169  1.00  0.00     0.163 HD
BRANCH   5   8
ATOM      8  C   UNL A   1      32.508  23.860  26.115  1.00  0.00     0.067 C 
ATOM      9  C   UNL A   1      33.624  29.385  22.847  1.00  0.00     0.046 C 
ATOM     10  C   UNL A   1      33.237  28.319  23.835  1.00  0.00    -0.028 A 
ATOM     11  C   UNL A   1      33.571  26.991  23.553  1.00  0.00     0.052 A 
ATOM     12  C   UNL A   1      32.573  28.612  25.044  1.00  0.00     0.047 A 
ATOM     13  C   UNL A   1      33.239  25.975  24.443  1.00  0.00     0.128 A 
ATOM     14  C   UNL A   1      32.230  27.586  25.960  1.00  0.00    -0.021 A 
ATOM     15  Cl  UNL A   1      32.199  30.274  25.396  1.00  0.00    -0.084 Cl
ATOM     16  C   UNL A   1      32.585  26.250  25.647  1.00  0.00     0.022 A 
ATOM     17  O   UNL A   1      33.642  24.722  24.077  1.00  0.00    -0.475 OA
ATOM     18  C   UNL A   1      31.517  27.881  27.259  1.00  0.00     0.047 C 
ATOM     19  C   UNL A   1      32.338  25.123  26.550  1.00  0.00     0.026 C 
ATOM     20  C   UNL A   1      32.953  23.608  24.707  1.00  0.00     0.314 C 
BRANCH  20  21
ATOM     21  C   UNL A   1      31.805  23.141  23.792  1.00  0.00     0.429 C 
ATOM     22  F   UNL A   1      32.163  23.259  22.488  1.00  0.00    -0.167 F 
ATOM     23  F   UNL A   1      31.479  21.842  23.984  1.00  0.00    -0.167 F 
ATOM     24  F   UNL A   1      30.674  23.862  23.966  1.00  0.00    -0.167 F 
ENDBRANCH  20  21
ENDBRANCH   5   8
ENDBRANCH   3   4
ENDBRANCH   2   3
ENDBRANCH   1   2
BRANCH   1  25
ATOM     25  C   UNL A   1      36.821  21.825  25.553  1.00  0.00     0.116 C 
BRANCH  25  26
ATOM     26  N   UNL A   1      37.862  20.807  25.619  1.00  0.00    -0.352 N 
ATOM     27  C   UNL A   1      39.153  20.946  26.068  1.00  0.00     0.251 C 
ATOM     28  H   UNL A   1      37.609  19.910  25.302  1.00  0.00     0.163 HD
ATOM     29  O   UNL A   1      39.946  20.013  25.996  1.00  0.00    -0.269 OA
BRANCH  27  30
ATOM     30  C   UNL A   1      39.578  22.254  26.601  1.00  0.00     0.039 A 
ATOM     31  C   UNL A   1      40.582  22.294  27.569  1.00  0.00     0.014 A 
ATOM     32  C   UNL A   1      39.039  23.433  26.076  1.00  0.00     0.014 A 
ATOM     33  C   UNL A   1      41.103  23.528  27.962  1.00  0.00     0.010 A 
ATOM     34  C   UNL A   1      39.601  24.656  26.425  1.00  0.00     0.010 A 
ATOM     35  C   UNL A   1      40.641  24.712  27.366  1.00  0.00    -0.014 A 
BRANCH  35  36
ATOM     36  C   UNL A   1      41.246  26.023  27.699  1.00  0.00     0.031 A 
ATOM     37  C   UNL A   1      42.663  26.318  27.303  1.00  0.00     0.074 A 
ATOM     38  C   UNL A   1      40.542  26.914  28.426  1.00  0.00     0.049 A 
ATOM     39  N   UNL A   1      43.376  27.388  27.539  1.00  0.00    -0.248 NA
ATOM     40  C   UNL A   1      43.383  25.265  26.569  1.00  0.00     0.031 C 
ATOM     41  C   UNL A   1      39.183  26.706  28.932  1.00  0.00     0.029 A 
ATOM     42  N   UNL A   1      40.877  28.164  28.881  1.00  0.00    -0.354 N 
ATOM     43  C   UNL A   1      44.632  27.130  27.004  1.00  0.00     0.074 A 
ATOM     44  C   UNL A   1      44.598  25.787  26.470  1.00  0.00     0.031 C 
ATOM     45  C   UNL A   1      38.796  27.797  29.612  1.00  0.00     0.029 A 
ATOM     46  C   UNL A   1      39.883  28.772  29.611  1.00  0.00     0.049 A 
ATOM     47  H   UNL A   1      41.749  28.586  28.703  1.00  0.00     0.167 HD
ATOM     48  C   UNL A   1      45.703  27.953  26.927  1.00  0.00     0.034 A 
ATOM     49  C   UNL A   1      39.847  29.983  30.201  1.00  0.00     0.034 A 
ATOM     50  C   UNL A   1      45.713  29.305  27.412  1.00  0.00     0.049 A 
ATOM     51  C   UNL A   1      41.039  30.893  30.071  1.00  0.00     0.074 A 
ATOM     52  C   UNL A   1      46.722  30.245  27.311  1.00  0.00     0.029 A 
ATOM     53  N   UNL A   1      44.663  29.912  28.084  1.00  0.00    -0.354 N 
ATOM     54  N   UNL A   1      42.165  30.687  29.431  1.00  0.00    -0.248 NA
ATOM     55  C   UNL A   1      40.947  32.211  30.714  1.00  0.00     0.031 C 
ATOM     56  C   UNL A   1      46.283  31.421  27.928  1.00  0.00     0.029 A 
ATOM     57  C   UNL A   1      44.999  31.214  28.407  1.00  0.00     0.049 A 
ATOM     58  H   UNL A   1      43.805  29.479  28.299  1.00  0.00     0.167 HD
ATOM     59  C   UNL A   1      42.904  31.856  29.572  1.00  0.00     0.074 A 
ATOM     60  C   UNL A   1      42.089  32.775  30.338  1.00  0.00     0.031 C 
ATOM     61  C   UNL A   1      44.153  32.134  29.124  1.00  0.00     0.034 A 
BRANCH  48  62
ATOM     62  C   UNL A   1      46.925  27.439  26.216  1.00  0.00     0.023 A 
ATOM     63  C   UNL A   1      47.073  27.700  24.838  1.00  0.00     0.012 A 
ATOM     64  C   UNL A   1      47.945  26.757  26.906  1.00  0.00     0.148 A 
ATOM     65  C   UNL A   1      48.205  27.267  24.150  1.00  0.00     0.002 A 
ATOM     66  C   UNL A   1      49.089  26.362  26.221  1.00  0.00     0.091 A 
ATOM     67  F   UNL A   1      47.774  26.496  28.210  1.00  0.00    -0.205 F 
ATOM     68  C   UNL A   1      49.217  26.608  24.843  1.00  0.00     0.022 A 
BRANCH  66  69
ATOM     69  S   UNL A   1      50.480  25.569  27.037  1.00  0.00     0.127 S 
ATOM     70  O   UNL A   1      49.861  24.352  27.559  1.00  0.00    -0.237 OA
ATOM     71  O   UNL A   1      51.408  25.353  25.926  1.00  0.00    -0.237 OA
ATOM     72  O   UNL A   1      50.947  26.516  28.040  1.00  0.00    -0.744 OA
ENDBRANCH  66  69
ENDBRANCH  48  62
BRANCH  49  73
ATOM     73  C   UNL A   1      38.597  30.438  30.875  1.00  0.00     0.023 A 
ATOM     74  C   UNL A   1      38.474  30.267  32.267  1.00  0.00     0.012 A 
ATOM     75  C   UNL A   1      37.568  31.091  30.170  1.00  0.00     0.148 A 
ATOM     76  C   UNL A   1      37.343  30.724  32.944  1.00  0.00     0.002 A 
ATOM     77  C   UNL A   1      36.467  31.591  30.858  1.00  0.00     0.091 A 
ATOM     78  F   UNL A   1      37.697  31.233  28.843  1.00  0.00    -0.205 F 
ATOM     79  C   UNL A   1      36.346  31.396  32.243  1.00  0.00     0.022 A 
BRANCH  77  80
ATOM     80  S   UNL A   1      35.203  32.588  30.061  1.00  0.00     0.127 S 
ATOM     81  O   UNL A   1      34.262  32.811  31.155  1.00  0.00    -0.237 OA
ATOM     82  O   UNL A   1      35.964  33.771  29.652  1.00  0.00    -0.237 OA
ATOM     83  O   UNL A   1      34.710  31.782  28.952  1.00  0.00    -0.744 OA
ENDBRANCH  77  80
ENDBRANCH  49  73
BRANCH  61  84
ATOM     84  C   UNL A   1      44.731  33.487  29.443  1.00  0.00     0.023 A 
ATOM     85  C   UNL A   1      45.487  33.653  30.620  1.00  0.00     0.012 A 
ATOM     86  C   UNL A   1      44.634  34.552  28.525  1.00  0.00     0.148 A 
ATOM     87  C   UNL A   1      46.126  34.862  30.886  1.00  0.00     0.002 A 
ATOM     88  C   UNL A   1      45.310  35.739  28.776  1.00  0.00     0.091 A 
ATOM     89  F   UNL A   1      43.894  34.379  27.420  1.00  0.00    -0.205 F 
ATOM     90  C   UNL A   1      46.051  35.898  29.959  1.00  0.00     0.022 A 
BRANCH  88  91
ATOM     91  S   UNL A   1      45.350  37.091  27.592  1.00  0.00     0.127 S 
ATOM     92  O   UNL A   1      46.211  38.056  28.272  1.00  0.00    -0.237 OA
ATOM     93  O   UNL A   1      45.952  36.460  26.417  1.00  0.00    -0.237 OA
ATOM     94  O   UNL A   1      43.965  37.503  27.410  1.00  0.00    -0.744 OA
ENDBRANCH  88  91
ENDBRANCH  61  84
ENDBRANCH  35  36
ENDBRANCH  27  30
ENDBRANCH  25  26
ENDBRANCH   1  25
TORSDOF 15
ENDMDL
MODEL 3
REMARK VINA RESULT:     -12.4      2.407      7.976
REMARK SMILES Cc1cc2c(c(C)c1Cl)C=C(C(=O)NCCCCNC(=O)c1ccc(-c3c4nc(c(-c5cccc(S(=O)(=O)[O-])c5F)c5ccc([nH]5)c(-c5cccc(S(=O)(=O)[O-])c5F)c5nc(c(-c6cccc(S(=O)(=O)[O-])c6F)c6ccc3[nH]6)C=C5)C=C4)cc1)[C@@H](C(F)(F)F)O2
REMARK SMILES IDX 17 1 16 2 15 3 14 4 12 5 13 6 11 8 1 9 2 10 3 11 8 12 4 13
REMARK SMILES IDX 6 14 9 15 5 16 90 17 7 18 10 19 85 20 86 21 87 22 88 23
REMARK SMILES IDX 89 24 18 25 19 26 20 27 21 29 22 30 23 31 84 32 24 33 83 34
REMARK SMILES IDX 25 35 26 36 27 37 77 38 28 39 82 40 76 41 78 42 29 43 81 44
REMARK SMILES IDX 75 45 74 46 30 48 62 49 42 50 61 51 43 52 46 53 60 54 79 55
REMARK SMILES IDX 44 56 45 57 59 59 80 60 47 61 31 62 32 63 40 64 33 65 35 66
REMARK SMILES IDX 41 67 34 68 36 69 37 70 38 71 39 72 63 73 64 74 72 75 65 76
REMARK SMILES IDX 67 77 73 78 66 79 68 80 69 81 70 82 71 83 48 84 49 85 57 86
REMARK SMILES IDX 50 87 52 88 58 89 51 90 53 91 54 92 55 93 56 94
REMARK H PARENT 14 7 19 28 78 47 46 58
REMARK Flexibility Score: inf
ROOT
ATOM      1  C   UNL A   1      32.255  31.138  26.627  1.00  0.00     0.023 C 
ENDROOT
BRANCH   1   2
ATOM      2  C   UNL A   1      32.081  29.752  27.254  1.00  0.00     0.023 C 
BRANCH   2   3
ATOM      3  C   UNL A   1      33.209  28.775  26.936  1.00  0.00     0.116 C 
BRANCH   3   4
ATOM      4  N   UNL A   1      33.690  28.925  25.574  1.00  0.00    -0.352 N 
ATOM      5  C   UNL A   1      33.759  28.161  24.461  1.00  0.00     0.251 C 
ATOM      6  O   UNL A   1      34.261  28.710  23.474  1.00  0.00    -0.270 OA
ATOM      7  H   UNL A   1      34.066  29.822  25.421  1.00  0.00     0.163 HD
BRANCH   5   8
ATOM      8  C   UNL A   1      33.282  26.749  24.347  1.00  0.00     0.067 C 
ATOM      9  C   UNL A   1      32.435  20.289  24.408  1.00  0.00     0.046 C 
ATOM     10  C   UNL A   1      32.952  21.700  24.468  1.00  0.00    -0.028 A 
ATOM     11  C   UNL A   1      32.046  22.753  24.308  1.00  0.00     0.052 A 
ATOM     12  C   UNL A   1      34.309  22.000  24.705  1.00  0.00     0.047 A 
ATOM     13  C   UNL A   1      32.480  24.073  24.365  1.00  0.00     0.128 A 
ATOM     14  C   UNL A   1      34.764  23.341  24.767  1.00  0.00    -0.021 A 
ATOM     15  Cl  UNL A   1      35.415  20.678  24.939  1.00  0.00    -0.084 Cl
ATOM     16  C   UNL A   1      33.821  24.386  24.603  1.00  0.00     0.022 A 
ATOM     17  O   UNL A   1      31.503  25.017  24.226  1.00  0.00    -0.475 OA
ATOM     18  C   UNL A   1      36.215  23.681  25.017  1.00  0.00     0.047 C 
ATOM     19  C   UNL A   1      34.171  25.805  24.713  1.00  0.00     0.026 C 
ATOM     20  C   UNL A   1      31.935  26.347  23.830  1.00  0.00     0.314 C 
BRANCH  20  21
ATOM     21  C   UNL A   1      31.817  26.483  22.300  1.00  0.00     0.429 C 
ATOM     22  F   UNL A   1      31.178  25.406  21.778  1.00  0.00    -0.167 F 
ATOM     23  F   UNL A   1      31.104  27.570  21.926  1.00  0.00    -0.167 F 
ATOM     24  F   UNL A   1      33.021  26.571  21.691  1.00  0.00    -0.167 F 
ENDBRANCH  20  21
ENDBRANCH   5   8
ENDBRANCH   3   4
ENDBRANCH   2   3
ENDBRANCH   1   2
BRANCH   1  25
ATOM     25  C   UNL A   1      33.274  32.047  27.313  1.00  0.00     0.116 C 
BRANCH  25  26
ATOM     26  N   UNL A   1      32.785  33.398  27.558  1.00  0.00    -0.352 N 
ATOM     27  C   UNL A   1      33.220  34.296  28.504  1.00  0.00     0.251 C 
ATOM     28  H   UNL A   1      32.054  33.706  26.974  1.00  0.00     0.163 HD
ATOM     29  O   UNL A   1      32.662  35.378  28.644  1.00  0.00    -0.269 OA
BRANCH  27  30
ATOM     30  C   UNL A   1      34.345  33.910  29.377  1.00  0.00     0.039 A 
ATOM     31  C   UNL A   1      34.107  33.034  30.437  1.00  0.00     0.014 A 
ATOM     32  C   UNL A   1      35.640  34.350  29.086  1.00  0.00     0.014 A 
ATOM     33  C   UNL A   1      35.186  32.538  31.168  1.00  0.00     0.010 A 
ATOM     34  C   UNL A   1      36.717  33.807  29.777  1.00  0.00     0.010 A 
ATOM     35  C   UNL A   1      36.499  32.892  30.820  1.00  0.00    -0.014 A 
BRANCH  35  36
ATOM     36  C   UNL A   1      37.663  32.303  31.521  1.00  0.00     0.031 A 
ATOM     37  C   UNL A   1      38.413  31.159  30.902  1.00  0.00     0.074 A 
ATOM     38  C   UNL A   1      37.994  32.747  32.750  1.00  0.00     0.049 A 
ATOM     39  N   UNL A   1      39.428  30.489  31.378  1.00  0.00    -0.248 NA
ATOM     40  C   UNL A   1      37.945  30.691  29.587  1.00  0.00     0.031 C 
ATOM     41  C   UNL A   1      37.290  33.802  33.484  1.00  0.00     0.029 A 
ATOM     42  N   UNL A   1      38.992  32.357  33.606  1.00  0.00    -0.354 N 
ATOM     43  C   UNL A   1      39.707  29.507  30.436  1.00  0.00     0.074 A 
ATOM     44  C   UNL A   1      38.728  29.641  29.380  1.00  0.00     0.031 C 
ATOM     45  C   UNL A   1      37.889  33.985  34.671  1.00  0.00     0.029 A 
ATOM     46  C   UNL A   1      39.003  33.050  34.795  1.00  0.00     0.049 A 
ATOM     47  H   UNL A   1      39.639  31.647  33.391  1.00  0.00     0.167 HD
ATOM     48  C   UNL A   1      40.714  28.603  30.429  1.00  0.00     0.034 A 
ATOM     49  C   UNL A   1      39.826  32.950  35.857  1.00  0.00     0.034 A 
ATOM     50  C   UNL A   1      41.716  28.510  31.455  1.00  0.00     0.049 A 
ATOM     51  C   UNL A   1      40.960  31.960  35.810  1.00  0.00     0.074 A 
ATOM     52  C   UNL A   1      42.821  27.681  31.502  1.00  0.00     0.029 A 
ATOM     53  N   UNL A   1      41.737  29.275  32.611  1.00  0.00    -0.354 N 
ATOM     54  N   UNL A   1      41.298  31.142  34.843  1.00  0.00    -0.248 NA
ATOM     55  C   UNL A   1      41.844  31.901  36.983  1.00  0.00     0.031 C 
ATOM     56  C   UNL A   1      43.510  27.942  32.691  1.00  0.00     0.029 A 
ATOM     57  C   UNL A   1      42.835  28.938  33.381  1.00  0.00     0.049 A 
ATOM     58  H   UNL A   1      41.069  29.958  32.849  1.00  0.00     0.167 HD
ATOM     59  C   UNL A   1      42.446  30.488  35.278  1.00  0.00     0.074 A 
ATOM     60  C   UNL A   1      42.759  31.024  36.587  1.00  0.00     0.031 C 
ATOM     61  C   UNL A   1      43.163  29.519  34.658  1.00  0.00     0.034 A 
BRANCH  48  62
ATOM     62  C   UNL A   1      40.831  27.700  29.232  1.00  0.00     0.023 A 
ATOM     63  C   UNL A   1      40.054  26.523  29.187  1.00  0.00     0.012 A 
ATOM     64  C   UNL A   1      41.653  28.030  28.138  1.00  0.00     0.148 A 
ATOM     65  C   UNL A   1      40.111  25.676  28.082  1.00  0.00     0.002 A 
ATOM     66  C   UNL A   1      41.675  27.199  27.023  1.00  0.00     0.091 A 
ATOM     67  F   UNL A   1      42.403  29.138  28.212  1.00  0.00    -0.205 F 
ATOM     68  C   UNL A   1      40.913  26.018  26.997  1.00  0.00     0.022 A 
BRANCH  66  69
ATOM     69  S   UNL A   1      42.621  27.588  25.546  1.00  0.00     0.127 S 
ATOM     70  O   UNL A   1      43.977  27.695  26.083  1.00  0.00    -0.237 OA
ATOM     71  O   UNL A   1      42.388  26.409  24.711  1.00  0.00    -0.237 OA
ATOM     72  O   UNL A   1      42.054  28.823  25.022  1.00  0.00    -0.744 OA
ENDBRANCH  66  69
ENDBRANCH  48  62
BRANCH  49  73
ATOM     73  C   UNL A   1      39.667  33.888  37.004  1.00  0.00     0.023 A 
ATOM     74  C   UNL A   1      39.998  35.245  36.824  1.00  0.00     0.012 A 
ATOM     75  C   UNL A   1      39.135  33.470  38.239  1.00  0.00     0.148 A 
ATOM     76  C   UNL A   1      39.816  36.167  37.856  1.00  0.00     0.002 A 
ATOM     77  C   UNL A   1      38.907  34.403  39.246  1.00  0.00     0.091 A 
ATOM     78  F   UNL A   1      38.839  32.172  38.396  1.00  0.00    -0.205 F 
ATOM     79  C   UNL A   1      39.260  35.749  39.061  1.00  0.00     0.022 A 
BRANCH  77  80
ATOM     80  S   UNL A   1      38.070  33.981  40.778  1.00  0.00     0.127 S 
ATOM     81  O   UNL A   1      37.961  35.284  41.429  1.00  0.00    -0.237 OA
ATOM     82  O   UNL A   1      36.805  33.428  40.290  1.00  0.00    -0.237 OA
ATOM     83  O   UNL A   1      38.930  33.009  41.440  1.00  0.00    -0.744 OA
ENDBRANCH  77  80
ENDBRANCH  49  73
BRANCH  61  84
ATOM     84  C   UNL A   1      44.363  28.962  35.375  1.00  0.00     0.023 A 
ATOM     85  C   UNL A   1      45.619  29.573  35.194  1.00  0.00     0.012 A 
ATOM     86  C   UNL A   1      44.226  27.922  36.316  1.00  0.00     0.148 A 
ATOM     87  C   UNL A   1      46.724  29.151  35.930  1.00  0.00     0.002 A 
ATOM     88  C   UNL A   1      45.323  27.535  37.077  1.00  0.00     0.091 A 
ATOM     89  F   UNL A   1      43.026  27.341  36.459  1.00  0.00    -0.205 F 
ATOM     90  C   UNL A   1      46.574  28.144  36.880  1.00  0.00     0.022 A 
BRANCH  88  91
ATOM     91  S   UNL A   1      45.198  26.317  38.392  1.00  0.00     0.127 S 
ATOM     92  O   UNL A   1      44.192  26.921  39.262  1.00  0.00    -0.237 OA
ATOM     93  O   UNL A   1      44.747  25.125  37.673  1.00  0.00    -0.237 OA
ATOM     94  O   UNL A   1      46.535  26.205  38.961  1.00  0.00    -0.744 OA
ENDBRANCH  88  91
ENDBRANCH  61  84
ENDBRANCH  35  36
ENDBRANCH  27  30
ENDBRANCH  25  26
ENDBRANCH   1  25
TORSDOF 15
ENDMDL
