MODEL 1
REMARK VINA RESULT:     -10.2      0.000      0.000
REMARK SMILES O=C(CCCC[C@@H]1CCSS1)NCCCCNC(=O)c1ccc(-c2c3nc(c(-c4cccc(S(=O)(=O)[O-])c4F)c4ccc([nH]4)c(-c4cccc(S(=O)(=O)[O-])c4F)c4nc(c(-c5cccc(S(=O)(=O)[O-])c5F)c5ccc2[nH]5)C=C4)C=C3)cc1
REMARK SMILES IDX 14 1 13 2 12 3 1 4 2 5 3 7 4 8 5 9 6 10 7 11 8 12 11 13 9 14
REMARK SMILES IDX 10 15 15 16 16 17 17 18 18 19 19 21 20 22 21 23 82 24 22 25
REMARK SMILES IDX 81 26 23 27 24 28 25 29 75 30 26 31 80 32 74 33 76 34 27 35
REMARK SMILES IDX 79 36 73 37 72 38 28 40 60 41 40 42 59 43 41 44 44 45 58 46
REMARK SMILES IDX 77 47 42 48 43 49 57 51 78 52 45 53 29 54 30 55 38 56 31 57
REMARK SMILES IDX 33 58 39 59 32 60 34 61 35 62 36 63 37 64 61 65 62 66 70 67
REMARK SMILES IDX 63 68 65 69 71 70 64 71 66 72 67 73 68 74 69 75 46 76 47 77
REMARK SMILES IDX 55 78 48 79 50 80 56 81 49 82 51 83 52 84 53 85 54 86
REMARK H PARENT 12 6 17 20 76 39 44 50
REMARK Flexibility Score: inf
ROOT
ATOM      1  C   UNL A   1      36.897  20.932  25.131  1.00  0.00     0.023 C 
ENDROOT
BRANCH   1   2
ATOM      2  C   UNL A   1      36.910  22.246  24.356  1.00  0.00     0.116 C 
BRANCH   2   3
ATOM      3  N   UNL A   1      35.769  23.073  24.678  1.00  0.00    -0.356 N 
ATOM      4  O   UNL A   1      34.948  23.236  22.538  1.00  0.00    -0.275 OA
ATOM      5  C   UNL A   1      34.857  23.483  23.737  1.00  0.00     0.219 C 
ATOM      6  H   UNL A   1      35.641  23.355  25.613  1.00  0.00     0.163 HD
BRANCH   5   7
ATOM      7  C   UNL A   1      33.699  24.266  24.315  1.00  0.00     0.100 C 
BRANCH   7   8
ATOM      8  C   UNL A   1      34.072  24.981  25.610  1.00  0.00     0.010 C 
BRANCH   8   9
ATOM      9  C   UNL A   1      33.682  26.460  25.730  1.00  0.00     0.002 C 
BRANCH   9  10
ATOM     10  C   UNL A   1      32.319  26.812  26.342  1.00  0.00     0.015 C 
BRANCH  10  11
ATOM     11  C   UNL A   1      31.166  27.241  25.416  1.00  0.00     0.059 C 
ATOM     12  C   UNL A   1      30.279  26.137  24.837  1.00  0.00     0.027 C 
ATOM     13  S   UNL A   1      31.774  28.179  23.974  1.00  0.00    -0.091 SA
ATOM     14  C   UNL A   1      29.259  26.741  23.876  1.00  0.00     0.083 C 
ATOM     15  S   UNL A   1      30.165  27.837  22.753  1.00  0.00    -0.094 SA
ENDBRANCH  10  11
ENDBRANCH   9  10
ENDBRANCH   8   9
ENDBRANCH   7   8
ENDBRANCH   5   7
ENDBRANCH   2   3
ENDBRANCH   1   2
BRANCH   1  16
ATOM     16  C   UNL A   1      38.161  20.077  24.985  1.00  0.00     0.023 C 
BRANCH  16  17
ATOM     17  C   UNL A   1      39.246  20.326  26.029  1.00  0.00     0.116 C 
BRANCH  17  18
ATOM     18  N   UNL A   1      40.260  19.285  26.040  1.00  0.00    -0.352 N 
ATOM     19  C   UNL A   1      41.627  19.390  26.126  1.00  0.00     0.251 C 
ATOM     20  H   UNL A   1      39.915  18.365  25.974  1.00  0.00     0.163 HD
ATOM     21  O   UNL A   1      42.325  18.397  25.944  1.00  0.00    -0.269 OA
BRANCH  19  22
ATOM     22  C   UNL A   1      42.264  20.696  26.419  1.00  0.00     0.039 A 
ATOM     23  C   UNL A   1      42.802  21.435  25.362  1.00  0.00     0.014 A 
ATOM     24  C   UNL A   1      42.347  21.187  27.724  1.00  0.00     0.014 A 
ATOM     25  C   UNL A   1      43.364  22.691  25.606  1.00  0.00     0.010 A 
ATOM     26  C   UNL A   1      42.838  22.471  27.955  1.00  0.00     0.010 A 
ATOM     27  C   UNL A   1      43.355  23.238  26.899  1.00  0.00    -0.014 A 
BRANCH  27  28
ATOM     28  C   UNL A   1      43.858  24.614  27.159  1.00  0.00     0.031 A 
ATOM     29  C   UNL A   1      42.937  25.680  27.690  1.00  0.00     0.074 A 
ATOM     30  C   UNL A   1      45.130  24.928  26.841  1.00  0.00     0.049 A 
ATOM     31  N   UNL A   1      43.184  26.944  27.918  1.00  0.00    -0.248 NA
ATOM     32  C   UNL A   1      41.549  25.282  27.978  1.00  0.00     0.031 C 
ATOM     33  C   UNL A   1      46.106  24.008  26.251  1.00  0.00     0.029 A 
ATOM     34  N   UNL A   1      45.815  26.115  26.940  1.00  0.00    -0.354 N 
ATOM     35  C   UNL A   1      41.983  27.498  28.344  1.00  0.00     0.074 A 
ATOM     36  C   UNL A   1      40.996  26.439  28.310  1.00  0.00     0.031 C 
ATOM     37  C   UNL A   1      47.260  24.663  26.044  1.00  0.00     0.029 A 
ATOM     38  C   UNL A   1      47.099  26.055  26.451  1.00  0.00     0.049 A 
ATOM     39  H   UNL A   1      45.422  26.931  27.327  1.00  0.00     0.167 HD
ATOM     40  C   UNL A   1      41.726  28.764  28.754  1.00  0.00     0.034 A 
ATOM     41  C   UNL A   1      48.039  27.014  26.328  1.00  0.00     0.034 A 
ATOM     42  C   UNL A   1      42.715  29.808  28.821  1.00  0.00     0.049 A 
ATOM     43  C   UNL A   1      47.734  28.406  26.812  1.00  0.00     0.074 A 
ATOM     44  C   UNL A   1      42.570  31.099  29.298  1.00  0.00     0.029 A 
ATOM     45  N   UNL A   1      44.026  29.687  28.389  1.00  0.00    -0.354 N 
ATOM     46  N   UNL A   1      46.634  28.871  27.351  1.00  0.00    -0.248 NA
ATOM     47  C   UNL A   1      48.814  29.399  26.703  1.00  0.00     0.031 C 
ATOM     48  C   UNL A   1      43.785  31.769  29.125  1.00  0.00     0.029 A 
ATOM     49  C   UNL A   1      44.698  30.884  28.576  1.00  0.00     0.049 A 
ATOM     50  H   UNL A   1      44.422  28.871  28.006  1.00  0.00     0.167 HD
ATOM     51  C   UNL A   1      46.901  30.194  27.681  1.00  0.00     0.074 A 
ATOM     52  C   UNL A   1      48.273  30.452  27.299  1.00  0.00     0.031 C 
ATOM     53  C   UNL A   1      46.079  31.117  28.240  1.00  0.00     0.034 A 
BRANCH  40  54
ATOM     54  C   UNL A   1      40.325  29.086  29.206  1.00  0.00     0.023 A 
ATOM     55  C   UNL A   1      39.361  29.485  28.258  1.00  0.00     0.012 A 
ATOM     56  C   UNL A   1      39.943  28.928  30.553  1.00  0.00     0.148 A 
ATOM     57  C   UNL A   1      38.050  29.758  28.648  1.00  0.00     0.002 A 
ATOM     58  C   UNL A   1      38.624  29.156  30.926  1.00  0.00     0.091 A 
ATOM     59  F   UNL A   1      40.877  28.565  31.444  1.00  0.00    -0.205 F 
ATOM     60  C   UNL A   1      37.680  29.583  29.978  1.00  0.00     0.022 A 
BRANCH  58  61
ATOM     61  S   UNL A   1      38.026  28.881  32.597  1.00  0.00     0.127 S 
ATOM     62  O   UNL A   1      38.918  29.741  33.374  1.00  0.00    -0.237 OA
ATOM     63  O   UNL A   1      36.644  29.355  32.511  1.00  0.00    -0.237 OA
ATOM     64  O   UNL A   1      38.166  27.453  32.845  1.00  0.00    -0.744 OA
ENDBRANCH  58  61
ENDBRANCH  40  54
BRANCH  41  65
ATOM     65  C   UNL A   1      49.376  26.680  25.760  1.00  0.00     0.023 A 
ATOM     66  C   UNL A   1      50.284  25.918  26.521  1.00  0.00     0.012 A 
ATOM     67  C   UNL A   1      49.746  27.100  24.468  1.00  0.00     0.148 A 
ATOM     68  C   UNL A   1      51.550  25.613  26.021  1.00  0.00     0.002 A 
ATOM     69  C   UNL A   1      50.985  26.743  23.953  1.00  0.00     0.091 A 
ATOM     70  F   UNL A   1      48.871  27.833  23.765  1.00  0.00    -0.205 F 
ATOM     71  C   UNL A   1      51.898  26.017  24.734  1.00  0.00     0.022 A 
BRANCH  69  72
ATOM     72  S   UNL A   1      51.463  27.106  22.260  1.00  0.00     0.127 S 
ATOM     73  O   UNL A   1      51.668  28.551  22.311  1.00  0.00    -0.237 OA
ATOM     74  O   UNL A   1      52.684  26.313  22.116  1.00  0.00    -0.237 OA
ATOM     75  O   UNL A   1      50.353  26.652  21.433  1.00  0.00    -0.744 OA
ENDBRANCH  69  72
ENDBRANCH  41  65
BRANCH  53  76
ATOM     76  C   UNL A   1      46.646  32.485  28.518  1.00  0.00     0.023 A 
ATOM     77  C   UNL A   1      47.225  32.770  29.770  1.00  0.00     0.012 A 
ATOM     78  C   UNL A   1      46.667  33.468  27.508  1.00  0.00     0.148 A 
ATOM     79  C   UNL A   1      47.783  34.022  30.025  1.00  0.00     0.002 A 
ATOM     80  C   UNL A   1      47.272  34.695  27.752  1.00  0.00     0.091 A 
ATOM     81  F   UNL A   1      46.096  33.185  26.328  1.00  0.00    -0.205 F 
ATOM     82  C   UNL A   1      47.818  34.979  29.014  1.00  0.00     0.022 A 
BRANCH  80  83
ATOM     83  S   UNL A   1      47.452  35.951  26.480  1.00  0.00     0.127 S 
ATOM     84  O   UNL A   1      46.072  36.401  26.310  1.00  0.00    -0.237 OA
ATOM     85  O   UNL A   1      48.335  36.922  27.129  1.00  0.00    -0.237 OA
ATOM     86  O   UNL A   1      48.036  35.278  25.328  1.00  0.00    -0.744 OA
ENDBRANCH  80  83
ENDBRANCH  53  76
ENDBRANCH  27  28
ENDBRANCH  19  22
ENDBRANCH  17  18
ENDBRANCH  16  17
ENDBRANCH   1  16
TORSDOF 18
ENDMDL
MODEL 2
REMARK VINA RESULT:     -10.1      2.681      3.461
REMARK SMILES O=C(CCCC[C@@H]1CCSS1)NCCCCNC(=O)c1ccc(-c2c3nc(c(-c4cccc(S(=O)(=O)[O-])c4F)c4ccc([nH]4)c(-c4cccc(S(=O)(=O)[O-])c4F)c4nc(c(-c5cccc(S(=O)(=O)[O-])c5F)c5ccc2[nH]5)C=C4)C=C3)cc1
REMARK SMILES IDX 14 1 13 2 12 3 1 4 2 5 3 7 4 8 5 9 6 10 7 11 8 12 11 13 9 14
REMARK SMILES IDX 10 15 15 16 16 17 17 18 18 19 19 21 20 22 21 23 82 24 22 25
REMARK SMILES IDX 81 26 23 27 24 28 25 29 75 30 26 31 80 32 74 33 76 34 27 35
REMARK SMILES IDX 79 36 73 37 72 38 28 40 60 41 40 42 59 43 41 44 44 45 58 46
REMARK SMILES IDX 77 47 42 48 43 49 57 51 78 52 45 53 29 54 30 55 38 56 31 57
REMARK SMILES IDX 33 58 39 59 32 60 34 61 35 62 36 63 37 64 61 65 62 66 70 67
REMARK SMILES IDX 63 68 65 69 71 70 64 71 66 72 67 73 68 74 69 75 46 76 47 77
REMARK SMILES IDX 55 78 48 79 50 80 56 81 49 82 51 83 52 84 53 85 54 86
REMARK H PARENT 12 6 17 20 76 39 44 50
REMARK Flexibility Score: inf
ROOT
ATOM      1  C   UNL A   1      36.836  20.041  24.729  1.00  0.00     0.023 C 
ENDROOT
BRANCH   1   2
ATOM      2  C   UNL A   1      36.743  21.413  25.388  1.00  0.00     0.116 C 
BRANCH   2   3
ATOM      3  N   UNL A   1      35.498  22.077  25.075  1.00  0.00    -0.356 N 
ATOM      4  O   UNL A   1      34.377  21.451  26.980  1.00  0.00    -0.275 OA
ATOM      5  C   UNL A   1      34.414  22.064  25.918  1.00  0.00     0.219 C 
ATOM      6  H   UNL A   1      35.423  22.560  24.219  1.00  0.00     0.163 HD
BRANCH   5   7
ATOM      7  C   UNL A   1      33.252  22.898  25.425  1.00  0.00     0.100 C 
BRANCH   7   8
ATOM      8  C   UNL A   1      33.070  22.801  23.913  1.00  0.00     0.010 C 
BRANCH   8   9
ATOM      9  C   UNL A   1      32.463  21.503  23.363  1.00  0.00     0.002 C 
BRANCH   9  10
ATOM     10  C   UNL A   1      32.195  20.348  24.338  1.00  0.00     0.015 C 
BRANCH  10  11
ATOM     11  C   UNL A   1      33.053  19.073  24.248  1.00  0.00     0.059 C 
ATOM     12  C   UNL A   1      32.780  18.121  23.081  1.00  0.00     0.027 C 
ATOM     13  S   UNL A   1      32.902  18.052  25.751  1.00  0.00    -0.091 SA
ATOM     14  C   UNL A   1      33.655  16.878  23.210  1.00  0.00     0.083 C 
ATOM     15  S   UNL A   1      33.483  16.276  24.910  1.00  0.00    -0.094 SA
ENDBRANCH  10  11
ENDBRANCH   9  10
ENDBRANCH   8   9
ENDBRANCH   7   8
ENDBRANCH   5   7
ENDBRANCH   2   3
ENDBRANCH   1   2
BRANCH   1  16
ATOM     16  C   UNL A   1      38.137  19.276  24.999  1.00  0.00     0.023 C 
BRANCH  16  17
ATOM     17  C   UNL A   1      39.137  19.984  25.909  1.00  0.00     0.116 C 
BRANCH  17  18
ATOM     18  N   UNL A   1      40.345  19.203  26.126  1.00  0.00    -0.352 N 
ATOM     19  C   UNL A   1      41.627  19.622  26.389  1.00  0.00     0.251 C 
ATOM     20  H   UNL A   1      40.225  18.227  26.076  1.00  0.00     0.163 HD
ATOM     21  O   UNL A   1      42.547  18.810  26.369  1.00  0.00    -0.269 OA
BRANCH  19  22
ATOM     22  C   UNL A   1      41.907  21.048  26.677  1.00  0.00     0.039 A 
ATOM     23  C   UNL A   1      42.221  21.421  27.987  1.00  0.00     0.014 A 
ATOM     24  C   UNL A   1      41.848  22.017  25.673  1.00  0.00     0.014 A 
ATOM     25  C   UNL A   1      42.537  22.752  28.275  1.00  0.00     0.010 A 
ATOM     26  C   UNL A   1      42.236  23.328  25.947  1.00  0.00     0.010 A 
ATOM     27  C   UNL A   1      42.584  23.712  27.251  1.00  0.00    -0.014 A 
BRANCH  27  28
ATOM     28  C   UNL A   1      43.014  25.110  27.522  1.00  0.00     0.031 A 
ATOM     29  C   UNL A   1      42.066  26.095  28.154  1.00  0.00     0.074 A 
ATOM     30  C   UNL A   1      44.236  25.520  27.124  1.00  0.00     0.049 A 
ATOM     31  N   UNL A   1      42.246  27.366  28.408  1.00  0.00    -0.248 NA
ATOM     32  C   UNL A   1      40.733  25.595  28.528  1.00  0.00     0.031 C 
ATOM     33  C   UNL A   1      45.223  24.687  26.435  1.00  0.00     0.029 A 
ATOM     34  N   UNL A   1      44.846  26.747  27.215  1.00  0.00    -0.354 N 
ATOM     35  C   UNL A   1      41.046  27.823  28.938  1.00  0.00     0.074 A 
ATOM     36  C   UNL A   1      40.131  26.702  28.938  1.00  0.00     0.031 C 
ATOM     37  C   UNL A   1      46.313  25.424  26.167  1.00  0.00     0.029 A 
ATOM     38  C   UNL A   1      46.092  26.789  26.633  1.00  0.00     0.049 A 
ATOM     39  H   UNL A   1      44.430  27.523  27.657  1.00  0.00     0.167 HD
ATOM     40  C   UNL A   1      40.738  29.056  29.409  1.00  0.00     0.034 A 
ATOM     41  C   UNL A   1      46.954  27.813  26.476  1.00  0.00     0.034 A 
ATOM     42  C   UNL A   1      41.658  30.163  29.441  1.00  0.00     0.049 A 
ATOM     43  C   UNL A   1      46.596  29.167  27.029  1.00  0.00     0.074 A 
ATOM     44  C   UNL A   1      41.464  31.426  29.971  1.00  0.00     0.029 A 
ATOM     45  N   UNL A   1      42.939  30.144  28.912  1.00  0.00    -0.354 N 
ATOM     46  N   UNL A   1      45.510  29.539  27.661  1.00  0.00    -0.248 NA
ATOM     47  C   UNL A   1      47.597  30.233  26.876  1.00  0.00     0.031 C 
ATOM     48  C   UNL A   1      42.616  32.182  29.734  1.00  0.00     0.029 A 
ATOM     49  C   UNL A   1      43.542  31.378  29.091  1.00  0.00     0.049 A 
ATOM     50  H   UNL A   1      43.358  29.369  28.473  1.00  0.00     0.167 HD
ATOM     51  C   UNL A   1      45.714  30.867  28.016  1.00  0.00     0.074 A 
ATOM     52  C   UNL A   1      47.034  31.230  27.546  1.00  0.00     0.031 C 
ATOM     53  C   UNL A   1      44.876  31.715  28.664  1.00  0.00     0.034 A 
BRANCH  40  54
ATOM     54  C   UNL A   1      39.356  29.268  29.971  1.00  0.00     0.023 A 
ATOM     55  C   UNL A   1      39.055  28.815  31.272  1.00  0.00     0.012 A 
ATOM     56  C   UNL A   1      38.377  29.974  29.244  1.00  0.00     0.148 A 
ATOM     57  C   UNL A   1      37.793  29.027  31.825  1.00  0.00     0.002 A 
ATOM     58  C   UNL A   1      37.137  30.223  29.820  1.00  0.00     0.091 A 
ATOM     59  F   UNL A   1      38.674  30.382  28.002  1.00  0.00    -0.205 F 
ATOM     60  C   UNL A   1      36.839  29.740  31.105  1.00  0.00     0.022 A 
BRANCH  58  61
ATOM     61  S   UNL A   1      35.868  31.202  29.008  1.00  0.00     0.127 S 
ATOM     62  O   UNL A   1      36.665  32.254  28.378  1.00  0.00    -0.237 OA
ATOM     63  O   UNL A   1      35.286  30.236  28.075  1.00  0.00    -0.237 OA
ATOM     64  O   UNL A   1      34.968  31.649  30.062  1.00  0.00    -0.744 OA
ENDBRANCH  58  61
ENDBRANCH  40  54
BRANCH  41  65
ATOM     65  C   UNL A   1      48.265  27.588  25.802  1.00  0.00     0.023 A 
ATOM     66  C   UNL A   1      49.402  27.283  26.576  1.00  0.00     0.012 A 
ATOM     67  C   UNL A   1      48.387  27.661  24.401  1.00  0.00     0.148 A 
ATOM     68  C   UNL A   1      50.644  27.092  25.970  1.00  0.00     0.002 A 
ATOM     69  C   UNL A   1      49.614  27.411  23.800  1.00  0.00     0.091 A 
ATOM     70  F   UNL A   1      47.295  27.963  23.685  1.00  0.00    -0.205 F 
ATOM     71  C   UNL A   1      50.749  27.146  24.582  1.00  0.00     0.022 A 
BRANCH  69  72
ATOM     72  S   UNL A   1      49.812  27.329  22.017  1.00  0.00     0.127 S 
ATOM     73  O   UNL A   1      48.802  26.340  21.649  1.00  0.00    -0.237 OA
ATOM     74  O   UNL A   1      49.506  28.703  21.618  1.00  0.00    -0.237 OA
ATOM     75  O   UNL A   1      51.196  26.935  21.792  1.00  0.00    -0.744 OA
ENDBRANCH  69  72
ENDBRANCH  41  65
BRANCH  53  76
ATOM     76  C   UNL A   1      45.372  33.110  28.948  1.00  0.00     0.023 A 
ATOM     77  C   UNL A   1      46.052  33.388  30.150  1.00  0.00     0.012 A 
ATOM     78  C   UNL A   1      45.222  34.129  27.987  1.00  0.00     0.148 A 
ATOM     79  C   UNL A   1      46.544  34.667  30.406  1.00  0.00     0.002 A 
ATOM     80  C   UNL A   1      45.761  35.388  28.227  1.00  0.00     0.091 A 
ATOM     81  F   UNL A   1      44.556  33.851  26.857  1.00  0.00    -0.205 F 
ATOM     82  C   UNL A   1      46.409  35.662  29.441  1.00  0.00     0.022 A 
BRANCH  80  83
ATOM     83  S   UNL A   1      45.724  36.702  27.002  1.00  0.00     0.127 S 
ATOM     84  O   UNL A   1      46.326  36.045  25.844  1.00  0.00    -0.237 OA
ATOM     85  O   UNL A   1      44.289  36.965  26.877  1.00  0.00    -0.237 OA
ATOM     86  O   UNL A   1      46.493  37.802  27.567  1.00  0.00    -0.744 OA
ENDBRANCH  80  83
ENDBRANCH  53  76
ENDBRANCH  27  28
ENDBRANCH  19  22
ENDBRANCH  17  18
ENDBRANCH  16  17
ENDBRANCH   1  16
TORSDOF 18
ENDMDL
MODEL 3
REMARK VINA RESULT:     -10.0      2.889      8.526
REMARK SMILES O=C(CCCC[C@@H]1CCSS1)NCCCCNC(=O)c1ccc(-c2c3nc(c(-c4cccc(S(=O)(=O)[O-])c4F)c4ccc([nH]4)c(-c4cccc(S(=O)(=O)[O-])c4F)c4nc(c(-c5cccc(S(=O)(=O)[O-])c5F)c5ccc2[nH]5)C=C4)C=C3)cc1
REMARK SMILES IDX 14 1 13 2 12 3 1 4 2 5 3 7 4 8 5 9 6 10 7 11 8 12 11 13 9 14
REMARK SMILES IDX 10 15 15 16 16 17 17 18 18 19 19 21 20 22 21 23 82 24 22 25
REMARK SMILES IDX 81 26 23 27 24 28 25 29 75 30 26 31 80 32 74 33 76 34 27 35
REMARK SMILES IDX 79 36 73 37 72 38 28 40 60 41 40 42 59 43 41 44 44 45 58 46
REMARK SMILES IDX 77 47 42 48 43 49 57 51 78 52 45 53 29 54 30 55 38 56 31 57
REMARK SMILES IDX 33 58 39 59 32 60 34 61 35 62 36 63 37 64 61 65 62 66 70 67
REMARK SMILES IDX 63 68 65 69 71 70 64 71 66 72 67 73 68 74 69 75 46 76 47 77
REMARK SMILES IDX 55 78 48 79 50 80 56 81 49 82 51 83 52 84 53 85 54 86
REMARK H PARENT 12 6 17 20 76 39 44 50
REMARK Flexibility Score: inf
ROOT
ATOM      1  C   UNL A   1      37.326  21.287  24.622  1.00  0.00     0.023 C 
ENDROOT
BRANCH   1   2
ATOM      2  C   UNL A   1      37.290  22.397  25.667  1.00  0.00     0.116 C 
BRANCH   2   3
ATOM      3  N   UNL A   1      36.102  22.326  26.487  1.00  0.00    -0.356 N 
ATOM      4  O   UNL A   1      34.960  24.028  25.447  1.00  0.00    -0.275 OA
ATOM      5  C   UNL A   1      35.012  23.139  26.291  1.00  0.00     0.219 C 
ATOM      6  H   UNL A   1      36.072  21.667  27.219  1.00  0.00     0.163 HD
BRANCH   5   7
ATOM      7  C   UNL A   1      33.850  22.828  27.209  1.00  0.00     0.100 C 
BRANCH   7   8
ATOM      8  C   UNL A   1      33.267  21.440  26.956  1.00  0.00     0.010 C 
BRANCH   8   9
ATOM      9  C   UNL A   1      32.849  21.109  25.517  1.00  0.00     0.002 C 
BRANCH   9  10
ATOM     10  C   UNL A   1      33.737  20.167  24.693  1.00  0.00     0.015 C 
BRANCH  10  11
ATOM     11  C   UNL A   1      33.382  18.670  24.621  1.00  0.00     0.059 C 
ATOM     12  C   UNL A   1      32.681  18.053  25.834  1.00  0.00     0.027 C 
ATOM     13  S   UNL A   1      34.860  17.640  24.341  1.00  0.00    -0.091 SA
ATOM     14  C   UNL A   1      32.496  16.554  25.618  1.00  0.00     0.083 C 
ATOM     15  S   UNL A   1      34.093  15.889  25.078  1.00  0.00    -0.094 SA
ENDBRANCH  10  11
ENDBRANCH   9  10
ENDBRANCH   8   9
ENDBRANCH   7   8
ENDBRANCH   5   7
ENDBRANCH   2   3
ENDBRANCH   1   2
BRANCH   1  16
ATOM     16  C   UNL A   1      38.170  20.064  25.000  1.00  0.00     0.023 C 
BRANCH  16  17
ATOM     17  C   UNL A   1      39.168  20.282  26.135  1.00  0.00     0.116 C 
BRANCH  17  18
ATOM     18  N   UNL A   1      40.329  19.413  26.032  1.00  0.00    -0.352 N 
ATOM     19  C   UNL A   1      41.667  19.724  26.074  1.00  0.00     0.251 C 
ATOM     20  H   UNL A   1      40.125  18.457  25.914  1.00  0.00     0.163 HD
ATOM     21  O   UNL A   1      42.498  18.867  25.794  1.00  0.00    -0.269 OA
BRANCH  19  22
ATOM     22  C   UNL A   1      42.109  21.092  26.436  1.00  0.00     0.039 A 
ATOM     23  C   UNL A   1      42.320  22.023  25.415  1.00  0.00     0.014 A 
ATOM     24  C   UNL A   1      42.331  21.455  27.766  1.00  0.00     0.014 A 
ATOM     25  C   UNL A   1      42.691  23.333  25.733  1.00  0.00     0.010 A 
ATOM     26  C   UNL A   1      42.626  22.779  28.086  1.00  0.00     0.010 A 
ATOM     27  C   UNL A   1      42.811  23.735  27.073  1.00  0.00    -0.014 A 
BRANCH  27  28
ATOM     28  C   UNL A   1      43.108  25.148  27.433  1.00  0.00     0.031 A 
ATOM     29  C   UNL A   1      44.517  25.674  27.375  1.00  0.00     0.074 A 
ATOM     30  C   UNL A   1      42.117  25.939  27.892  1.00  0.00     0.049 A 
ATOM     31  N   UNL A   1      44.970  26.855  27.708  1.00  0.00    -0.248 NA
ATOM     32  C   UNL A   1      45.559  24.745  26.904  1.00  0.00     0.031 C 
ATOM     33  C   UNL A   1      40.721  25.531  28.066  1.00  0.00     0.029 A 
ATOM     34  N   UNL A   1      42.136  27.243  28.322  1.00  0.00    -0.354 N 
ATOM     35  C   UNL A   1      46.346  26.803  27.521  1.00  0.00     0.074 A 
ATOM     36  C   UNL A   1      46.660  25.462  27.076  1.00  0.00     0.031 C 
ATOM     37  C   UNL A   1      40.020  26.562  28.565  1.00  0.00     0.029 A 
ATOM     38  C   UNL A   1      40.918  27.692  28.778  1.00  0.00     0.049 A 
ATOM     39  H   UNL A   1      42.945  27.804  28.305  1.00  0.00     0.167 HD
ATOM     40  C   UNL A   1      47.265  27.787  27.676  1.00  0.00     0.034 A 
ATOM     41  C   UNL A   1      40.564  28.874  29.322  1.00  0.00     0.034 A 
ATOM     42  C   UNL A   1      46.949  29.131  28.085  1.00  0.00     0.049 A 
ATOM     43  C   UNL A   1      41.599  29.957  29.462  1.00  0.00     0.074 A 
ATOM     44  C   UNL A   1      47.798  30.218  28.193  1.00  0.00     0.029 A 
ATOM     45  N   UNL A   1      45.689  29.569  28.464  1.00  0.00    -0.354 N 
ATOM     46  N   UNL A   1      42.868  29.933  29.137  1.00  0.00    -0.248 NA
ATOM     47  C   UNL A   1      41.145  31.243  30.012  1.00  0.00     0.031 C 
ATOM     48  C   UNL A   1      47.059  31.305  28.669  1.00  0.00     0.029 A 
ATOM     49  C   UNL A   1      45.741  30.906  28.819  1.00  0.00     0.049 A 
ATOM     50  H   UNL A   1      44.878  29.012  28.478  1.00  0.00     0.167 HD
ATOM     51  C   UNL A   1      43.354  31.207  29.405  1.00  0.00     0.074 A 
ATOM     52  C   UNL A   1      42.238  31.986  29.900  1.00  0.00     0.031 C 
ATOM     53  C   UNL A   1      44.615  31.687  29.263  1.00  0.00     0.034 A 
BRANCH  40  54
ATOM     54  C   UNL A   1      48.702  27.463  27.361  1.00  0.00     0.023 A 
ATOM     55  C   UNL A   1      49.517  26.875  28.350  1.00  0.00     0.012 A 
ATOM     56  C   UNL A   1      49.228  27.676  26.071  1.00  0.00     0.148 A 
ATOM     57  C   UNL A   1      50.842  26.538  28.072  1.00  0.00     0.002 A 
ATOM     58  C   UNL A   1      50.534  27.293  25.788  1.00  0.00     0.091 A 
ATOM     59  F   UNL A   1      48.444  28.252  25.148  1.00  0.00    -0.205 F 
ATOM     60  C   UNL A   1      51.346  26.736  26.790  1.00  0.00     0.022 A 
BRANCH  58  61
ATOM     61  S   UNL A   1      51.252  27.432  24.147  1.00  0.00     0.127 S 
ATOM     62  O   UNL A   1      52.524  26.731  24.322  1.00  0.00    -0.237 OA
ATOM     63  O   UNL A   1      50.272  26.723  23.323  1.00  0.00    -0.237 OA
ATOM     64  O   UNL A   1      51.360  28.858  23.874  1.00  0.00    -0.744 OA
ENDBRANCH  58  61
ENDBRANCH  40  54
BRANCH  41  65
ATOM     65  C   UNL A   1      39.151  29.111  29.735  1.00  0.00     0.023 A 
ATOM     66  C   UNL A   1      38.729  28.729  31.024  1.00  0.00     0.012 A 
ATOM     67  C   UNL A   1      38.230  29.725  28.865  1.00  0.00     0.148 A 
ATOM     68  C   UNL A   1      37.406  28.918  31.424  1.00  0.00     0.002 A 
ATOM     69  C   UNL A   1      36.930  29.965  29.291  1.00  0.00     0.091 A 
ATOM     70  F   UNL A   1      38.649  30.072  27.640  1.00  0.00    -0.205 F 
ATOM     71  C   UNL A   1      36.509  29.545  30.563  1.00  0.00     0.022 A 
BRANCH  69  72
ATOM     72  S   UNL A   1      35.747  30.882  28.300  1.00  0.00     0.127 S 
ATOM     73  O   UNL A   1      36.554  32.010  27.840  1.00  0.00    -0.237 OA
ATOM     74  O   UNL A   1      35.402  29.907  27.265  1.00  0.00    -0.237 OA
ATOM     75  O   UNL A   1      34.651  31.214  29.201  1.00  0.00    -0.744 OA
ENDBRANCH  69  72
ENDBRANCH  41  65
BRANCH  53  76
ATOM     76  C   UNL A   1      44.857  33.135  29.605  1.00  0.00     0.023 A 
ATOM     77  C   UNL A   1      45.255  33.497  30.907  1.00  0.00     0.012 A 
ATOM     78  C   UNL A   1      44.757  34.129  28.611  1.00  0.00     0.148 A 
ATOM     79  C   UNL A   1      45.515  34.831  31.223  1.00  0.00     0.002 A 
ATOM     80  C   UNL A   1      45.069  35.448  28.921  1.00  0.00     0.091 A 
ATOM     81  F   UNL A   1      44.359  33.768  27.382  1.00  0.00    -0.205 F 
ATOM     82  C   UNL A   1      45.434  35.802  30.229  1.00  0.00     0.022 A 
BRANCH  80  83
ATOM     83  S   UNL A   1      45.089  36.749  27.683  1.00  0.00     0.127 S 
ATOM     84  O   UNL A   1      46.092  36.251  26.744  1.00  0.00    -0.237 OA
ATOM     85  O   UNL A   1      43.714  36.718  27.180  1.00  0.00    -0.237 OA
ATOM     86  O   UNL A   1      45.446  37.972  28.389  1.00  0.00    -0.744 OA
ENDBRANCH  80  83
ENDBRANCH  53  76
ENDBRANCH  27  28
ENDBRANCH  19  22
ENDBRANCH  17  18
ENDBRANCH  16  17
ENDBRANCH   1  16
TORSDOF 18
ENDMDL
