MODEL 1
REMARK VINA RESULT:     -13.7      0.000      0.000
REMARK SMILES O=C(NCCCCNC(=O)c1ccc(-c2c3nc(c(-c4cccc(S(=O)(=O)[O-])c4F)c4ccc([nH]4)c(-c4cccc(S(=O)(=O)[O-])c4F)c4nc(c(-c5cccc(S(=O)(=O)[O-])c5F)c5ccc2[nH]5)C=C4)C=C3)cc1)C1=Cc2cc(Cl)cc(C#Cc3ccccc3)c2O[C@@H]1C(F)(F)F
REMARK SMILES IDX 6 1 5 2 4 3 3 4 1 5 2 6 74 8 75 9 92 10 76 11 91 12 77 13
REMARK SMILES IDX 90 14 78 15 81 16 79 17 80 18 93 19 94 20 95 21 96 22 82 23
REMARK SMILES IDX 83 24 84 25 85 26 89 27 86 28 88 29 87 30 7 31 8 32 9 33
REMARK SMILES IDX 10 35 11 36 12 37 73 38 13 39 72 40 14 41 15 42 16 43 66 44
REMARK SMILES IDX 17 45 71 46 65 47 67 48 18 49 70 50 64 51 63 52 19 54 51 55
REMARK SMILES IDX 31 56 50 57 32 58 35 59 49 60 68 61 33 62 34 63 48 65 69 66
REMARK SMILES IDX 36 67 20 68 21 69 29 70 22 71 24 72 30 73 23 74 25 75 26 76
REMARK SMILES IDX 27 77 28 78 52 79 53 80 61 81 54 82 56 83 62 84 55 85 57 86
REMARK SMILES IDX 58 87 59 88 60 89 37 90 38 91 46 92 39 93 41 94 47 95 40 96
REMARK SMILES IDX 42 97 43 98 44 99 45 100
REMARK H PARENT 3 7 8 34 67 53 35 64
REMARK Flexibility Score: inf
ROOT
ATOM      1  C   UNL A   1      31.532  28.547  26.386  1.00  0.00     0.023 C 
ENDROOT
BRANCH   1   2
ATOM      2  C   UNL A   1      31.392  27.424  25.369  1.00  0.00     0.023 C 
BRANCH   2   3
ATOM      3  C   UNL A   1      30.407  26.327  25.741  1.00  0.00     0.116 C 
BRANCH   3   4
ATOM      4  N   UNL A   1      30.942  25.174  26.436  1.00  0.00    -0.352 N 
ATOM      5  O   UNL A   1      32.492  23.666  27.046  1.00  0.00    -0.270 OA
ATOM      6  C   UNL A   1      32.110  24.494  26.219  1.00  0.00     0.251 C 
ATOM      7  H   UNL A   1      30.385  24.829  27.170  1.00  0.00     0.163 HD
BRANCH   6   8
ATOM      8  C   UNL A   1      33.012  24.769  25.054  1.00  0.00     0.067 C 
ATOM      9  C   UNL A   1      34.298  25.155  25.171  1.00  0.00     0.025 C 
ATOM     10  C   UNL A   1      32.653  23.920  23.856  1.00  0.00     0.314 C 
ATOM     11  C   UNL A   1      35.228  24.019  24.885  1.00  0.00     0.020 A 
ATOM     12  O   UNL A   1      33.455  22.705  23.842  1.00  0.00    -0.474 OA
ATOM     13  C   UNL A   1      36.503  24.079  25.461  1.00  0.00     0.032 A 
ATOM     14  C   UNL A   1      34.696  22.788  24.436  1.00  0.00     0.143 A 
ATOM     15  C   UNL A   1      37.190  22.896  25.712  1.00  0.00     0.043 A 
ATOM     16  C   UNL A   1      35.372  21.601  24.754  1.00  0.00     0.069 A 
ATOM     17  Cl  UNL A   1      38.664  22.950  26.597  1.00  0.00    -0.084 Cl
ATOM     18  C   UNL A   1      36.622  21.663  25.390  1.00  0.00     0.041 A 
BRANCH  10  19
ATOM     19  C   UNL A   1      32.741  24.722  22.542  1.00  0.00     0.429 C 
ATOM     20  F   UNL A   1      31.631  25.463  22.326  1.00  0.00    -0.167 F 
ATOM     21  F   UNL A   1      33.790  25.583  22.560  1.00  0.00    -0.167 F 
ATOM     22  F   UNL A   1      32.910  23.929  21.455  1.00  0.00    -0.167 F 
ENDBRANCH  10  19
BRANCH  16  23
ATOM     23  C   UNL A   1      34.736  20.311  24.672  1.00  0.00    -0.058 C 
ATOM     24  C   UNL A   1      34.274  19.205  24.741  1.00  0.00    -0.062 C 
BRANCH  24  25
ATOM     25  C   UNL A   1      33.867  17.832  24.861  1.00  0.00     0.025 A 
ATOM     26  C   UNL A   1      32.547  17.497  25.169  1.00  0.00     0.017 A 
ATOM     27  C   UNL A   1      34.820  16.821  24.756  1.00  0.00     0.017 A 
ATOM     28  C   UNL A   1      32.198  16.174  25.462  1.00  0.00     0.001 A 
ATOM     29  C   UNL A   1      34.468  15.493  25.015  1.00  0.00     0.001 A 
ATOM     30  C   UNL A   1      33.164  15.174  25.392  1.00  0.00     0.000 A 
ENDBRANCH  24  25
ENDBRANCH  16  23
ENDBRANCH   6   8
ENDBRANCH   3   4
ENDBRANCH   2   3
ENDBRANCH   1   2
BRANCH   1  31
ATOM     31  C   UNL A   1      32.656  29.554  26.140  1.00  0.00     0.116 C 
BRANCH  31  32
ATOM     32  N   UNL A   1      32.411  30.902  26.650  1.00  0.00    -0.352 N 
ATOM     33  C   UNL A   1      33.269  31.736  27.343  1.00  0.00     0.251 C 
ATOM     34  H   UNL A   1      31.513  31.265  26.477  1.00  0.00     0.163 HD
ATOM     35  O   UNL A   1      32.893  32.841  27.720  1.00  0.00    -0.269 OA
BRANCH  33  36
ATOM     36  C   UNL A   1      34.640  31.272  27.658  1.00  0.00     0.039 A 
ATOM     37  C   UNL A   1      35.662  32.197  27.866  1.00  0.00     0.014 A 
ATOM     38  C   UNL A   1      34.885  29.913  27.845  1.00  0.00     0.014 A 
ATOM     39  C   UNL A   1      36.884  31.759  28.388  1.00  0.00     0.010 A 
ATOM     40  C   UNL A   1      36.055  29.490  28.463  1.00  0.00     0.010 A 
ATOM     41  C   UNL A   1      37.064  30.413  28.760  1.00  0.00    -0.014 A 
BRANCH  41  42
ATOM     42  C   UNL A   1      38.255  29.991  29.547  1.00  0.00     0.031 A 
ATOM     43  C   UNL A   1      38.455  30.439  30.969  1.00  0.00     0.074 A 
ATOM     44  C   UNL A   1      39.211  29.260  28.937  1.00  0.00     0.049 A 
ATOM     45  N   UNL A   1      39.409  30.115  31.803  1.00  0.00    -0.248 NA
ATOM     46  C   UNL A   1      37.481  31.394  31.518  1.00  0.00     0.031 C 
ATOM     47  C   UNL A   1      39.199  28.867  27.525  1.00  0.00     0.029 A 
ATOM     48  N   UNL A   1      40.381  28.727  29.417  1.00  0.00    -0.354 N 
ATOM     49  C   UNL A   1      39.161  30.833  32.967  1.00  0.00     0.074 A 
ATOM     50  C   UNL A   1      37.995  31.651  32.713  1.00  0.00     0.031 C 
ATOM     51  C   UNL A   1      40.288  28.127  27.264  1.00  0.00     0.029 A 
ATOM     52  C   UNL A   1      41.093  28.020  28.475  1.00  0.00     0.049 A 
ATOM     53  H   UNL A   1      40.684  28.841  30.346  1.00  0.00     0.167 HD
ATOM     54  C   UNL A   1      39.823  30.793  34.148  1.00  0.00     0.034 A 
ATOM     55  C   UNL A   1      42.260  27.355  28.573  1.00  0.00     0.034 A 
ATOM     56  C   UNL A   1      40.978  29.970  34.397  1.00  0.00     0.049 A 
ATOM     57  C   UNL A   1      42.958  27.295  29.903  1.00  0.00     0.074 A 
ATOM     58  C   UNL A   1      41.661  29.784  35.585  1.00  0.00     0.029 A 
ATOM     59  N   UNL A   1      41.639  29.219  33.436  1.00  0.00    -0.354 N 
ATOM     60  N   UNL A   1      42.599  27.828  31.045  1.00  0.00    -0.248 NA
ATOM     61  C   UNL A   1      44.199  26.512  29.967  1.00  0.00     0.031 C 
ATOM     62  C   UNL A   1      42.764  28.961  35.332  1.00  0.00     0.029 A 
ATOM     63  C   UNL A   1      42.736  28.588  33.998  1.00  0.00     0.049 A 
ATOM     64  H   UNL A   1      41.367  29.145  32.493  1.00  0.00     0.167 HD
ATOM     65  C   UNL A   1      43.552  27.419  31.972  1.00  0.00     0.074 A 
ATOM     66  C   UNL A   1      44.487  26.573  31.260  1.00  0.00     0.031 C 
ATOM     67  C   UNL A   1      43.647  27.725  33.290  1.00  0.00     0.034 A 
BRANCH  54  68
ATOM     68  C   UNL A   1      39.291  31.640  35.278  1.00  0.00     0.023 A 
ATOM     69  C   UNL A   1      38.359  31.092  36.186  1.00  0.00     0.012 A 
ATOM     70  C   UNL A   1      39.750  32.956  35.477  1.00  0.00     0.148 A 
ATOM     71  C   UNL A   1      37.859  31.854  37.242  1.00  0.00     0.002 A 
ATOM     72  C   UNL A   1      39.285  33.693  36.561  1.00  0.00     0.091 A 
ATOM     73  F   UNL A   1      40.622  33.469  34.597  1.00  0.00    -0.205 F 
ATOM     74  C   UNL A   1      38.330  33.149  37.434  1.00  0.00     0.022 A 
BRANCH  72  75
ATOM     75  S   UNL A   1      39.889  35.340  36.945  1.00  0.00     0.127 S 
ATOM     76  O   UNL A   1      39.412  36.103  35.792  1.00  0.00    -0.237 OA
ATOM     77  O   UNL A   1      39.197  35.635  38.200  1.00  0.00    -0.237 OA
ATOM     78  O   UNL A   1      41.336  35.223  37.060  1.00  0.00    -0.744 OA
ENDBRANCH  72  75
ENDBRANCH  54  68
BRANCH  55  79
ATOM     79  C   UNL A   1      42.808  26.636  27.387  1.00  0.00     0.023 A 
ATOM     80  C   UNL A   1      43.632  27.321  26.474  1.00  0.00     0.012 A 
ATOM     81  C   UNL A   1      42.543  25.268  27.181  1.00  0.00     0.148 A 
ATOM     82  C   UNL A   1      44.157  26.666  25.359  1.00  0.00     0.002 A 
ATOM     83  C   UNL A   1      43.116  24.607  26.101  1.00  0.00     0.091 A 
ATOM     84  F   UNL A   1      41.753  24.637  28.060  1.00  0.00    -0.205 F 
ATOM     85  C   UNL A   1      43.908  25.308  25.179  1.00  0.00     0.022 A 
BRANCH  83  86
ATOM     86  S   UNL A   1      42.960  22.835  25.863  1.00  0.00     0.127 S 
ATOM     87  O   UNL A   1      43.439  22.674  24.492  1.00  0.00    -0.237 OA
ATOM     88  O   UNL A   1      43.856  22.315  26.896  1.00  0.00    -0.237 OA
ATOM     89  O   UNL A   1      41.552  22.529  26.078  1.00  0.00    -0.744 OA
ENDBRANCH  83  86
ENDBRANCH  55  79
BRANCH  67  90
ATOM     90  C   UNL A   1      44.787  27.114  34.065  1.00  0.00     0.023 A 
ATOM     91  C   UNL A   1      46.039  27.761  34.112  1.00  0.00     0.012 A 
ATOM     92  C   UNL A   1      44.601  25.921  34.790  1.00  0.00     0.148 A 
ATOM     93  C   UNL A   1      47.098  27.207  34.832  1.00  0.00     0.002 A 
ATOM     94  C   UNL A   1      45.642  25.405  35.552  1.00  0.00     0.091 A 
ATOM     95  F   UNL A   1      43.408  25.311  34.721  1.00  0.00    -0.205 F 
ATOM     96  C   UNL A   1      46.896  26.037  35.559  1.00  0.00     0.022 A 
BRANCH  94  97
ATOM     97  S   UNL A   1      45.447  23.959  36.599  1.00  0.00     0.127 S 
ATOM     98  O   UNL A   1      44.685  23.063  35.730  1.00  0.00    -0.237 OA
ATOM     99  O   UNL A   1      46.834  23.555  36.826  1.00  0.00    -0.237 OA
ATOM    100  O   UNL A   1      44.746  24.415  37.791  1.00  0.00    -0.744 OA
ENDBRANCH  94  97
ENDBRANCH  67  90
ENDBRANCH  41  42
ENDBRANCH  33  36
ENDBRANCH  31  32
ENDBRANCH   1  31
TORSDOF 17
ENDMDL
MODEL 2
REMARK VINA RESULT:     -13.5      5.027     10.375
REMARK SMILES O=C(NCCCCNC(=O)c1ccc(-c2c3nc(c(-c4cccc(S(=O)(=O)[O-])c4F)c4ccc([nH]4)c(-c4cccc(S(=O)(=O)[O-])c4F)c4nc(c(-c5cccc(S(=O)(=O)[O-])c5F)c5ccc2[nH]5)C=C4)C=C3)cc1)C1=Cc2cc(Cl)cc(C#Cc3ccccc3)c2O[C@@H]1C(F)(F)F
REMARK SMILES IDX 6 1 5 2 4 3 3 4 1 5 2 6 74 8 75 9 92 10 76 11 91 12 77 13
REMARK SMILES IDX 90 14 78 15 81 16 79 17 80 18 93 19 94 20 95 21 96 22 82 23
REMARK SMILES IDX 83 24 84 25 85 26 89 27 86 28 88 29 87 30 7 31 8 32 9 33
REMARK SMILES IDX 10 35 11 36 12 37 73 38 13 39 72 40 14 41 15 42 16 43 66 44
REMARK SMILES IDX 17 45 71 46 65 47 67 48 18 49 70 50 64 51 63 52 19 54 51 55
REMARK SMILES IDX 31 56 50 57 32 58 35 59 49 60 68 61 33 62 34 63 48 65 69 66
REMARK SMILES IDX 36 67 20 68 21 69 29 70 22 71 24 72 30 73 23 74 25 75 26 76
REMARK SMILES IDX 27 77 28 78 52 79 53 80 61 81 54 82 56 83 62 84 55 85 57 86
REMARK SMILES IDX 58 87 59 88 60 89 37 90 38 91 46 92 39 93 41 94 47 95 40 96
REMARK SMILES IDX 42 97 43 98 44 99 45 100
REMARK H PARENT 3 7 8 34 67 53 35 64
REMARK Flexibility Score: inf
ROOT
ATOM      1  C   UNL A   1      36.338  22.059  24.662  1.00  0.00     0.023 C 
ENDROOT
BRANCH   1   2
ATOM      2  C   UNL A   1      36.128  22.903  23.413  1.00  0.00     0.023 C 
BRANCH   2   3
ATOM      3  C   UNL A   1      34.687  23.030  22.949  1.00  0.00     0.116 C 
BRANCH   3   4
ATOM      4  N   UNL A   1      34.271  24.325  22.449  1.00  0.00    -0.352 N 
ATOM      5  O   UNL A   1      33.621  26.472  22.566  1.00  0.00    -0.270 OA
ATOM      6  C   UNL A   1      33.716  25.379  23.123  1.00  0.00     0.251 C 
ATOM      7  H   UNL A   1      34.406  24.467  21.484  1.00  0.00     0.163 HD
BRANCH   6   8
ATOM      8  C   UNL A   1      33.291  25.298  24.559  1.00  0.00     0.067 C 
ATOM      9  C   UNL A   1      33.991  25.826  25.582  1.00  0.00     0.025 C 
ATOM     10  C   UNL A   1      31.786  25.267  24.696  1.00  0.00     0.314 C 
ATOM     11  C   UNL A   1      33.362  27.094  26.066  1.00  0.00     0.020 A 
ATOM     12  O   UNL A   1      31.273  26.614  24.901  1.00  0.00    -0.474 OA
ATOM     13  C   UNL A   1      34.199  28.015  26.710  1.00  0.00     0.032 A 
ATOM     14  C   UNL A   1      32.125  27.504  25.518  1.00  0.00     0.143 A 
ATOM     15  C   UNL A   1      33.865  29.365  26.688  1.00  0.00     0.043 A 
ATOM     16  C   UNL A   1      31.835  28.875  25.447  1.00  0.00     0.069 A 
ATOM     17  Cl  UNL A   1      34.984  30.519  27.302  1.00  0.00    -0.084 Cl
ATOM     18  C   UNL A   1      32.710  29.800  26.038  1.00  0.00     0.041 A 
BRANCH  10  19
ATOM     19  C   UNL A   1      31.334  24.271  25.782  1.00  0.00     0.429 C 
ATOM     20  F   UNL A   1      30.896  24.901  26.896  1.00  0.00    -0.167 F 
ATOM     21  F   UNL A   1      30.312  23.494  25.342  1.00  0.00    -0.167 F 
ATOM     22  F   UNL A   1      32.325  23.428  26.165  1.00  0.00    -0.167 F 
ENDBRANCH  10  19
BRANCH  16  23
ATOM     23  C   UNL A   1      30.802  29.396  24.591  1.00  0.00    -0.058 C 
ATOM     24  C   UNL A   1      30.053  29.915  23.807  1.00  0.00    -0.062 C 
BRANCH  24  25
ATOM     25  C   UNL A   1      29.226  30.673  22.910  1.00  0.00     0.025 A 
ATOM     26  C   UNL A   1      28.729  30.104  21.735  1.00  0.00     0.017 A 
ATOM     27  C   UNL A   1      28.989  32.021  23.167  1.00  0.00     0.017 A 
ATOM     28  C   UNL A   1      28.080  30.895  20.780  1.00  0.00     0.001 A 
ATOM     29  C   UNL A   1      28.310  32.807  22.231  1.00  0.00     0.001 A 
ATOM     30  C   UNL A   1      27.879  32.250  21.028  1.00  0.00     0.000 A 
ENDBRANCH  24  25
ENDBRANCH  16  23
ENDBRANCH   6   8
ENDBRANCH   3   4
ENDBRANCH   2   3
ENDBRANCH   1   2
BRANCH   1  31
ATOM     31  C   UNL A   1      37.155  22.697  25.788  1.00  0.00     0.116 C 
BRANCH  31  32
ATOM     32  N   UNL A   1      38.430  22.046  26.082  1.00  0.00    -0.352 N 
ATOM     33  C   UNL A   1      39.568  22.587  26.651  1.00  0.00     0.251 C 
ATOM     34  H   UNL A   1      38.486  21.093  25.842  1.00  0.00     0.163 HD
ATOM     35  O   UNL A   1      40.570  21.898  26.812  1.00  0.00    -0.269 OA
BRANCH  33  36
ATOM     36  C   UNL A   1      39.580  24.016  27.038  1.00  0.00     0.039 A 
ATOM     37  C   UNL A   1      39.249  24.393  28.338  1.00  0.00     0.014 A 
ATOM     38  C   UNL A   1      40.021  24.975  26.128  1.00  0.00     0.014 A 
ATOM     39  C   UNL A   1      39.489  25.708  28.751  1.00  0.00     0.010 A 
ATOM     40  C   UNL A   1      40.361  26.251  26.563  1.00  0.00     0.010 A 
ATOM     41  C   UNL A   1      40.116  26.627  27.889  1.00  0.00    -0.014 A 
BRANCH  41  42
ATOM     42  C   UNL A   1      40.607  27.938  28.395  1.00  0.00     0.031 A 
ATOM     43  C   UNL A   1      42.076  28.250  28.471  1.00  0.00     0.074 A 
ATOM     44  C   UNL A   1      39.711  28.827  28.872  1.00  0.00     0.049 A 
ATOM     45  N   UNL A   1      42.660  29.362  28.837  1.00  0.00    -0.248 NA
ATOM     46  C   UNL A   1      43.013  27.171  28.123  1.00  0.00     0.031 C 
ATOM     47  C   UNL A   1      38.267  28.598  28.972  1.00  0.00     0.029 A 
ATOM     48  N   UNL A   1      39.878  30.095  29.372  1.00  0.00    -0.354 N 
ATOM     49  C   UNL A   1      44.027  29.116  28.777  1.00  0.00     0.074 A 
ATOM     50  C   UNL A   1      44.185  27.731  28.389  1.00  0.00     0.031 C 
ATOM     51  C   UNL A   1      37.678  29.698  29.466  1.00  0.00     0.029 A 
ATOM     52  C   UNL A   1      38.700  30.699  29.749  1.00  0.00     0.049 A 
ATOM     53  H   UNL A   1      40.756  30.530  29.454  1.00  0.00     0.167 HD
ATOM     54  C   UNL A   1      45.055  29.970  28.993  1.00  0.00     0.034 A 
ATOM     55  C   UNL A   1      38.465  31.922  30.261  1.00  0.00     0.034 A 
ATOM     56  C   UNL A   1      44.890  31.350  29.370  1.00  0.00     0.049 A 
ATOM     57  C   UNL A   1      39.618  32.865  30.459  1.00  0.00     0.074 A 
ATOM     58  C   UNL A   1      45.862  32.323  29.518  1.00  0.00     0.029 A 
ATOM     59  N   UNL A   1      43.679  31.947  29.686  1.00  0.00    -0.354 N 
ATOM     60  N   UNL A   1      40.891  32.673  30.212  1.00  0.00    -0.248 NA
ATOM     61  C   UNL A   1      39.300  34.205  30.970  1.00  0.00     0.031 C 
ATOM     62  C   UNL A   1      45.245  33.493  29.972  1.00  0.00     0.029 A 
ATOM     63  C   UNL A   1      43.881  33.267  30.054  1.00  0.00     0.049 A 
ATOM     64  H   UNL A   1      42.803  31.498  29.654  1.00  0.00     0.167 HD
ATOM     65  C   UNL A   1      41.522  33.876  30.505  1.00  0.00     0.074 A 
ATOM     66  C   UNL A   1      40.486  34.797  30.924  1.00  0.00     0.031 C 
ATOM     67  C   UNL A   1      42.841  34.186  30.442  1.00  0.00     0.034 A 
BRANCH  54  68
ATOM     68  C   UNL A   1      46.455  29.446  28.792  1.00  0.00     0.023 A 
ATOM     69  C   UNL A   1      47.267  29.166  29.912  1.00  0.00     0.012 A 
ATOM     70  C   UNL A   1      46.952  29.179  27.502  1.00  0.00     0.148 A 
ATOM     71  C   UNL A   1      48.562  28.674  29.750  1.00  0.00     0.002 A 
ATOM     72  C   UNL A   1      48.225  28.641  27.350  1.00  0.00     0.091 A 
ATOM     73  F   UNL A   1      46.176  29.465  26.446  1.00  0.00    -0.205 F 
ATOM     74  C   UNL A   1      49.036  28.402  28.471  1.00  0.00     0.022 A 
BRANCH  72  75
ATOM     75  S   UNL A   1      48.898  28.179  25.750  1.00  0.00     0.127 S 
ATOM     76  O   UNL A   1      49.132  26.746  25.934  1.00  0.00    -0.237 OA
ATOM     77  O   UNL A   1      47.794  28.505  24.847  1.00  0.00    -0.237 OA
ATOM     78  O   UNL A   1      50.094  28.988  25.567  1.00  0.00    -0.744 OA
ENDBRANCH  72  75
ENDBRANCH  54  68
BRANCH  55  79
ATOM     79  C   UNL A   1      37.067  32.347  30.561  1.00  0.00     0.023 A 
ATOM     80  C   UNL A   1      36.549  32.178  31.860  1.00  0.00     0.012 A 
ATOM     81  C   UNL A   1      36.263  32.949  29.573  1.00  0.00     0.148 A 
ATOM     82  C   UNL A   1      35.245  32.571  32.161  1.00  0.00     0.002 A 
ATOM     83  C   UNL A   1      34.987  33.391  29.895  1.00  0.00     0.091 A 
ATOM     84  F   UNL A   1      36.775  33.095  28.343  1.00  0.00    -0.205 F 
ATOM     85  C   UNL A   1      34.468  33.186  31.183  1.00  0.00     0.022 A 
BRANCH  83  86
ATOM     86  S   UNL A   1      33.966  34.311  28.741  1.00  0.00     0.127 S 
ATOM     87  O   UNL A   1      32.818  34.665  29.572  1.00  0.00    -0.237 OA
ATOM     88  O   UNL A   1      34.843  35.428  28.390  1.00  0.00    -0.237 OA
ATOM     89  O   UNL A   1      33.688  33.396  27.641  1.00  0.00    -0.744 OA
ENDBRANCH  83  86
ENDBRANCH  55  79
BRANCH  67  90
ATOM     90  C   UNL A   1      43.243  35.594  30.804  1.00  0.00     0.023 A 
ATOM     91  C   UNL A   1      43.527  35.928  32.144  1.00  0.00     0.012 A 
ATOM     92  C   UNL A   1      43.389  36.575  29.803  1.00  0.00     0.148 A 
ATOM     93  C   UNL A   1      43.906  37.226  32.487  1.00  0.00     0.002 A 
ATOM     94  C   UNL A   1      43.822  37.850  30.144  1.00  0.00     0.091 A 
ATOM     95  F   UNL A   1      43.100  36.243  28.536  1.00  0.00    -0.205 F 
ATOM     96  C   UNL A   1      44.064  38.182  31.487  1.00  0.00     0.022 A 
BRANCH  94  97
ATOM     97  S   UNL A   1      44.150  39.118  28.916  1.00  0.00     0.127 S 
ATOM     98  O   UNL A   1      45.243  38.518  28.152  1.00  0.00    -0.237 OA
ATOM     99  O   UNL A   1      42.876  39.192  28.202  1.00  0.00    -0.237 OA
ATOM    100  O   UNL A   1      44.498  40.321  29.659  1.00  0.00    -0.744 OA
ENDBRANCH  94  97
ENDBRANCH  67  90
ENDBRANCH  41  42
ENDBRANCH  33  36
ENDBRANCH  31  32
ENDBRANCH   1  31
TORSDOF 17
ENDMDL
MODEL 3
REMARK VINA RESULT:     -13.4      4.969     10.551
REMARK SMILES O=C(NCCCCNC(=O)c1ccc(-c2c3nc(c(-c4cccc(S(=O)(=O)[O-])c4F)c4ccc([nH]4)c(-c4cccc(S(=O)(=O)[O-])c4F)c4nc(c(-c5cccc(S(=O)(=O)[O-])c5F)c5ccc2[nH]5)C=C4)C=C3)cc1)C1=Cc2cc(Cl)cc(C#Cc3ccccc3)c2O[C@@H]1C(F)(F)F
REMARK SMILES IDX 6 1 5 2 4 3 3 4 1 5 2 6 74 8 75 9 92 10 76 11 91 12 77 13
REMARK SMILES IDX 90 14 78 15 81 16 79 17 80 18 93 19 94 20 95 21 96 22 82 23
REMARK SMILES IDX 83 24 84 25 85 26 89 27 86 28 88 29 87 30 7 31 8 32 9 33
REMARK SMILES IDX 10 35 11 36 12 37 73 38 13 39 72 40 14 41 15 42 16 43 66 44
REMARK SMILES IDX 17 45 71 46 65 47 67 48 18 49 70 50 64 51 63 52 19 54 51 55
REMARK SMILES IDX 31 56 50 57 32 58 35 59 49 60 68 61 33 62 34 63 48 65 69 66
REMARK SMILES IDX 36 67 20 68 21 69 29 70 22 71 24 72 30 73 23 74 25 75 26 76
REMARK SMILES IDX 27 77 28 78 52 79 53 80 61 81 54 82 56 83 62 84 55 85 57 86
REMARK SMILES IDX 58 87 59 88 60 89 37 90 38 91 46 92 39 93 41 94 47 95 40 96
REMARK SMILES IDX 42 97 43 98 44 99 45 100
REMARK H PARENT 3 7 8 34 67 53 35 64
REMARK Flexibility Score: inf
ROOT
ATOM      1  C   UNL A   1      35.374  22.160  26.044  1.00  0.00     0.023 C 
ENDROOT
BRANCH   1   2
ATOM      2  C   UNL A   1      34.278  22.937  26.756  1.00  0.00     0.023 C 
BRANCH   2   3
ATOM      3  C   UNL A   1      32.861  22.638  26.293  1.00  0.00     0.116 C 
BRANCH   3   4
ATOM      4  N   UNL A   1      31.822  23.550  26.727  1.00  0.00    -0.352 N 
ATOM      5  O   UNL A   1      30.139  25.021  26.501  1.00  0.00    -0.270 OA
ATOM      6  C   UNL A   1      31.129  24.484  26.005  1.00  0.00     0.251 C 
ATOM      7  H   UNL A   1      31.580  23.490  27.679  1.00  0.00     0.163 HD
BRANCH   6   8
ATOM      8  C   UNL A   1      31.463  24.831  24.585  1.00  0.00     0.067 C 
ATOM      9  C   UNL A   1      30.563  25.282  23.689  1.00  0.00     0.025 C 
ATOM     10  C   UNL A   1      32.882  25.334  24.450  1.00  0.00     0.314 C 
ATOM     11  C   UNL A   1      30.707  26.756  23.477  1.00  0.00     0.020 A 
ATOM     12  O   UNL A   1      32.909  26.787  24.527  1.00  0.00    -0.474 OA
ATOM     13  C   UNL A   1      29.574  27.449  23.032  1.00  0.00     0.032 A 
ATOM     14  C   UNL A   1      31.773  27.442  24.103  1.00  0.00     0.143 A 
ATOM     15  C   UNL A   1      29.445  28.801  23.331  1.00  0.00     0.043 A 
ATOM     16  C   UNL A   1      31.600  28.789  24.454  1.00  0.00     0.069 A 
ATOM     17  Cl  UNL A   1      27.972  29.609  22.963  1.00  0.00    -0.084 Cl
ATOM     18  C   UNL A   1      30.433  29.464  24.061  1.00  0.00     0.041 A 
BRANCH  10  19
ATOM     19  C   UNL A   1      33.565  24.779  23.185  1.00  0.00     0.429 C 
ATOM     20  F   UNL A   1      34.763  24.216  23.462  1.00  0.00    -0.167 F 
ATOM     21  F   UNL A   1      32.807  23.818  22.597  1.00  0.00    -0.167 F 
ATOM     22  F   UNL A   1      33.781  25.732  22.244  1.00  0.00    -0.167 F 
ENDBRANCH  10  19
BRANCH  16  23
ATOM     23  C   UNL A   1      32.458  29.450  25.403  1.00  0.00    -0.058 C 
ATOM     24  C   UNL A   1      33.268  29.877  26.180  1.00  0.00    -0.062 C 
BRANCH  24  25
ATOM     25  C   UNL A   1      34.235  30.244  27.177  1.00  0.00     0.025 A 
ATOM     26  C   UNL A   1      34.302  31.550  27.668  1.00  0.00     0.017 A 
ATOM     27  C   UNL A   1      35.180  29.310  27.596  1.00  0.00     0.017 A 
ATOM     28  C   UNL A   1      35.356  31.945  28.499  1.00  0.00     0.001 A 
ATOM     29  C   UNL A   1      36.215  29.692  28.453  1.00  0.00     0.001 A 
ATOM     30  C   UNL A   1      36.318  31.014  28.884  1.00  0.00     0.000 A 
ENDBRANCH  24  25
ENDBRANCH  16  23
ENDBRANCH   6   8
ENDBRANCH   3   4
ENDBRANCH   2   3
ENDBRANCH   1   2
BRANCH   1  31
ATOM     31  C   UNL A   1      36.766  22.796  26.035  1.00  0.00     0.116 C 
BRANCH  31  32
ATOM     32  N   UNL A   1      37.881  21.859  25.910  1.00  0.00    -0.352 N 
ATOM     33  C   UNL A   1      39.208  22.039  26.254  1.00  0.00     0.251 C 
ATOM     34  H   UNL A   1      37.656  20.980  25.528  1.00  0.00     0.163 HD
ATOM     35  O   UNL A   1      40.027  21.146  26.062  1.00  0.00    -0.269 OA
BRANCH  33  36
ATOM     36  C   UNL A   1      39.642  23.334  26.827  1.00  0.00     0.039 A 
ATOM     37  C   UNL A   1      40.439  23.360  27.971  1.00  0.00     0.014 A 
ATOM     38  C   UNL A   1      39.337  24.521  26.166  1.00  0.00     0.014 A 
ATOM     39  C   UNL A   1      41.031  24.566  28.363  1.00  0.00     0.010 A 
ATOM     40  C   UNL A   1      40.007  25.695  26.487  1.00  0.00     0.010 A 
ATOM     41  C   UNL A   1      40.879  25.727  27.581  1.00  0.00    -0.014 A 
BRANCH  41  42
ATOM     42  C   UNL A   1      41.704  26.938  27.842  1.00  0.00     0.031 A 
ATOM     43  C   UNL A   1      43.127  27.036  27.365  1.00  0.00     0.074 A 
ATOM     44  C   UNL A   1      41.185  27.928  28.597  1.00  0.00     0.049 A 
ATOM     45  N   UNL A   1      43.958  28.043  27.465  1.00  0.00    -0.248 NA
ATOM     46  C   UNL A   1      43.705  25.848  26.718  1.00  0.00     0.031 C 
ATOM     47  C   UNL A   1      39.862  27.901  29.229  1.00  0.00     0.029 A 
ATOM     48  N   UNL A   1      41.704  29.142  28.974  1.00  0.00    -0.354 N 
ATOM     49  C   UNL A   1      45.156  27.608  26.910  1.00  0.00     0.074 A 
ATOM     50  C   UNL A   1      44.960  26.228  26.521  1.00  0.00     0.031 C 
ATOM     51  C   UNL A   1      39.661  29.057  29.881  1.00  0.00     0.029 A 
ATOM     52  C   UNL A   1      40.848  29.894  29.746  1.00  0.00     0.049 A 
ATOM     53  H   UNL A   1      42.603  29.446  28.717  1.00  0.00     0.167 HD
ATOM     54  C   UNL A   1      46.303  28.301  26.714  1.00  0.00     0.034 A 
ATOM     55  C   UNL A   1      40.996  31.119  30.283  1.00  0.00     0.034 A 
ATOM     56  C   UNL A   1      46.488  29.676  27.096  1.00  0.00     0.049 A 
ATOM     57  C   UNL A   1      42.264  31.883  30.021  1.00  0.00     0.074 A 
ATOM     58  C   UNL A   1      47.575  30.497  26.854  1.00  0.00     0.029 A 
ATOM     59  N   UNL A   1      45.577  30.427  27.824  1.00  0.00    -0.354 N 
ATOM     60  N   UNL A   1      43.314  31.521  29.326  1.00  0.00    -0.248 NA
ATOM     61  C   UNL A   1      42.352  33.237  30.586  1.00  0.00     0.031 C 
ATOM     62  C   UNL A   1      47.343  31.727  27.479  1.00  0.00     0.029 A 
ATOM     63  C   UNL A   1      46.088  31.693  28.063  1.00  0.00     0.049 A 
ATOM     64  H   UNL A   1      44.697  30.107  28.127  1.00  0.00     0.167 HD
ATOM     65  C   UNL A   1      44.175  32.613  29.341  1.00  0.00     0.074 A 
ATOM     66  C   UNL A   1      43.509  33.657  30.092  1.00  0.00     0.031 C 
ATOM     67  C   UNL A   1      45.408  32.736  28.788  1.00  0.00     0.034 A 
BRANCH  54  68
ATOM     68  C   UNL A   1      47.440  27.591  26.022  1.00  0.00     0.023 A 
ATOM     69  C   UNL A   1      47.531  27.621  24.614  1.00  0.00     0.012 A 
ATOM     70  C   UNL A   1      48.447  26.941  26.760  1.00  0.00     0.148 A 
ATOM     71  C   UNL A   1      48.577  26.978  23.953  1.00  0.00     0.002 A 
ATOM     72  C   UNL A   1      49.514  26.346  26.097  1.00  0.00     0.091 A 
ATOM     73  F   UNL A   1      48.339  26.906  28.096  1.00  0.00    -0.205 F 
ATOM     74  C   UNL A   1      49.573  26.350  24.694  1.00  0.00     0.022 A 
BRANCH  72  75
ATOM     75  S   UNL A   1      50.890  25.582  26.963  1.00  0.00     0.127 S 
ATOM     76  O   UNL A   1      50.231  24.454  27.622  1.00  0.00    -0.237 OA
ATOM     77  O   UNL A   1      51.777  25.209  25.860  1.00  0.00    -0.237 OA
ATOM     78  O   UNL A   1      51.422  26.602  27.854  1.00  0.00    -0.744 OA
ENDBRANCH  72  75
ENDBRANCH  54  68
BRANCH  55  79
ATOM     79  C   UNL A   1      39.883  31.727  31.068  1.00  0.00     0.023 A 
ATOM     80  C   UNL A   1      38.951  32.565  30.425  1.00  0.00     0.012 A 
ATOM     81  C   UNL A   1      39.726  31.449  32.440  1.00  0.00     0.148 A 
ATOM     82  C   UNL A   1      37.901  33.141  31.141  1.00  0.00     0.002 A 
ATOM     83  C   UNL A   1      38.645  31.978  33.134  1.00  0.00     0.091 A 
ATOM     84  F   UNL A   1      40.626  30.652  33.032  1.00  0.00    -0.205 F 
ATOM     85  C   UNL A   1      37.742  32.840  32.492  1.00  0.00     0.022 A 
BRANCH  83  86
ATOM     86  S   UNL A   1      38.285  31.541  34.837  1.00  0.00     0.127 S 
ATOM     87  O   UNL A   1      37.038  32.265  35.074  1.00  0.00    -0.237 OA
ATOM     88  O   UNL A   1      38.149  30.087  34.749  1.00  0.00    -0.237 OA
ATOM     89  O   UNL A   1      39.433  31.992  35.613  1.00  0.00    -0.744 OA
ENDBRANCH  83  86
ENDBRANCH  55  79
BRANCH  67  90
ATOM     90  C   UNL A   1      46.112  34.060  28.947  1.00  0.00     0.023 A 
ATOM     91  C   UNL A   1      47.011  34.261  30.014  1.00  0.00     0.012 A 
ATOM     92  C   UNL A   1      45.919  35.089  28.004  1.00  0.00     0.148 A 
ATOM     93  C   UNL A   1      47.672  35.480  30.164  1.00  0.00     0.002 A 
ATOM     94  C   UNL A   1      46.625  36.279  28.127  1.00  0.00     0.091 A 
ATOM     95  F   UNL A   1      45.048  34.885  27.004  1.00  0.00    -0.205 F 
ATOM     96  C   UNL A   1      47.487  36.484  29.216  1.00  0.00     0.022 A 
BRANCH  94  97
ATOM     97  S   UNL A   1      46.528  37.589  26.903  1.00  0.00     0.127 S 
ATOM     98  O   UNL A   1      47.491  38.557  27.426  1.00  0.00    -0.237 OA
ATOM     99  O   UNL A   1      46.952  36.904  25.683  1.00  0.00    -0.237 OA
ATOM    100  O   UNL A   1      45.141  38.034  26.896  1.00  0.00    -0.744 OA
ENDBRANCH  94  97
ENDBRANCH  67  90
ENDBRANCH  41  42
ENDBRANCH  33  36
ENDBRANCH  31  32
ENDBRANCH   1  31
TORSDOF 17
ENDMDL
