MODEL 1
REMARK VINA RESULT:     -12.1      0.000      0.000
REMARK SMILES O=C(Cc1ccc(F)c(F)c1)NC1(C(=O)NCCCCNC(=O)c2ccc(-c3c4nc(c(-c5cccc(S(=O)(=O)[O-])c5F)c5ccc([nH]5)c(-c5cccc(S(=O)(=O)[O-])c5F)c5nc(c(-c6cccc(S(=O)(=O)[O-])c6F)c6ccc3[nH]6)C=C5)C=C4)cc2)CCCC1
REMARK SMILES IDX 18 1 17 2 16 3 14 4 15 5 13 7 87 8 90 9 88 10 89 11 12 12
REMARK SMILES IDX 1 13 2 14 3 16 4 17 5 18 11 19 6 20 9 21 7 22 10 23 8 24
REMARK SMILES IDX 19 25 20 26 21 27 22 28 23 30 24 31 25 32 86 33 26 34 85 35
REMARK SMILES IDX 27 36 28 37 29 38 79 39 30 40 84 41 78 42 80 43 31 44 83 45
REMARK SMILES IDX 77 46 76 47 32 49 64 50 44 51 63 52 45 53 48 54 62 55 81 56
REMARK SMILES IDX 46 57 47 58 61 60 82 61 49 62 33 63 34 64 42 65 35 66 37 67
REMARK SMILES IDX 43 68 36 69 38 70 39 71 40 72 41 73 65 74 66 75 74 76 67 77
REMARK SMILES IDX 69 78 75 79 68 80 70 81 71 82 72 83 73 84 50 85 51 86 59 87
REMARK SMILES IDX 52 88 54 89 60 90 53 91 55 92 56 93 57 94 58 95
REMARK H PARENT 16 6 12 15 21 29 80 48 48 59
REMARK Flexibility Score: inf
ROOT
ATOM      1  C   UNL A   1      32.093  29.873  26.809  1.00  0.00     0.023 C 
ENDROOT
BRANCH   1   2
ATOM      2  C   UNL A   1      33.298  29.122  26.241  1.00  0.00     0.116 C 
BRANCH   2   3
ATOM      3  N   UNL A   1      33.454  29.404  24.833  1.00  0.00    -0.354 N 
ATOM      4  C   UNL A   1      33.459  28.569  23.756  1.00  0.00     0.245 C 
ATOM      5  O   UNL A   1      34.083  28.979  22.768  1.00  0.00    -0.272 OA
ATOM      6  H   UNL A   1      33.577  30.357  24.615  1.00  0.00     0.163 HD
BRANCH   4   7
ATOM      7  C   UNL A   1      32.825  27.126  23.781  1.00  0.00     0.119 C 
ATOM      8  C   UNL A   1      32.746  26.452  25.156  1.00  0.00     0.038 C 
ATOM      9  C   UNL A   1      33.652  26.193  22.876  1.00  0.00     0.038 C 
ATOM     10  C   UNL A   1      33.574  25.172  25.106  1.00  0.00     0.003 C 
ATOM     11  C   UNL A   1      34.217  25.073  23.734  1.00  0.00     0.003 C 
BRANCH   7  12
ATOM     12  N   UNL A   1      31.469  27.235  23.198  1.00  0.00    -0.341 N 
ATOM     13  O   UNL A   1      30.329  27.405  25.169  1.00  0.00    -0.275 OA
ATOM     14  C   UNL A   1      30.345  27.508  23.943  1.00  0.00     0.225 C 
ATOM     15  H   UNL A   1      31.365  27.105  22.228  1.00  0.00     0.164 HD
BRANCH  14  16
ATOM     16  C   UNL A   1      29.090  27.919  23.177  1.00  0.00     0.135 C 
BRANCH  16  17
ATOM     17  C   UNL A   1      28.857  29.384  22.841  1.00  0.00    -0.036 A 
ATOM     18  C   UNL A   1      28.250  29.812  21.646  1.00  0.00     0.007 A 
ATOM     19  C   UNL A   1      29.342  30.364  23.725  1.00  0.00     0.046 A 
ATOM     20  C   UNL A   1      28.017  31.171  21.405  1.00  0.00     0.043 A 
ATOM     21  C   UNL A   1      29.146  31.717  23.458  1.00  0.00     0.159 A 
ATOM     22  C   UNL A   1      28.464  32.117  22.318  1.00  0.00     0.158 A 
ATOM     23  F   UNL A   1      29.619  32.631  24.317  1.00  0.00    -0.204 F 
ATOM     24  F   UNL A   1      28.240  33.418  22.085  1.00  0.00    -0.204 F 
ENDBRANCH  16  17
ENDBRANCH  14  16
ENDBRANCH   7  12
ENDBRANCH   4   7
ENDBRANCH   2   3
ENDBRANCH   1   2
BRANCH   1  25
ATOM     25  C   UNL A   1      32.100  31.375  26.516  1.00  0.00     0.023 C 
BRANCH  25  26
ATOM     26  C   UNL A   1      33.074  32.190  27.358  1.00  0.00     0.116 C 
BRANCH  26  27
ATOM     27  N   UNL A   1      32.642  33.565  27.571  1.00  0.00    -0.352 N 
ATOM     28  C   UNL A   1      33.120  34.477  28.484  1.00  0.00     0.251 C 
ATOM     29  H   UNL A   1      31.915  33.882  26.987  1.00  0.00     0.163 HD
ATOM     30  O   UNL A   1      32.588  35.569  28.613  1.00  0.00    -0.269 OA
BRANCH  28  31
ATOM     31  C   UNL A   1      34.265  34.089  29.333  1.00  0.00     0.039 A 
ATOM     32  C   UNL A   1      34.025  33.359  30.498  1.00  0.00     0.014 A 
ATOM     33  C   UNL A   1      35.570  34.381  28.930  1.00  0.00     0.014 A 
ATOM     34  C   UNL A   1      35.105  32.854  31.224  1.00  0.00     0.010 A 
ATOM     35  C   UNL A   1      36.640  33.815  29.612  1.00  0.00     0.010 A 
ATOM     36  C   UNL A   1      36.419  33.045  30.764  1.00  0.00    -0.014 A 
BRANCH  36  37
ATOM     37  C   UNL A   1      37.578  32.435  31.464  1.00  0.00     0.031 A 
ATOM     38  C   UNL A   1      38.322  31.293  30.830  1.00  0.00     0.074 A 
ATOM     39  C   UNL A   1      37.893  32.843  32.710  1.00  0.00     0.049 A 
ATOM     40  N   UNL A   1      39.305  30.580  31.314  1.00  0.00    -0.248 NA
ATOM     41  C   UNL A   1      37.884  30.875  29.486  1.00  0.00     0.031 C 
ATOM     42  C   UNL A   1      37.185  33.876  33.469  1.00  0.00     0.029 A 
ATOM     43  N   UNL A   1      38.873  32.413  33.570  1.00  0.00    -0.354 N 
ATOM     44  C   UNL A   1      39.582  29.614  30.354  1.00  0.00     0.074 A 
ATOM     45  C   UNL A   1      38.635  29.804  29.278  1.00  0.00     0.031 C 
ATOM     46  C   UNL A   1      37.750  33.998  34.681  1.00  0.00     0.029 A 
ATOM     47  C   UNL A   1      38.844  33.038  34.796  1.00  0.00     0.049 A 
ATOM     48  H   UNL A   1      39.533  31.723  33.333  1.00  0.00     0.167 HD
ATOM     49  C   UNL A   1      40.560  28.679  30.350  1.00  0.00     0.034 A 
ATOM     50  C   UNL A   1      39.607  32.853  35.890  1.00  0.00     0.034 A 
ATOM     51  C   UNL A   1      41.530  28.526  31.399  1.00  0.00     0.049 A 
ATOM     52  C   UNL A   1      40.727  31.847  35.836  1.00  0.00     0.074 A 
ATOM     53  C   UNL A   1      42.608  27.660  31.456  1.00  0.00     0.029 A 
ATOM     54  N   UNL A   1      41.541  29.257  32.576  1.00  0.00    -0.354 N 
ATOM     55  N   UNL A   1      41.073  31.052  34.853  1.00  0.00    -0.248 NA
ATOM     56  C   UNL A   1      41.586  31.743  37.024  1.00  0.00     0.031 C 
ATOM     57  C   UNL A   1      43.267  27.863  32.672  1.00  0.00     0.029 A 
ATOM     58  C   UNL A   1      42.609  28.867  33.366  1.00  0.00     0.049 A 
ATOM     59  H   UNL A   1      40.887  29.952  32.817  1.00  0.00     0.167 HD
ATOM     60  C   UNL A   1      42.207  30.378  35.289  1.00  0.00     0.074 A 
ATOM     61  C   UNL A   1      42.505  30.876  36.616  1.00  0.00     0.031 C 
ATOM     62  C   UNL A   1      42.927  29.418  34.657  1.00  0.00     0.034 A 
BRANCH  49  63
ATOM     63  C   UNL A   1      40.676  27.797  29.134  1.00  0.00     0.023 A 
ATOM     64  C   UNL A   1      39.849  26.659  29.029  1.00  0.00     0.012 A 
ATOM     65  C   UNL A   1      41.552  28.115  28.079  1.00  0.00     0.148 A 
ATOM     66  C   UNL A   1      39.915  25.833  27.909  1.00  0.00     0.002 A 
ATOM     67  C   UNL A   1      41.582  27.309  26.945  1.00  0.00     0.091 A 
ATOM     68  F   UNL A   1      42.345  29.188  28.206  1.00  0.00    -0.205 F 
ATOM     69  C   UNL A   1      40.773  26.163  26.863  1.00  0.00     0.022 A 
BRANCH  67  70
ATOM     70  S   UNL A   1      42.594  27.688  25.511  1.00  0.00     0.127 S 
ATOM     71  O   UNL A   1      42.354  26.521  24.664  1.00  0.00    -0.237 OA
ATOM     72  O   UNL A   1      41.988  28.929  25.026  1.00  0.00    -0.237 OA
ATOM     73  O   UNL A   1      43.956  27.830  26.006  1.00  0.00    -0.744 OA
ENDBRANCH  67  70
ENDBRANCH  49  63
BRANCH  50  74
ATOM     74  C   UNL A   1      39.386  33.688  37.106  1.00  0.00     0.023 A 
ATOM     75  C   UNL A   1      39.862  35.013  37.132  1.00  0.00     0.012 A 
ATOM     76  C   UNL A   1      38.687  33.188  38.221  1.00  0.00     0.148 A 
ATOM     77  C   UNL A   1      39.679  35.813  38.261  1.00  0.00     0.002 A 
ATOM     78  C   UNL A   1      38.459  34.009  39.320  1.00  0.00     0.091 A 
ATOM     79  F   UNL A   1      38.252  31.920  38.184  1.00  0.00    -0.205 F 
ATOM     80  C   UNL A   1      38.970  35.315  39.350  1.00  0.00     0.022 A 
BRANCH  78  81
ATOM     81  S   UNL A   1      37.439  33.491  40.706  1.00  0.00     0.127 S 
ATOM     82  O   UNL A   1      37.342  34.723  41.484  1.00  0.00    -0.237 OA
ATOM     83  O   UNL A   1      36.201  33.084  40.039  1.00  0.00    -0.237 OA
ATOM     84  O   UNL A   1      38.165  32.394  41.334  1.00  0.00    -0.744 OA
ENDBRANCH  78  81
ENDBRANCH  50  74
BRANCH  62  85
ATOM     85  C   UNL A   1      44.131  28.863  35.372  1.00  0.00     0.023 A 
ATOM     86  C   UNL A   1      45.399  29.432  35.148  1.00  0.00     0.012 A 
ATOM     87  C   UNL A   1      43.990  27.835  36.323  1.00  0.00     0.148 A 
ATOM     88  C   UNL A   1      46.516  28.965  35.839  1.00  0.00     0.002 A 
ATOM     89  C   UNL A   1      45.099  27.407  37.043  1.00  0.00     0.091 A 
ATOM     90  F   UNL A   1      42.777  27.293  36.507  1.00  0.00    -0.205 F 
ATOM     91  C   UNL A   1      46.365  27.963  36.794  1.00  0.00     0.022 A 
BRANCH  89  92
ATOM     92  S   UNL A   1      44.981  26.188  38.357  1.00  0.00     0.127 S 
ATOM     93  O   UNL A   1      44.496  25.014  37.633  1.00  0.00    -0.237 OA
ATOM     94  O   UNL A   1      46.366  26.091  38.818  1.00  0.00    -0.237 OA
ATOM     95  O   UNL A   1      44.058  26.745  39.337  1.00  0.00    -0.744 OA
ENDBRANCH  89  92
ENDBRANCH  62  85
ENDBRANCH  36  37
ENDBRANCH  28  31
ENDBRANCH  26  27
ENDBRANCH  25  26
ENDBRANCH   1  25
TORSDOF 17
ENDMDL
MODEL 2
REMARK VINA RESULT:     -12.1      2.396      7.910
REMARK SMILES O=C(Cc1ccc(F)c(F)c1)NC1(C(=O)NCCCCNC(=O)c2ccc(-c3c4nc(c(-c5cccc(S(=O)(=O)[O-])c5F)c5ccc([nH]5)c(-c5cccc(S(=O)(=O)[O-])c5F)c5nc(c(-c6cccc(S(=O)(=O)[O-])c6F)c6ccc3[nH]6)C=C5)C=C4)cc2)CCCC1
REMARK SMILES IDX 18 1 17 2 16 3 14 4 15 5 13 7 87 8 90 9 88 10 89 11 12 12
REMARK SMILES IDX 1 13 2 14 3 16 4 17 5 18 11 19 6 20 9 21 7 22 10 23 8 24
REMARK SMILES IDX 19 25 20 26 21 27 22 28 23 30 24 31 25 32 86 33 26 34 85 35
REMARK SMILES IDX 27 36 28 37 29 38 79 39 30 40 84 41 78 42 80 43 31 44 83 45
REMARK SMILES IDX 77 46 76 47 32 49 64 50 44 51 63 52 45 53 48 54 62 55 81 56
REMARK SMILES IDX 46 57 47 58 61 60 82 61 49 62 33 63 34 64 42 65 35 66 37 67
REMARK SMILES IDX 43 68 36 69 38 70 39 71 40 72 41 73 65 74 66 75 74 76 67 77
REMARK SMILES IDX 69 78 75 79 68 80 70 81 71 82 72 83 73 84 50 85 51 86 59 87
REMARK SMILES IDX 52 88 54 89 60 90 53 91 55 92 56 93 57 94 58 95
REMARK H PARENT 16 6 12 15 21 29 80 48 48 59
REMARK Flexibility Score: inf
ROOT
ATOM      1  C   UNL A   1      33.699  28.930  24.933  1.00  0.00     0.023 C 
ENDROOT
BRANCH   1   2
ATOM      2  C   UNL A   1      33.862  27.478  24.483  1.00  0.00     0.116 C 
BRANCH   2   3
ATOM      3  N   UNL A   1      33.401  26.573  25.510  1.00  0.00    -0.354 N 
ATOM      4  C   UNL A   1      32.556  25.506  25.438  1.00  0.00     0.245 C 
ATOM      5  O   UNL A   1      31.961  25.228  26.488  1.00  0.00    -0.272 OA
ATOM      6  H   UNL A   1      33.755  26.757  26.410  1.00  0.00     0.163 HD
BRANCH   4   7
ATOM      7  C   UNL A   1      32.250  24.737  24.096  1.00  0.00     0.119 C 
ATOM      8  C   UNL A   1      31.265  23.567  24.204  1.00  0.00     0.038 C 
ATOM      9  C   UNL A   1      33.563  24.162  23.531  1.00  0.00     0.038 C 
ATOM     10  C   UNL A   1      31.993  22.293  23.785  1.00  0.00     0.003 C 
ATOM     11  C   UNL A   1      33.436  22.649  23.475  1.00  0.00     0.003 C 
BRANCH   7  12
ATOM     12  N   UNL A   1      31.739  25.733  23.128  1.00  0.00    -0.341 N 
ATOM     13  O   UNL A   1      29.787  26.205  24.214  1.00  0.00    -0.275 OA
ATOM     14  C   UNL A   1      30.610  26.489  23.344  1.00  0.00     0.225 C 
ATOM     15  H   UNL A   1      32.232  25.861  22.286  1.00  0.00     0.164 HD
BRANCH  14  16
ATOM     16  C   UNL A   1      30.398  27.693  22.430  1.00  0.00     0.135 C 
BRANCH  16  17
ATOM     17  C   UNL A   1      29.398  28.771  22.821  1.00  0.00    -0.036 A 
ATOM     18  C   UNL A   1      28.005  28.598  22.726  1.00  0.00     0.007 A 
ATOM     19  C   UNL A   1      29.885  30.028  23.218  1.00  0.00     0.046 A 
ATOM     20  C   UNL A   1      27.127  29.606  23.142  1.00  0.00     0.043 A 
ATOM     21  C   UNL A   1      29.004  31.042  23.589  1.00  0.00     0.159 A 
ATOM     22  C   UNL A   1      27.634  30.824  23.576  1.00  0.00     0.158 A 
ATOM     23  F   UNL A   1      29.495  32.232  23.964  1.00  0.00    -0.204 F 
ATOM     24  F   UNL A   1      26.791  31.787  23.973  1.00  0.00    -0.204 F 
ENDBRANCH  16  17
ENDBRANCH  14  16
ENDBRANCH   7  12
ENDBRANCH   4   7
ENDBRANCH   2   3
ENDBRANCH   1   2
BRANCH   1  25
ATOM     25  C   UNL A   1      32.303  29.265  25.463  1.00  0.00     0.023 C 
BRANCH  25  26
ATOM     26  C   UNL A   1      32.271  29.838  26.875  1.00  0.00     0.116 C 
BRANCH  26  27
ATOM     27  N   UNL A   1      32.238  31.294  26.907  1.00  0.00    -0.352 N 
ATOM     28  C   UNL A   1      33.198  32.158  27.383  1.00  0.00     0.251 C 
ATOM     29  H   UNL A   1      31.426  31.713  26.541  1.00  0.00     0.163 HD
ATOM     30  O   UNL A   1      32.985  33.359  27.434  1.00  0.00    -0.269 OA
BRANCH  28  31
ATOM     31  C   UNL A   1      34.474  31.594  27.870  1.00  0.00     0.039 A 
ATOM     32  C   UNL A   1      35.575  32.439  28.014  1.00  0.00     0.014 A 
ATOM     33  C   UNL A   1      34.548  30.252  28.253  1.00  0.00     0.014 A 
ATOM     34  C   UNL A   1      36.736  31.954  28.617  1.00  0.00     0.010 A 
ATOM     35  C   UNL A   1      35.678  29.793  28.920  1.00  0.00     0.010 A 
ATOM     36  C   UNL A   1      36.782  30.639  29.110  1.00  0.00    -0.014 A 
BRANCH  36  37
ATOM     37  C   UNL A   1      37.968  30.130  29.843  1.00  0.00     0.031 A 
ATOM     38  C   UNL A   1      38.264  30.626  31.231  1.00  0.00     0.074 A 
ATOM     39  C   UNL A   1      38.831  29.302  29.220  1.00  0.00     0.049 A 
ATOM     40  N   UNL A   1      39.288  30.363  31.999  1.00  0.00    -0.248 NA
ATOM     41  C   UNL A   1      37.297  31.568  31.823  1.00  0.00     0.031 C 
ATOM     42  C   UNL A   1      38.704  28.827  27.840  1.00  0.00     0.029 A 
ATOM     43  N   UNL A   1      40.004  28.739  29.657  1.00  0.00    -0.354 N 
ATOM     44  C   UNL A   1      39.107  31.125  33.148  1.00  0.00     0.074 A 
ATOM     45  C   UNL A   1      37.898  31.895  32.958  1.00  0.00     0.031 C 
ATOM     46  C   UNL A   1      39.756  28.048  27.543  1.00  0.00     0.029 A 
ATOM     47  C   UNL A   1      40.645  27.986  28.700  1.00  0.00     0.049 A 
ATOM     48  H   UNL A   1      40.354  28.862  30.568  1.00  0.00     0.167 HD
ATOM     49  C   UNL A   1      39.857  31.153  34.273  1.00  0.00     0.034 A 
ATOM     50  C   UNL A   1      41.819  27.327  28.747  1.00  0.00     0.034 A 
ATOM     51  C   UNL A   1      41.031  30.349  34.477  1.00  0.00     0.049 A 
ATOM     52  C   UNL A   1      42.603  27.327  30.033  1.00  0.00     0.074 A 
ATOM     53  C   UNL A   1      41.818  30.247  35.611  1.00  0.00     0.029 A 
ATOM     54  N   UNL A   1      41.586  29.508  33.526  1.00  0.00    -0.354 N 
ATOM     55  N   UNL A   1      42.330  27.929  31.164  1.00  0.00    -0.248 NA
ATOM     56  C   UNL A   1      43.834  26.523  30.062  1.00  0.00     0.031 C 
ATOM     57  C   UNL A   1      42.855  29.348  35.342  1.00  0.00     0.029 A 
ATOM     58  C   UNL A   1      42.704  28.878  34.046  1.00  0.00     0.049 A 
ATOM     59  H   UNL A   1      41.238  29.377  32.615  1.00  0.00     0.167 HD
ATOM     60  C   UNL A   1      43.333  27.552  32.049  1.00  0.00     0.074 A 
ATOM     61  C   UNL A   1      44.207  26.649  31.329  1.00  0.00     0.031 C 
ATOM     62  C   UNL A   1      43.527  27.934  33.336  1.00  0.00     0.034 A 
BRANCH  49  63
ATOM     63  C   UNL A   1      39.384  32.029  35.404  1.00  0.00     0.023 A 
ATOM     64  C   UNL A   1      38.499  31.494  36.363  1.00  0.00     0.012 A 
ATOM     65  C   UNL A   1      39.850  33.349  35.553  1.00  0.00     0.148 A 
ATOM     66  C   UNL A   1      38.057  32.270  37.434  1.00  0.00     0.002 A 
ATOM     67  C   UNL A   1      39.438  34.102  36.648  1.00  0.00     0.091 A 
ATOM     68  F   UNL A   1      40.675  33.847  34.620  1.00  0.00    -0.205 F 
ATOM     69  C   UNL A   1      38.535  33.569  37.582  1.00  0.00     0.022 A 
BRANCH  67  70
ATOM     70  S   UNL A   1      40.053  35.758  36.973  1.00  0.00     0.127 S 
ATOM     71  O   UNL A   1      41.489  35.517  37.115  1.00  0.00    -0.237 OA
ATOM     72  O   UNL A   1      39.672  36.473  35.754  1.00  0.00    -0.237 OA
ATOM     73  O   UNL A   1      39.375  36.209  38.180  1.00  0.00    -0.744 OA
ENDBRANCH  67  70
ENDBRANCH  49  63
BRANCH  50  74
ATOM     74  C   UNL A   1      42.290  26.554  27.563  1.00  0.00     0.023 A 
ATOM     75  C   UNL A   1      43.054  27.201  26.571  1.00  0.00     0.012 A 
ATOM     76  C   UNL A   1      42.009  25.181  27.424  1.00  0.00     0.148 A 
ATOM     77  C   UNL A   1      43.497  26.504  25.446  1.00  0.00     0.002 A 
ATOM     78  C   UNL A   1      42.502  24.480  26.329  1.00  0.00     0.091 A 
ATOM     79  F   UNL A   1      41.271  24.584  28.370  1.00  0.00    -0.205 F 
ATOM     80  C   UNL A   1      43.231  25.143  25.330  1.00  0.00     0.022 A 
BRANCH  78  81
ATOM     81  S   UNL A   1      42.320  22.699  26.172  1.00  0.00     0.127 S 
ATOM     82  O   UNL A   1      43.002  22.222  27.371  1.00  0.00    -0.237 OA
ATOM     83  O   UNL A   1      40.865  22.539  26.184  1.00  0.00    -0.237 OA
ATOM     84  O   UNL A   1      42.945  22.356  24.901  1.00  0.00    -0.744 OA
ENDBRANCH  78  81
ENDBRANCH  50  74
BRANCH  62  85
ATOM     85  C   UNL A   1      44.707  27.353  34.068  1.00  0.00     0.023 A 
ATOM     86  C   UNL A   1      45.948  28.016  34.028  1.00  0.00     0.012 A 
ATOM     87  C   UNL A   1      44.563  26.197  34.859  1.00  0.00     0.148 A 
ATOM     88  C   UNL A   1      47.039  27.520  34.741  1.00  0.00     0.002 A 
ATOM     89  C   UNL A   1      45.641  25.735  35.605  1.00  0.00     0.091 A 
ATOM     90  F   UNL A   1      43.378  25.570  34.868  1.00  0.00    -0.205 F 
ATOM     91  C   UNL A   1      46.882  26.389  35.538  1.00  0.00     0.022 A 
BRANCH  89  92
ATOM     92  S   UNL A   1      45.504  24.342  36.731  1.00  0.00     0.127 S 
ATOM     93  O   UNL A   1      44.511  24.828  37.687  1.00  0.00    -0.237 OA
ATOM     94  O   UNL A   1      45.031  23.274  35.850  1.00  0.00    -0.237 OA
ATOM     95  O   UNL A   1      46.842  24.131  37.269  1.00  0.00    -0.744 OA
ENDBRANCH  89  92
ENDBRANCH  62  85
ENDBRANCH  36  37
ENDBRANCH  28  31
ENDBRANCH  26  27
ENDBRANCH  25  26
ENDBRANCH   1  25
TORSDOF 17
ENDMDL
MODEL 3
REMARK VINA RESULT:     -12.1      3.169      8.737
REMARK SMILES O=C(Cc1ccc(F)c(F)c1)NC1(C(=O)NCCCCNC(=O)c2ccc(-c3c4nc(c(-c5cccc(S(=O)(=O)[O-])c5F)c5ccc([nH]5)c(-c5cccc(S(=O)(=O)[O-])c5F)c5nc(c(-c6cccc(S(=O)(=O)[O-])c6F)c6ccc3[nH]6)C=C5)C=C4)cc2)CCCC1
REMARK SMILES IDX 18 1 17 2 16 3 14 4 15 5 13 7 87 8 90 9 88 10 89 11 12 12
REMARK SMILES IDX 1 13 2 14 3 16 4 17 5 18 11 19 6 20 9 21 7 22 10 23 8 24
REMARK SMILES IDX 19 25 20 26 21 27 22 28 23 30 24 31 25 32 86 33 26 34 85 35
REMARK SMILES IDX 27 36 28 37 29 38 79 39 30 40 84 41 78 42 80 43 31 44 83 45
REMARK SMILES IDX 77 46 76 47 32 49 64 50 44 51 63 52 45 53 48 54 62 55 81 56
REMARK SMILES IDX 46 57 47 58 61 60 82 61 49 62 33 63 34 64 42 65 35 66 37 67
REMARK SMILES IDX 43 68 36 69 38 70 39 71 40 72 41 73 65 74 66 75 74 76 67 77
REMARK SMILES IDX 69 78 75 79 68 80 70 81 71 82 72 83 73 84 50 85 51 86 59 87
REMARK SMILES IDX 52 88 54 89 60 90 53 91 55 92 56 93 57 94 58 95
REMARK H PARENT 16 6 12 15 21 29 80 48 48 59
REMARK Flexibility Score: inf
ROOT
ATOM      1  C   UNL A   1      32.232  28.166  27.517  1.00  0.00     0.023 C 
ENDROOT
BRANCH   1   2
ATOM      2  C   UNL A   1      32.432  27.072  26.468  1.00  0.00     0.116 C 
BRANCH   2   3
ATOM      3  N   UNL A   1      31.413  26.056  26.592  1.00  0.00    -0.354 N 
ATOM      4  C   UNL A   1      30.351  25.762  25.791  1.00  0.00     0.245 C 
ATOM      5  O   UNL A   1      29.397  25.208  26.354  1.00  0.00    -0.272 OA
ATOM      6  H   UNL A   1      31.500  25.481  27.388  1.00  0.00     0.163 HD
BRANCH   4   7
ATOM      7  C   UNL A   1      30.269  26.190  24.276  1.00  0.00     0.119 C 
ATOM      8  C   UNL A   1      30.989  27.494  23.909  1.00  0.00     0.038 C 
ATOM      9  C   UNL A   1      28.791  26.372  23.880  1.00  0.00     0.038 C 
ATOM     10  C   UNL A   1      29.950  28.474  23.371  1.00  0.00     0.003 C 
ATOM     11  C   UNL A   1      28.584  27.816  23.456  1.00  0.00     0.003 C 
BRANCH   7  12
ATOM     12  N   UNL A   1      30.819  25.074  23.475  1.00  0.00    -0.341 N 
ATOM     13  O   UNL A   1      33.018  25.660  23.647  1.00  0.00    -0.275 OA
ATOM     14  C   UNL A   1      32.166  24.825  23.347  1.00  0.00     0.225 C 
ATOM     15  H   UNL A   1      30.188  24.478  23.010  1.00  0.00     0.164 HD
BRANCH  14  16
ATOM     16  C   UNL A   1      32.567  23.466  22.780  1.00  0.00     0.135 C 
BRANCH  16  17
ATOM     17  C   UNL A   1      33.627  22.636  23.488  1.00  0.00    -0.036 A 
ATOM     18  C   UNL A   1      33.319  21.540  24.316  1.00  0.00     0.007 A 
ATOM     19  C   UNL A   1      34.973  23.027  23.380  1.00  0.00     0.046 A 
ATOM     20  C   UNL A   1      34.335  20.780  24.909  1.00  0.00     0.043 A 
ATOM     21  C   UNL A   1      35.976  22.292  24.009  1.00  0.00     0.159 A 
ATOM     22  C   UNL A   1      35.661  21.160  24.747  1.00  0.00     0.158 A 
ATOM     23  F   UNL A   1      37.251  22.686  23.889  1.00  0.00    -0.204 F 
ATOM     24  F   UNL A   1      36.631  20.431  25.316  1.00  0.00    -0.204 F 
ENDBRANCH  16  17
ENDBRANCH  14  16
ENDBRANCH   7  12
ENDBRANCH   4   7
ENDBRANCH   2   3
ENDBRANCH   1   2
BRANCH   1  25
ATOM     25  C   UNL A   1      31.653  29.467  26.958  1.00  0.00     0.023 C 
BRANCH  25  26
ATOM     26  C   UNL A   1      32.664  30.382  26.279  1.00  0.00     0.116 C 
BRANCH  26  27
ATOM     27  N   UNL A   1      32.523  31.782  26.658  1.00  0.00    -0.352 N 
ATOM     28  C   UNL A   1      33.364  32.542  27.439  1.00  0.00     0.251 C 
ATOM     29  H   UNL A   1      31.725  32.242  26.312  1.00  0.00     0.163 HD
ATOM     30  O   UNL A   1      33.061  33.682  27.754  1.00  0.00    -0.269 OA
BRANCH  28  31
ATOM     31  C   UNL A   1      34.620  31.932  27.921  1.00  0.00     0.039 A 
ATOM     32  C   UNL A   1      35.745  32.741  28.085  1.00  0.00     0.014 A 
ATOM     33  C   UNL A   1      34.653  30.583  28.283  1.00  0.00     0.014 A 
ATOM     34  C   UNL A   1      36.889  32.211  28.684  1.00  0.00     0.010 A 
ATOM     35  C   UNL A   1      35.765  30.079  28.947  1.00  0.00     0.010 A 
ATOM     36  C   UNL A   1      36.893  30.888  29.155  1.00  0.00    -0.014 A 
BRANCH  36  37
ATOM     37  C   UNL A   1      38.060  30.331  29.884  1.00  0.00     0.031 A 
ATOM     38  C   UNL A   1      38.369  30.802  31.278  1.00  0.00     0.074 A 
ATOM     39  C   UNL A   1      38.896  29.482  29.254  1.00  0.00     0.049 A 
ATOM     40  N   UNL A   1      39.383  30.496  32.045  1.00  0.00    -0.248 NA
ATOM     41  C   UNL A   1      37.434  31.769  31.879  1.00  0.00     0.031 C 
ATOM     42  C   UNL A   1      38.756  29.026  27.869  1.00  0.00     0.029 A 
ATOM     43  N   UNL A   1      40.048  28.875  29.686  1.00  0.00    -0.354 N 
ATOM     44  C   UNL A   1      39.225  31.251  33.201  1.00  0.00     0.074 A 
ATOM     45  C   UNL A   1      38.043  32.063  33.018  1.00  0.00     0.031 C 
ATOM     46  C   UNL A   1      39.782  28.216  27.565  1.00  0.00     0.029 A 
ATOM     47  C   UNL A   1      40.666  28.112  28.722  1.00  0.00     0.049 A 
ATOM     48  H   UNL A   1      40.401  28.977  30.599  1.00  0.00     0.167 HD
ATOM     49  C   UNL A   1      39.974  31.242  34.329  1.00  0.00     0.034 A 
ATOM     50  C   UNL A   1      41.817  27.414  28.764  1.00  0.00     0.034 A 
ATOM     51  C   UNL A   1      41.120  30.397  34.526  1.00  0.00     0.049 A 
ATOM     52  C   UNL A   1      42.598  27.373  30.051  1.00  0.00     0.074 A 
ATOM     53  C   UNL A   1      41.901  30.256  35.659  1.00  0.00     0.029 A 
ATOM     54  N   UNL A   1      41.648  29.548  33.566  1.00  0.00    -0.354 N 
ATOM     55  N   UNL A   1      42.343  27.971  31.188  1.00  0.00    -0.248 NA
ATOM     56  C   UNL A   1      43.802  26.528  30.073  1.00  0.00     0.031 C 
ATOM     57  C   UNL A   1      42.907  29.326  35.382  1.00  0.00     0.029 A 
ATOM     58  C   UNL A   1      42.743  28.876  34.081  1.00  0.00     0.049 A 
ATOM     59  H   UNL A   1      41.298  29.438  32.653  1.00  0.00     0.167 HD
ATOM     60  C   UNL A   1      43.332  27.551  32.070  1.00  0.00     0.074 A 
ATOM     61  C   UNL A   1      44.177  26.628  31.342  1.00  0.00     0.031 C 
ATOM     62  C   UNL A   1      43.535  27.912  33.362  1.00  0.00     0.034 A 
BRANCH  49  63
ATOM     63  C   UNL A   1      39.528  32.121  35.469  1.00  0.00     0.023 A 
ATOM     64  C   UNL A   1      38.689  31.580  36.465  1.00  0.00     0.012 A 
ATOM     65  C   UNL A   1      39.976  33.450  35.587  1.00  0.00     0.148 A 
ATOM     66  C   UNL A   1      38.274  32.358  37.544  1.00  0.00     0.002 A 
ATOM     67  C   UNL A   1      39.592  34.207  36.690  1.00  0.00     0.091 A 
ATOM     68  F   UNL A   1      40.756  33.952  34.620  1.00  0.00    -0.205 F 
ATOM     69  C   UNL A   1      38.734  33.667  37.662  1.00  0.00     0.022 A 
BRANCH  67  70
ATOM     70  S   UNL A   1      40.189  35.876  36.977  1.00  0.00     0.127 S 
ATOM     71  O   UNL A   1      41.634  35.663  37.051  1.00  0.00    -0.237 OA
ATOM     72  O   UNL A   1      39.738  36.576  35.773  1.00  0.00    -0.237 OA
ATOM     73  O   UNL A   1      39.560  36.322  38.211  1.00  0.00    -0.744 OA
ENDBRANCH  67  70
ENDBRANCH  49  63
BRANCH  50  74
ATOM     74  C   UNL A   1      42.264  26.638  27.572  1.00  0.00     0.023 A 
ATOM     75  C   UNL A   1      43.023  27.279  26.572  1.00  0.00     0.012 A 
ATOM     76  C   UNL A   1      41.966  25.268  27.433  1.00  0.00     0.148 A 
ATOM     77  C   UNL A   1      43.444  26.579  25.440  1.00  0.00     0.002 A 
ATOM     78  C   UNL A   1      42.437  24.565  26.330  1.00  0.00     0.091 A 
ATOM     79  F   UNL A   1      41.233  24.677  28.387  1.00  0.00    -0.205 F 
ATOM     80  C   UNL A   1      43.161  25.222  25.323  1.00  0.00     0.022 A 
BRANCH  78  81
ATOM     81  S   UNL A   1      42.233  22.787  26.171  1.00  0.00     0.127 S 
ATOM     82  O   UNL A   1      42.864  22.527  24.880  1.00  0.00    -0.237 OA
ATOM     83  O   UNL A   1      42.975  22.289  27.331  1.00  0.00    -0.237 OA
ATOM     84  O   UNL A   1      40.797  22.553  26.239  1.00  0.00    -0.744 OA
ENDBRANCH  78  81
ENDBRANCH  50  74
BRANCH  62  85
ATOM     85  C   UNL A   1      44.694  27.284  34.089  1.00  0.00     0.023 A 
ATOM     86  C   UNL A   1      45.970  27.875  34.011  1.00  0.00     0.012 A 
ATOM     87  C   UNL A   1      44.500  26.159  34.913  1.00  0.00     0.148 A 
ATOM     88  C   UNL A   1      47.043  27.336  34.719  1.00  0.00     0.002 A 
ATOM     89  C   UNL A   1      45.563  25.655  35.652  1.00  0.00     0.091 A 
ATOM     90  F   UNL A   1      43.281  25.600  34.957  1.00  0.00    -0.205 F 
ATOM     91  C   UNL A   1      46.838  26.236  35.548  1.00  0.00     0.022 A 
BRANCH  89  92
ATOM     92  S   UNL A   1      45.369  24.301  36.817  1.00  0.00     0.127 S 
ATOM     93  O   UNL A   1      46.698  24.235  37.422  1.00  0.00    -0.237 OA
ATOM     94  O   UNL A   1      44.319  24.802  37.704  1.00  0.00    -0.237 OA
ATOM     95  O   UNL A   1      44.984  23.143  36.022  1.00  0.00    -0.744 OA
ENDBRANCH  89  92
ENDBRANCH  62  85
ENDBRANCH  36  37
ENDBRANCH  28  31
ENDBRANCH  26  27
ENDBRANCH  25  26
ENDBRANCH   1  25
TORSDOF 17
ENDMDL
