MODEL 1
REMARK VINA RESULT:     -12.4      0.000      0.000
REMARK SMILES Cc1nc2scc(C)n2c1CNc1ccc(C(=O)NCCCCNC(=O)c2ccc(-c3c4nc(c(-c5cccc(S(=O)(=O)[O-])c5F)c5ccc([nH]5)c(-c5cccc(S(=O)(=O)[O-])c5F)c5nc(c(-c6cccc(S(=O)(=O)[O-])c6F)c6ccc3[nH]6)C=C5)C=C4)cc2)cc1
REMARK SMILES IDX 21 1 20 2 19 3 17 4 18 5 16 7 13 8 14 9 91 10 15 11 90 12
REMARK SMILES IDX 12 13 11 15 10 16 1 17 2 18 3 19 4 20 9 21 5 22 7 23 6 24
REMARK SMILES IDX 8 25 22 26 23 27 24 28 25 29 26 31 27 32 28 33 89 34 29 35
REMARK SMILES IDX 88 36 30 37 31 38 32 39 82 40 33 41 87 42 81 43 83 44 34 45
REMARK SMILES IDX 86 46 80 47 79 48 35 50 67 51 47 52 66 53 48 54 51 55 65 56
REMARK SMILES IDX 84 57 49 58 50 59 64 61 85 62 52 63 36 64 37 65 45 66 38 67
REMARK SMILES IDX 40 68 46 69 39 70 41 71 42 72 43 73 44 74 68 75 69 76 77 77
REMARK SMILES IDX 70 78 72 79 78 80 71 81 73 82 74 83 75 84 76 85 53 86 54 87
REMARK SMILES IDX 62 88 55 89 57 90 63 91 56 92 58 93 59 94 60 95 61 96
REMARK H PARENT 19 6 12 14 24 30 83 49 51 60
REMARK Flexibility Score: inf
ROOT
ATOM      1  C   UNL A   1      31.604  29.847  25.964  1.00  0.00     0.023 C 
ENDROOT
BRANCH   1   2
ATOM      2  C   UNL A   1      32.221  29.463  24.612  1.00  0.00     0.116 C 
BRANCH   2   3
ATOM      3  N   UNL A   1      31.242  29.572  23.549  1.00  0.00    -0.352 N 
ATOM      4  C   UNL A   1      30.691  28.663  22.683  1.00  0.00     0.251 C 
ATOM      5  O   UNL A   1      29.919  29.094  21.826  1.00  0.00    -0.269 OA
ATOM      6  H   UNL A   1      30.902  30.487  23.423  1.00  0.00     0.163 HD
BRANCH   4   7
ATOM      7  C   UNL A   1      30.938  27.192  22.738  1.00  0.00     0.039 A 
ATOM      8  C   UNL A   1      31.327  24.404  23.097  1.00  0.00     0.034 A 
ATOM      9  C   UNL A   1      30.313  25.077  23.780  1.00  0.00     0.026 A 
ATOM     10  C   UNL A   1      32.094  25.128  22.183  1.00  0.00     0.026 A 
ATOM     11  C   UNL A   1      30.134  26.454  23.620  1.00  0.00     0.016 A 
ATOM     12  C   UNL A   1      31.879  26.498  21.979  1.00  0.00     0.016 A 
BRANCH   8  13
ATOM     13  N   UNL A   1      31.612  23.092  23.430  1.00  0.00    -0.379 N 
ATOM     14  H   UNL A   1      31.554  22.388  22.744  1.00  0.00     0.160 HD
BRANCH  13  15
ATOM     15  C   UNL A   1      31.994  22.749  24.786  1.00  0.00     0.169 C 
BRANCH  15  16
ATOM     16  C   UNL A   1      33.282  22.015  24.846  1.00  0.00     0.066 A 
ATOM     17  C   UNL A   1      32.579  19.539  24.524  1.00  0.00     0.069 C 
ATOM     18  C   UNL A   1      33.539  20.647  24.743  1.00  0.00     0.062 A 
ATOM     19  N   UNL A   1      34.882  20.372  24.889  1.00  0.00    -0.224 NA
ATOM     20  C   UNL A   1      35.413  21.549  25.061  1.00  0.00     0.194 A 
ATOM     21  N   UNL A   1      34.523  22.589  25.030  1.00  0.00    -0.290 N 
ATOM     22  S   UNL A   1      37.041  22.090  25.317  1.00  0.00    -0.105 S 
ATOM     23  C   UNL A   1      35.104  23.845  25.192  1.00  0.00     0.032 A 
ATOM     24  C   UNL A   1      36.440  23.746  25.353  1.00  0.00     0.090 A 
ATOM     25  C   UNL A   1      34.386  25.146  25.168  1.00  0.00     0.066 C 
ENDBRANCH  15  16
ENDBRANCH  13  15
ENDBRANCH   8  13
ENDBRANCH   4   7
ENDBRANCH   2   3
ENDBRANCH   1   2
BRANCH   1  26
ATOM     26  C   UNL A   1      31.466  31.357  26.210  1.00  0.00     0.023 C 
BRANCH  26  27
ATOM     27  C   UNL A   1      32.440  31.929  27.233  1.00  0.00     0.116 C 
BRANCH  27  28
ATOM     28  N   UNL A   1      32.285  33.374  27.412  1.00  0.00    -0.352 N 
ATOM     29  C   UNL A   1      32.966  34.209  28.281  1.00  0.00     0.251 C 
ATOM     30  H   UNL A   1      31.609  33.808  26.842  1.00  0.00     0.163 HD
ATOM     31  O   UNL A   1      32.494  35.281  28.622  1.00  0.00    -0.269 OA
BRANCH  29  32
ATOM     32  C   UNL A   1      34.293  33.785  28.765  1.00  0.00     0.039 A 
ATOM     33  C   UNL A   1      34.453  33.133  29.992  1.00  0.00     0.014 A 
ATOM     34  C   UNL A   1      35.385  34.030  27.936  1.00  0.00     0.014 A 
ATOM     35  C   UNL A   1      35.715  32.653  30.335  1.00  0.00     0.010 A 
ATOM     36  C   UNL A   1      36.586  33.429  28.203  1.00  0.00     0.010 A 
ATOM     37  C   UNL A   1      36.774  32.788  29.423  1.00  0.00    -0.014 A 
BRANCH  37  38
ATOM     38  C   UNL A   1      38.052  32.114  29.637  1.00  0.00     0.031 A 
ATOM     39  C   UNL A   1      38.066  30.717  29.123  1.00  0.00     0.074 A 
ATOM     40  C   UNL A   1      39.166  32.780  30.020  1.00  0.00     0.049 A 
ATOM     41  N   UNL A   1      38.051  29.626  29.817  1.00  0.00    -0.248 NA
ATOM     42  C   UNL A   1      37.861  30.499  27.680  1.00  0.00     0.031 C 
ATOM     43  C   UNL A   1      39.297  34.230  30.239  1.00  0.00     0.029 A 
ATOM     44  N   UNL A   1      40.452  32.345  30.154  1.00  0.00    -0.354 N 
ATOM     45  C   UNL A   1      38.160  28.599  28.876  1.00  0.00     0.074 A 
ATOM     46  C   UNL A   1      37.750  29.169  27.626  1.00  0.00     0.031 C 
ATOM     47  C   UNL A   1      40.601  34.578  30.218  1.00  0.00     0.029 A 
ATOM     48  C   UNL A   1      41.401  33.370  30.172  1.00  0.00     0.049 A 
ATOM     49  H   UNL A   1      40.691  31.393  30.231  1.00  0.00     0.167 HD
ATOM     50  C   UNL A   1      38.930  27.504  29.145  1.00  0.00     0.034 A 
ATOM     51  C   UNL A   1      42.750  33.240  30.141  1.00  0.00     0.034 A 
ATOM     52  C   UNL A   1      39.298  27.496  30.541  1.00  0.00     0.049 A 
ATOM     53  C   UNL A   1      43.060  31.875  30.601  1.00  0.00     0.074 A 
ATOM     54  C   UNL A   1      38.680  27.285  31.752  1.00  0.00     0.029 A 
ATOM     55  N   UNL A   1      40.471  28.166  30.785  1.00  0.00    -0.354 N 
ATOM     56  N   UNL A   1      42.845  31.477  31.824  1.00  0.00    -0.248 NA
ATOM     57  C   UNL A   1      43.286  30.818  29.625  1.00  0.00     0.031 C 
ATOM     58  C   UNL A   1      39.435  28.024  32.710  1.00  0.00     0.029 A 
ATOM     59  C   UNL A   1      40.523  28.617  32.071  1.00  0.00     0.049 A 
ATOM     60  H   UNL A   1      41.181  28.305  30.117  1.00  0.00     0.167 HD
ATOM     61  C   UNL A   1      42.425  30.171  31.668  1.00  0.00     0.074 A 
ATOM     62  C   UNL A   1      42.909  29.764  30.355  1.00  0.00     0.031 C 
ATOM     63  C   UNL A   1      41.437  29.667  32.459  1.00  0.00     0.034 A 
BRANCH  50  64
ATOM     64  C   UNL A   1      39.807  26.746  28.151  1.00  0.00     0.023 A 
ATOM     65  C   UNL A   1      39.846  25.336  28.298  1.00  0.00     0.012 A 
ATOM     66  C   UNL A   1      40.803  27.315  27.325  1.00  0.00     0.148 A 
ATOM     67  C   UNL A   1      40.867  24.556  27.742  1.00  0.00     0.002 A 
ATOM     68  C   UNL A   1      41.789  26.530  26.730  1.00  0.00     0.091 A 
ATOM     69  F   UNL A   1      40.890  28.636  27.183  1.00  0.00    -0.205 F 
ATOM     70  C   UNL A   1      41.845  25.155  26.962  1.00  0.00     0.022 A 
BRANCH  68  71
ATOM     71  S   UNL A   1      43.077  27.248  25.699  1.00  0.00     0.127 S 
ATOM     72  O   UNL A   1      43.823  28.037  26.674  1.00  0.00    -0.237 OA
ATOM     73  O   UNL A   1      43.761  26.054  25.207  1.00  0.00    -0.237 OA
ATOM     74  O   UNL A   1      42.382  28.009  24.668  1.00  0.00    -0.744 OA
ENDBRANCH  68  71
ENDBRANCH  50  64
BRANCH  51  75
ATOM     75  C   UNL A   1      43.821  34.133  29.647  1.00  0.00     0.023 A 
ATOM     76  C   UNL A   1      44.600  34.868  30.564  1.00  0.00     0.012 A 
ATOM     77  C   UNL A   1      44.283  34.015  28.320  1.00  0.00     0.148 A 
ATOM     78  C   UNL A   1      45.829  35.421  30.188  1.00  0.00     0.002 A 
ATOM     79  C   UNL A   1      45.511  34.560  27.952  1.00  0.00     0.091 A 
ATOM     80  F   UNL A   1      43.557  33.294  27.454  1.00  0.00    -0.205 F 
ATOM     81  C   UNL A   1      46.294  35.251  28.888  1.00  0.00     0.022 A 
BRANCH  79  82
ATOM     82  S   UNL A   1      46.210  34.340  26.309  1.00  0.00     0.127 S 
ATOM     83  O   UNL A   1      46.261  32.882  26.197  1.00  0.00    -0.237 OA
ATOM     84  O   UNL A   1      45.207  34.986  25.467  1.00  0.00    -0.237 OA
ATOM     85  O   UNL A   1      47.516  34.987  26.344  1.00  0.00    -0.744 OA
ENDBRANCH  79  82
ENDBRANCH  51  75
BRANCH  63  86
ATOM     86  C   UNL A   1      41.180  30.361  33.764  1.00  0.00     0.023 A 
ATOM     87  C   UNL A   1      42.059  30.293  34.865  1.00  0.00     0.012 A 
ATOM     88  C   UNL A   1      40.054  31.191  33.835  1.00  0.00     0.148 A 
ATOM     89  C   UNL A   1      41.801  31.032  36.022  1.00  0.00     0.002 A 
ATOM     90  C   UNL A   1      39.827  31.959  34.965  1.00  0.00     0.091 A 
ATOM     91  F   UNL A   1      39.230  31.230  32.776  1.00  0.00    -0.205 F 
ATOM     92  C   UNL A   1      40.692  31.876  36.067  1.00  0.00     0.022 A 
BRANCH  90  93
ATOM     93  S   UNL A   1      38.486  33.145  35.025  1.00  0.00     0.127 S 
ATOM     94  O   UNL A   1      37.314  32.277  35.101  1.00  0.00    -0.237 OA
ATOM     95  O   UNL A   1      38.780  33.888  36.251  1.00  0.00    -0.237 OA
ATOM     96  O   UNL A   1      38.601  33.941  33.808  1.00  0.00    -0.744 OA
ENDBRANCH  90  93
ENDBRANCH  63  86
ENDBRANCH  37  38
ENDBRANCH  29  32
ENDBRANCH  27  28
ENDBRANCH  26  27
ENDBRANCH   1  26
TORSDOF 17
ENDMDL
MODEL 2
REMARK VINA RESULT:     -12.4      3.942      9.458
REMARK SMILES Cc1nc2scc(C)n2c1CNc1ccc(C(=O)NCCCCNC(=O)c2ccc(-c3c4nc(c(-c5cccc(S(=O)(=O)[O-])c5F)c5ccc([nH]5)c(-c5cccc(S(=O)(=O)[O-])c5F)c5nc(c(-c6cccc(S(=O)(=O)[O-])c6F)c6ccc3[nH]6)C=C5)C=C4)cc2)cc1
REMARK SMILES IDX 21 1 20 2 19 3 17 4 18 5 16 7 13 8 14 9 91 10 15 11 90 12
REMARK SMILES IDX 12 13 11 15 10 16 1 17 2 18 3 19 4 20 9 21 5 22 7 23 6 24
REMARK SMILES IDX 8 25 22 26 23 27 24 28 25 29 26 31 27 32 28 33 89 34 29 35
REMARK SMILES IDX 88 36 30 37 31 38 32 39 82 40 33 41 87 42 81 43 83 44 34 45
REMARK SMILES IDX 86 46 80 47 79 48 35 50 67 51 47 52 66 53 48 54 51 55 65 56
REMARK SMILES IDX 84 57 49 58 50 59 64 61 85 62 52 63 36 64 37 65 45 66 38 67
REMARK SMILES IDX 40 68 46 69 39 70 41 71 42 72 43 73 44 74 68 75 69 76 77 77
REMARK SMILES IDX 70 78 72 79 78 80 71 81 73 82 74 83 75 84 76 85 53 86 54 87
REMARK SMILES IDX 62 88 55 89 57 90 63 91 56 92 58 93 59 94 60 95 61 96
REMARK H PARENT 19 6 12 14 24 30 83 49 51 60
REMARK Flexibility Score: inf
ROOT
ATOM      1  C   UNL A   1      37.193  20.779  24.466  1.00  0.00     0.023 C 
ENDROOT
BRANCH   1   2
ATOM      2  C   UNL A   1      35.889  21.035  25.233  1.00  0.00     0.116 C 
BRANCH   2   3
ATOM      3  N   UNL A   1      34.960  19.936  25.053  1.00  0.00    -0.352 N 
ATOM      4  C   UNL A   1      33.617  19.876  24.784  1.00  0.00     0.251 C 
ATOM      5  O   UNL A   1      33.094  18.762  24.762  1.00  0.00    -0.269 OA
ATOM      6  H   UNL A   1      35.381  19.051  25.143  1.00  0.00     0.163 HD
BRANCH   4   7
ATOM      7  C   UNL A   1      32.767  21.064  24.481  1.00  0.00     0.039 A 
ATOM      8  C   UNL A   1      31.348  23.411  23.752  1.00  0.00     0.034 A 
ATOM      9  C   UNL A   1      32.237  22.808  22.861  1.00  0.00     0.026 A 
ATOM     10  C   UNL A   1      31.126  22.786  24.979  1.00  0.00     0.026 A 
ATOM     11  C   UNL A   1      32.952  21.664  23.226  1.00  0.00     0.016 A 
ATOM     12  C   UNL A   1      31.801  21.607  25.326  1.00  0.00     0.016 A 
BRANCH   8  13
ATOM     13  N   UNL A   1      30.814  24.650  23.442  1.00  0.00    -0.379 N 
ATOM     14  H   UNL A   1      30.859  24.987  22.518  1.00  0.00     0.160 HD
BRANCH  13  15
ATOM     15  C   UNL A   1      30.192  25.455  24.475  1.00  0.00     0.169 C 
BRANCH  15  16
ATOM     16  C   UNL A   1      30.652  26.866  24.451  1.00  0.00     0.066 A 
ATOM     17  C   UNL A   1      28.782  28.087  23.133  1.00  0.00     0.069 C 
ATOM     18  C   UNL A   1      30.061  27.990  23.875  1.00  0.00     0.062 A 
ATOM     19  N   UNL A   1      30.838  29.116  24.050  1.00  0.00    -0.224 NA
ATOM     20  C   UNL A   1      31.860  28.673  24.727  1.00  0.00     0.194 A 
ATOM     21  N   UNL A   1      31.815  27.338  25.023  1.00  0.00    -0.290 N 
ATOM     22  S   UNL A   1      33.288  29.434  25.350  1.00  0.00    -0.105 S 
ATOM     23  C   UNL A   1      32.901  26.879  25.766  1.00  0.00     0.032 A 
ATOM     24  C   UNL A   1      33.771  27.878  26.023  1.00  0.00     0.090 A 
ATOM     25  C   UNL A   1      33.098  25.489  26.255  1.00  0.00     0.066 C 
ENDBRANCH  15  16
ENDBRANCH  13  15
ENDBRANCH   8  13
ENDBRANCH   4   7
ENDBRANCH   2   3
ENDBRANCH   1   2
BRANCH   1  26
ATOM     26  C   UNL A   1      38.058  19.636  25.018  1.00  0.00     0.023 C 
BRANCH  26  27
ATOM     27  C   UNL A   1      39.190  20.080  25.938  1.00  0.00     0.116 C 
BRANCH  27  28
ATOM     28  N   UNL A   1      40.347  19.183  25.881  1.00  0.00    -0.352 N 
ATOM     29  C   UNL A   1      41.691  19.513  25.912  1.00  0.00     0.251 C 
ATOM     30  H   UNL A   1      40.142  18.223  25.812  1.00  0.00     0.163 HD
ATOM     31  O   UNL A   1      42.534  18.752  25.468  1.00  0.00    -0.269 OA
BRANCH  29  32
ATOM     32  C   UNL A   1      42.084  20.798  26.521  1.00  0.00     0.039 A 
ATOM     33  C   UNL A   1      42.529  21.872  25.744  1.00  0.00     0.014 A 
ATOM     34  C   UNL A   1      41.964  20.913  27.903  1.00  0.00     0.014 A 
ATOM     35  C   UNL A   1      42.771  23.093  26.369  1.00  0.00     0.010 A 
ATOM     36  C   UNL A   1      42.054  22.147  28.491  1.00  0.00     0.010 A 
ATOM     37  C   UNL A   1      42.510  23.228  27.743  1.00  0.00    -0.014 A 
BRANCH  37  38
ATOM     38  C   UNL A   1      42.535  24.534  28.397  1.00  0.00     0.031 A 
ATOM     39  C   UNL A   1      41.310  25.337  28.138  1.00  0.00     0.074 A 
ATOM     40  C   UNL A   1      43.453  24.854  29.338  1.00  0.00     0.049 A 
ATOM     41  N   UNL A   1      41.200  26.381  27.383  1.00  0.00    -0.248 NA
ATOM     42  C   UNL A   1      40.014  24.807  28.598  1.00  0.00     0.031 C 
ATOM     43  C   UNL A   1      44.510  23.980  29.874  1.00  0.00     0.029 A 
ATOM     44  N   UNL A   1      43.560  25.962  30.127  1.00  0.00    -0.354 N 
ATOM     45  C   UNL A   1      39.880  26.808  27.545  1.00  0.00     0.074 A 
ATOM     46  C   UNL A   1      39.161  25.671  28.043  1.00  0.00     0.031 C 
ATOM     47  C   UNL A   1      44.964  24.479  31.044  1.00  0.00     0.029 A 
ATOM     48  C   UNL A   1      44.373  25.787  31.249  1.00  0.00     0.049 A 
ATOM     49  H   UNL A   1      43.104  26.810  29.923  1.00  0.00     0.167 HD
ATOM     50  C   UNL A   1      39.597  28.141  27.614  1.00  0.00     0.034 A 
ATOM     51  C   UNL A   1      44.544  26.648  32.281  1.00  0.00     0.034 A 
ATOM     52  C   UNL A   1      40.754  28.909  27.222  1.00  0.00     0.049 A 
ATOM     53  C   UNL A   1      44.156  27.984  31.793  1.00  0.00     0.074 A 
ATOM     54  C   UNL A   1      41.448  29.178  26.065  1.00  0.00     0.029 A 
ATOM     55  N   UNL A   1      41.578  29.205  28.278  1.00  0.00    -0.354 N 
ATOM     56  N   UNL A   1      44.830  28.624  30.879  1.00  0.00    -0.248 NA
ATOM     57  C   UNL A   1      42.814  28.486  32.054  1.00  0.00     0.031 C 
ATOM     58  C   UNL A   1      42.785  29.464  26.469  1.00  0.00     0.029 A 
ATOM     59  C   UNL A   1      42.858  29.419  27.860  1.00  0.00     0.049 A 
ATOM     60  H   UNL A   1      41.283  29.255  29.216  1.00  0.00     0.167 HD
ATOM     61  C   UNL A   1      43.850  29.252  30.137  1.00  0.00     0.074 A 
ATOM     62  C   UNL A   1      42.682  29.307  31.009  1.00  0.00     0.031 C 
ATOM     63  C   UNL A   1      43.968  29.351  28.784  1.00  0.00     0.034 A 
BRANCH  50  64
ATOM     64  C   UNL A   1      38.549  28.799  28.509  1.00  0.00     0.023 A 
ATOM     65  C   UNL A   1      37.716  29.767  27.892  1.00  0.00     0.012 A 
ATOM     66  C   UNL A   1      38.535  28.775  29.922  1.00  0.00     0.148 A 
ATOM     67  C   UNL A   1      36.995  30.712  28.632  1.00  0.00     0.002 A 
ATOM     68  C   UNL A   1      37.777  29.684  30.658  1.00  0.00     0.091 A 
ATOM     69  F   UNL A   1      39.336  27.949  30.592  1.00  0.00    -0.205 F 
ATOM     70  C   UNL A   1      37.031  30.675  30.018  1.00  0.00     0.022 A 
BRANCH  68  71
ATOM     71  S   UNL A   1      37.773  29.678  32.457  1.00  0.00     0.127 S 
ATOM     72  O   UNL A   1      39.160  30.027  32.751  1.00  0.00    -0.237 OA
ATOM     73  O   UNL A   1      36.792  30.720  32.754  1.00  0.00    -0.237 OA
ATOM     74  O   UNL A   1      37.361  28.336  32.849  1.00  0.00    -0.744 OA
ENDBRANCH  68  71
ENDBRANCH  50  64
BRANCH  51  75
ATOM     75  C   UNL A   1      44.905  26.437  33.700  1.00  0.00     0.023 A 
ATOM     76  C   UNL A   1      46.214  26.719  34.141  1.00  0.00     0.012 A 
ATOM     77  C   UNL A   1      43.894  26.271  34.668  1.00  0.00     0.148 A 
ATOM     78  C   UNL A   1      46.498  26.888  35.500  1.00  0.00     0.002 A 
ATOM     79  C   UNL A   1      44.178  26.449  36.020  1.00  0.00     0.091 A 
ATOM     80  F   UNL A   1      42.643  26.031  34.250  1.00  0.00    -0.205 F 
ATOM     81  C   UNL A   1      45.477  26.772  36.438  1.00  0.00     0.022 A 
BRANCH  79  82
ATOM     82  S   UNL A   1      42.909  26.372  37.292  1.00  0.00     0.127 S 
ATOM     83  O   UNL A   1      43.703  26.488  38.516  1.00  0.00    -0.237 OA
ATOM     84  O   UNL A   1      42.096  27.543  36.977  1.00  0.00    -0.237 OA
ATOM     85  O   UNL A   1      42.252  25.083  37.120  1.00  0.00    -0.744 OA
ENDBRANCH  79  82
ENDBRANCH  51  75
BRANCH  63  86
ATOM     86  C   UNL A   1      45.345  29.220  28.203  1.00  0.00     0.023 A 
ATOM     87  C   UNL A   1      46.319  30.236  28.279  1.00  0.00     0.012 A 
ATOM     88  C   UNL A   1      45.689  27.980  27.650  1.00  0.00     0.148 A 
ATOM     89  C   UNL A   1      47.610  30.017  27.791  1.00  0.00     0.002 A 
ATOM     90  C   UNL A   1      46.982  27.749  27.211  1.00  0.00     0.091 A 
ATOM     91  F   UNL A   1      44.740  27.033  27.581  1.00  0.00    -0.205 F 
ATOM     92  C   UNL A   1      47.946  28.768  27.269  1.00  0.00     0.022 A 
BRANCH  90  93
ATOM     93  S   UNL A   1      47.493  26.129  26.644  1.00  0.00     0.127 S 
ATOM     94  O   UNL A   1      47.051  25.269  27.738  1.00  0.00    -0.237 OA
ATOM     95  O   UNL A   1      46.737  25.980  25.400  1.00  0.00    -0.237 OA
ATOM     96  O   UNL A   1      48.937  26.210  26.453  1.00  0.00    -0.744 OA
ENDBRANCH  90  93
ENDBRANCH  63  86
ENDBRANCH  37  38
ENDBRANCH  29  32
ENDBRANCH  27  28
ENDBRANCH  26  27
ENDBRANCH   1  26
TORSDOF 17
ENDMDL
MODEL 3
REMARK VINA RESULT:     -12.0      3.230      7.493
REMARK SMILES Cc1nc2scc(C)n2c1CNc1ccc(C(=O)NCCCCNC(=O)c2ccc(-c3c4nc(c(-c5cccc(S(=O)(=O)[O-])c5F)c5ccc([nH]5)c(-c5cccc(S(=O)(=O)[O-])c5F)c5nc(c(-c6cccc(S(=O)(=O)[O-])c6F)c6ccc3[nH]6)C=C5)C=C4)cc2)cc1
REMARK SMILES IDX 21 1 20 2 19 3 17 4 18 5 16 7 13 8 14 9 91 10 15 11 90 12
REMARK SMILES IDX 12 13 11 15 10 16 1 17 2 18 3 19 4 20 9 21 5 22 7 23 6 24
REMARK SMILES IDX 8 25 22 26 23 27 24 28 25 29 26 31 27 32 28 33 89 34 29 35
REMARK SMILES IDX 88 36 30 37 31 38 32 39 82 40 33 41 87 42 81 43 83 44 34 45
REMARK SMILES IDX 86 46 80 47 79 48 35 50 67 51 47 52 66 53 48 54 51 55 65 56
REMARK SMILES IDX 84 57 49 58 50 59 64 61 85 62 52 63 36 64 37 65 45 66 38 67
REMARK SMILES IDX 40 68 46 69 39 70 41 71 42 72 43 73 44 74 68 75 69 76 77 77
REMARK SMILES IDX 70 78 72 79 78 80 71 81 73 82 74 83 75 84 76 85 53 86 54 87
REMARK SMILES IDX 62 88 55 89 57 90 63 91 56 92 58 93 59 94 60 95 61 96
REMARK H PARENT 19 6 12 14 24 30 83 49 51 60
REMARK Flexibility Score: inf
ROOT
ATOM      1  C   UNL A   1      31.974  29.563  26.491  1.00  0.00     0.023 C 
ENDROOT
BRANCH   1   2
ATOM      2  C   UNL A   1      32.274  29.757  24.999  1.00  0.00     0.116 C 
BRANCH   2   3
ATOM      3  N   UNL A   1      31.054  29.990  24.253  1.00  0.00    -0.352 N 
ATOM      4  C   UNL A   1      30.274  29.193  23.456  1.00  0.00     0.251 C 
ATOM      5  O   UNL A   1      29.314  29.723  22.893  1.00  0.00    -0.269 OA
ATOM      6  H   UNL A   1      30.715  30.911  24.336  1.00  0.00     0.163 HD
BRANCH   4   7
ATOM      7  C   UNL A   1      30.490  27.730  23.260  1.00  0.00     0.039 A 
ATOM      8  C   UNL A   1      30.815  24.914  23.138  1.00  0.00     0.034 A 
ATOM      9  C   UNL A   1      29.795  25.482  23.903  1.00  0.00     0.026 A 
ATOM     10  C   UNL A   1      31.622  25.766  22.384  1.00  0.00     0.026 A 
ATOM     11  C   UNL A   1      29.647  26.870  23.980  1.00  0.00     0.016 A 
ATOM     12  C   UNL A   1      31.439  27.156  22.416  1.00  0.00     0.016 A 
BRANCH   8  13
ATOM     13  N   UNL A   1      31.065  23.557  23.245  1.00  0.00    -0.379 N 
ATOM     14  H   UNL A   1      31.169  23.011  22.431  1.00  0.00     0.160 HD
BRANCH  13  15
ATOM     15  C   UNL A   1      31.172  22.934  24.550  1.00  0.00     0.169 C 
BRANCH  15  16
ATOM     16  C   UNL A   1      32.545  23.012  25.107  1.00  0.00     0.066 A 
ATOM     17  C   UNL A   1      32.648  25.396  26.125  1.00  0.00     0.069 C 
ATOM     18  C   UNL A   1      33.183  24.060  25.771  1.00  0.00     0.062 A 
ATOM     19  N   UNL A   1      34.484  23.736  26.096  1.00  0.00    -0.224 NA
ATOM     20  C   UNL A   1      34.611  22.519  25.646  1.00  0.00     0.194 A 
ATOM     21  N   UNL A   1      33.487  22.006  25.056  1.00  0.00    -0.290 N 
ATOM     22  S   UNL A   1      35.925  21.387  25.645  1.00  0.00    -0.105 S 
ATOM     23  C   UNL A   1      33.627  20.698  24.599  1.00  0.00     0.032 A 
ATOM     24  C   UNL A   1      34.868  20.227  24.843  1.00  0.00     0.090 A 
ATOM     25  C   UNL A   1      32.566  19.883  23.951  1.00  0.00     0.066 C 
ENDBRANCH  15  16
ENDBRANCH  13  15
ENDBRANCH   8  13
ENDBRANCH   4   7
ENDBRANCH   2   3
ENDBRANCH   1   2
BRANCH   1  26
ATOM     26  C   UNL A   1      33.063  28.821  27.282  1.00  0.00     0.023 C 
BRANCH  26  27
ATOM     27  C   UNL A   1      34.400  29.551  27.364  1.00  0.00     0.116 C 
BRANCH  27  28
ATOM     28  N   UNL A   1      34.273  30.896  27.928  1.00  0.00    -0.352 N 
ATOM     29  C   UNL A   1      34.961  31.446  28.996  1.00  0.00     0.251 C 
ATOM     30  H   UNL A   1      33.615  31.484  27.492  1.00  0.00     0.163 HD
ATOM     31  O   UNL A   1      34.507  32.397  29.612  1.00  0.00    -0.269 OA
BRANCH  29  32
ATOM     32  C   UNL A   1      36.272  30.874  29.356  1.00  0.00     0.039 A 
ATOM     33  C   UNL A   1      36.417  29.523  29.683  1.00  0.00     0.014 A 
ATOM     34  C   UNL A   1      37.371  31.728  29.325  1.00  0.00     0.014 A 
ATOM     35  C   UNL A   1      37.699  29.021  29.897  1.00  0.00     0.010 A 
ATOM     36  C   UNL A   1      38.636  31.205  29.385  1.00  0.00     0.010 A 
ATOM     37  C   UNL A   1      38.808  29.867  29.725  1.00  0.00    -0.014 A 
BRANCH  37  38
ATOM     38  C   UNL A   1      40.171  29.342  29.720  1.00  0.00     0.031 A 
ATOM     39  C   UNL A   1      40.743  29.199  31.086  1.00  0.00     0.074 A 
ATOM     40  C   UNL A   1      40.736  28.806  28.613  1.00  0.00     0.049 A 
ATOM     41  N   UNL A   1      41.661  29.928  31.632  1.00  0.00    -0.248 NA
ATOM     42  C   UNL A   1      40.082  28.281  32.030  1.00  0.00     0.031 C 
ATOM     43  C   UNL A   1      40.101  28.626  27.297  1.00  0.00     0.029 A 
ATOM     44  N   UNL A   1      41.933  28.173  28.451  1.00  0.00    -0.354 N 
ATOM     45  C   UNL A   1      41.900  29.337  32.875  1.00  0.00     0.074 A 
ATOM     46  C   UNL A   1      40.735  28.551  33.163  1.00  0.00     0.031 C 
ATOM     47  C   UNL A   1      40.799  27.723  26.574  1.00  0.00     0.029 A 
ATOM     48  C   UNL A   1      42.018  27.401  27.290  1.00  0.00     0.049 A 
ATOM     49  H   UNL A   1      42.672  28.253  29.096  1.00  0.00     0.167 HD
ATOM     50  C   UNL A   1      43.173  29.251  33.357  1.00  0.00     0.034 A 
ATOM     51  C   UNL A   1      43.012  26.549  26.943  1.00  0.00     0.034 A 
ATOM     52  C   UNL A   1      44.055  30.072  32.561  1.00  0.00     0.049 A 
ATOM     53  C   UNL A   1      44.206  26.947  27.709  1.00  0.00     0.074 A 
ATOM     54  C   UNL A   1      44.286  31.413  32.359  1.00  0.00     0.029 A 
ATOM     55  N   UNL A   1      44.596  29.392  31.498  1.00  0.00    -0.354 N 
ATOM     56  N   UNL A   1      44.827  28.076  27.512  1.00  0.00    -0.248 NA
ATOM     57  C   UNL A   1      44.527  26.260  28.953  1.00  0.00     0.031 C 
ATOM     58  C   UNL A   1      44.816  31.524  31.041  1.00  0.00     0.029 A 
ATOM     59  C   UNL A   1      44.950  30.247  30.496  1.00  0.00     0.049 A 
ATOM     60  H   UNL A   1      44.713  28.416  31.464  1.00  0.00     0.167 HD
ATOM     61  C   UNL A   1      45.207  28.460  28.782  1.00  0.00     0.074 A 
ATOM     62  C   UNL A   1      45.189  27.238  29.577  1.00  0.00     0.031 C 
ATOM     63  C   UNL A   1      45.160  29.772  29.147  1.00  0.00     0.034 A 
BRANCH  50  64
ATOM     64  C   UNL A   1      43.768  28.085  34.144  1.00  0.00     0.023 A 
ATOM     65  C   UNL A   1      44.325  27.030  33.377  1.00  0.00     0.012 A 
ATOM     66  C   UNL A   1      43.541  27.808  35.512  1.00  0.00     0.148 A 
ATOM     67  C   UNL A   1      44.550  25.756  33.912  1.00  0.00     0.002 A 
ATOM     68  C   UNL A   1      43.813  26.554  36.054  1.00  0.00     0.091 A 
ATOM     69  F   UNL A   1      42.956  28.712  36.296  1.00  0.00    -0.205 F 
ATOM     70  C   UNL A   1      44.286  25.515  35.251  1.00  0.00     0.022 A 
BRANCH  68  71
ATOM     71  S   UNL A   1      43.502  26.185  37.788  1.00  0.00     0.127 S 
ATOM     72  O   UNL A   1      44.043  24.833  37.897  1.00  0.00    -0.237 OA
ATOM     73  O   UNL A   1      44.283  27.224  38.456  1.00  0.00    -0.237 OA
ATOM     74  O   UNL A   1      42.061  26.308  37.968  1.00  0.00    -0.744 OA
ENDBRANCH  68  71
ENDBRANCH  50  64
BRANCH  51  75
ATOM     75  C   UNL A   1      43.029  25.338  26.092  1.00  0.00     0.023 A 
ATOM     76  C   UNL A   1      44.049  25.167  25.134  1.00  0.00     0.012 A 
ATOM     77  C   UNL A   1      42.242  24.221  26.440  1.00  0.00     0.148 A 
ATOM     78  C   UNL A   1      44.317  23.910  24.581  1.00  0.00     0.002 A 
ATOM     79  C   UNL A   1      42.518  22.969  25.894  1.00  0.00     0.091 A 
ATOM     80  F   UNL A   1      41.290  24.375  27.370  1.00  0.00    -0.205 F 
ATOM     81  C   UNL A   1      43.565  22.808  24.975  1.00  0.00     0.022 A 
BRANCH  79  82
ATOM     82  S   UNL A   1      41.632  21.484  26.387  1.00  0.00     0.127 S 
ATOM     83  O   UNL A   1      40.256  21.820  26.021  1.00  0.00    -0.237 OA
ATOM     84  O   UNL A   1      42.259  20.467  25.547  1.00  0.00    -0.237 OA
ATOM     85  O   UNL A   1      41.858  21.344  27.820  1.00  0.00    -0.744 OA
ENDBRANCH  79  82
ENDBRANCH  51  75
BRANCH  63  86
ATOM     86  C   UNL A   1      45.170  30.792  28.048  1.00  0.00     0.023 A 
ATOM     87  C   UNL A   1      44.009  31.208  27.365  1.00  0.00     0.012 A 
ATOM     88  C   UNL A   1      46.392  31.419  27.770  1.00  0.00     0.148 A 
ATOM     89  C   UNL A   1      44.077  32.224  26.408  1.00  0.00     0.002 A 
ATOM     90  C   UNL A   1      46.447  32.458  26.856  1.00  0.00     0.091 A 
ATOM     91  F   UNL A   1      47.483  30.996  28.427  1.00  0.00    -0.205 F 
ATOM     92  C   UNL A   1      45.294  32.859  26.163  1.00  0.00     0.022 A 
BRANCH  90  93
ATOM     93  S   UNL A   1      47.959  33.382  26.594  1.00  0.00     0.127 S 
ATOM     94  O   UNL A   1      47.595  34.254  25.480  1.00  0.00    -0.237 OA
ATOM     95  O   UNL A   1      48.135  34.065  27.877  1.00  0.00    -0.237 OA
ATOM     96  O   UNL A   1      48.989  32.391  26.305  1.00  0.00    -0.744 OA
ENDBRANCH  90  93
ENDBRANCH  63  86
ENDBRANCH  37  38
ENDBRANCH  29  32
ENDBRANCH  27  28
ENDBRANCH  26  27
ENDBRANCH   1  26
TORSDOF 17
ENDMDL
