MODEL 1
REMARK VINA RESULT:     -12.6      0.000      0.000
REMARK SMILES O=C(NCCCCNC(=O)c1ccc(-c2c3nc(c(-c4cccc(S(=O)(=O)[O-])c4F)c4ccc([nH]4)c(-c4cccc(S(=O)(=O)[O-])c4F)c4nc(c(-c5cccc(S(=O)(=O)[O-])c5F)c5ccc2[nH]5)C=C4)C=C3)cc1)C1=Cc2cc(S(F)(F)(F)(F)F)cc(Br)c2O[C@H]1C(F)(F)F
REMARK SMILES IDX 6 1 5 2 4 3 3 4 1 5 2 6 74 8 75 9 90 10 76 11 89 12 77 13
REMARK SMILES IDX 88 14 78 15 86 16 85 17 87 18 91 19 92 20 93 21 94 22 79 23
REMARK SMILES IDX 80 24 81 25 82 26 83 27 84 28 7 29 8 30 9 31 10 33 11 34
REMARK SMILES IDX 12 35 73 36 13 37 72 38 14 39 15 40 16 41 66 42 17 43 71 44
REMARK SMILES IDX 65 45 67 46 18 47 70 48 64 49 63 50 19 52 51 53 31 54 50 55
REMARK SMILES IDX 32 56 35 57 49 58 68 59 33 60 34 61 48 63 69 64 36 65 20 66
REMARK SMILES IDX 21 67 29 68 22 69 24 70 30 71 23 72 25 73 26 74 27 75 28 76
REMARK SMILES IDX 52 77 53 78 61 79 54 80 56 81 62 82 55 83 57 84 58 85 59 86
REMARK SMILES IDX 60 87 37 88 38 89 46 90 39 91 41 92 47 93 40 94 42 95 43 96
REMARK SMILES IDX 44 97 45 98
REMARK H PARENT 3 7 8 32 67 51 35 62
REMARK Flexibility Score: inf
ROOT
ATOM      1  C   UNL A   1      33.027  28.016  25.657  1.00  0.00     0.023 C 
ENDROOT
BRANCH   1   2
ATOM      2  C   UNL A   1      34.189  27.048  25.805  1.00  0.00     0.023 C 
BRANCH   2   3
ATOM      3  C   UNL A   1      33.653  25.636  25.979  1.00  0.00     0.116 C 
BRANCH   3   4
ATOM      4  N   UNL A   1      34.171  24.779  24.903  1.00  0.00    -0.352 N 
ATOM      5  O   UNL A   1      33.859  22.854  23.546  1.00  0.00    -0.270 OA
ATOM      6  C   UNL A   1      33.411  23.594  24.477  1.00  0.00     0.251 C 
ATOM      7  H   UNL A   1      35.026  24.998  24.467  1.00  0.00     0.163 HD
BRANCH   6   8
ATOM      8  C   UNL A   1      32.091  23.256  25.149  1.00  0.00     0.067 C 
ATOM      9  C   UNL A   1      30.979  23.992  24.876  1.00  0.00     0.025 C 
ATOM     10  C   UNL A   1      32.012  22.095  26.127  1.00  0.00     0.314 C 
ATOM     11  C   UNL A   1      31.058  25.153  23.898  1.00  0.00     0.020 A 
ATOM     12  O   UNL A   1      32.444  23.792  22.529  1.00  0.00    -0.474 OA
ATOM     13  C   UNL A   1      30.460  26.362  24.214  1.00  0.00     0.036 A 
ATOM     14  C   UNL A   1      31.708  24.985  22.751  1.00  0.00     0.142 A 
ATOM     15  C   UNL A   1      30.353  27.252  23.120  1.00  0.00     0.109 A 
ATOM     16  C   UNL A   1      31.671  25.955  21.778  1.00  0.00     0.062 A 
ATOM     17  C   UNL A   1      31.047  27.151  22.001  1.00  0.00     0.044 A 
ATOM     18  Br  UNL A   1      32.528  25.619  20.048  1.00  0.00    -0.047 Br
BRANCH  10  19
ATOM     19  C   UNL A   1      33.380  21.445  26.253  1.00  0.00     0.429 C 
ATOM     20  F   UNL A   1      33.669  20.802  25.125  1.00  0.00    -0.167 F 
ATOM     21  F   UNL A   1      34.345  22.319  26.525  1.00  0.00    -0.167 F 
ATOM     22  F   UNL A   1      33.280  20.570  27.250  1.00  0.00    -0.167 F 
ENDBRANCH  10  19
BRANCH  15  23
ATOM     23  S   UNL A   1      29.182  28.624  23.262  1.00  0.00     0.310 S 
ATOM     24  F   UNL A   1      29.383  29.034  21.743  1.00  0.00    -0.094 F 
ATOM     25  F   UNL A   1      30.386  29.579  23.608  1.00  0.00    -0.094 F 
ATOM     26  F   UNL A   1      28.176  29.804  23.383  1.00  0.00    -0.094 F 
ATOM     27  F   UNL A   1      28.008  27.684  22.778  1.00  0.00    -0.094 F 
ATOM     28  F   UNL A   1      30.206  27.444  23.026  1.00  0.00    -0.094 F 
ENDBRANCH  15  23
ENDBRANCH   6   8
ENDBRANCH   3   4
ENDBRANCH   2   3
ENDBRANCH   1   2
BRANCH   1  29
ATOM     29  C   UNL A   1      33.543  29.354  25.152  1.00  0.00     0.116 C 
BRANCH  29  30
ATOM     30  N   UNL A   1      32.624  30.423  25.571  1.00  0.00    -0.352 N 
ATOM     31  C   UNL A   1      32.907  31.201  26.786  1.00  0.00     0.251 C 
ATOM     32  H   UNL A   1      31.820  30.617  25.038  1.00  0.00     0.163 HD
ATOM     33  O   UNL A   1      32.113  32.125  27.148  1.00  0.00    -0.269 OA
BRANCH  31  34
ATOM     34  C   UNL A   1      34.150  30.902  27.608  1.00  0.00     0.039 A 
ATOM     35  C   UNL A   1      35.128  31.876  27.725  1.00  0.00     0.014 A 
ATOM     36  C   UNL A   1      34.281  29.720  28.201  1.00  0.00     0.014 A 
ATOM     37  C   UNL A   1      36.350  31.401  28.255  1.00  0.00     0.010 A 
ATOM     38  C   UNL A   1      35.458  29.374  28.819  1.00  0.00     0.010 A 
ATOM     39  C   UNL A   1      36.489  30.267  28.919  1.00  0.00    -0.014 A 
BRANCH  39  40
ATOM     40  C   UNL A   1      37.728  29.973  29.749  1.00  0.00     0.031 A 
ATOM     41  C   UNL A   1      37.829  30.573  31.006  1.00  0.00     0.074 A 
ATOM     42  C   UNL A   1      38.686  29.129  29.215  1.00  0.00     0.049 A 
ATOM     43  N   UNL A   1      38.807  30.425  31.901  1.00  0.00    -0.248 NA
ATOM     44  C   UNL A   1      36.829  31.497  31.560  1.00  0.00     0.031 C 
ATOM     45  C   UNL A   1      38.587  28.513  27.952  1.00  0.00     0.029 A 
ATOM     46  N   UNL A   1      39.878  28.737  29.783  1.00  0.00    -0.354 N 
ATOM     47  C   UNL A   1      38.543  31.145  32.994  1.00  0.00     0.074 A 
ATOM     48  C   UNL A   1      37.271  31.850  32.788  1.00  0.00     0.031 C 
ATOM     49  C   UNL A   1      39.708  27.770  27.756  1.00  0.00     0.029 A 
ATOM     50  C   UNL A   1      40.526  27.908  28.893  1.00  0.00     0.049 A 
ATOM     51  H   UNL A   1      40.210  29.003  30.670  1.00  0.00     0.167 HD
ATOM     52  C   UNL A   1      39.313  31.239  34.154  1.00  0.00     0.034 A 
ATOM     53  C   UNL A   1      41.762  27.299  29.046  1.00  0.00     0.034 A 
ATOM     54  C   UNL A   1      40.528  30.596  34.325  1.00  0.00     0.049 A 
ATOM     55  C   UNL A   1      42.559  27.441  30.184  1.00  0.00     0.074 A 
ATOM     56  C   UNL A   1      41.314  30.674  35.491  1.00  0.00     0.029 A 
ATOM     57  N   UNL A   1      41.188  29.787  33.426  1.00  0.00    -0.354 N 
ATOM     58  N   UNL A   1      42.277  28.128  31.292  1.00  0.00    -0.248 NA
ATOM     59  C   UNL A   1      43.884  26.827  30.344  1.00  0.00     0.031 C 
ATOM     60  C   UNL A   1      42.435  29.930  35.294  1.00  0.00     0.029 A 
ATOM     61  C   UNL A   1      42.369  29.376  34.002  1.00  0.00     0.049 A 
ATOM     62  H   UNL A   1      40.869  29.544  32.526  1.00  0.00     0.167 HD
ATOM     63  C   UNL A   1      43.275  28.013  32.171  1.00  0.00     0.074 A 
ATOM     64  C   UNL A   1      44.326  27.180  31.570  1.00  0.00     0.031 C 
ATOM     65  C   UNL A   1      43.349  28.566  33.450  1.00  0.00     0.034 A 
BRANCH  52  66
ATOM     66  C   UNL A   1      38.789  32.097  35.295  1.00  0.00     0.023 A 
ATOM     67  C   UNL A   1      38.971  33.469  35.249  1.00  0.00     0.012 A 
ATOM     68  C   UNL A   1      38.150  31.519  36.305  1.00  0.00     0.148 A 
ATOM     69  C   UNL A   1      38.693  34.125  36.471  1.00  0.00     0.002 A 
ATOM     70  C   UNL A   1      37.787  32.250  37.412  1.00  0.00     0.091 A 
ATOM     71  F   UNL A   1      37.859  30.223  36.247  1.00  0.00    -0.205 F 
ATOM     72  C   UNL A   1      37.990  33.601  37.460  1.00  0.00     0.022 A 
BRANCH  70  73
ATOM     73  S   UNL A   1      37.028  31.411  38.825  1.00  0.00     0.127 S 
ATOM     74  O   UNL A   1      35.662  32.037  39.116  1.00  0.00    -0.237 OA
ATOM     75  O   UNL A   1      36.851  29.926  38.501  1.00  0.00    -0.237 OA
ATOM     76  O   UNL A   1      38.036  31.579  40.196  1.00  0.00    -0.744 OA
ENDBRANCH  70  73
ENDBRANCH  52  66
BRANCH  53  77
ATOM     77  C   UNL A   1      42.278  26.429  27.912  1.00  0.00     0.023 A 
ATOM     78  C   UNL A   1      43.078  26.992  26.933  1.00  0.00     0.012 A 
ATOM     79  C   UNL A   1      41.939  25.146  27.872  1.00  0.00     0.148 A 
ATOM     80  C   UNL A   1      43.237  26.180  25.785  1.00  0.00     0.002 A 
ATOM     81  C   UNL A   1      42.245  24.375  26.775  1.00  0.00     0.091 A 
ATOM     82  F   UNL A   1      41.297  24.600  28.901  1.00  0.00    -0.205 F 
ATOM     83  C   UNL A   1      42.984  24.884  25.743  1.00  0.00     0.022 A 
BRANCH  81  84
ATOM     84  S   UNL A   1      41.664  22.663  26.697  1.00  0.00     0.127 S 
ATOM     85  O   UNL A   1      42.109  22.034  25.375  1.00  0.00    -0.237 OA
ATOM     86  O   UNL A   1      42.255  21.870  27.866  1.00  0.00    -0.237 OA
ATOM     87  O   UNL A   1      39.957  22.636  26.795  1.00  0.00    -0.744 OA
ENDBRANCH  81  84
ENDBRANCH  53  77
BRANCH  65  88
ATOM     88  C   UNL A   1      44.580  28.260  34.289  1.00  0.00     0.023 A 
ATOM     89  C   UNL A   1      45.666  29.117  34.221  1.00  0.00     0.012 A 
ATOM     90  C   UNL A   1      44.596  27.188  35.072  1.00  0.00     0.148 A 
ATOM     91  C   UNL A   1      46.845  28.595  34.802  1.00  0.00     0.002 A 
ATOM     92  C   UNL A   1      45.748  26.811  35.718  1.00  0.00     0.091 A 
ATOM     93  F   UNL A   1      43.487  26.472  35.231  1.00  0.00    -0.205 F 
ATOM     94  C   UNL A   1      46.878  27.579  35.646  1.00  0.00     0.022 A 
BRANCH  92  95
ATOM     95  S   UNL A   1      45.772  25.278  36.679  1.00  0.00     0.127 S 
ATOM     96  O   UNL A   1      45.455  24.096  35.760  1.00  0.00    -0.237 OA
ATOM     97  O   UNL A   1      47.157  25.085  37.300  1.00  0.00    -0.237 OA
ATOM     98  O   UNL A   1      44.599  25.365  37.920  1.00  0.00    -0.744 OA
ENDBRANCH  92  95
ENDBRANCH  65  88
ENDBRANCH  39  40
ENDBRANCH  31  34
ENDBRANCH  29  30
ENDBRANCH   1  29
TORSDOF 16
ENDMDL
MODEL 2
REMARK VINA RESULT:     -12.4      5.343     10.146
REMARK SMILES O=C(NCCCCNC(=O)c1ccc(-c2c3nc(c(-c4cccc(S(=O)(=O)[O-])c4F)c4ccc([nH]4)c(-c4cccc(S(=O)(=O)[O-])c4F)c4nc(c(-c5cccc(S(=O)(=O)[O-])c5F)c5ccc2[nH]5)C=C4)C=C3)cc1)C1=Cc2cc(S(F)(F)(F)(F)F)cc(Br)c2O[C@H]1C(F)(F)F
REMARK SMILES IDX 6 1 5 2 4 3 3 4 1 5 2 6 74 8 75 9 90 10 76 11 89 12 77 13
REMARK SMILES IDX 88 14 78 15 86 16 85 17 87 18 91 19 92 20 93 21 94 22 79 23
REMARK SMILES IDX 80 24 81 25 82 26 83 27 84 28 7 29 8 30 9 31 10 33 11 34
REMARK SMILES IDX 12 35 73 36 13 37 72 38 14 39 15 40 16 41 66 42 17 43 71 44
REMARK SMILES IDX 65 45 67 46 18 47 70 48 64 49 63 50 19 52 51 53 31 54 50 55
REMARK SMILES IDX 32 56 35 57 49 58 68 59 33 60 34 61 48 63 69 64 36 65 20 66
REMARK SMILES IDX 21 67 29 68 22 69 24 70 30 71 23 72 25 73 26 74 27 75 28 76
REMARK SMILES IDX 52 77 53 78 61 79 54 80 56 81 62 82 55 83 57 84 58 85 59 86
REMARK SMILES IDX 60 87 37 88 38 89 46 90 39 91 41 92 47 93 40 94 42 95 43 96
REMARK SMILES IDX 44 97 45 98
REMARK H PARENT 3 7 8 32 67 51 35 62
REMARK Flexibility Score: inf
ROOT
ATOM      1  C   UNL A   1      35.794  22.120  25.545  1.00  0.00     0.023 C 
ENDROOT
BRANCH   1   2
ATOM      2  C   UNL A   1      35.522  23.495  26.132  1.00  0.00     0.023 C 
BRANCH   2   3
ATOM      3  C   UNL A   1      35.110  24.447  25.021  1.00  0.00     0.116 C 
BRANCH   3   4
ATOM      4  N   UNL A   1      34.009  25.302  25.490  1.00  0.00    -0.352 N 
ATOM      5  O   UNL A   1      32.014  26.476  24.958  1.00  0.00    -0.270 OA
ATOM      6  C   UNL A   1      32.965  25.738  24.552  1.00  0.00     0.251 C 
ATOM      7  H   UNL A   1      33.972  25.581  26.434  1.00  0.00     0.163 HD
BRANCH   6   8
ATOM      8  C   UNL A   1      33.024  25.305  23.095  1.00  0.00     0.067 C 
ATOM      9  C   UNL A   1      32.748  24.016  22.757  1.00  0.00     0.025 C 
ATOM     10  C   UNL A   1      33.389  26.312  22.018  1.00  0.00     0.314 C 
ATOM     11  C   UNL A   1      32.382  23.009  23.835  1.00  0.00     0.020 A 
ATOM     12  O   UNL A   1      31.065  24.705  24.851  1.00  0.00    -0.474 OA
ATOM     13  C   UNL A   1      32.958  21.749  23.824  1.00  0.00     0.036 A 
ATOM     14  C   UNL A   1      31.512  23.361  24.775  1.00  0.00     0.142 A 
ATOM     15  C   UNL A   1      32.329  20.824  24.689  1.00  0.00     0.109 A 
ATOM     16  C   UNL A   1      31.041  22.434  25.673  1.00  0.00     0.062 A 
ATOM     17  C   UNL A   1      31.523  21.154  25.681  1.00  0.00     0.044 A 
ATOM     18  Br  UNL A   1      29.659  22.955  26.961  1.00  0.00    -0.047 Br
BRANCH  10  19
ATOM     19  C   UNL A   1      33.648  27.667  22.657  1.00  0.00     0.429 C 
ATOM     20  F   UNL A   1      32.487  28.233  22.978  1.00  0.00    -0.167 F 
ATOM     21  F   UNL A   1      34.418  27.591  23.739  1.00  0.00    -0.167 F 
ATOM     22  F   UNL A   1      34.257  28.401  21.729  1.00  0.00    -0.167 F 
ENDBRANCH  10  19
BRANCH  15  23
ATOM     23  S   UNL A   1      32.649  19.064  24.416  1.00  0.00     0.310 S 
ATOM     24  F   UNL A   1      34.208  19.310  24.252  1.00  0.00    -0.094 F 
ATOM     25  F   UNL A   1      32.517  19.309  22.865  1.00  0.00    -0.094 F 
ATOM     26  F   UNL A   1      32.927  17.552  24.181  1.00  0.00    -0.094 F 
ATOM     27  F   UNL A   1      32.916  18.864  25.960  1.00  0.00    -0.094 F 
ATOM     28  F   UNL A   1      32.481  20.616  24.660  1.00  0.00    -0.094 F 
ENDBRANCH  15  23
ENDBRANCH   6   8
ENDBRANCH   3   4
ENDBRANCH   2   3
ENDBRANCH   1   2
BRANCH   1  29
ATOM     29  C   UNL A   1      37.210  22.076  24.992  1.00  0.00     0.116 C 
BRANCH  29  30
ATOM     30  N   UNL A   1      37.855  20.818  25.395  1.00  0.00    -0.352 N 
ATOM     31  C   UNL A   1      39.130  20.848  26.127  1.00  0.00     0.251 C 
ATOM     32  H   UNL A   1      37.434  19.957  25.174  1.00  0.00     0.163 HD
ATOM     33  O   UNL A   1      39.688  19.760  26.476  1.00  0.00    -0.269 OA
BRANCH  31  34
ATOM     34  C   UNL A   1      39.780  22.179  26.469  1.00  0.00     0.039 A 
ATOM     35  C   UNL A   1      40.825  22.202  27.377  1.00  0.00     0.014 A 
ATOM     36  C   UNL A   1      39.341  23.294  25.895  1.00  0.00     0.014 A 
ATOM     37  C   UNL A   1      41.157  23.497  27.838  1.00  0.00     0.010 A 
ATOM     38  C   UNL A   1      39.809  24.520  26.302  1.00  0.00     0.010 A 
ATOM     39  C   UNL A   1      40.800  24.620  27.239  1.00  0.00    -0.014 A 
BRANCH  39  40
ATOM     40  C   UNL A   1      41.457  25.948  27.574  1.00  0.00     0.031 A 
ATOM     41  C   UNL A   1      42.780  26.142  27.171  1.00  0.00     0.074 A 
ATOM     42  C   UNL A   1      40.712  26.891  28.260  1.00  0.00     0.049 A 
ATOM     43  N   UNL A   1      43.527  27.235  27.333  1.00  0.00    -0.248 NA
ATOM     44  C   UNL A   1      43.586  25.130  26.474  1.00  0.00     0.031 C 
ATOM     45  C   UNL A   1      39.374  26.706  28.663  1.00  0.00     0.029 A 
ATOM     46  N   UNL A   1      41.105  28.145  28.671  1.00  0.00    -0.354 N 
ATOM     47  C   UNL A   1      44.737  27.050  26.798  1.00  0.00     0.074 A 
ATOM     48  C   UNL A   1      44.794  25.691  26.243  1.00  0.00     0.031 C 
ATOM     49  C   UNL A   1      38.972  27.827  29.317  1.00  0.00     0.029 A 
ATOM     50  C   UNL A   1      40.049  28.732  29.333  1.00  0.00     0.049 A 
ATOM     51  H   UNL A   1      41.988  28.552  28.518  1.00  0.00     0.167 HD
ATOM     52  C   UNL A   1      45.793  27.961  26.750  1.00  0.00     0.034 A 
ATOM     53  C   UNL A   1      40.011  29.984  29.928  1.00  0.00     0.034 A 
ATOM     54  C   UNL A   1      45.739  29.230  27.306  1.00  0.00     0.049 A 
ATOM     55  C   UNL A   1      41.088  30.874  29.930  1.00  0.00     0.074 A 
ATOM     56  C   UNL A   1      46.791  30.164  27.260  1.00  0.00     0.029 A 
ATOM     57  N   UNL A   1      44.692  29.807  27.989  1.00  0.00    -0.354 N 
ATOM     58  N   UNL A   1      42.282  30.703  29.361  1.00  0.00    -0.248 NA
ATOM     59  C   UNL A   1      41.069  32.189  30.584  1.00  0.00     0.031 C 
ATOM     60  C   UNL A   1      46.388  31.285  27.914  1.00  0.00     0.029 A 
ATOM     61  C   UNL A   1      45.077  31.070  28.381  1.00  0.00     0.049 A 
ATOM     62  H   UNL A   1      43.818  29.389  28.168  1.00  0.00     0.167 HD
ATOM     63  C   UNL A   1      43.043  31.782  29.559  1.00  0.00     0.074 A 
ATOM     64  C   UNL A   1      42.276  32.749  30.355  1.00  0.00     0.031 C 
ATOM     65  C   UNL A   1      44.346  31.997  29.105  1.00  0.00     0.034 A 
BRANCH  52  66
ATOM     66  C   UNL A   1      47.073  27.539  26.049  1.00  0.00     0.023 A 
ATOM     67  C   UNL A   1      48.116  27.018  26.798  1.00  0.00     0.012 A 
ATOM     68  C   UNL A   1      47.165  27.658  24.730  1.00  0.00     0.148 A 
ATOM     69  C   UNL A   1      49.336  26.918  26.090  1.00  0.00     0.002 A 
ATOM     70  C   UNL A   1      48.355  27.413  24.087  1.00  0.00     0.091 A 
ATOM     71  F   UNL A   1      46.097  28.018  24.024  1.00  0.00    -0.205 F 
ATOM     72  C   UNL A   1      49.443  26.953  24.773  1.00  0.00     0.022 A 
BRANCH  70  73
ATOM     73  S   UNL A   1      48.482  27.703  22.305  1.00  0.00     0.127 S 
ATOM     74  O   UNL A   1      47.226  28.426  21.815  1.00  0.00    -0.237 OA
ATOM     75  O   UNL A   1      49.713  28.565  22.015  1.00  0.00    -0.237 OA
ATOM     76  O   UNL A   1      48.631  26.206  21.492  1.00  0.00    -0.744 OA
ENDBRANCH  70  73
ENDBRANCH  52  66
BRANCH  53  77
ATOM     77  C   UNL A   1      38.724  30.412  30.614  1.00  0.00     0.023 A 
ATOM     78  C   UNL A   1      38.489  30.024  31.922  1.00  0.00     0.012 A 
ATOM     79  C   UNL A   1      37.840  31.140  29.942  1.00  0.00     0.148 A 
ATOM     80  C   UNL A   1      37.152  30.209  32.344  1.00  0.00     0.002 A 
ATOM     81  C   UNL A   1      36.598  31.398  30.473  1.00  0.00     0.091 A 
ATOM     82  F   UNL A   1      38.158  31.624  28.745  1.00  0.00    -0.205 F 
ATOM     83  C   UNL A   1      36.277  30.992  31.739  1.00  0.00     0.022 A 
BRANCH  81  84
ATOM     84  S   UNL A   1      35.373  32.288  29.483  1.00  0.00     0.127 S 
ATOM     85  O   UNL A   1      34.839  31.367  28.384  1.00  0.00    -0.237 OA
ATOM     86  O   UNL A   1      34.216  32.733  30.382  1.00  0.00    -0.237 OA
ATOM     87  O   UNL A   1      36.102  33.661  28.772  1.00  0.00    -0.744 OA
ENDBRANCH  81  84
ENDBRANCH  53  77
BRANCH  65  88
ATOM     88  C   UNL A   1      45.000  33.332  29.425  1.00  0.00     0.023 A 
ATOM     89  C   UNL A   1      45.675  33.476  30.626  1.00  0.00     0.012 A 
ATOM     90  C   UNL A   1      44.920  34.332  28.555  1.00  0.00     0.148 A 
ATOM     91  C   UNL A   1      45.988  34.817  30.950  1.00  0.00     0.002 A 
ATOM     92  C   UNL A   1      45.371  35.587  28.889  1.00  0.00     0.091 A 
ATOM     93  F   UNL A   1      44.400  34.118  27.351  1.00  0.00    -0.205 F 
ATOM     94  C   UNL A   1      45.993  35.815  30.085  1.00  0.00     0.022 A 
BRANCH  92  95
ATOM     95  S   UNL A   1      45.137  36.956  27.729  1.00  0.00     0.127 S 
ATOM     96  O   UNL A   1      43.650  37.092  27.393  1.00  0.00    -0.237 OA
ATOM     97  O   UNL A   1      45.637  38.255  28.365  1.00  0.00    -0.237 OA
ATOM     98  O   UNL A   1      46.018  36.647  26.297  1.00  0.00    -0.744 OA
ENDBRANCH  92  95
ENDBRANCH  65  88
ENDBRANCH  39  40
ENDBRANCH  31  34
ENDBRANCH  29  30
ENDBRANCH   1  29
TORSDOF 16
ENDMDL
MODEL 3
REMARK VINA RESULT:     -12.4      2.542      7.532
REMARK SMILES O=C(NCCCCNC(=O)c1ccc(-c2c3nc(c(-c4cccc(S(=O)(=O)[O-])c4F)c4ccc([nH]4)c(-c4cccc(S(=O)(=O)[O-])c4F)c4nc(c(-c5cccc(S(=O)(=O)[O-])c5F)c5ccc2[nH]5)C=C4)C=C3)cc1)C1=Cc2cc(S(F)(F)(F)(F)F)cc(Br)c2O[C@H]1C(F)(F)F
REMARK SMILES IDX 6 1 5 2 4 3 3 4 1 5 2 6 74 8 75 9 90 10 76 11 89 12 77 13
REMARK SMILES IDX 88 14 78 15 86 16 85 17 87 18 91 19 92 20 93 21 94 22 79 23
REMARK SMILES IDX 80 24 81 25 82 26 83 27 84 28 7 29 8 30 9 31 10 33 11 34
REMARK SMILES IDX 12 35 73 36 13 37 72 38 14 39 15 40 16 41 66 42 17 43 71 44
REMARK SMILES IDX 65 45 67 46 18 47 70 48 64 49 63 50 19 52 51 53 31 54 50 55
REMARK SMILES IDX 32 56 35 57 49 58 68 59 33 60 34 61 48 63 69 64 36 65 20 66
REMARK SMILES IDX 21 67 29 68 22 69 24 70 30 71 23 72 25 73 26 74 27 75 28 76
REMARK SMILES IDX 52 77 53 78 61 79 54 80 56 81 62 82 55 83 57 84 58 85 59 86
REMARK SMILES IDX 60 87 37 88 38 89 46 90 39 91 41 92 47 93 40 94 42 95 43 96
REMARK SMILES IDX 44 97 45 98
REMARK H PARENT 3 7 8 32 67 51 35 62
REMARK Flexibility Score: inf
ROOT
ATOM      1  C   UNL A   1      33.761  28.103  26.546  1.00  0.00     0.023 C 
ENDROOT
BRANCH   1   2
ATOM      2  C   UNL A   1      33.794  27.137  25.373  1.00  0.00     0.023 C 
BRANCH   2   3
ATOM      3  C   UNL A   1      33.948  25.716  25.892  1.00  0.00     0.116 C 
BRANCH   3   4
ATOM      4  N   UNL A   1      34.357  24.834  24.789  1.00  0.00    -0.352 N 
ATOM      5  O   UNL A   1      33.885  22.908  23.480  1.00  0.00    -0.270 OA
ATOM      6  C   UNL A   1      33.531  23.671  24.433  1.00  0.00     0.251 C 
ATOM      7  H   UNL A   1      35.184  25.022  24.290  1.00  0.00     0.163 HD
BRANCH   6   8
ATOM      8  C   UNL A   1      32.254  23.381  25.204  1.00  0.00     0.067 C 
ATOM      9  C   UNL A   1      31.141  24.132  24.985  1.00  0.00     0.025 C 
ATOM     10  C   UNL A   1      32.221  22.252  26.221  1.00  0.00     0.314 C 
ATOM     11  C   UNL A   1      31.174  25.261  23.968  1.00  0.00     0.020 A 
ATOM     12  O   UNL A   1      32.436  23.831  22.550  1.00  0.00    -0.474 OA
ATOM     13  C   UNL A   1      30.622  26.491  24.286  1.00  0.00     0.036 A 
ATOM     14  C   UNL A   1      31.739  25.044  22.785  1.00  0.00     0.142 A 
ATOM     15  C   UNL A   1      30.456  27.350  23.174  1.00  0.00     0.109 A 
ATOM     16  C   UNL A   1      31.654  25.985  21.787  1.00  0.00     0.062 A 
ATOM     17  C   UNL A   1      31.070  27.200  22.015  1.00  0.00     0.044 A 
ATOM     18  Br  UNL A   1      32.383  25.580  20.014  1.00  0.00    -0.047 Br
BRANCH  10  19
ATOM     19  C   UNL A   1      33.582  21.577  26.274  1.00  0.00     0.429 C 
ATOM     20  F   UNL A   1      33.781  20.895  25.149  1.00  0.00    -0.167 F 
ATOM     21  F   UNL A   1      34.580  22.438  26.453  1.00  0.00    -0.167 F 
ATOM     22  F   UNL A   1      33.534  20.733  27.302  1.00  0.00    -0.167 F 
ENDBRANCH  10  19
BRANCH  15  23
ATOM     23  S   UNL A   1      29.324  28.750  23.354  1.00  0.00     0.310 S 
ATOM     24  F   UNL A   1      29.559  29.211  21.854  1.00  0.00    -0.094 F 
ATOM     25  F   UNL A   1      30.551  29.655  23.751  1.00  0.00    -0.094 F 
ATOM     26  F   UNL A   1      28.352  29.954  23.506  1.00  0.00    -0.094 F 
ATOM     27  F   UNL A   1      28.131  27.865  22.819  1.00  0.00    -0.094 F 
ATOM     28  F   UNL A   1      30.316  27.550  23.086  1.00  0.00    -0.094 F 
ENDBRANCH  15  23
ENDBRANCH   6   8
ENDBRANCH   3   4
ENDBRANCH   2   3
ENDBRANCH   1   2
BRANCH   1  29
ATOM     29  C   UNL A   1      34.573  29.343  26.204  1.00  0.00     0.116 C 
BRANCH  29  30
ATOM     30  N   UNL A   1      33.970  30.517  26.852  1.00  0.00    -0.352 N 
ATOM     31  C   UNL A   1      34.636  31.145  28.002  1.00  0.00     0.251 C 
ATOM     32  H   UNL A   1      33.120  30.882  26.515  1.00  0.00     0.163 HD
ATOM     33  O   UNL A   1      34.115  32.160  28.562  1.00  0.00    -0.269 OA
BRANCH  31  34
ATOM     34  C   UNL A   1      35.949  30.581  28.522  1.00  0.00     0.039 A 
ATOM     35  C   UNL A   1      37.135  31.005  27.948  1.00  0.00     0.014 A 
ATOM     36  C   UNL A   1      35.940  29.696  29.513  1.00  0.00     0.014 A 
ATOM     37  C   UNL A   1      38.256  30.216  28.297  1.00  0.00     0.010 A 
ATOM     38  C   UNL A   1      37.098  29.061  29.893  1.00  0.00     0.010 A 
ATOM     39  C   UNL A   1      38.299  29.389  29.326  1.00  0.00    -0.014 A 
BRANCH  39  40
ATOM     40  C   UNL A   1      39.612  28.833  29.851  1.00  0.00     0.031 A 
ATOM     41  C   UNL A   1      40.187  27.761  29.166  1.00  0.00     0.074 A 
ATOM     42  C   UNL A   1      40.164  29.417  30.978  1.00  0.00     0.049 A 
ATOM     43  N   UNL A   1      41.341  27.148  29.436  1.00  0.00    -0.248 NA
ATOM     44  C   UNL A   1      39.585  27.116  27.991  1.00  0.00     0.031 C 
ATOM     45  C   UNL A   1      39.595  30.504  31.669  1.00  0.00     0.029 A 
ATOM     46  N   UNL A   1      41.330  29.071  31.624  1.00  0.00    -0.354 N 
ATOM     47  C   UNL A   1      41.567  26.178  28.547  1.00  0.00     0.074 A 
ATOM     48  C   UNL A   1      40.437  26.139  27.609  1.00  0.00     0.031 C 
ATOM     49  C   UNL A   1      40.399  30.802  32.724  1.00  0.00     0.029 A 
ATOM     50  C   UNL A   1      41.485  29.907  32.709  1.00  0.00     0.049 A 
ATOM     51  H   UNL A   1      41.947  28.351  31.358  1.00  0.00     0.167 HD
ATOM     52  C   UNL A   1      42.670  25.326  28.482  1.00  0.00     0.034 A 
ATOM     53  C   UNL A   1      42.507  29.902  33.645  1.00  0.00     0.034 A 
ATOM     54  C   UNL A   1      43.715  25.350  29.392  1.00  0.00     0.049 A 
ATOM     55  C   UNL A   1      43.583  29.011  33.612  1.00  0.00     0.074 A 
ATOM     56  C   UNL A   1      44.839  24.504  29.337  1.00  0.00     0.029 A 
ATOM     57  N   UNL A   1      43.857  26.170  30.491  1.00  0.00    -0.354 N 
ATOM     58  N   UNL A   1      43.828  28.068  32.702  1.00  0.00    -0.248 NA
ATOM     59  C   UNL A   1      44.655  28.975  34.617  1.00  0.00     0.031 C 
ATOM     60  C   UNL A   1      45.643  24.802  30.392  1.00  0.00     0.029 A 
ATOM     61  C   UNL A   1      45.034  25.839  31.125  1.00  0.00     0.049 A 
ATOM     62  H   UNL A   1      43.226  26.871  30.774  1.00  0.00     0.167 HD
ATOM     63  C   UNL A   1      44.962  27.428  32.996  1.00  0.00     0.074 A 
ATOM     64  C   UNL A   1      45.506  27.999  34.236  1.00  0.00     0.031 C 
ATOM     65  C   UNL A   1      45.566  26.395  32.277  1.00  0.00     0.034 A 
BRANCH  52  66
ATOM     66  C   UNL A   1      42.730  24.315  27.349  1.00  0.00     0.023 A 
ATOM     67  C   UNL A   1      43.511  24.588  26.237  1.00  0.00     0.012 A 
ATOM     68  C   UNL A   1      42.048  23.181  27.450  1.00  0.00     0.148 A 
ATOM     69  C   UNL A   1      43.277  23.721  25.145  1.00  0.00     0.002 A 
ATOM     70  C   UNL A   1      41.973  22.313  26.386  1.00  0.00     0.091 A 
ATOM     71  F   UNL A   1      41.431  22.881  28.588  1.00  0.00    -0.205 F 
ATOM     72  C   UNL A   1      42.672  22.549  25.235  1.00  0.00     0.022 A 
BRANCH  70  73
ATOM     73  S   UNL A   1      40.936  20.835  26.512  1.00  0.00     0.127 S 
ATOM     74  O   UNL A   1      41.480  19.749  25.582  1.00  0.00    -0.237 OA
ATOM     75  O   UNL A   1      40.948  20.325  27.954  1.00  0.00    -0.237 OA
ATOM     76  O   UNL A   1      39.333  21.223  26.058  1.00  0.00    -0.744 OA
ENDBRANCH  70  73
ENDBRANCH  52  66
BRANCH  53  77
ATOM     77  C   UNL A   1      42.456  30.924  34.768  1.00  0.00     0.023 A 
ATOM     78  C   UNL A   1      41.881  30.576  35.978  1.00  0.00     0.012 A 
ATOM     79  C   UNL A   1      42.950  32.140  34.564  1.00  0.00     0.148 A 
ATOM     80  C   UNL A   1      41.612  31.678  36.824  1.00  0.00     0.002 A 
ATOM     81  C   UNL A   1      42.767  33.135  35.495  1.00  0.00     0.091 A 
ATOM     82  F   UNL A   1      43.629  32.397  33.450  1.00  0.00    -0.205 F 
ATOM     83  C   UNL A   1      42.155  32.875  36.690  1.00  0.00     0.022 A 
BRANCH  81  84
ATOM     84  S   UNL A   1      43.346  34.811  35.134  1.00  0.00     0.127 S 
ATOM     85  O   UNL A   1      42.939  35.747  36.274  1.00  0.00    -0.237 OA
ATOM     86  O   UNL A   1      44.871  34.806  34.997  1.00  0.00    -0.237 OA
ATOM     87  O   UNL A   1      42.645  35.354  33.673  1.00  0.00    -0.744 OA
ENDBRANCH  81  84
ENDBRANCH  53  77
BRANCH  65  88
ATOM     88  C   UNL A   1      46.888  25.847  32.791  1.00  0.00     0.023 A 
ATOM     89  C   UNL A   1      48.069  26.384  32.306  1.00  0.00     0.012 A 
ATOM     90  C   UNL A   1      46.894  24.873  33.694  1.00  0.00     0.148 A 
ATOM     91  C   UNL A   1      49.218  25.621  32.621  1.00  0.00     0.002 A 
ATOM     92  C   UNL A   1      48.070  24.262  34.055  1.00  0.00     0.091 A 
ATOM     93  F   UNL A   1      45.751  24.484  34.251  1.00  0.00    -0.205 F 
ATOM     94  C   UNL A   1      49.270  24.702  33.568  1.00  0.00     0.022 A 
BRANCH  92  95
ATOM     95  S   UNL A   1      48.031  22.856  35.194  1.00  0.00     0.127 S 
ATOM     96  O   UNL A   1      49.460  22.374  35.458  1.00  0.00    -0.237 OA
ATOM     97  O   UNL A   1      47.386  23.285  36.514  1.00  0.00    -0.237 OA
ATOM     98  O   UNL A   1      47.120  21.586  34.501  1.00  0.00    -0.744 OA
ENDBRANCH  92  95
ENDBRANCH  65  88
ENDBRANCH  39  40
ENDBRANCH  31  34
ENDBRANCH  29  30
ENDBRANCH   1  29
TORSDOF 16
ENDMDL
