MODEL 1
REMARK VINA RESULT:     -11.9      0.000      0.000
REMARK SMILES O=C(C[C@@H]1CN(c2cc(C(F)(F)F)ccn2)CCO1)NCCCCNC(=O)c1ccc(-c2c3nc(c(-c4cccc(S(=O)(=O)[O-])c4F)c4ccc([nH]4)c(-c4cccc(S(=O)(=O)[O-])c4F)c4nc(c(-c5cccc(S(=O)(=O)[O-])c5F)c5ccc2[nH]5)C=C4)C=C3)cc1
REMARK SMILES IDX 22 1 21 2 20 3 1 4 2 5 3 7 4 8 5 9 19 10 6 11 18 12 17 13
REMARK SMILES IDX 7 14 8 15 16 16 9 17 15 18 14 19 10 20 11 21 12 22 13 23
REMARK SMILES IDX 23 24 24 25 25 26 26 27 27 29 28 30 29 31 90 32 30 33 89 34
REMARK SMILES IDX 31 35 32 36 33 37 83 38 34 39 88 40 82 41 84 42 35 43 87 44
REMARK SMILES IDX 81 45 80 46 36 48 68 49 48 50 67 51 49 52 52 53 66 54 85 55
REMARK SMILES IDX 50 56 51 57 65 59 86 60 53 61 37 62 38 63 46 64 39 65 41 66
REMARK SMILES IDX 47 67 40 68 42 69 43 70 44 71 45 72 69 73 70 74 78 75 71 76
REMARK SMILES IDX 73 77 79 78 72 79 74 80 75 81 76 82 77 83 54 84 55 85 63 86
REMARK SMILES IDX 56 87 58 88 64 89 57 90 59 91 60 92 61 93 62 94
REMARK H PARENT 20 6 25 28 84 47 52 58
REMARK Flexibility Score: inf
ROOT
ATOM      1  C   UNL A   1      31.900  30.598  26.552  1.00  0.00     0.023 C 
ENDROOT
BRANCH   1   2
ATOM      2  C   UNL A   1      33.281  30.085  26.951  1.00  0.00     0.116 C 
BRANCH   2   3
ATOM      3  N   UNL A   1      33.846  29.181  25.968  1.00  0.00    -0.356 N 
ATOM      4  O   UNL A   1      33.228  27.244  27.040  1.00  0.00    -0.275 OA
ATOM      5  C   UNL A   1      33.713  27.810  26.068  1.00  0.00     0.222 C 
ATOM      6  H   UNL A   1      34.341  29.557  25.204  1.00  0.00     0.163 HD
BRANCH   5   7
ATOM      7  C   UNL A   1      34.164  27.067  24.827  1.00  0.00     0.133 C 
BRANCH   7   8
ATOM      8  C   UNL A   1      33.165  27.156  23.666  1.00  0.00     0.147 C 
ATOM      9  C   UNL A   1      31.681  27.063  24.087  1.00  0.00     0.150 C 
ATOM     10  O   UNL A   1      33.474  26.140  22.679  1.00  0.00    -0.374 OA
ATOM     11  N   UNL A   1      30.860  27.176  22.885  1.00  0.00    -0.352 N 
ATOM     12  C   UNL A   1      32.628  26.279  21.515  1.00  0.00     0.182 C 
ATOM     13  C   UNL A   1      31.130  26.167  21.871  1.00  0.00     0.146 C 
BRANCH  11  14
ATOM     14  C   UNL A   1      29.640  27.800  22.963  1.00  0.00     0.129 A 
ATOM     15  C   UNL A   1      29.531  29.093  22.457  1.00  0.00     0.060 A 
ATOM     16  N   UNL A   1      28.575  27.153  23.468  1.00  0.00    -0.239 NA
ATOM     17  C   UNL A   1      28.300  29.751  22.452  1.00  0.00     0.061 A 
ATOM     18  C   UNL A   1      27.391  27.814  23.497  1.00  0.00     0.114 A 
ATOM     19  C   UNL A   1      27.205  29.095  23.006  1.00  0.00     0.033 A 
BRANCH  17  20
ATOM     20  C   UNL A   1      28.171  31.116  21.834  1.00  0.00     0.416 C 
ATOM     21  F   UNL A   1      27.400  31.951  22.577  1.00  0.00    -0.166 F 
ATOM     22  F   UNL A   1      29.378  31.722  21.683  1.00  0.00    -0.166 F 
ATOM     23  F   UNL A   1      27.608  31.084  20.594  1.00  0.00    -0.166 F 
ENDBRANCH  17  20
ENDBRANCH  11  14
ENDBRANCH   7   8
ENDBRANCH   5   7
ENDBRANCH   2   3
ENDBRANCH   1   2
BRANCH   1  24
ATOM     24  C   UNL A   1      31.640  32.082  26.836  1.00  0.00     0.023 C 
BRANCH  24  25
ATOM     25  C   UNL A   1      32.873  32.915  27.175  1.00  0.00     0.116 C 
BRANCH  25  26
ATOM     26  N   UNL A   1      32.534  34.242  27.663  1.00  0.00    -0.352 N 
ATOM     27  C   UNL A   1      33.039  34.940  28.733  1.00  0.00     0.251 C 
ATOM     28  H   UNL A   1      31.838  34.711  27.150  1.00  0.00     0.163 HD
ATOM     29  O   UNL A   1      32.493  35.986  29.086  1.00  0.00    -0.269 OA
BRANCH  27  30
ATOM     30  C   UNL A   1      34.216  34.438  29.479  1.00  0.00     0.039 A 
ATOM     31  C   UNL A   1      34.012  33.777  30.696  1.00  0.00     0.014 A 
ATOM     32  C   UNL A   1      35.515  34.625  29.000  1.00  0.00     0.014 A 
ATOM     33  C   UNL A   1      35.102  33.250  31.393  1.00  0.00     0.010 A 
ATOM     34  C   UNL A   1      36.591  34.032  29.658  1.00  0.00     0.010 A 
ATOM     35  C   UNL A   1      36.400  33.338  30.862  1.00  0.00    -0.014 A 
BRANCH  35  36
ATOM     36  C   UNL A   1      37.557  32.697  31.542  1.00  0.00     0.031 A 
ATOM     37  C   UNL A   1      38.277  31.539  30.903  1.00  0.00     0.074 A 
ATOM     38  C   UNL A   1      37.913  33.103  32.778  1.00  0.00     0.049 A 
ATOM     39  N   UNL A   1      39.266  30.822  31.372  1.00  0.00    -0.248 NA
ATOM     40  C   UNL A   1      37.812  31.117  29.572  1.00  0.00     0.031 C 
ATOM     41  C   UNL A   1      37.252  34.165  33.541  1.00  0.00     0.029 A 
ATOM     42  N   UNL A   1      38.899  32.655  33.622  1.00  0.00    -0.354 N 
ATOM     43  C   UNL A   1      39.519  29.848  30.414  1.00  0.00     0.074 A 
ATOM     44  C   UNL A   1      38.558  30.044  29.351  1.00  0.00     0.031 C 
ATOM     45  C   UNL A   1      37.848  34.284  34.738  1.00  0.00     0.029 A 
ATOM     46  C   UNL A   1      38.910  33.288  34.844  1.00  0.00     0.049 A 
ATOM     47  H   UNL A   1      39.538  31.947  33.377  1.00  0.00     0.167 HD
ATOM     48  C   UNL A   1      40.482  28.894  30.403  1.00  0.00     0.034 A 
ATOM     49  C   UNL A   1      39.674  33.081  35.935  1.00  0.00     0.034 A 
ATOM     50  C   UNL A   1      41.456  28.716  31.446  1.00  0.00     0.049 A 
ATOM     51  C   UNL A   1      40.749  32.029  35.890  1.00  0.00     0.074 A 
ATOM     52  C   UNL A   1      42.517  27.829  31.491  1.00  0.00     0.029 A 
ATOM     53  N   UNL A   1      41.482  29.428  32.636  1.00  0.00    -0.354 N 
ATOM     54  N   UNL A   1      41.068  31.218  34.912  1.00  0.00    -0.248 NA
ATOM     55  C   UNL A   1      41.592  31.889  37.086  1.00  0.00     0.031 C 
ATOM     56  C   UNL A   1      43.165  27.981  32.721  1.00  0.00     0.029 A 
ATOM     57  C   UNL A   1      42.533  28.992  33.426  1.00  0.00     0.049 A 
ATOM     58  H   UNL A   1      40.848  30.139  32.882  1.00  0.00     0.167 HD
ATOM     59  C   UNL A   1      42.171  30.497  35.359  1.00  0.00     0.074 A 
ATOM     60  C   UNL A   1      42.476  30.983  36.688  1.00  0.00     0.031 C 
ATOM     61  C   UNL A   1      42.859  29.514  34.729  1.00  0.00     0.034 A 
BRANCH  48  62
ATOM     62  C   UNL A   1      40.556  27.988  29.198  1.00  0.00     0.023 A 
ATOM     63  C   UNL A   1      39.674  26.892  29.095  1.00  0.00     0.012 A 
ATOM     64  C   UNL A   1      41.453  28.253  28.146  1.00  0.00     0.148 A 
ATOM     65  C   UNL A   1      39.713  26.050  27.985  1.00  0.00     0.002 A 
ATOM     66  C   UNL A   1      41.453  27.436  27.020  1.00  0.00     0.091 A 
ATOM     67  F   UNL A   1      42.297  29.288  28.268  1.00  0.00    -0.205 F 
ATOM     68  C   UNL A   1      40.593  26.328  26.944  1.00  0.00     0.022 A 
BRANCH  66  69
ATOM     69  S   UNL A   1      42.494  27.755  25.592  1.00  0.00     0.127 S 
ATOM     70  O   UNL A   1      41.896  28.977  25.059  1.00  0.00    -0.237 OA
ATOM     71  O   UNL A   1      43.810  27.937  26.205  1.00  0.00    -0.237 OA
ATOM     72  O   UNL A   1      42.379  26.580  24.739  1.00  0.00    -0.744 OA
ENDBRANCH  66  69
ENDBRANCH  48  62
BRANCH  49  73
ATOM     73  C   UNL A   1      39.479  33.923  37.149  1.00  0.00     0.023 A 
ATOM     74  C   UNL A   1      39.931  35.257  37.152  1.00  0.00     0.012 A 
ATOM     75  C   UNL A   1      38.827  33.416  38.291  1.00  0.00     0.148 A 
ATOM     76  C   UNL A   1      39.767  36.061  38.281  1.00  0.00     0.002 A 
ATOM     77  C   UNL A   1      38.615  34.240  39.389  1.00  0.00     0.091 A 
ATOM     78  F   UNL A   1      38.414  32.142  38.271  1.00  0.00    -0.205 F 
ATOM     79  C   UNL A   1      39.101  35.556  39.395  1.00  0.00     0.022 A 
BRANCH  77  80
ATOM     80  S   UNL A   1      37.650  33.719  40.812  1.00  0.00     0.127 S 
ATOM     81  O   UNL A   1      36.432  33.217  40.182  1.00  0.00    -0.237 OA
ATOM     82  O   UNL A   1      38.511  32.690  41.399  1.00  0.00    -0.237 OA
ATOM     83  O   UNL A   1      37.491  34.908  41.639  1.00  0.00    -0.744 OA
ENDBRANCH  77  80
ENDBRANCH  49  73
BRANCH  61  84
ATOM     84  C   UNL A   1      44.045  28.918  35.446  1.00  0.00     0.023 A 
ATOM     85  C   UNL A   1      45.330  29.463  35.260  1.00  0.00     0.012 A 
ATOM     86  C   UNL A   1      43.869  27.859  36.359  1.00  0.00     0.148 A 
ATOM     87  C   UNL A   1      46.428  28.941  35.943  1.00  0.00     0.002 A 
ATOM     88  C   UNL A   1      44.959  27.379  37.077  1.00  0.00     0.091 A 
ATOM     89  F   UNL A   1      42.642  27.341  36.510  1.00  0.00    -0.205 F 
ATOM     90  C   UNL A   1      46.241  27.909  36.859  1.00  0.00     0.022 A 
BRANCH  88  91
ATOM     91  S   UNL A   1      44.798  26.120  38.348  1.00  0.00     0.127 S 
ATOM     92  O   UNL A   1      44.364  24.963  37.568  1.00  0.00    -0.237 OA
ATOM     93  O   UNL A   1      46.163  26.030  38.867  1.00  0.00    -0.237 OA
ATOM     94  O   UNL A   1      43.822  26.631  39.300  1.00  0.00    -0.744 OA
ENDBRANCH  88  91
ENDBRANCH  61  84
ENDBRANCH  35  36
ENDBRANCH  27  30
ENDBRANCH  25  26
ENDBRANCH  24  25
ENDBRANCH   1  24
TORSDOF 17
ENDMDL
MODEL 2
REMARK VINA RESULT:     -11.8      3.648      8.885
REMARK SMILES O=C(C[C@@H]1CN(c2cc(C(F)(F)F)ccn2)CCO1)NCCCCNC(=O)c1ccc(-c2c3nc(c(-c4cccc(S(=O)(=O)[O-])c4F)c4ccc([nH]4)c(-c4cccc(S(=O)(=O)[O-])c4F)c4nc(c(-c5cccc(S(=O)(=O)[O-])c5F)c5ccc2[nH]5)C=C4)C=C3)cc1
REMARK SMILES IDX 22 1 21 2 20 3 1 4 2 5 3 7 4 8 5 9 19 10 6 11 18 12 17 13
REMARK SMILES IDX 7 14 8 15 16 16 9 17 15 18 14 19 10 20 11 21 12 22 13 23
REMARK SMILES IDX 23 24 24 25 25 26 26 27 27 29 28 30 29 31 90 32 30 33 89 34
REMARK SMILES IDX 31 35 32 36 33 37 83 38 34 39 88 40 82 41 84 42 35 43 87 44
REMARK SMILES IDX 81 45 80 46 36 48 68 49 48 50 67 51 49 52 52 53 66 54 85 55
REMARK SMILES IDX 50 56 51 57 65 59 86 60 53 61 37 62 38 63 46 64 39 65 41 66
REMARK SMILES IDX 47 67 40 68 42 69 43 70 44 71 45 72 69 73 70 74 78 75 71 76
REMARK SMILES IDX 73 77 79 78 72 79 74 80 75 81 76 82 77 83 54 84 55 85 63 86
REMARK SMILES IDX 56 87 58 88 64 89 57 90 59 91 60 92 61 93 62 94
REMARK H PARENT 20 6 25 28 84 47 52 58
REMARK Flexibility Score: inf
ROOT
ATOM      1  C   UNL A   1      33.074  29.266  24.897  1.00  0.00     0.023 C 
ENDROOT
BRANCH   1   2
ATOM      2  C   UNL A   1      32.799  28.836  23.458  1.00  0.00     0.116 C 
BRANCH   2   3
ATOM      3  N   UNL A   1      32.260  27.494  23.370  1.00  0.00    -0.356 N 
ATOM      4  O   UNL A   1      30.498  28.032  21.996  1.00  0.00    -0.275 OA
ATOM      5  C   UNL A   1      31.169  27.189  22.579  1.00  0.00     0.222 C 
ATOM      6  H   UNL A   1      32.685  26.774  23.892  1.00  0.00     0.163 HD
BRANCH   5   7
ATOM      7  C   UNL A   1      30.916  25.701  22.446  1.00  0.00     0.133 C 
BRANCH   7   8
ATOM      8  C   UNL A   1      31.251  24.910  23.717  1.00  0.00     0.147 C 
ATOM      9  C   UNL A   1      31.374  23.383  23.511  1.00  0.00     0.150 C 
ATOM     10  O   UNL A   1      30.272  25.204  24.745  1.00  0.00    -0.374 OA
ATOM     11  N   UNL A   1      31.707  22.777  24.796  1.00  0.00    -0.352 N 
ATOM     12  C   UNL A   1      30.633  24.570  25.994  1.00  0.00     0.182 C 
ATOM     13  C   UNL A   1      30.743  23.037  25.856  1.00  0.00     0.146 C 
BRANCH  11  14
ATOM     14  C   UNL A   1      32.516  21.669  24.824  1.00  0.00     0.129 A 
ATOM     15  C   UNL A   1      33.895  21.862  24.800  1.00  0.00     0.060 A 
ATOM     16  N   UNL A   1      31.983  20.438  24.924  1.00  0.00    -0.239 NA
ATOM     17  C   UNL A   1      34.765  20.774  24.891  1.00  0.00     0.061 A 
ATOM     18  C   UNL A   1      32.834  19.383  24.971  1.00  0.00     0.114 A 
ATOM     19  C   UNL A   1      34.214  19.498  24.960  1.00  0.00     0.033 A 
BRANCH  17  20
ATOM     20  C   UNL A   1      36.253  20.993  24.943  1.00  0.00     0.416 C 
ATOM     21  F   UNL A   1      36.946  19.829  25.023  1.00  0.00    -0.166 F 
ATOM     22  F   UNL A   1      36.708  21.651  23.844  1.00  0.00    -0.166 F 
ATOM     23  F   UNL A   1      36.640  21.739  26.015  1.00  0.00    -0.166 F 
ENDBRANCH  17  20
ENDBRANCH  11  14
ENDBRANCH   7   8
ENDBRANCH   5   7
ENDBRANCH   2   3
ENDBRANCH   1   2
BRANCH   1  24
ATOM     24  C   UNL A   1      31.933  29.017  25.890  1.00  0.00     0.023 C 
BRANCH  24  25
ATOM     25  C   UNL A   1      31.989  29.836  27.177  1.00  0.00     0.116 C 
BRANCH  25  26
ATOM     26  N   UNL A   1      32.161  31.259  26.926  1.00  0.00    -0.352 N 
ATOM     27  C   UNL A   1      33.184  32.098  27.292  1.00  0.00     0.251 C 
ATOM     28  H   UNL A   1      31.433  31.684  26.417  1.00  0.00     0.163 HD
ATOM     29  O   UNL A   1      33.058  33.313  27.134  1.00  0.00    -0.269 OA
BRANCH  27  30
ATOM     30  C   UNL A   1      34.426  31.561  27.896  1.00  0.00     0.039 A 
ATOM     31  C   UNL A   1      35.466  32.446  28.199  1.00  0.00     0.014 A 
ATOM     32  C   UNL A   1      34.579  30.196  28.151  1.00  0.00     0.014 A 
ATOM     33  C   UNL A   1      36.628  31.971  28.815  1.00  0.00     0.010 A 
ATOM     34  C   UNL A   1      35.705  29.738  28.835  1.00  0.00     0.010 A 
ATOM     35  C   UNL A   1      36.743  30.618  29.175  1.00  0.00    -0.014 A 
BRANCH  35  36
ATOM     36  C   UNL A   1      37.929  30.116  29.920  1.00  0.00     0.031 A 
ATOM     37  C   UNL A   1      38.223  30.605  31.314  1.00  0.00     0.074 A 
ATOM     38  C   UNL A   1      38.792  29.277  29.311  1.00  0.00     0.049 A 
ATOM     39  N   UNL A   1      39.237  30.322  32.090  1.00  0.00    -0.248 NA
ATOM     40  C   UNL A   1      37.263  31.552  31.904  1.00  0.00     0.031 C 
ATOM     41  C   UNL A   1      38.664  28.784  27.937  1.00  0.00     0.029 A 
ATOM     42  N   UNL A   1      39.962  28.713  29.757  1.00  0.00    -0.354 N 
ATOM     43  C   UNL A   1      39.058  31.077  33.242  1.00  0.00     0.074 A 
ATOM     44  C   UNL A   1      37.854  31.857  33.051  1.00  0.00     0.031 C 
ATOM     45  C   UNL A   1      39.711  27.994  27.654  1.00  0.00     0.029 A 
ATOM     46  C   UNL A   1      40.604  27.951  28.807  1.00  0.00     0.049 A 
ATOM     47  H   UNL A   1      40.309  28.841  30.669  1.00  0.00     0.167 HD
ATOM     48  C   UNL A   1      39.808  31.101  34.371  1.00  0.00     0.034 A 
ATOM     49  C   UNL A   1      41.785  27.304  28.852  1.00  0.00     0.034 A 
ATOM     50  C   UNL A   1      40.989  30.304  34.573  1.00  0.00     0.049 A 
ATOM     51  C   UNL A   1      42.590  27.329  30.123  1.00  0.00     0.074 A 
ATOM     52  C   UNL A   1      41.773  30.201  35.709  1.00  0.00     0.029 A 
ATOM     53  N   UNL A   1      41.567  29.485  33.615  1.00  0.00    -0.354 N 
ATOM     54  N   UNL A   1      42.324  27.931  31.256  1.00  0.00    -0.248 NA
ATOM     55  C   UNL A   1      43.839  26.555  30.134  1.00  0.00     0.031 C 
ATOM     56  C   UNL A   1      42.843  29.346  35.427  1.00  0.00     0.029 A 
ATOM     57  C   UNL A   1      42.704  28.883  34.129  1.00  0.00     0.049 A 
ATOM     58  H   UNL A   1      41.220  29.352  32.704  1.00  0.00     0.167 HD
ATOM     59  C   UNL A   1      43.351  27.581  32.125  1.00  0.00     0.074 A 
ATOM     60  C   UNL A   1      44.233  26.696  31.393  1.00  0.00     0.031 C 
ATOM     61  C   UNL A   1      43.551  27.967  33.409  1.00  0.00     0.034 A 
BRANCH  48  62
ATOM     62  C   UNL A   1      39.349  31.992  35.498  1.00  0.00     0.023 A 
ATOM     63  C   UNL A   1      38.483  31.476  36.485  1.00  0.00     0.012 A 
ATOM     64  C   UNL A   1      39.816  33.315  35.614  1.00  0.00     0.148 A 
ATOM     65  C   UNL A   1      38.056  32.275  37.545  1.00  0.00     0.002 A 
ATOM     66  C   UNL A   1      39.424  34.091  36.700  1.00  0.00     0.091 A 
ATOM     67  F   UNL A   1      40.623  33.795  34.658  1.00  0.00    -0.205 F 
ATOM     68  C   UNL A   1      38.534  33.577  37.659  1.00  0.00     0.022 A 
BRANCH  66  69
ATOM     69  S   UNL A   1      40.044  35.753  36.978  1.00  0.00     0.127 S 
ATOM     70  O   UNL A   1      39.372  36.112  38.226  1.00  0.00    -0.237 OA
ATOM     71  O   UNL A   1      41.484  35.526  37.105  1.00  0.00    -0.237 OA
ATOM     72  O   UNL A   1      39.652  36.530  35.811  1.00  0.00    -0.744 OA
ENDBRANCH  66  69
ENDBRANCH  48  62
BRANCH  49  73
ATOM     73  C   UNL A   1      42.256  26.535  27.664  1.00  0.00     0.023 A 
ATOM     74  C   UNL A   1      43.068  27.167  26.703  1.00  0.00     0.012 A 
ATOM     75  C   UNL A   1      41.923  25.176  27.497  1.00  0.00     0.148 A 
ATOM     76  C   UNL A   1      43.513  26.469  25.579  1.00  0.00     0.002 A 
ATOM     77  C   UNL A   1      42.417  24.473  26.406  1.00  0.00     0.091 A 
ATOM     78  F   UNL A   1      41.141  24.597  28.418  1.00  0.00    -0.205 F 
ATOM     79  C   UNL A   1      43.195  25.121  25.435  1.00  0.00     0.022 A 
BRANCH  77  80
ATOM     80  S   UNL A   1      42.173  22.704  26.210  1.00  0.00     0.127 S 
ATOM     81  O   UNL A   1      42.842  22.175  27.395  1.00  0.00    -0.237 OA
ATOM     82  O   UNL A   1      40.713  22.598  26.226  1.00  0.00    -0.237 OA
ATOM     83  O   UNL A   1      42.784  22.360  24.932  1.00  0.00    -0.744 OA
ENDBRANCH  77  80
ENDBRANCH  49  73
BRANCH  61  84
ATOM     84  C   UNL A   1      44.749  27.404  34.132  1.00  0.00     0.023 A 
ATOM     85  C   UNL A   1      45.973  28.101  34.122  1.00  0.00     0.012 A 
ATOM     86  C   UNL A   1      44.636  26.216  34.883  1.00  0.00     0.148 A 
ATOM     87  C   UNL A   1      47.077  27.606  34.815  1.00  0.00     0.002 A 
ATOM     88  C   UNL A   1      45.725  25.758  35.615  1.00  0.00     0.091 A 
ATOM     89  F   UNL A   1      43.468  25.558  34.867  1.00  0.00    -0.205 F 
ATOM     90  C   UNL A   1      46.949  26.443  35.571  1.00  0.00     0.022 A 
BRANCH  88  91
ATOM     91  S   UNL A   1      45.627  24.324  36.694  1.00  0.00     0.127 S 
ATOM     92  O   UNL A   1      47.017  24.177  37.121  1.00  0.00    -0.237 OA
ATOM     93  O   UNL A   1      44.713  24.786  37.738  1.00  0.00    -0.237 OA
ATOM     94  O   UNL A   1      45.108  23.238  35.874  1.00  0.00    -0.744 OA
ENDBRANCH  88  91
ENDBRANCH  61  84
ENDBRANCH  35  36
ENDBRANCH  27  30
ENDBRANCH  25  26
ENDBRANCH  24  25
ENDBRANCH   1  24
TORSDOF 17
ENDMDL
MODEL 3
REMARK VINA RESULT:     -11.7      3.783      9.045
REMARK SMILES O=C(C[C@@H]1CN(c2cc(C(F)(F)F)ccn2)CCO1)NCCCCNC(=O)c1ccc(-c2c3nc(c(-c4cccc(S(=O)(=O)[O-])c4F)c4ccc([nH]4)c(-c4cccc(S(=O)(=O)[O-])c4F)c4nc(c(-c5cccc(S(=O)(=O)[O-])c5F)c5ccc2[nH]5)C=C4)C=C3)cc1
REMARK SMILES IDX 22 1 21 2 20 3 1 4 2 5 3 7 4 8 5 9 19 10 6 11 18 12 17 13
REMARK SMILES IDX 7 14 8 15 16 16 9 17 15 18 14 19 10 20 11 21 12 22 13 23
REMARK SMILES IDX 23 24 24 25 25 26 26 27 27 29 28 30 29 31 90 32 30 33 89 34
REMARK SMILES IDX 31 35 32 36 33 37 83 38 34 39 88 40 82 41 84 42 35 43 87 44
REMARK SMILES IDX 81 45 80 46 36 48 68 49 48 50 67 51 49 52 52 53 66 54 85 55
REMARK SMILES IDX 50 56 51 57 65 59 86 60 53 61 37 62 38 63 46 64 39 65 41 66
REMARK SMILES IDX 47 67 40 68 42 69 43 70 44 71 45 72 69 73 70 74 78 75 71 76
REMARK SMILES IDX 73 77 79 78 72 79 74 80 75 81 76 82 77 83 54 84 55 85 63 86
REMARK SMILES IDX 56 87 58 88 64 89 57 90 59 91 60 92 61 93 62 94
REMARK H PARENT 20 6 25 28 84 47 52 58
REMARK Flexibility Score: inf
ROOT
ATOM      1  C   UNL A   1      31.795  26.914  26.610  1.00  0.00     0.023 C 
ENDROOT
BRANCH   1   2
ATOM      2  C   UNL A   1      30.651  26.195  25.900  1.00  0.00     0.116 C 
BRANCH   2   3
ATOM      3  N   UNL A   1      31.043  24.898  25.385  1.00  0.00    -0.356 N 
ATOM      4  O   UNL A   1      30.746  23.757  27.359  1.00  0.00    -0.275 OA
ATOM      5  C   UNL A   1      30.996  23.754  26.159  1.00  0.00     0.222 C 
ATOM      6  H   UNL A   1      31.353  24.829  24.453  1.00  0.00     0.163 HD
BRANCH   5   7
ATOM      7  C   UNL A   1      31.217  22.481  25.369  1.00  0.00     0.133 C 
BRANCH   7   8
ATOM      8  C   UNL A   1      32.489  22.509  24.511  1.00  0.00     0.147 C 
ATOM      9  C   UNL A   1      33.768  22.929  25.270  1.00  0.00     0.150 C 
ATOM     10  O   UNL A   1      32.281  23.366  23.361  1.00  0.00    -0.374 OA
ATOM     11  N   UNL A   1      34.885  22.893  24.332  1.00  0.00    -0.352 N 
ATOM     12  C   UNL A   1      33.417  23.313  22.468  1.00  0.00     0.182 C 
ATOM     13  C   UNL A   1      34.723  23.750  23.166  1.00  0.00     0.146 C 
BRANCH  11  14
ATOM     14  C   UNL A   1      36.130  22.534  24.785  1.00  0.00     0.129 A 
ATOM     15  C   UNL A   1      36.900  23.503  25.423  1.00  0.00     0.060 A 
ATOM     16  N   UNL A   1      36.563  21.268  24.656  1.00  0.00    -0.239 NA
ATOM     17  C   UNL A   1      38.147  23.178  25.960  1.00  0.00     0.061 A 
ATOM     18  C   UNL A   1      37.793  20.969  25.144  1.00  0.00     0.114 A 
ATOM     19  C   UNL A   1      38.611  21.876  25.797  1.00  0.00     0.033 A 
BRANCH  17  20
ATOM     20  C   UNL A   1      38.941  24.208  26.716  1.00  0.00     0.416 C 
ATOM     21  F   UNL A   1      39.952  24.730  25.976  1.00  0.00    -0.166 F 
ATOM     22  F   UNL A   1      38.167  25.249  27.121  1.00  0.00    -0.166 F 
ATOM     23  F   UNL A   1      39.518  23.707  27.844  1.00  0.00    -0.166 F 
ENDBRANCH  17  20
ENDBRANCH  11  14
ENDBRANCH   7   8
ENDBRANCH   5   7
ENDBRANCH   2   3
ENDBRANCH   1   2
BRANCH   1  24
ATOM     24  C   UNL A   1      31.653  28.437  26.715  1.00  0.00     0.023 C 
BRANCH  24  25
ATOM     25  C   UNL A   1      32.863  29.245  26.253  1.00  0.00     0.116 C 
BRANCH  25  26
ATOM     26  N   UNL A   1      32.700  30.673  26.479  1.00  0.00    -0.352 N 
ATOM     27  C   UNL A   1      33.434  31.527  27.265  1.00  0.00     0.251 C 
ATOM     28  H   UNL A   1      31.950  31.090  25.996  1.00  0.00     0.163 HD
ATOM     29  O   UNL A   1      33.027  32.673  27.459  1.00  0.00    -0.269 OA
BRANCH  27  30
ATOM     30  C   UNL A   1      34.695  31.079  27.899  1.00  0.00     0.039 A 
ATOM     31  C   UNL A   1      35.757  31.984  28.003  1.00  0.00     0.014 A 
ATOM     32  C   UNL A   1      34.846  29.774  28.376  1.00  0.00     0.014 A 
ATOM     33  C   UNL A   1      36.940  31.600  28.643  1.00  0.00     0.010 A 
ATOM     34  C   UNL A   1      35.996  29.419  29.081  1.00  0.00     0.010 A 
ATOM     35  C   UNL A   1      37.057  30.326  29.222  1.00  0.00    -0.014 A 
BRANCH  35  36
ATOM     36  C   UNL A   1      38.269  29.936  29.991  1.00  0.00     0.031 A 
ATOM     37  C   UNL A   1      38.534  30.520  31.354  1.00  0.00     0.074 A 
ATOM     38  C   UNL A   1      39.180  29.116  29.429  1.00  0.00     0.049 A 
ATOM     39  N   UNL A   1      39.561  30.342  32.143  1.00  0.00    -0.248 NA
ATOM     40  C   UNL A   1      37.520  31.442  31.892  1.00  0.00     0.031 C 
ATOM     41  C   UNL A   1      39.082  28.539  28.086  1.00  0.00     0.029 A 
ATOM     42  N   UNL A   1      40.380  28.647  29.903  1.00  0.00    -0.354 N 
ATOM     43  C   UNL A   1      39.338  31.150  33.251  1.00  0.00     0.074 A 
ATOM     44  C   UNL A   1      38.091  31.846  33.018  1.00  0.00     0.031 C 
ATOM     45  C   UNL A   1      40.174  27.796  27.845  1.00  0.00     0.029 A 
ATOM     46  C   UNL A   1      41.066  27.870  28.998  1.00  0.00     0.049 A 
ATOM     47  H   UNL A   1      40.719  28.847  30.806  1.00  0.00     0.167 HD
ATOM     48  C   UNL A   1      40.085  31.281  34.375  1.00  0.00     0.034 A 
ATOM     49  C   UNL A   1      42.283  27.296  29.076  1.00  0.00     0.034 A 
ATOM     50  C   UNL A   1      41.309  30.567  34.619  1.00  0.00     0.049 A 
ATOM     51  C   UNL A   1      43.084  27.440  30.341  1.00  0.00     0.074 A 
ATOM     52  C   UNL A   1      42.097  30.574  35.757  1.00  0.00     0.029 A 
ATOM     53  N   UNL A   1      41.935  29.729  33.708  1.00  0.00    -0.354 N 
ATOM     54  N   UNL A   1      42.782  28.089  31.439  1.00  0.00    -0.248 NA
ATOM     55  C   UNL A   1      44.376  26.741  30.394  1.00  0.00     0.031 C 
ATOM     56  C   UNL A   1      43.215  29.767  35.522  1.00  0.00     0.029 A 
ATOM     57  C   UNL A   1      43.104  29.224  34.252  1.00  0.00     0.049 A 
ATOM     58  H   UNL A   1      41.597  29.524  32.806  1.00  0.00     0.167 HD
ATOM     59  C   UNL A   1      43.827  27.849  32.324  1.00  0.00     0.074 A 
ATOM     60  C   UNL A   1      44.760  26.977  31.642  1.00  0.00     0.031 C 
ATOM     61  C   UNL A   1      44.003  28.319  33.583  1.00  0.00     0.034 A 
BRANCH  48  62
ATOM     62  C   UNL A   1      39.573  32.206  35.451  1.00  0.00     0.023 A 
ATOM     63  C   UNL A   1      38.677  31.716  36.423  1.00  0.00     0.012 A 
ATOM     64  C   UNL A   1      40.020  33.539  35.534  1.00  0.00     0.148 A 
ATOM     65  C   UNL A   1      38.202  32.548  37.436  1.00  0.00     0.002 A 
ATOM     66  C   UNL A   1      39.580  34.349  36.575  1.00  0.00     0.091 A 
ATOM     67  F   UNL A   1      40.858  33.994  34.591  1.00  0.00    -0.205 F 
ATOM     68  C   UNL A   1      38.661  33.859  37.519  1.00  0.00     0.022 A 
BRANCH  66  69
ATOM     69  S   UNL A   1      40.170  36.028  36.814  1.00  0.00     0.127 S 
ATOM     70  O   UNL A   1      41.607  35.813  36.977  1.00  0.00    -0.237 OA
ATOM     71  O   UNL A   1      39.789  36.670  35.556  1.00  0.00    -0.237 OA
ATOM     72  O   UNL A   1      39.477  36.535  37.990  1.00  0.00    -0.744 OA
ENDBRANCH  66  69
ENDBRANCH  48  62
BRANCH  49  73
ATOM     73  C   UNL A   1      42.798  26.489  27.933  1.00  0.00     0.023 A 
ATOM     74  C   UNL A   1      43.519  27.123  26.902  1.00  0.00     0.012 A 
ATOM     75  C   UNL A   1      42.598  25.095  27.876  1.00  0.00     0.148 A 
ATOM     76  C   UNL A   1      44.003  26.389  25.818  1.00  0.00     0.002 A 
ATOM     77  C   UNL A   1      43.133  24.363  26.823  1.00  0.00     0.091 A 
ATOM     78  F   UNL A   1      41.901  24.514  28.861  1.00  0.00    -0.205 F 
ATOM     79  C   UNL A   1      43.819  25.009  25.784  1.00  0.00     0.022 A 
BRANCH  77  80
ATOM     80  S   UNL A   1      43.062  22.569  26.765  1.00  0.00     0.127 S 
ATOM     81  O   UNL A   1      42.033  22.342  25.753  1.00  0.00    -0.237 OA
ATOM     82  O   UNL A   1      44.423  22.228  26.348  1.00  0.00    -0.237 OA
ATOM     83  O   UNL A   1      42.726  22.142  28.117  1.00  0.00    -0.744 OA
ENDBRANCH  77  80
ENDBRANCH  49  73
BRANCH  61  84
ATOM     84  C   UNL A   1      45.231  27.869  34.335  1.00  0.00     0.023 A 
ATOM     85  C   UNL A   1      46.407  28.642  34.296  1.00  0.00     0.012 A 
ATOM     86  C   UNL A   1      45.192  26.711  35.138  1.00  0.00     0.148 A 
ATOM     87  C   UNL A   1      47.537  28.252  35.014  1.00  0.00     0.002 A 
ATOM     88  C   UNL A   1      46.304  26.358  35.894  1.00  0.00     0.091 A 
ATOM     89  F   UNL A   1      44.069  25.978  35.149  1.00  0.00    -0.205 F 
ATOM     90  C   UNL A   1      47.481  27.119  35.821  1.00  0.00     0.022 A 
BRANCH  88  91
ATOM     91  S   UNL A   1      46.293  24.971  37.036  1.00  0.00     0.127 S 
ATOM     92  O   UNL A   1      46.421  23.835  36.126  1.00  0.00    -0.237 OA
ATOM     93  O   UNL A   1      47.478  25.236  37.852  1.00  0.00    -0.237 OA
ATOM     94  O   UNL A   1      45.031  25.054  37.758  1.00  0.00    -0.744 OA
ENDBRANCH  88  91
ENDBRANCH  61  84
ENDBRANCH  35  36
ENDBRANCH  27  30
ENDBRANCH  25  26
ENDBRANCH  24  25
ENDBRANCH   1  24
TORSDOF 17
ENDMDL
