MODEL 1
REMARK VINA RESULT:     -11.7      0.000      0.000
REMARK SMILES C[C@H]1[C@H](C(=O)NCCCCNC(=O)c2ccc(-c3c4nc(c(-c5cccc(S(=O)(=O)[O-])c5F)c5ccc([nH]5)c(-c5cccc(S(=O)(=O)[O-])c5F)c5nc(c(-c6cccc(S(=O)(=O)[O-])c6F)c6ccc3[nH]6)C=C5)C=C4)cc2)CCN1S(=O)(=O)N(C)Cc1ccccc1
REMARK SMILES IDX 8 1 7 2 6 3 4 4 5 5 3 7 1 8 2 9 79 10 77 11 78 12 80 13
REMARK SMILES IDX 81 14 82 15 83 16 84 17 85 18 86 19 87 20 91 21 88 22 90 23
REMARK SMILES IDX 89 24 9 25 10 26 11 27 12 28 13 30 14 31 15 32 76 33 16 34
REMARK SMILES IDX 75 35 17 36 18 37 19 38 69 39 20 40 74 41 68 42 70 43 21 44
REMARK SMILES IDX 73 45 67 46 66 47 22 49 54 50 34 51 53 52 35 53 38 54 52 55
REMARK SMILES IDX 71 56 36 57 37 58 51 60 72 61 39 62 23 63 24 64 32 65 25 66
REMARK SMILES IDX 27 67 33 68 26 69 28 70 29 71 30 72 31 73 55 74 56 75 64 76
REMARK SMILES IDX 57 77 59 78 65 79 58 80 60 81 61 82 62 83 63 84 40 85 41 86
REMARK SMILES IDX 49 87 42 88 44 89 50 90 43 91 45 92 46 93 47 94 48 95
REMARK H PARENT 6 6 11 29 70 48 38 59
REMARK Flexibility Score: inf
ROOT
ATOM      1  C   UNL A   1      35.018  30.933  28.139  1.00  0.00     0.023 C 
ENDROOT
BRANCH   1   2
ATOM      2  C   UNL A   1      35.000  29.487  27.675  1.00  0.00     0.116 C 
BRANCH   2   3
ATOM      3  N   UNL A   1      33.682  28.902  27.821  1.00  0.00    -0.356 N 
ATOM      4  C   UNL A   1      33.028  28.011  27.034  1.00  0.00     0.224 C 
ATOM      5  O   UNL A   1      31.857  27.742  27.320  1.00  0.00    -0.275 OA
ATOM      6  H   UNL A   1      33.181  29.199  28.616  1.00  0.00     0.163 HD
BRANCH   4   7
ATOM      7  C   UNL A   1      33.672  27.361  25.819  1.00  0.00     0.098 C 
ATOM      8  C   UNL A   1      33.959  24.885  25.679  1.00  0.00     0.026 C 
ATOM      9  C   UNL A   1      32.988  26.047  25.416  1.00  0.00     0.083 C 
ATOM     10  N   UNL A   1      32.769  26.112  23.959  1.00  0.00    -0.185 NA
ATOM     11  C   UNL A   1      33.769  28.214  24.565  1.00  0.00     0.032 C 
ATOM     12  C   UNL A   1      33.559  27.244  23.411  1.00  0.00     0.105 C 
BRANCH  10  13
ATOM     13  S   UNL A   1      31.343  25.763  23.155  1.00  0.00     0.282 S 
ATOM     14  O   UNL A   1      31.611  25.862  21.739  1.00  0.00    -0.195 OA
ATOM     15  O   UNL A   1      30.856  24.513  23.706  1.00  0.00    -0.195 OA
BRANCH  13  16
ATOM     16  N   UNL A   1      30.202  26.956  23.520  1.00  0.00    -0.188 NA
ATOM     17  C   UNL A   1      28.847  26.521  23.909  1.00  0.00     0.126 C 
BRANCH  16  18
ATOM     18  C   UNL A   1      30.136  27.989  22.419  1.00  0.00     0.138 C 
BRANCH  18  19
ATOM     19  C   UNL A   1      29.364  29.249  22.748  1.00  0.00    -0.033 A 
ATOM     20  C   UNL A   1      28.178  29.607  22.094  1.00  0.00     0.005 A 
ATOM     21  C   UNL A   1      29.882  30.133  23.711  1.00  0.00     0.005 A 
ATOM     22  C   UNL A   1      27.502  30.785  22.431  1.00  0.00     0.000 A 
ATOM     23  C   UNL A   1      29.213  31.314  24.038  1.00  0.00     0.000 A 
ATOM     24  C   UNL A   1      28.013  31.632  23.411  1.00  0.00     0.000 A 
ENDBRANCH  18  19
ENDBRANCH  16  18
ENDBRANCH  13  16
ENDBRANCH  10  13
ENDBRANCH   4   7
ENDBRANCH   2   3
ENDBRANCH   1   2
BRANCH   1  25
ATOM     25  C   UNL A   1      33.671  31.623  28.029  1.00  0.00     0.023 C 
BRANCH  25  26
ATOM     26  C   UNL A   1      33.681  32.916  27.228  1.00  0.00     0.116 C 
BRANCH  26  27
ATOM     27  N   UNL A   1      32.942  34.035  27.807  1.00  0.00    -0.352 N 
ATOM     28  C   UNL A   1      33.235  34.789  28.923  1.00  0.00     0.251 C 
ATOM     29  H   UNL A   1      32.117  34.286  27.333  1.00  0.00     0.163 HD
ATOM     30  O   UNL A   1      32.518  35.727  29.260  1.00  0.00    -0.269 OA
BRANCH  28  31
ATOM     31  C   UNL A   1      34.397  34.417  29.757  1.00  0.00     0.039 A 
ATOM     32  C   UNL A   1      34.185  33.726  30.953  1.00  0.00     0.014 A 
ATOM     33  C   UNL A   1      35.691  34.666  29.306  1.00  0.00     0.014 A 
ATOM     34  C   UNL A   1      35.275  33.191  31.644  1.00  0.00     0.010 A 
ATOM     35  C   UNL A   1      36.758  34.034  29.924  1.00  0.00     0.010 A 
ATOM     36  C   UNL A   1      36.565  33.306  31.108  1.00  0.00    -0.014 A 
BRANCH  36  37
ATOM     37  C   UNL A   1      37.760  32.751  31.788  1.00  0.00     0.031 A 
ATOM     38  C   UNL A   1      38.475  31.593  31.147  1.00  0.00     0.074 A 
ATOM     39  C   UNL A   1      38.123  33.192  33.007  1.00  0.00     0.049 A 
ATOM     40  N   UNL A   1      39.424  30.839  31.630  1.00  0.00    -0.248 NA
ATOM     41  C   UNL A   1      38.024  31.201  29.799  1.00  0.00     0.031 C 
ATOM     42  C   UNL A   1      37.470  34.267  33.757  1.00  0.00     0.029 A 
ATOM     43  N   UNL A   1      39.116  32.757  33.850  1.00  0.00    -0.354 N 
ATOM     44  C   UNL A   1      39.643  29.855  30.674  1.00  0.00     0.074 A 
ATOM     45  C   UNL A   1      38.697  30.079  29.605  1.00  0.00     0.031 C 
ATOM     46  C   UNL A   1      38.076  34.403  34.949  1.00  0.00     0.029 A 
ATOM     47  C   UNL A   1      39.132  33.402  35.065  1.00  0.00     0.049 A 
ATOM     48  H   UNL A   1      39.757  32.049  33.608  1.00  0.00     0.167 HD
ATOM     49  C   UNL A   1      40.570  28.871  30.667  1.00  0.00     0.034 A 
ATOM     50  C   UNL A   1      39.900  33.193  36.153  1.00  0.00     0.034 A 
ATOM     51  C   UNL A   1      41.544  28.689  31.705  1.00  0.00     0.049 A 
ATOM     52  C   UNL A   1      40.949  32.112  36.107  1.00  0.00     0.074 A 
ATOM     53  C   UNL A   1      42.587  27.783  31.756  1.00  0.00     0.029 A 
ATOM     54  N   UNL A   1      41.592  29.425  32.879  1.00  0.00    -0.354 N 
ATOM     55  N   UNL A   1      41.237  31.280  35.136  1.00  0.00    -0.248 NA
ATOM     56  C   UNL A   1      41.802  31.964  37.296  1.00  0.00     0.031 C 
ATOM     57  C   UNL A   1      43.247  27.950  32.977  1.00  0.00     0.029 A 
ATOM     58  C   UNL A   1      42.640  28.988  33.667  1.00  0.00     0.049 A 
ATOM     59  H   UNL A   1      40.971  30.152  33.116  1.00  0.00     0.167 HD
ATOM     60  C   UNL A   1      42.327  30.538  35.578  1.00  0.00     0.074 A 
ATOM     61  C   UNL A   1      42.660  31.034  36.897  1.00  0.00     0.031 C 
ATOM     62  C   UNL A   1      42.989  29.531  34.955  1.00  0.00     0.034 A 
BRANCH  49  63
ATOM     63  C   UNL A   1      40.597  27.946  29.478  1.00  0.00     0.023 A 
ATOM     64  C   UNL A   1      39.749  26.820  29.446  1.00  0.00     0.012 A 
ATOM     65  C   UNL A   1      41.438  28.210  28.381  1.00  0.00     0.148 A 
ATOM     66  C   UNL A   1      39.767  25.948  28.359  1.00  0.00     0.002 A 
ATOM     67  C   UNL A   1      41.412  27.367  27.278  1.00  0.00     0.091 A 
ATOM     68  F   UNL A   1      42.255  29.271  28.441  1.00  0.00    -0.205 F 
ATOM     69  C   UNL A   1      40.590  26.227  27.271  1.00  0.00     0.022 A 
BRANCH  67  70
ATOM     70  S   UNL A   1      42.368  27.685  25.791  1.00  0.00     0.127 S 
ATOM     71  O   UNL A   1      41.877  26.639  24.896  1.00  0.00    -0.237 OA
ATOM     72  O   UNL A   1      41.942  29.040  25.440  1.00  0.00    -0.237 OA
ATOM     73  O   UNL A   1      43.767  27.566  26.179  1.00  0.00    -0.744 OA
ENDBRANCH  67  70
ENDBRANCH  49  63
BRANCH  50  74
ATOM     74  C   UNL A   1      39.746  34.056  37.360  1.00  0.00     0.023 A 
ATOM     75  C   UNL A   1      40.301  35.351  37.358  1.00  0.00     0.012 A 
ATOM     76  C   UNL A   1      39.051  33.610  38.500  1.00  0.00     0.148 A 
ATOM     77  C   UNL A   1      40.202  36.171  38.483  1.00  0.00     0.002 A 
ATOM     78  C   UNL A   1      38.908  34.453  39.597  1.00  0.00     0.091 A 
ATOM     79  F   UNL A   1      38.537  32.372  38.487  1.00  0.00    -0.205 F 
ATOM     80  C   UNL A   1      39.499  35.725  39.599  1.00  0.00     0.022 A 
BRANCH  78  81
ATOM     81  S   UNL A   1      37.913  34.015  41.028  1.00  0.00     0.127 S 
ATOM     82  O   UNL A   1      37.672  35.321  41.637  1.00  0.00    -0.237 OA
ATOM     83  O   UNL A   1      36.742  33.400  40.403  1.00  0.00    -0.237 OA
ATOM     84  O   UNL A   1      38.729  33.096  41.810  1.00  0.00    -0.744 OA
ENDBRANCH  78  81
ENDBRANCH  50  74
BRANCH  62  85
ATOM     85  C   UNL A   1      44.174  28.927  35.662  1.00  0.00     0.023 A 
ATOM     86  C   UNL A   1      45.457  29.477  35.485  1.00  0.00     0.012 A 
ATOM     87  C   UNL A   1      43.994  27.863  36.569  1.00  0.00     0.148 A 
ATOM     88  C   UNL A   1      46.551  28.955  36.175  1.00  0.00     0.002 A 
ATOM     89  C   UNL A   1      45.078  27.385  37.293  1.00  0.00     0.091 A 
ATOM     90  F   UNL A   1      42.765  27.345  36.711  1.00  0.00    -0.205 F 
ATOM     91  C   UNL A   1      46.360  27.919  37.087  1.00  0.00     0.022 A 
BRANCH  89  92
ATOM     92  S   UNL A   1      44.908  26.127  38.563  1.00  0.00     0.127 S 
ATOM     93  O   UNL A   1      44.564  24.947  37.770  1.00  0.00    -0.237 OA
ATOM     94  O   UNL A   1      46.248  26.098  39.151  1.00  0.00    -0.237 OA
ATOM     95  O   UNL A   1      43.864  26.599  39.462  1.00  0.00    -0.744 OA
ENDBRANCH  89  92
ENDBRANCH  62  85
ENDBRANCH  36  37
ENDBRANCH  28  31
ENDBRANCH  26  27
ENDBRANCH  25  26
ENDBRANCH   1  25
TORSDOF 18
ENDMDL
MODEL 2
REMARK VINA RESULT:     -11.6      2.852      4.906
REMARK SMILES C[C@H]1[C@H](C(=O)NCCCCNC(=O)c2ccc(-c3c4nc(c(-c5cccc(S(=O)(=O)[O-])c5F)c5ccc([nH]5)c(-c5cccc(S(=O)(=O)[O-])c5F)c5nc(c(-c6cccc(S(=O)(=O)[O-])c6F)c6ccc3[nH]6)C=C5)C=C4)cc2)CCN1S(=O)(=O)N(C)Cc1ccccc1
REMARK SMILES IDX 8 1 7 2 6 3 4 4 5 5 3 7 1 8 2 9 79 10 77 11 78 12 80 13
REMARK SMILES IDX 81 14 82 15 83 16 84 17 85 18 86 19 87 20 91 21 88 22 90 23
REMARK SMILES IDX 89 24 9 25 10 26 11 27 12 28 13 30 14 31 15 32 76 33 16 34
REMARK SMILES IDX 75 35 17 36 18 37 19 38 69 39 20 40 74 41 68 42 70 43 21 44
REMARK SMILES IDX 73 45 67 46 66 47 22 49 54 50 34 51 53 52 35 53 38 54 52 55
REMARK SMILES IDX 71 56 36 57 37 58 51 60 72 61 39 62 23 63 24 64 32 65 25 66
REMARK SMILES IDX 27 67 33 68 26 69 28 70 29 71 30 72 31 73 55 74 56 75 64 76
REMARK SMILES IDX 57 77 59 78 65 79 58 80 60 81 61 82 62 83 63 84 40 85 41 86
REMARK SMILES IDX 49 87 42 88 44 89 50 90 43 91 45 92 46 93 47 94 48 95
REMARK H PARENT 6 6 11 29 70 48 38 59
REMARK Flexibility Score: inf
ROOT
ATOM      1  C   UNL A   1      31.542  27.694  26.415  1.00  0.00     0.023 C 
ENDROOT
BRANCH   1   2
ATOM      2  C   UNL A   1      30.700  26.814  25.507  1.00  0.00     0.116 C 
BRANCH   2   3
ATOM      3  N   UNL A   1      30.581  27.385  24.181  1.00  0.00    -0.356 N 
ATOM      4  C   UNL A   1      30.855  26.844  22.967  1.00  0.00     0.224 C 
ATOM      5  O   UNL A   1      30.768  27.576  21.978  1.00  0.00    -0.275 OA
ATOM      6  H   UNL A   1      30.249  28.312  24.156  1.00  0.00     0.163 HD
BRANCH   4   7
ATOM      7  C   UNL A   1      31.281  25.394  22.792  1.00  0.00     0.098 C 
ATOM      8  C   UNL A   1      33.690  24.770  22.594  1.00  0.00     0.026 C 
ATOM      9  C   UNL A   1      32.549  25.048  23.585  1.00  0.00     0.083 C 
ATOM     10  N   UNL A   1      32.273  23.785  24.298  1.00  0.00    -0.185 NA
ATOM     11  C   UNL A   1      30.243  24.337  23.130  1.00  0.00     0.032 C 
ATOM     12  C   UNL A   1      31.034  23.187  23.738  1.00  0.00     0.105 C 
BRANCH  10  13
ATOM     13  S   UNL A   1      32.562  23.479  25.917  1.00  0.00     0.282 S 
ATOM     14  O   UNL A   1      33.498  24.475  26.384  1.00  0.00    -0.195 OA
ATOM     15  O   UNL A   1      31.263  23.364  26.551  1.00  0.00    -0.195 OA
BRANCH  13  16
ATOM     16  N   UNL A   1      33.331  21.980  26.063  1.00  0.00    -0.188 NA
ATOM     17  C   UNL A   1      34.280  21.797  27.178  1.00  0.00     0.126 C 
BRANCH  16  18
ATOM     18  C   UNL A   1      33.962  21.572  24.752  1.00  0.00     0.138 C 
BRANCH  18  19
ATOM     19  C   UNL A   1      33.683  20.152  24.306  1.00  0.00    -0.033 A 
ATOM     20  C   UNL A   1      32.523  19.787  23.610  1.00  0.00     0.005 A 
ATOM     21  C   UNL A   1      34.595  19.139  24.651  1.00  0.00     0.005 A 
ATOM     22  C   UNL A   1      32.310  18.459  23.222  1.00  0.00     0.000 A 
ATOM     23  C   UNL A   1      34.375  17.813  24.273  1.00  0.00     0.000 A 
ATOM     24  C   UNL A   1      33.240  17.476  23.544  1.00  0.00     0.000 A 
ENDBRANCH  18  19
ENDBRANCH  16  18
ENDBRANCH  13  16
ENDBRANCH  10  13
ENDBRANCH   4   7
ENDBRANCH   2   3
ENDBRANCH   1   2
BRANCH   1  25
ATOM     25  C   UNL A   1      32.958  27.905  25.914  1.00  0.00     0.023 C 
BRANCH  25  26
ATOM     26  C   UNL A   1      33.222  29.274  25.308  1.00  0.00     0.116 C 
BRANCH  26  27
ATOM     27  N   UNL A   1      32.575  30.404  25.969  1.00  0.00    -0.352 N 
ATOM     28  C   UNL A   1      33.072  31.249  26.938  1.00  0.00     0.251 C 
ATOM     29  H   UNL A   1      31.651  30.589  25.682  1.00  0.00     0.163 HD
ATOM     30  O   UNL A   1      32.400  32.182  27.371  1.00  0.00    -0.269 OA
BRANCH  28  31
ATOM     31  C   UNL A   1      34.410  30.985  27.505  1.00  0.00     0.039 A 
ATOM     32  C   UNL A   1      35.317  32.041  27.635  1.00  0.00     0.014 A 
ATOM     33  C   UNL A   1      34.727  29.720  27.993  1.00  0.00     0.014 A 
ATOM     34  C   UNL A   1      36.500  31.851  28.352  1.00  0.00     0.010 A 
ATOM     35  C   UNL A   1      35.839  29.565  28.805  1.00  0.00     0.010 A 
ATOM     36  C   UNL A   1      36.746  30.622  28.978  1.00  0.00    -0.014 A 
BRANCH  36  37
ATOM     37  C   UNL A   1      37.978  30.361  29.762  1.00  0.00     0.031 A 
ATOM     38  C   UNL A   1      39.004  29.421  29.191  1.00  0.00     0.074 A 
ATOM     39  C   UNL A   1      38.118  30.857  31.006  1.00  0.00     0.049 A 
ATOM     40  N   UNL A   1      40.063  28.911  29.759  1.00  0.00    -0.248 NA
ATOM     41  C   UNL A   1      38.779  28.955  27.811  1.00  0.00     0.031 C 
ATOM     42  C   UNL A   1      37.162  31.730  31.691  1.00  0.00     0.029 A 
ATOM     43  N   UNL A   1      39.110  30.660  31.934  1.00  0.00    -0.354 N 
ATOM     44  C   UNL A   1      40.595  28.026  28.830  1.00  0.00     0.074 A 
ATOM     45  C   UNL A   1      39.718  28.032  27.681  1.00  0.00     0.031 C 
ATOM     46  C   UNL A   1      37.612  31.988  32.930  1.00  0.00     0.029 A 
ATOM     47  C   UNL A   1      38.865  31.270  33.143  1.00  0.00     0.049 A 
ATOM     48  H   UNL A   1      39.922  30.133  31.752  1.00  0.00     0.167 HD
ATOM     49  C   UNL A   1      41.730  27.295  28.908  1.00  0.00     0.034 A 
ATOM     50  C   UNL A   1      39.565  31.235  34.295  1.00  0.00     0.034 A 
ATOM     51  C   UNL A   1      42.627  27.337  30.028  1.00  0.00     0.049 A 
ATOM     52  C   UNL A   1      40.845  30.441  34.346  1.00  0.00     0.074 A 
ATOM     53  C   UNL A   1      43.850  26.709  30.174  1.00  0.00     0.029 A 
ATOM     54  N   UNL A   1      42.394  28.043  31.198  1.00  0.00    -0.354 N 
ATOM     55  N   UNL A   1      41.408  29.719  33.407  1.00  0.00    -0.248 NA
ATOM     56  C   UNL A   1      41.603  30.484  35.605  1.00  0.00     0.031 C 
ATOM     57  C   UNL A   1      44.343  27.011  31.447  1.00  0.00     0.029 A 
ATOM     58  C   UNL A   1      43.445  27.860  32.077  1.00  0.00     0.049 A 
ATOM     59  H   UNL A   1      41.598  28.595  31.377  1.00  0.00     0.167 HD
ATOM     60  C   UNL A   1      42.603  29.256  33.946  1.00  0.00     0.074 A 
ATOM     61  C   UNL A   1      42.692  29.795  35.287  1.00  0.00     0.031 C 
ATOM     62  C   UNL A   1      43.540  28.450  33.387  1.00  0.00     0.034 A 
BRANCH  49  63
ATOM     63  C   UNL A   1      42.082  26.425  27.731  1.00  0.00     0.023 A 
ATOM     64  C   UNL A   1      42.810  26.966  26.651  1.00  0.00     0.012 A 
ATOM     65  C   UNL A   1      41.721  25.065  27.708  1.00  0.00     0.148 A 
ATOM     66  C   UNL A   1      43.136  26.179  25.548  1.00  0.00     0.002 A 
ATOM     67  C   UNL A   1      42.096  24.273  26.631  1.00  0.00     0.091 A 
ATOM     68  F   UNL A   1      41.008  24.575  28.732  1.00  0.00    -0.205 F 
ATOM     69  C   UNL A   1      42.789  24.831  25.543  1.00  0.00     0.022 A 
BRANCH  67  70
ATOM     70  S   UNL A   1      41.773  22.507  26.567  1.00  0.00     0.127 S 
ATOM     71  O   UNL A   1      42.399  22.048  27.806  1.00  0.00    -0.237 OA
ATOM     72  O   UNL A   1      40.311  22.465  26.569  1.00  0.00    -0.237 OA
ATOM     73  O   UNL A   1      42.395  22.028  25.340  1.00  0.00    -0.744 OA
ENDBRANCH  67  70
ENDBRANCH  49  63
BRANCH  50  74
ATOM     74  C   UNL A   1      39.103  32.015  35.480  1.00  0.00     0.023 A 
ATOM     75  C   UNL A   1      39.360  33.400  35.538  1.00  0.00     0.012 A 
ATOM     76  C   UNL A   1      38.410  31.402  36.540  1.00  0.00     0.148 A 
ATOM     77  C   UNL A   1      38.970  34.151  36.647  1.00  0.00     0.002 A 
ATOM     78  C   UNL A   1      37.974  32.166  37.617  1.00  0.00     0.091 A 
ATOM     79  F   UNL A   1      38.182  30.082  36.471  1.00  0.00    -0.205 F 
ATOM     80  C   UNL A   1      38.270  33.537  37.683  1.00  0.00     0.022 A 
BRANCH  78  81
ATOM     81  S   UNL A   1      36.958  31.490  38.935  1.00  0.00     0.127 S 
ATOM     82  O   UNL A   1      37.824  31.661  40.100  1.00  0.00    -0.237 OA
ATOM     83  O   UNL A   1      35.792  32.371  38.898  1.00  0.00    -0.237 OA
ATOM     84  O   UNL A   1      36.682  30.111  38.553  1.00  0.00    -0.744 OA
ENDBRANCH  78  81
ENDBRANCH  50  74
BRANCH  62  85
ATOM     85  C   UNL A   1      44.771  28.138  34.198  1.00  0.00     0.023 A 
ATOM     86  C   UNL A   1      45.875  29.011  34.168  1.00  0.00     0.012 A 
ATOM     87  C   UNL A   1      44.794  27.019  35.055  1.00  0.00     0.148 A 
ATOM     88  C   UNL A   1      46.999  28.756  34.954  1.00  0.00     0.002 A 
ATOM     89  C   UNL A   1      45.893  26.802  35.875  1.00  0.00     0.091 A 
ATOM     90  F   UNL A   1      43.737  26.193  35.056  1.00  0.00    -0.205 F 
ATOM     91  C   UNL A   1      47.003  27.660  35.816  1.00  0.00     0.022 A 
BRANCH  89  92
ATOM     92  S   UNL A   1      45.943  25.480  37.089  1.00  0.00     0.127 S 
ATOM     93  O   UNL A   1      47.092  25.869  37.906  1.00  0.00    -0.237 OA
ATOM     94  O   UNL A   1      44.646  25.621  37.753  1.00  0.00    -0.237 OA
ATOM     95  O   UNL A   1      46.106  24.245  36.335  1.00  0.00    -0.744 OA
ENDBRANCH  89  92
ENDBRANCH  62  85
ENDBRANCH  36  37
ENDBRANCH  28  31
ENDBRANCH  26  27
ENDBRANCH  25  26
ENDBRANCH   1  25
TORSDOF 18
ENDMDL
MODEL 3
REMARK VINA RESULT:     -11.5      2.033      3.704
REMARK SMILES C[C@H]1[C@H](C(=O)NCCCCNC(=O)c2ccc(-c3c4nc(c(-c5cccc(S(=O)(=O)[O-])c5F)c5ccc([nH]5)c(-c5cccc(S(=O)(=O)[O-])c5F)c5nc(c(-c6cccc(S(=O)(=O)[O-])c6F)c6ccc3[nH]6)C=C5)C=C4)cc2)CCN1S(=O)(=O)N(C)Cc1ccccc1
REMARK SMILES IDX 8 1 7 2 6 3 4 4 5 5 3 7 1 8 2 9 79 10 77 11 78 12 80 13
REMARK SMILES IDX 81 14 82 15 83 16 84 17 85 18 86 19 87 20 91 21 88 22 90 23
REMARK SMILES IDX 89 24 9 25 10 26 11 27 12 28 13 30 14 31 15 32 76 33 16 34
REMARK SMILES IDX 75 35 17 36 18 37 19 38 69 39 20 40 74 41 68 42 70 43 21 44
REMARK SMILES IDX 73 45 67 46 66 47 22 49 54 50 34 51 53 52 35 53 38 54 52 55
REMARK SMILES IDX 71 56 36 57 37 58 51 60 72 61 39 62 23 63 24 64 32 65 25 66
REMARK SMILES IDX 27 67 33 68 26 69 28 70 29 71 30 72 31 73 55 74 56 75 64 76
REMARK SMILES IDX 57 77 59 78 65 79 58 80 60 81 61 82 62 83 63 84 40 85 41 86
REMARK SMILES IDX 49 87 42 88 44 89 50 90 43 91 45 92 46 93 47 94 48 95
REMARK H PARENT 6 6 11 29 70 48 38 59
REMARK Flexibility Score: inf
ROOT
ATOM      1  C   UNL A   1      34.800  30.404  27.863  1.00  0.00     0.023 C 
ENDROOT
BRANCH   1   2
ATOM      2  C   UNL A   1      34.204  29.183  27.185  1.00  0.00     0.116 C 
BRANCH   2   3
ATOM      3  N   UNL A   1      32.975  28.768  27.830  1.00  0.00    -0.356 N 
ATOM      4  C   UNL A   1      31.998  27.933  27.396  1.00  0.00     0.224 C 
ATOM      5  O   UNL A   1      30.986  27.818  28.095  1.00  0.00    -0.275 OA
ATOM      6  H   UNL A   1      32.824  29.154  28.724  1.00  0.00     0.163 HD
BRANCH   4   7
ATOM      7  C   UNL A   1      32.097  27.162  26.088  1.00  0.00     0.098 C 
ATOM      8  C   UNL A   1      34.188  25.955  25.456  1.00  0.00     0.026 C 
ATOM      9  C   UNL A   1      32.868  25.843  26.234  1.00  0.00     0.083 C 
ATOM     10  N   UNL A   1      32.058  24.802  25.571  1.00  0.00    -0.185 NA
ATOM     11  C   UNL A   1      30.786  26.837  25.392  1.00  0.00     0.032 C 
ATOM     12  C   UNL A   1      31.003  25.467  24.764  1.00  0.00     0.105 C 
BRANCH  10  13
ATOM     13  S   UNL A   1      31.656  23.307  26.204  1.00  0.00     0.282 S 
ATOM     14  O   UNL A   1      31.635  23.439  27.643  1.00  0.00    -0.195 OA
ATOM     15  O   UNL A   1      30.460  22.874  25.508  1.00  0.00    -0.195 OA
BRANCH  13  16
ATOM     16  N   UNL A   1      32.885  22.206  25.834  1.00  0.00    -0.188 NA
ATOM     17  C   UNL A   1      34.279  22.614  26.092  1.00  0.00     0.126 C 
BRANCH  16  18
ATOM     18  C   UNL A   1      32.732  21.687  24.424  1.00  0.00     0.138 C 
BRANCH  18  19
ATOM     19  C   UNL A   1      32.696  20.180  24.280  1.00  0.00    -0.033 A 
ATOM     20  C   UNL A   1      32.445  19.538  23.060  1.00  0.00     0.005 A 
ATOM     21  C   UNL A   1      32.863  19.383  25.426  1.00  0.00     0.005 A 
ATOM     22  C   UNL A   1      32.418  18.141  22.979  1.00  0.00     0.000 A 
ATOM     23  C   UNL A   1      32.825  17.989  25.345  1.00  0.00     0.000 A 
ATOM     24  C   UNL A   1      32.619  17.368  24.119  1.00  0.00     0.000 A 
ENDBRANCH  18  19
ENDBRANCH  16  18
ENDBRANCH  13  16
ENDBRANCH  10  13
ENDBRANCH   4   7
ENDBRANCH   2   3
ENDBRANCH   1   2
BRANCH   1  25
ATOM     25  C   UNL A   1      34.281  31.719  27.312  1.00  0.00     0.023 C 
BRANCH  25  26
ATOM     26  C   UNL A   1      32.856  32.061  27.718  1.00  0.00     0.116 C 
BRANCH  26  27
ATOM     27  N   UNL A   1      32.544  33.483  27.830  1.00  0.00    -0.352 N 
ATOM     28  C   UNL A   1      33.208  34.468  28.529  1.00  0.00     0.251 C 
ATOM     29  H   UNL A   1      31.747  33.781  27.336  1.00  0.00     0.163 HD
ATOM     30  O   UNL A   1      32.830  35.637  28.492  1.00  0.00    -0.269 OA
BRANCH  28  31
ATOM     31  C   UNL A   1      34.354  34.096  29.383  1.00  0.00     0.039 A 
ATOM     32  C   UNL A   1      34.135  33.298  30.510  1.00  0.00     0.014 A 
ATOM     33  C   UNL A   1      35.649  34.453  29.014  1.00  0.00     0.014 A 
ATOM     34  C   UNL A   1      35.225  32.770  31.206  1.00  0.00     0.010 A 
ATOM     35  C   UNL A   1      36.725  33.833  29.628  1.00  0.00     0.010 A 
ATOM     36  C   UNL A   1      36.527  33.001  30.741  1.00  0.00    -0.014 A 
BRANCH  36  37
ATOM     37  C   UNL A   1      37.724  32.460  31.429  1.00  0.00     0.031 A 
ATOM     38  C   UNL A   1      38.464  31.318  30.787  1.00  0.00     0.074 A 
ATOM     39  C   UNL A   1      38.067  32.898  32.655  1.00  0.00     0.049 A 
ATOM     40  N   UNL A   1      39.420  30.576  31.275  1.00  0.00    -0.248 NA
ATOM     41  C   UNL A   1      38.033  30.929  29.432  1.00  0.00     0.031 C 
ATOM     42  C   UNL A   1      37.390  33.957  33.406  1.00  0.00     0.029 A 
ATOM     43  N   UNL A   1      39.058  32.472  33.505  1.00  0.00    -0.354 N 
ATOM     44  C   UNL A   1      39.664  29.603  30.314  1.00  0.00     0.074 A 
ATOM     45  C   UNL A   1      38.725  29.820  29.237  1.00  0.00     0.031 C 
ATOM     46  C   UNL A   1      37.980  34.094  34.605  1.00  0.00     0.029 A 
ATOM     47  C   UNL A   1      39.051  33.109  34.725  1.00  0.00     0.049 A 
ATOM     48  H   UNL A   1      39.713  31.777  33.264  1.00  0.00     0.167 HD
ATOM     49  C   UNL A   1      40.607  28.634  30.309  1.00  0.00     0.034 A 
ATOM     50  C   UNL A   1      39.812  32.905  35.819  1.00  0.00     0.034 A 
ATOM     51  C   UNL A   1      41.573  28.459  31.356  1.00  0.00     0.049 A 
ATOM     52  C   UNL A   1      40.879  31.841  35.776  1.00  0.00     0.074 A 
ATOM     53  C   UNL A   1      42.630  27.570  31.412  1.00  0.00     0.029 A 
ATOM     54  N   UNL A   1      41.597  29.188  32.535  1.00  0.00    -0.354 N 
ATOM     55  N   UNL A   1      41.189  31.020  34.802  1.00  0.00    -0.248 NA
ATOM     56  C   UNL A   1      41.722  31.697  36.972  1.00  0.00     0.031 C 
ATOM     57  C   UNL A   1      43.275  27.739  32.640  1.00  0.00     0.029 A 
ATOM     58  C   UNL A   1      42.644  28.762  33.332  1.00  0.00     0.049 A 
ATOM     59  H   UNL A   1      40.963  29.903  32.771  1.00  0.00     0.167 HD
ATOM     60  C   UNL A   1      42.287  30.293  35.250  1.00  0.00     0.074 A 
ATOM     61  C   UNL A   1      42.598  30.784  36.576  1.00  0.00     0.031 C 
ATOM     62  C   UNL A   1      42.971  29.301  34.627  1.00  0.00     0.034 A 
BRANCH  49  63
ATOM     63  C   UNL A   1      40.661  27.719  29.115  1.00  0.00     0.023 A 
ATOM     64  C   UNL A   1      39.782  26.619  29.032  1.00  0.00     0.012 A 
ATOM     65  C   UNL A   1      41.559  27.966  28.060  1.00  0.00     0.148 A 
ATOM     66  C   UNL A   1      39.824  25.756  27.939  1.00  0.00     0.002 A 
ATOM     67  C   UNL A   1      41.559  27.132  26.948  1.00  0.00     0.091 A 
ATOM     68  F   UNL A   1      42.404  29.000  28.167  1.00  0.00    -0.205 F 
ATOM     69  C   UNL A   1      40.704  26.018  26.893  1.00  0.00     0.022 A 
BRANCH  67  70
ATOM     70  S   UNL A   1      42.592  27.433  25.511  1.00  0.00     0.127 S 
ATOM     71  O   UNL A   1      43.914  27.567  26.121  1.00  0.00    -0.237 OA
ATOM     72  O   UNL A   1      42.399  26.207  24.735  1.00  0.00    -0.237 OA
ATOM     73  O   UNL A   1      42.070  28.639  24.884  1.00  0.00    -0.744 OA
ENDBRANCH  67  70
ENDBRANCH  49  63
BRANCH  50  74
ATOM     74  C   UNL A   1      39.631  33.756  37.030  1.00  0.00     0.023 A 
ATOM     75  C   UNL A   1      40.143  35.069  37.034  1.00  0.00     0.012 A 
ATOM     76  C   UNL A   1      38.955  33.281  38.170  1.00  0.00     0.148 A 
ATOM     77  C   UNL A   1      40.020  35.879  38.164  1.00  0.00     0.002 A 
ATOM     78  C   UNL A   1      38.785  34.113  39.271  1.00  0.00     0.091 A 
ATOM     79  F   UNL A   1      38.481  32.027  38.151  1.00  0.00    -0.205 F 
ATOM     80  C   UNL A   1      39.334  35.405  39.279  1.00  0.00     0.022 A 
BRANCH  78  81
ATOM     81  S   UNL A   1      37.809  33.636  40.702  1.00  0.00     0.127 S 
ATOM     82  O   UNL A   1      36.593  33.120  40.077  1.00  0.00    -0.237 OA
ATOM     83  O   UNL A   1      38.662  32.622  41.323  1.00  0.00    -0.237 OA
ATOM     84  O   UNL A   1      37.646  34.849  41.492  1.00  0.00    -0.744 OA
ENDBRANCH  78  81
ENDBRANCH  50  74
BRANCH  62  85
ATOM     85  C   UNL A   1      44.158  28.710  35.341  1.00  0.00     0.023 A 
ATOM     86  C   UNL A   1      45.447  29.233  35.121  1.00  0.00     0.012 A 
ATOM     87  C   UNL A   1      43.977  27.691  36.298  1.00  0.00     0.148 A 
ATOM     88  C   UNL A   1      46.544  28.725  35.816  1.00  0.00     0.002 A 
ATOM     89  C   UNL A   1      45.066  27.229  37.026  1.00  0.00     0.091 A 
ATOM     90  F   UNL A   1      42.744  27.198  36.482  1.00  0.00    -0.205 F 
ATOM     91  C   UNL A   1      46.352  27.734  36.776  1.00  0.00     0.022 A 
BRANCH  89  92
ATOM     92  S   UNL A   1      44.898  26.031  38.353  1.00  0.00     0.127 S 
ATOM     93  O   UNL A   1      46.292  25.827  38.748  1.00  0.00    -0.237 OA
ATOM     94  O   UNL A   1      44.088  26.762  39.328  1.00  0.00    -0.237 OA
ATOM     95  O   UNL A   1      44.241  24.870  37.769  1.00  0.00    -0.744 OA
ENDBRANCH  89  92
ENDBRANCH  62  85
ENDBRANCH  36  37
ENDBRANCH  28  31
ENDBRANCH  26  27
ENDBRANCH  25  26
ENDBRANCH   1  25
TORSDOF 18
ENDMDL
