MODEL 1
REMARK VINA RESULT:     -10.0      0.000      0.000
REMARK SMILES O=C(/C=C/c1cccs1)NCC(=O)NCCCCNC(=O)c1ccc(-c2c3nc(c(-c4cccc(S(=O)(=O)[O-])c4F)c4ccc([nH]4)c(-c4cccc(S(=O)(=O)[O-])c4F)c4nc(c(-c5cccc(S(=O)(=O)[O-])c5F)c5ccc2[nH]5)C=C4)C=C3)cc1
REMARK SMILES IDX 16 1 15 2 14 3 12 4 13 5 11 7 10 8 1 9 2 10 3 12 4 13 5 14
REMARK SMILES IDX 6 15 9 16 7 17 8 18 17 19 18 20 19 21 20 22 21 24 22 25
REMARK SMILES IDX 23 26 84 27 24 28 83 29 25 30 26 31 27 32 77 33 28 34 82 35
REMARK SMILES IDX 76 36 78 37 29 38 81 39 75 40 74 41 30 43 62 44 42 45 61 46
REMARK SMILES IDX 43 47 46 48 60 49 79 50 44 51 45 52 59 54 80 55 47 56 31 57
REMARK SMILES IDX 32 58 40 59 33 60 35 61 41 62 34 63 36 64 37 65 38 66 39 67
REMARK SMILES IDX 63 68 64 69 72 70 65 71 67 72 73 73 66 74 68 75 69 76 70 77
REMARK SMILES IDX 71 78 48 79 49 80 57 81 50 82 52 83 58 84 51 85 53 86 54 87
REMARK SMILES IDX 55 88 56 89
REMARK H PARENT 14 6 10 11 19 23 78 42 46 53
REMARK Flexibility Score: inf
ROOT
ATOM      1  C   UNL A   1      42.678  18.462  27.179  1.00  0.00     0.023 C 
ENDROOT
BRANCH   1   2
ATOM      2  C   UNL A   1      43.392  18.574  25.832  1.00  0.00     0.116 C 
BRANCH   2   3
ATOM      3  N   UNL A   1      44.746  18.057  25.900  1.00  0.00    -0.355 N 
ATOM      4  C   UNL A   1      45.896  18.622  25.426  1.00  0.00     0.239 C 
ATOM      5  O   UNL A   1      46.964  18.033  25.597  1.00  0.00    -0.273 OA
ATOM      6  H   UNL A   1      44.849  17.186  26.346  1.00  0.00     0.163 HD
BRANCH   4   7
ATOM      7  C   UNL A   1      45.848  19.986  24.736  1.00  0.00     0.216 C 
BRANCH   7   8
ATOM      8  N   UNL A   1      45.859  21.081  25.693  1.00  0.00    -0.343 N 
ATOM      9  O   UNL A   1      43.924  22.035  24.936  1.00  0.00    -0.270 OA
ATOM     10  C   UNL A   1      44.878  22.031  25.706  1.00  0.00     0.244 C 
ATOM     11  H   UNL A   1      46.592  21.139  26.349  1.00  0.00     0.164 HD
BRANCH  10  12
ATOM     12  C   UNL A   1      44.980  23.111  26.719  1.00  0.00     0.072 C 
ATOM     13  C   UNL A   1      44.670  23.037  28.022  1.00  0.00     0.024 C 
BRANCH  13  14
ATOM     14  C   UNL A   1      44.815  24.166  28.884  1.00  0.00     0.027 A 
ATOM     15  C   UNL A   1      43.938  24.723  29.803  1.00  0.00     0.020 A 
ATOM     16  S   UNL A   1      46.300  25.044  28.874  1.00  0.00    -0.144 S 
ATOM     17  C   UNL A   1      44.472  25.862  30.472  1.00  0.00     0.012 A 
ATOM     18  C   UNL A   1      45.748  26.152  30.050  1.00  0.00     0.065 A 
ENDBRANCH  13  14
ENDBRANCH  10  12
ENDBRANCH   7   8
ENDBRANCH   4   7
ENDBRANCH   2   3
ENDBRANCH   1   2
BRANCH   1  19
ATOM     19  C   UNL A   1      41.652  19.567  27.450  1.00  0.00     0.023 C 
BRANCH  19  20
ATOM     20  C   UNL A   1      41.278  20.425  26.245  1.00  0.00     0.116 C 
BRANCH  20  21
ATOM     21  N   UNL A   1      39.849  20.432  25.969  1.00  0.00    -0.352 N 
ATOM     22  C   UNL A   1      38.943  21.451  26.147  1.00  0.00     0.251 C 
ATOM     23  H   UNL A   1      39.481  19.595  25.606  1.00  0.00     0.163 HD
ATOM     24  O   UNL A   1      37.744  21.243  25.973  1.00  0.00    -0.269 OA
BRANCH  22  25
ATOM     25  C   UNL A   1      39.410  22.786  26.582  1.00  0.00     0.039 A 
ATOM     26  C   UNL A   1      40.380  22.868  27.584  1.00  0.00     0.014 A 
ATOM     27  C   UNL A   1      38.907  23.950  25.993  1.00  0.00     0.014 A 
ATOM     28  C   UNL A   1      40.894  24.115  27.950  1.00  0.00     0.010 A 
ATOM     29  C   UNL A   1      39.470  25.184  26.311  1.00  0.00     0.010 A 
ATOM     30  C   UNL A   1      40.468  25.280  27.292  1.00  0.00    -0.014 A 
BRANCH  30  31
ATOM     31  C   UNL A   1      41.069  26.603  27.599  1.00  0.00     0.031 A 
ATOM     32  C   UNL A   1      42.448  26.947  27.104  1.00  0.00     0.074 A 
ATOM     33  C   UNL A   1      40.411  27.462  28.405  1.00  0.00     0.049 A 
ATOM     34  N   UNL A   1      43.157  28.024  27.321  1.00  0.00    -0.248 NA
ATOM     35  C   UNL A   1      43.130  25.937  26.277  1.00  0.00     0.031 C 
ATOM     36  C   UNL A   1      39.105  27.213  29.018  1.00  0.00     0.029 A 
ATOM     37  N   UNL A   1      40.765  28.704  28.870  1.00  0.00    -0.354 N 
ATOM     38  C   UNL A   1      44.378  27.810  26.693  1.00  0.00     0.074 A 
ATOM     39  C   UNL A   1      44.325  26.485  26.112  1.00  0.00     0.031 C 
ATOM     40  C   UNL A   1      38.768  28.269  29.778  1.00  0.00     0.029 A 
ATOM     41  C   UNL A   1      39.841  29.256  29.728  1.00  0.00     0.049 A 
ATOM     42  H   UNL A   1      41.600  29.157  28.615  1.00  0.00     0.167 HD
ATOM     43  C   UNL A   1      45.436  28.648  26.581  1.00  0.00     0.034 A 
ATOM     44  C   UNL A   1      39.859  30.422  30.403  1.00  0.00     0.034 A 
ATOM     45  C   UNL A   1      45.467  29.982  27.117  1.00  0.00     0.049 A 
ATOM     46  C   UNL A   1      41.027  31.354  30.225  1.00  0.00     0.074 A 
ATOM     47  C   UNL A   1      46.453  30.943  26.975  1.00  0.00     0.029 A 
ATOM     48  N   UNL A   1      44.474  30.543  27.904  1.00  0.00    -0.354 N 
ATOM     49  N   UNL A   1      42.099  31.201  29.487  1.00  0.00    -0.248 NA
ATOM     50  C   UNL A   1      40.971  32.635  30.946  1.00  0.00     0.031 C 
ATOM     51  C   UNL A   1      46.064  32.078  27.693  1.00  0.00     0.029 A 
ATOM     52  C   UNL A   1      44.825  31.832  28.264  1.00  0.00     0.049 A 
ATOM     53  H   UNL A   1      43.640  30.090  28.169  1.00  0.00     0.167 HD
ATOM     54  C   UNL A   1      42.829  32.377  29.626  1.00  0.00     0.074 A 
ATOM     55  C   UNL A   1      42.064  33.242  30.501  1.00  0.00     0.031 C 
ATOM     56  C   UNL A   1      44.031  32.704  29.092  1.00  0.00     0.034 A 
BRANCH  43  57
ATOM     57  C   UNL A   1      46.629  28.168  25.796  1.00  0.00     0.023 A 
ATOM     58  C   UNL A   1      46.587  28.194  24.387  1.00  0.00     0.012 A 
ATOM     59  C   UNL A   1      47.808  27.750  26.445  1.00  0.00     0.148 A 
ATOM     60  C   UNL A   1      47.686  27.778  23.635  1.00  0.00     0.002 A 
ATOM     61  C   UNL A   1      48.914  27.379  25.688  1.00  0.00     0.091 A 
ATOM     62  F   UNL A   1      47.822  27.711  27.784  1.00  0.00    -0.205 F 
ATOM     63  C   UNL A   1      48.851  27.382  24.285  1.00  0.00     0.022 A 
BRANCH  61  64
ATOM     64  S   UNL A   1      50.486  26.925  26.428  1.00  0.00     0.127 S 
ATOM     65  O   UNL A   1      50.796  28.117  27.217  1.00  0.00    -0.237 OA
ATOM     66  O   UNL A   1      50.127  25.748  27.219  1.00  0.00    -0.237 OA
ATOM     67  O   UNL A   1      51.390  26.657  25.318  1.00  0.00    -0.744 OA
ENDBRANCH  61  64
ENDBRANCH  43  57
BRANCH  44  68
ATOM     68  C   UNL A   1      38.698  30.807  31.255  1.00  0.00     0.023 A 
ATOM     69  C   UNL A   1      38.726  30.511  32.632  1.00  0.00     0.012 A 
ATOM     70  C   UNL A   1      37.585  31.484  30.721  1.00  0.00     0.148 A 
ATOM     71  C   UNL A   1      37.653  30.855  33.455  1.00  0.00     0.002 A 
ATOM     72  C   UNL A   1      36.545  31.873  31.556  1.00  0.00     0.091 A 
ATOM     73  F   UNL A   1      37.571  31.746  29.406  1.00  0.00    -0.205 F 
ATOM     74  C   UNL A   1      36.568  31.544  32.921  1.00  0.00     0.022 A 
BRANCH  72  75
ATOM     75  S   UNL A   1      35.171  32.877  30.980  1.00  0.00     0.127 S 
ATOM     76  O   UNL A   1      35.850  34.096  30.550  1.00  0.00    -0.237 OA
ATOM     77  O   UNL A   1      34.631  32.057  29.895  1.00  0.00    -0.237 OA
ATOM     78  O   UNL A   1      34.280  33.015  32.125  1.00  0.00    -0.744 OA
ENDBRANCH  72  75
ENDBRANCH  44  68
BRANCH  56  79
ATOM     79  C   UNL A   1      44.592  34.066  29.410  1.00  0.00     0.023 A 
ATOM     80  C   UNL A   1      45.300  34.265  30.611  1.00  0.00     0.012 A 
ATOM     81  C   UNL A   1      44.481  35.125  28.488  1.00  0.00     0.148 A 
ATOM     82  C   UNL A   1      45.864  35.507  30.902  1.00  0.00     0.002 A 
ATOM     83  C   UNL A   1      45.086  36.345  28.763  1.00  0.00     0.091 A 
ATOM     84  F   UNL A   1      43.786  34.920  27.359  1.00  0.00    -0.205 F 
ATOM     85  C   UNL A   1      45.769  36.542  29.975  1.00  0.00     0.022 A 
BRANCH  83  86
ATOM     86  S   UNL A   1      45.095  37.702  27.587  1.00  0.00     0.127 S 
ATOM     87  O   UNL A   1      43.667  37.965  27.424  1.00  0.00    -0.237 OA
ATOM     88  O   UNL A   1      45.827  38.741  28.314  1.00  0.00    -0.237 OA
ATOM     89  O   UNL A   1      45.779  37.201  26.402  1.00  0.00    -0.744 OA
ENDBRANCH  83  86
ENDBRANCH  56  79
ENDBRANCH  30  31
ENDBRANCH  22  25
ENDBRANCH  20  21
ENDBRANCH  19  20
ENDBRANCH   1  19
TORSDOF 17
ENDMDL
MODEL 2
REMARK VINA RESULT:      -9.8      5.419     11.444
REMARK SMILES O=C(/C=C/c1cccs1)NCC(=O)NCCCCNC(=O)c1ccc(-c2c3nc(c(-c4cccc(S(=O)(=O)[O-])c4F)c4ccc([nH]4)c(-c4cccc(S(=O)(=O)[O-])c4F)c4nc(c(-c5cccc(S(=O)(=O)[O-])c5F)c5ccc2[nH]5)C=C4)C=C3)cc1
REMARK SMILES IDX 16 1 15 2 14 3 12 4 13 5 11 7 10 8 1 9 2 10 3 12 4 13 5 14
REMARK SMILES IDX 6 15 9 16 7 17 8 18 17 19 18 20 19 21 20 22 21 24 22 25
REMARK SMILES IDX 23 26 84 27 24 28 83 29 25 30 26 31 27 32 77 33 28 34 82 35
REMARK SMILES IDX 76 36 78 37 29 38 81 39 75 40 74 41 30 43 62 44 42 45 61 46
REMARK SMILES IDX 43 47 46 48 60 49 79 50 44 51 45 52 59 54 80 55 47 56 31 57
REMARK SMILES IDX 32 58 40 59 33 60 35 61 41 62 34 63 36 64 37 65 38 66 39 67
REMARK SMILES IDX 63 68 64 69 72 70 65 71 67 72 73 73 66 74 68 75 69 76 70 77
REMARK SMILES IDX 71 78 48 79 49 80 57 81 50 82 52 83 58 84 51 85 53 86 54 87
REMARK SMILES IDX 55 88 56 89
REMARK H PARENT 14 6 10 11 19 23 78 42 46 53
REMARK Flexibility Score: inf
ROOT
ATOM      1  C   UNL A   1      31.967  27.870  26.823  1.00  0.00     0.023 C 
ENDROOT
BRANCH   1   2
ATOM      2  C   UNL A   1      31.181  26.807  26.056  1.00  0.00     0.116 C 
BRANCH   2   3
ATOM      3  N   UNL A   1      30.999  25.603  26.846  1.00  0.00    -0.355 N 
ATOM      4  C   UNL A   1      31.109  24.301  26.447  1.00  0.00     0.239 C 
ATOM      5  O   UNL A   1      30.934  23.408  27.277  1.00  0.00    -0.273 OA
ATOM      6  H   UNL A   1      30.766  25.743  27.792  1.00  0.00     0.163 HD
BRANCH   4   7
ATOM      7  C   UNL A   1      31.488  23.975  25.003  1.00  0.00     0.216 C 
BRANCH   7   8
ATOM      8  N   UNL A   1      31.939  22.600  24.855  1.00  0.00    -0.343 N 
ATOM      9  O   UNL A   1      34.166  23.117  24.831  1.00  0.00    -0.270 OA
ATOM     10  C   UNL A   1      33.265  22.286  24.777  1.00  0.00     0.244 C 
ATOM     11  H   UNL A   1      31.272  21.878  24.811  1.00  0.00     0.164 HD
BRANCH  10  12
ATOM     12  C   UNL A   1      33.626  20.854  24.623  1.00  0.00     0.072 C 
ATOM     13  C   UNL A   1      32.977  19.794  25.126  1.00  0.00     0.024 C 
BRANCH  13  14
ATOM     14  C   UNL A   1      33.444  18.463  24.899  1.00  0.00     0.027 A 
ATOM     15  C   UNL A   1      34.576  17.999  24.246  1.00  0.00     0.020 A 
ATOM     16  S   UNL A   1      32.528  17.136  25.513  1.00  0.00    -0.144 S 
ATOM     17  C   UNL A   1      34.678  16.577  24.237  1.00  0.00     0.012 A 
ATOM     18  C   UNL A   1      33.620  15.985  24.884  1.00  0.00     0.065 A 
ENDBRANCH  13  14
ENDBRANCH  10  12
ENDBRANCH   7   8
ENDBRANCH   4   7
ENDBRANCH   2   3
ENDBRANCH   1   2
BRANCH   1  19
ATOM     19  C   UNL A   1      33.482  27.831  26.593  1.00  0.00     0.023 C 
BRANCH  19  20
ATOM     20  C   UNL A   1      34.067  29.047  25.879  1.00  0.00     0.116 C 
BRANCH  20  21
ATOM     21  N   UNL A   1      33.853  30.292  26.600  1.00  0.00    -0.352 N 
ATOM     22  C   UNL A   1      34.591  30.830  27.628  1.00  0.00     0.251 C 
ATOM     23  H   UNL A   1      33.075  30.822  26.312  1.00  0.00     0.163 HD
ATOM     24  O   UNL A   1      34.194  31.841  28.205  1.00  0.00    -0.269 OA
BRANCH  22  25
ATOM     25  C   UNL A   1      35.842  30.171  28.061  1.00  0.00     0.039 A 
ATOM     26  C   UNL A   1      36.975  30.273  27.249  1.00  0.00     0.014 A 
ATOM     27  C   UNL A   1      35.905  29.470  29.269  1.00  0.00     0.014 A 
ATOM     28  C   UNL A   1      38.188  29.728  27.679  1.00  0.00     0.010 A 
ATOM     29  C   UNL A   1      37.129  28.988  29.726  1.00  0.00     0.010 A 
ATOM     30  C   UNL A   1      38.282  29.111  28.938  1.00  0.00    -0.014 A 
BRANCH  30  31
ATOM     31  C   UNL A   1      39.582  28.610  29.455  1.00  0.00     0.031 A 
ATOM     32  C   UNL A   1      40.286  29.331  30.573  1.00  0.00     0.074 A 
ATOM     33  C   UNL A   1      40.175  27.558  28.855  1.00  0.00     0.049 A 
ATOM     34  N   UNL A   1      41.449  29.078  31.113  1.00  0.00    -0.248 NA
ATOM     35  C   UNL A   1      39.605  30.507  31.140  1.00  0.00     0.031 C 
ATOM     36  C   UNL A   1      39.636  26.824  27.709  1.00  0.00     0.029 A 
ATOM     37  N   UNL A   1      41.376  26.942  29.108  1.00  0.00    -0.354 N 
ATOM     38  C   UNL A   1      41.658  30.078  32.055  1.00  0.00     0.074 A 
ATOM     39  C   UNL A   1      40.514  30.962  31.990  1.00  0.00     0.031 C 
ATOM     40  C   UNL A   1      40.501  25.858  27.358  1.00  0.00     0.029 A 
ATOM     41  C   UNL A   1      41.667  25.920  28.234  1.00  0.00     0.049 A 
ATOM     42  H   UNL A   1      41.973  27.208  29.845  1.00  0.00     0.167 HD
ATOM     43  C   UNL A   1      42.691  30.233  32.916  1.00  0.00     0.034 A 
ATOM     44  C   UNL A   1      42.752  25.126  28.145  1.00  0.00     0.034 A 
ATOM     45  C   UNL A   1      43.804  29.326  33.012  1.00  0.00     0.049 A 
ATOM     46  C   UNL A   1      43.865  25.290  29.144  1.00  0.00     0.074 A 
ATOM     47  C   UNL A   1      44.851  29.342  33.918  1.00  0.00     0.029 A 
ATOM     48  N   UNL A   1      44.020  28.246  32.171  1.00  0.00    -0.354 N 
ATOM     49  N   UNL A   1      43.963  26.139  30.138  1.00  0.00    -0.248 NA
ATOM     50  C   UNL A   1      45.002  24.364  29.031  1.00  0.00     0.031 C 
ATOM     51  C   UNL A   1      45.710  28.282  33.610  1.00  0.00     0.029 A 
ATOM     52  C   UNL A   1      45.187  27.593  32.528  1.00  0.00     0.049 A 
ATOM     53  H   UNL A   1      43.429  27.982  31.428  1.00  0.00     0.167 HD
ATOM     54  C   UNL A   1      45.151  25.829  30.789  1.00  0.00     0.074 A 
ATOM     55  C   UNL A   1      45.728  24.698  30.090  1.00  0.00     0.031 C 
ATOM     56  C   UNL A   1      45.723  26.435  31.858  1.00  0.00     0.034 A 
BRANCH  43  57
ATOM     57  C   UNL A   1      42.638  31.397  33.872  1.00  0.00     0.023 A 
ATOM     58  C   UNL A   1      43.192  32.635  33.487  1.00  0.00     0.012 A 
ATOM     59  C   UNL A   1      41.992  31.287  35.119  1.00  0.00     0.148 A 
ATOM     60  C   UNL A   1      43.136  33.736  34.341  1.00  0.00     0.002 A 
ATOM     61  C   UNL A   1      41.901  32.401  35.946  1.00  0.00     0.091 A 
ATOM     62  F   UNL A   1      41.489  30.097  35.477  1.00  0.00    -0.205 F 
ATOM     63  C   UNL A   1      42.482  33.622  35.564  1.00  0.00     0.022 A 
BRANCH  61  64
ATOM     64  S   UNL A   1      41.013  32.378  37.508  1.00  0.00     0.127 S 
ATOM     65  O   UNL A   1      39.769  31.710  37.130  1.00  0.00    -0.237 OA
ATOM     66  O   UNL A   1      41.900  31.580  38.355  1.00  0.00    -0.237 OA
ATOM     67  O   UNL A   1      40.879  33.771  37.913  1.00  0.00    -0.744 OA
ENDBRANCH  61  64
ENDBRANCH  43  57
BRANCH  44  68
ATOM     68  C   UNL A   1      42.806  24.053  27.111  1.00  0.00     0.023 A 
ATOM     69  C   UNL A   1      43.529  24.276  25.923  1.00  0.00     0.012 A 
ATOM     70  C   UNL A   1      42.173  22.810  27.306  1.00  0.00     0.148 A 
ATOM     71  C   UNL A   1      43.595  23.294  24.935  1.00  0.00     0.002 A 
ATOM     72  C   UNL A   1      42.289  21.815  26.342  1.00  0.00     0.091 A 
ATOM     73  F   UNL A   1      41.479  22.620  28.438  1.00  0.00    -0.205 F 
ATOM     74  C   UNL A   1      42.984  22.061  25.148  1.00  0.00     0.022 A 
BRANCH  72  75
ATOM     75  S   UNL A   1      41.647  20.156  26.589  1.00  0.00     0.127 S 
ATOM     76  O   UNL A   1      40.208  20.398  26.658  1.00  0.00    -0.237 OA
ATOM     77  O   UNL A   1      42.100  19.473  25.377  1.00  0.00    -0.237 OA
ATOM     78  O   UNL A   1      42.270  19.674  27.815  1.00  0.00    -0.744 OA
ENDBRANCH  72  75
ENDBRANCH  44  68
BRANCH  56  79
ATOM     79  C   UNL A   1      47.029  25.879  32.364  1.00  0.00     0.023 A 
ATOM     80  C   UNL A   1      48.244  26.386  31.865  1.00  0.00     0.012 A 
ATOM     81  C   UNL A   1      47.050  24.908  33.385  1.00  0.00     0.148 A 
ATOM     82  C   UNL A   1      49.462  25.914  32.354  1.00  0.00     0.002 A 
ATOM     83  C   UNL A   1      48.268  24.478  33.901  1.00  0.00     0.091 A 
ATOM     84  F   UNL A   1      45.883  24.424  33.833  1.00  0.00    -0.205 F 
ATOM     85  C   UNL A   1      49.474  24.971  33.378  1.00  0.00     0.022 A 
BRANCH  83  86
ATOM     86  S   UNL A   1      48.377  23.337  35.284  1.00  0.00     0.127 S 
ATOM     87  O   UNL A   1      47.764  22.134  34.727  1.00  0.00    -0.237 OA
ATOM     88  O   UNL A   1      49.822  23.242  35.496  1.00  0.00    -0.237 OA
ATOM     89  O   UNL A   1      47.648  23.964  36.378  1.00  0.00    -0.744 OA
ENDBRANCH  83  86
ENDBRANCH  56  79
ENDBRANCH  30  31
ENDBRANCH  22  25
ENDBRANCH  20  21
ENDBRANCH  19  20
ENDBRANCH   1  19
TORSDOF 17
ENDMDL
MODEL 3
REMARK VINA RESULT:      -9.6      6.032     12.099
REMARK SMILES O=C(/C=C/c1cccs1)NCC(=O)NCCCCNC(=O)c1ccc(-c2c3nc(c(-c4cccc(S(=O)(=O)[O-])c4F)c4ccc([nH]4)c(-c4cccc(S(=O)(=O)[O-])c4F)c4nc(c(-c5cccc(S(=O)(=O)[O-])c5F)c5ccc2[nH]5)C=C4)C=C3)cc1
REMARK SMILES IDX 16 1 15 2 14 3 12 4 13 5 11 7 10 8 1 9 2 10 3 12 4 13 5 14
REMARK SMILES IDX 6 15 9 16 7 17 8 18 17 19 18 20 19 21 20 22 21 24 22 25
REMARK SMILES IDX 23 26 84 27 24 28 83 29 25 30 26 31 27 32 77 33 28 34 82 35
REMARK SMILES IDX 76 36 78 37 29 38 81 39 75 40 74 41 30 43 62 44 42 45 61 46
REMARK SMILES IDX 43 47 46 48 60 49 79 50 44 51 45 52 59 54 80 55 47 56 31 57
REMARK SMILES IDX 32 58 40 59 33 60 35 61 41 62 34 63 36 64 37 65 38 66 39 67
REMARK SMILES IDX 63 68 64 69 72 70 65 71 67 72 73 73 66 74 68 75 69 76 70 77
REMARK SMILES IDX 71 78 48 79 49 80 57 81 50 82 52 83 58 84 51 85 53 86 54 87
REMARK SMILES IDX 55 88 56 89
REMARK H PARENT 14 6 10 11 19 23 78 42 46 53
REMARK Flexibility Score: inf
ROOT
ATOM      1  C   UNL A   1      32.733  27.249  26.819  1.00  0.00     0.023 C 
ENDROOT
BRANCH   1   2
ATOM      2  C   UNL A   1      32.755  25.852  26.199  1.00  0.00     0.116 C 
BRANCH   2   3
ATOM      3  N   UNL A   1      31.842  24.952  26.877  1.00  0.00    -0.355 N 
ATOM      4  C   UNL A   1      30.773  24.277  26.359  1.00  0.00     0.239 C 
ATOM      5  O   UNL A   1      30.122  23.536  27.096  1.00  0.00    -0.273 OA
ATOM      6  H   UNL A   1      32.015  24.808  27.835  1.00  0.00     0.163 HD
BRANCH   4   7
ATOM      7  C   UNL A   1      30.431  24.414  24.875  1.00  0.00     0.216 C 
BRANCH   7   8
ATOM      8  N   UNL A   1      29.833  25.704  24.571  1.00  0.00    -0.343 N 
ATOM      9  O   UNL A   1      31.306  26.225  22.902  1.00  0.00    -0.270 OA
ATOM     10  C   UNL A   1      30.336  26.515  23.594  1.00  0.00     0.244 C 
ATOM     11  H   UNL A   1      29.046  26.001  25.082  1.00  0.00     0.164 HD
BRANCH  10  12
ATOM     12  C   UNL A   1      29.658  27.815  23.362  1.00  0.00     0.072 C 
ATOM     13  C   UNL A   1      30.231  29.023  23.258  1.00  0.00     0.024 C 
BRANCH  13  14
ATOM     14  C   UNL A   1      29.449  30.197  23.035  1.00  0.00     0.027 A 
ATOM     15  C   UNL A   1      29.143  31.256  23.878  1.00  0.00     0.020 A 
ATOM     16  S   UNL A   1      28.733  30.448  21.486  1.00  0.00    -0.144 S 
ATOM     17  C   UNL A   1      28.321  32.245  23.264  1.00  0.00     0.012 A 
ATOM     18  C   UNL A   1      28.015  31.921  21.964  1.00  0.00     0.065 A 
ENDBRANCH  13  14
ENDBRANCH  10  12
ENDBRANCH   7   8
ENDBRANCH   4   7
ENDBRANCH   2   3
ENDBRANCH   1   2
BRANCH   1  19
ATOM     19  C   UNL A   1      32.721  28.397  25.804  1.00  0.00     0.023 C 
BRANCH  19  20
ATOM     20  C   UNL A   1      33.973  29.270  25.787  1.00  0.00     0.116 C 
BRANCH  20  21
ATOM     21  N   UNL A   1      33.802  30.530  26.495  1.00  0.00    -0.352 N 
ATOM     22  C   UNL A   1      34.527  31.029  27.551  1.00  0.00     0.251 C 
ATOM     23  H   UNL A   1      33.069  31.102  26.175  1.00  0.00     0.163 HD
ATOM     24  O   UNL A   1      34.167  32.064  28.108  1.00  0.00    -0.269 OA
BRANCH  22  25
ATOM     25  C   UNL A   1      35.720  30.301  28.036  1.00  0.00     0.039 A 
ATOM     26  C   UNL A   1      36.916  30.412  27.322  1.00  0.00     0.014 A 
ATOM     27  C   UNL A   1      35.666  29.526  29.199  1.00  0.00     0.014 A 
ATOM     28  C   UNL A   1      38.074  29.800  27.808  1.00  0.00     0.010 A 
ATOM     29  C   UNL A   1      36.835  28.975  29.717  1.00  0.00     0.010 A 
ATOM     30  C   UNL A   1      38.051  29.105  29.028  1.00  0.00    -0.014 A 
BRANCH  30  31
ATOM     31  C   UNL A   1      39.289  28.527  29.611  1.00  0.00     0.031 A 
ATOM     32  C   UNL A   1      39.915  29.144  30.833  1.00  0.00     0.074 A 
ATOM     33  C   UNL A   1      39.904  27.503  28.986  1.00  0.00     0.049 A 
ATOM     34  N   UNL A   1      41.023  28.817  31.445  1.00  0.00    -0.248 NA
ATOM     35  C   UNL A   1      39.220  30.297  31.428  1.00  0.00     0.031 C 
ATOM     36  C   UNL A   1      39.443  26.870  27.748  1.00  0.00     0.029 A 
ATOM     37  N   UNL A   1      41.063  26.833  29.289  1.00  0.00    -0.354 N 
ATOM     38  C   UNL A   1      41.178  29.740  32.472  1.00  0.00     0.074 A 
ATOM     39  C   UNL A   1      40.066  30.662  32.381  1.00  0.00     0.031 C 
ATOM     40  C   UNL A   1      40.311  25.905  27.399  1.00  0.00     0.029 A 
ATOM     41  C   UNL A   1      41.400  25.868  28.369  1.00  0.00     0.049 A 
ATOM     42  H   UNL A   1      41.603  27.027  30.089  1.00  0.00     0.167 HD
ATOM     43  C   UNL A   1      42.139  29.800  33.424  1.00  0.00     0.034 A 
ATOM     44  C   UNL A   1      42.469  25.048  28.309  1.00  0.00     0.034 A 
ATOM     45  C   UNL A   1      43.217  28.855  33.543  1.00  0.00     0.049 A 
ATOM     46  C   UNL A   1      43.499  25.106  29.405  1.00  0.00     0.074 A 
ATOM     47  C   UNL A   1      44.185  28.773  34.529  1.00  0.00     0.029 A 
ATOM     48  N   UNL A   1      43.475  27.832  32.645  1.00  0.00    -0.354 N 
ATOM     49  N   UNL A   1      43.535  25.878  30.463  1.00  0.00    -0.248 NA
ATOM     50  C   UNL A   1      44.617  24.155  29.317  1.00  0.00     0.031 C 
ATOM     51  C   UNL A   1      45.040  27.712  34.215  1.00  0.00     0.029 A 
ATOM     52  C   UNL A   1      44.591  27.119  33.046  1.00  0.00     0.049 A 
ATOM     53  H   UNL A   1      42.942  27.640  31.839  1.00  0.00     0.167 HD
ATOM     54  C   UNL A   1      44.656  25.485  31.184  1.00  0.00     0.074 A 
ATOM     55  C   UNL A   1      45.260  24.390  30.453  1.00  0.00     0.031 C 
ATOM     56  C   UNL A   1      45.152  25.996  32.338  1.00  0.00     0.034 A 
BRANCH  43  57
ATOM     57  C   UNL A   1      42.036  30.894  34.455  1.00  0.00     0.023 A 
ATOM     58  C   UNL A   1      41.373  30.638  35.673  1.00  0.00     0.012 A 
ATOM     59  C   UNL A   1      42.642  32.149  34.249  1.00  0.00     0.148 A 
ATOM     60  C   UNL A   1      41.283  31.624  36.655  1.00  0.00     0.002 A 
ATOM     61  C   UNL A   1      42.585  33.112  35.251  1.00  0.00     0.091 A 
ATOM     62  F   UNL A   1      43.250  32.383  33.077  1.00  0.00    -0.205 F 
ATOM     63  C   UNL A   1      41.897  32.856  36.448  1.00  0.00     0.022 A 
BRANCH  61  64
ATOM     64  S   UNL A   1      43.410  34.702  35.114  1.00  0.00     0.127 S 
ATOM     65  O   UNL A   1      44.802  34.297  34.924  1.00  0.00    -0.237 OA
ATOM     66  O   UNL A   1      42.776  35.277  33.927  1.00  0.00    -0.237 OA
ATOM     67  O   UNL A   1      43.127  35.409  36.355  1.00  0.00    -0.744 OA
ENDBRANCH  61  64
ENDBRANCH  43  57
BRANCH  44  68
ATOM     68  C   UNL A   1      42.581  24.051  27.206  1.00  0.00     0.023 A 
ATOM     69  C   UNL A   1      43.277  24.398  26.032  1.00  0.00     0.012 A 
ATOM     70  C   UNL A   1      42.032  22.760  27.323  1.00  0.00     0.148 A 
ATOM     71  C   UNL A   1      43.396  23.489  24.981  1.00  0.00     0.002 A 
ATOM     72  C   UNL A   1      42.203  21.840  26.295  1.00  0.00     0.091 A 
ATOM     73  F   UNL A   1      41.363  22.452  28.444  1.00  0.00    -0.205 F 
ATOM     74  C   UNL A   1      42.869  22.208  25.116  1.00  0.00     0.022 A 
BRANCH  72  75
ATOM     75  S   UNL A   1      41.672  20.129  26.436  1.00  0.00     0.127 S 
ATOM     76  O   UNL A   1      40.232  20.243  26.219  1.00  0.00    -0.237 OA
ATOM     77  O   UNL A   1      42.411  19.492  25.345  1.00  0.00    -0.237 OA
ATOM     78  O   UNL A   1      42.083  19.701  27.767  1.00  0.00    -0.744 OA
ENDBRANCH  72  75
ENDBRANCH  44  68
BRANCH  56  79
ATOM     79  C   UNL A   1      46.397  25.364  32.906  1.00  0.00     0.023 A 
ATOM     80  C   UNL A   1      47.657  25.924  32.620  1.00  0.00     0.012 A 
ATOM     81  C   UNL A   1      46.311  24.263  33.781  1.00  0.00     0.148 A 
ATOM     82  C   UNL A   1      48.816  25.379  33.172  1.00  0.00     0.002 A 
ATOM     83  C   UNL A   1      47.465  23.755  34.365  1.00  0.00     0.091 A 
ATOM     84  F   UNL A   1      45.103  23.732  34.025  1.00  0.00    -0.205 F 
ATOM     85  C   UNL A   1      48.719  24.305  34.053  1.00  0.00     0.022 A 
BRANCH  83  86
ATOM     86  S   UNL A   1      47.427  22.436  35.583  1.00  0.00     0.127 S 
ATOM     87  O   UNL A   1      46.596  23.022  36.632  1.00  0.00    -0.237 OA
ATOM     88  O   UNL A   1      46.792  21.345  34.841  1.00  0.00    -0.237 OA
ATOM     89  O   UNL A   1      48.815  22.188  35.948  1.00  0.00    -0.744 OA
ENDBRANCH  83  86
ENDBRANCH  56  79
ENDBRANCH  30  31
ENDBRANCH  22  25
ENDBRANCH  20  21
ENDBRANCH  19  20
ENDBRANCH   1  19
TORSDOF 17
ENDMDL
