MODEL 1
REMARK VINA RESULT:     -12.0      0.000      0.000
REMARK SMILES C[C@@H]1C[C@@H]1NC(=O)Cn1cccc1C(=O)NCCCCNC(=O)c1ccc(-c2c3nc(c(-c4cccc(S(=O)(=O)[O-])c4F)c4ccc([nH]4)c(-c4cccc(S(=O)(=O)[O-])c4F)c4nc(c(-c5cccc(S(=O)(=O)[O-])c5F)c5ccc2[nH]5)C=C4)C=C3)cc1
REMARK SMILES IDX 18 1 17 2 16 3 14 4 15 5 13 7 9 8 10 9 11 10 12 11 8 12 6 13
REMARK SMILES IDX 5 14 7 16 4 17 1 18 2 19 3 20 19 21 20 22 21 23 22 24 23 26
REMARK SMILES IDX 24 27 25 28 86 29 26 30 85 31 27 32 28 33 29 34 79 35 30 36
REMARK SMILES IDX 84 37 78 38 80 39 31 40 83 41 77 42 76 43 32 45 64 46 44 47
REMARK SMILES IDX 63 48 45 49 48 50 62 51 81 52 46 53 47 54 61 56 82 57 49 58
REMARK SMILES IDX 33 59 34 60 42 61 35 62 37 63 43 64 36 65 38 66 39 67 40 68
REMARK SMILES IDX 41 69 65 70 66 71 74 72 67 73 69 74 75 75 68 76 70 77 71 78
REMARK SMILES IDX 72 79 73 80 50 81 51 82 59 83 52 84 54 85 60 86 53 87 55 88
REMARK SMILES IDX 56 89 57 90 58 91
REMARK H PARENT 16 6 5 15 21 25 80 44 48 55
REMARK Flexibility Score: inf
ROOT
ATOM      1  C   UNL A   1      33.929  28.148  24.530  1.00  0.00     0.023 C 
ENDROOT
BRANCH   1   2
ATOM      2  C   UNL A   1      33.969  28.522  23.019  1.00  0.00     0.116 C 
BRANCH   2   3
ATOM      3  N   UNL A   1      33.750  27.342  22.142  1.00  0.00    -0.351 N 
ATOM      4  C   UNL A   1      33.255  26.074  21.975  1.00  0.00     0.267 C 
ATOM      5  O   UNL A   1      33.329  25.807  20.762  1.00  0.00    -0.268 OA
ATOM      6  H   UNL A   1      34.149  27.583  21.275  1.00  0.00     0.163 HD
BRANCH   4   7
ATOM      7  C   UNL A   1      32.737  24.994  22.859  1.00  0.00     0.107 A 
ATOM      8  N   UNL A   1      32.159  24.803  24.120  1.00  0.00    -0.334 N 
ATOM      9  C   UNL A   1      31.979  23.441  24.372  1.00  0.00     0.087 A 
ATOM     10  C   UNL A   1      32.497  22.718  23.343  1.00  0.00     0.020 A 
ATOM     11  C   UNL A   1      32.937  23.666  22.411  1.00  0.00     0.033 A 
BRANCH   8  12
ATOM     12  C   UNL A   1      31.824  25.676  25.237  1.00  0.00     0.222 C 
BRANCH  12  13
ATOM     13  C   UNL A   1      30.396  25.983  25.422  1.00  0.00     0.240 C 
ATOM     14  N   UNL A   1      29.818  26.756  24.459  1.00  0.00    -0.352 N 
ATOM     15  H   UNL A   1      28.966  26.411  24.106  1.00  0.00     0.163 HD
ATOM     16  O   UNL A   1      29.757  25.512  26.362  1.00  0.00    -0.273 OA
BRANCH  14  17
ATOM     17  C   UNL A   1      30.249  27.979  23.886  1.00  0.00     0.085 C 
ATOM     18  C   UNL A   1      27.809  28.424  23.149  1.00  0.00     0.010 C 
ATOM     19  C   UNL A   1      29.250  28.837  23.156  1.00  0.00     0.010 C 
ATOM     20  C   UNL A   1      30.274  28.054  22.378  1.00  0.00     0.030 C 
ENDBRANCH  14  17
ENDBRANCH  12  13
ENDBRANCH   8  12
ENDBRANCH   4   7
ENDBRANCH   2   3
ENDBRANCH   1   2
BRANCH   1  21
ATOM     21  C   UNL A   1      33.627  29.197  25.600  1.00  0.00     0.023 C 
BRANCH  21  22
ATOM     22  C   UNL A   1      34.498  29.161  26.841  1.00  0.00     0.116 C 
BRANCH  22  23
ATOM     23  N   UNL A   1      34.785  30.487  27.369  1.00  0.00    -0.352 N 
ATOM     24  C   UNL A   1      35.849  30.841  28.174  1.00  0.00     0.251 C 
ATOM     25  H   UNL A   1      34.156  31.204  27.128  1.00  0.00     0.163 HD
ATOM     26  O   UNL A   1      35.819  31.849  28.854  1.00  0.00    -0.269 OA
BRANCH  24  27
ATOM     27  C   UNL A   1      37.020  29.941  28.217  1.00  0.00     0.039 A 
ATOM     28  C   UNL A   1      37.916  29.951  27.146  1.00  0.00     0.014 A 
ATOM     29  C   UNL A   1      37.232  29.130  29.338  1.00  0.00     0.014 A 
ATOM     30  C   UNL A   1      39.082  29.202  27.239  1.00  0.00     0.010 A 
ATOM     31  C   UNL A   1      38.405  28.400  29.442  1.00  0.00     0.010 A 
ATOM     32  C   UNL A   1      39.341  28.460  28.403  1.00  0.00    -0.014 A 
BRANCH  32  33
ATOM     33  C   UNL A   1      40.702  27.913  28.603  1.00  0.00     0.031 A 
ATOM     34  C   UNL A   1      40.743  26.404  28.194  1.00  0.00     0.074 A 
ATOM     35  C   UNL A   1      41.617  28.788  29.127  1.00  0.00     0.049 A 
ATOM     36  N   UNL A   1      41.329  25.373  28.741  1.00  0.00    -0.248 NA
ATOM     37  C   UNL A   1      39.858  25.964  27.073  1.00  0.00     0.031 C 
ATOM     38  C   UNL A   1      41.379  30.230  29.396  1.00  0.00     0.029 A 
ATOM     39  N   UNL A   1      42.922  28.672  29.544  1.00  0.00    -0.354 N 
ATOM     40  C   UNL A   1      41.064  24.245  27.908  1.00  0.00     0.074 A 
ATOM     41  C   UNL A   1      40.029  24.642  27.007  1.00  0.00     0.031 C 
ATOM     42  C   UNL A   1      42.442  30.800  30.010  1.00  0.00     0.029 A 
ATOM     43  C   UNL A   1      43.475  29.804  30.204  1.00  0.00     0.049 A 
ATOM     44  H   UNL A   1      43.445  27.852  29.393  1.00  0.00     0.167 HD
ATOM     45  C   UNL A   1      41.848  23.123  27.875  1.00  0.00     0.034 A 
ATOM     46  C   UNL A   1      44.639  29.891  30.932  1.00  0.00     0.034 A 
ATOM     47  C   UNL A   1      42.969  23.308  28.734  1.00  0.00     0.049 A 
ATOM     48  C   UNL A   1      45.202  28.538  30.860  1.00  0.00     0.074 A 
ATOM     49  C   UNL A   1      43.337  23.002  30.018  1.00  0.00     0.029 A 
ATOM     50  N   UNL A   1      43.974  24.030  28.147  1.00  0.00    -0.354 N 
ATOM     51  N   UNL A   1      45.733  28.009  29.803  1.00  0.00    -0.248 NA
ATOM     52  C   UNL A   1      44.822  27.632  31.939  1.00  0.00     0.031 C 
ATOM     53  C   UNL A   1      44.554  23.700  30.229  1.00  0.00     0.029 A 
ATOM     54  C   UNL A   1      44.727  24.562  29.147  1.00  0.00     0.049 A 
ATOM     55  H   UNL A   1      44.124  24.142  27.180  1.00  0.00     0.167 HD
ATOM     56  C   UNL A   1      45.471  26.668  29.953  1.00  0.00     0.074 A 
ATOM     57  C   UNL A   1      44.991  26.476  31.315  1.00  0.00     0.031 C 
ATOM     58  C   UNL A   1      45.319  25.840  28.890  1.00  0.00     0.034 A 
BRANCH  45  59
ATOM     59  C   UNL A   1      42.011  21.939  26.909  1.00  0.00     0.023 A 
ATOM     60  C   UNL A   1      41.069  20.879  27.094  1.00  0.00     0.012 A 
ATOM     61  C   UNL A   1      43.145  21.632  26.134  1.00  0.00     0.148 A 
ATOM     62  C   UNL A   1      41.311  19.562  26.706  1.00  0.00     0.002 A 
ATOM     63  C   UNL A   1      43.351  20.317  25.682  1.00  0.00     0.091 A 
ATOM     64  F   UNL A   1      44.055  22.579  25.892  1.00  0.00    -0.205 F 
ATOM     65  C   UNL A   1      42.468  19.277  26.013  1.00  0.00     0.022 A 
BRANCH  63  66
ATOM     66  S   UNL A   1      44.747  19.827  24.657  1.00  0.00     0.127 S 
ATOM     67  O   UNL A   1      44.522  18.394  24.495  1.00  0.00    -0.237 OA
ATOM     68  O   UNL A   1      44.519  20.616  23.443  1.00  0.00    -0.237 OA
ATOM     69  O   UNL A   1      45.937  20.217  25.400  1.00  0.00    -0.744 OA
ENDBRANCH  63  66
ENDBRANCH  45  59
BRANCH  46  70
ATOM     70  C   UNL A   1      45.252  30.848  31.932  1.00  0.00     0.023 A 
ATOM     71  C   UNL A   1      46.409  31.599  31.688  1.00  0.00     0.012 A 
ATOM     72  C   UNL A   1      44.600  31.097  33.182  1.00  0.00     0.148 A 
ATOM     73  C   UNL A   1      46.826  32.610  32.580  1.00  0.00     0.002 A 
ATOM     74  C   UNL A   1      44.943  32.168  34.003  1.00  0.00     0.091 A 
ATOM     75  F   UNL A   1      43.637  30.268  33.603  1.00  0.00    -0.205 F 
ATOM     76  C   UNL A   1      46.070  32.928  33.708  1.00  0.00     0.022 A 
BRANCH  74  77
ATOM     77  S   UNL A   1      43.886  32.718  35.361  1.00  0.00     0.127 S 
ATOM     78  O   UNL A   1      44.542  33.953  35.789  1.00  0.00    -0.237 OA
ATOM     79  O   UNL A   1      42.607  32.909  34.677  1.00  0.00    -0.237 OA
ATOM     80  O   UNL A   1      43.891  31.644  36.346  1.00  0.00    -0.744 OA
ENDBRANCH  74  77
ENDBRANCH  46  70
BRANCH  58  81
ATOM     81  C   UNL A   1      45.450  26.508  27.519  1.00  0.00     0.023 A 
ATOM     82  C   UNL A   1      44.292  27.014  26.914  1.00  0.00     0.012 A 
ATOM     83  C   UNL A   1      46.652  26.547  26.757  1.00  0.00     0.148 A 
ATOM     84  C   UNL A   1      44.325  27.545  25.618  1.00  0.00     0.002 A 
ATOM     85  C   UNL A   1      46.684  27.060  25.458  1.00  0.00     0.091 A 
ATOM     86  F   UNL A   1      47.773  26.098  27.319  1.00  0.00    -0.205 F 
ATOM     87  C   UNL A   1      45.514  27.569  24.890  1.00  0.00     0.022 A 
BRANCH  85  88
ATOM     88  S   UNL A   1      48.157  27.050  24.404  1.00  0.00     0.127 S 
ATOM     89  O   UNL A   1      48.573  25.647  24.456  1.00  0.00    -0.237 OA
ATOM     90  O   UNL A   1      47.616  27.466  23.113  1.00  0.00    -0.237 OA
ATOM     91  O   UNL A   1      49.112  27.974  25.008  1.00  0.00    -0.744 OA
ENDBRANCH  85  88
ENDBRANCH  58  81
ENDBRANCH  32  33
ENDBRANCH  24  27
ENDBRANCH  22  23
ENDBRANCH  21  22
ENDBRANCH   1  21
TORSDOF 17
ENDMDL
MODEL 2
REMARK VINA RESULT:     -11.5      1.230      2.430
REMARK SMILES C[C@@H]1C[C@@H]1NC(=O)Cn1cccc1C(=O)NCCCCNC(=O)c1ccc(-c2c3nc(c(-c4cccc(S(=O)(=O)[O-])c4F)c4ccc([nH]4)c(-c4cccc(S(=O)(=O)[O-])c4F)c4nc(c(-c5cccc(S(=O)(=O)[O-])c5F)c5ccc2[nH]5)C=C4)C=C3)cc1
REMARK SMILES IDX 18 1 17 2 16 3 14 4 15 5 13 7 9 8 10 9 11 10 12 11 8 12 6 13
REMARK SMILES IDX 5 14 7 16 4 17 1 18 2 19 3 20 19 21 20 22 21 23 22 24 23 26
REMARK SMILES IDX 24 27 25 28 86 29 26 30 85 31 27 32 28 33 29 34 79 35 30 36
REMARK SMILES IDX 84 37 78 38 80 39 31 40 83 41 77 42 76 43 32 45 64 46 44 47
REMARK SMILES IDX 63 48 45 49 48 50 62 51 81 52 46 53 47 54 61 56 82 57 49 58
REMARK SMILES IDX 33 59 34 60 42 61 35 62 37 63 43 64 36 65 38 66 39 67 40 68
REMARK SMILES IDX 41 69 65 70 66 71 74 72 67 73 69 74 75 75 68 76 70 77 71 78
REMARK SMILES IDX 72 79 73 80 50 81 51 82 59 83 52 84 54 85 60 86 53 87 55 88
REMARK SMILES IDX 56 89 57 90 58 91
REMARK H PARENT 16 6 5 15 21 25 80 44 48 55
REMARK Flexibility Score: inf
ROOT
ATOM      1  C   UNL A   1      34.180  28.576  24.359  1.00  0.00     0.023 C 
ENDROOT
BRANCH   1   2
ATOM      2  C   UNL A   1      33.566  29.143  23.046  1.00  0.00     0.116 C 
BRANCH   2   3
ATOM      3  N   UNL A   1      32.385  28.361  22.596  1.00  0.00    -0.351 N 
ATOM      4  C   UNL A   1      31.495  27.340  22.813  1.00  0.00     0.267 C 
ATOM      5  O   UNL A   1      30.597  27.448  21.958  1.00  0.00    -0.268 OA
ATOM      6  H   UNL A   1      32.114  28.765  21.740  1.00  0.00     0.163 HD
BRANCH   4   7
ATOM      7  C   UNL A   1      31.393  26.177  23.736  1.00  0.00     0.107 A 
ATOM      8  N   UNL A   1      31.874  24.872  23.899  1.00  0.00    -0.334 N 
ATOM      9  C   UNL A   1      31.280  24.269  25.010  1.00  0.00     0.087 A 
ATOM     10  C   UNL A   1      30.357  25.113  25.543  1.00  0.00     0.020 A 
ATOM     11  C   UNL A   1      30.443  26.284  24.780  1.00  0.00     0.033 A 
BRANCH   8  12
ATOM     12  C   UNL A   1      32.739  23.994  23.122  1.00  0.00     0.222 C 
BRANCH  12  13
ATOM     13  C   UNL A   1      33.311  22.840  23.837  1.00  0.00     0.240 C 
ATOM     14  N   UNL A   1      34.329  23.115  24.702  1.00  0.00    -0.352 N 
ATOM     15  H   UNL A   1      34.231  22.713  25.597  1.00  0.00     0.163 HD
ATOM     16  O   UNL A   1      32.848  21.709  23.699  1.00  0.00    -0.273 OA
BRANCH  14  17
ATOM     17  C   UNL A   1      35.505  23.884  24.519  1.00  0.00     0.085 C 
ATOM     18  C   UNL A   1      36.860  21.682  24.437  1.00  0.00     0.010 C 
ATOM     19  C   UNL A   1      36.833  23.181  24.433  1.00  0.00     0.010 C 
ATOM     20  C   UNL A   1      36.469  23.943  25.679  1.00  0.00     0.030 C 
ENDBRANCH  14  17
ENDBRANCH  12  13
ENDBRANCH   8  12
ENDBRANCH   4   7
ENDBRANCH   2   3
ENDBRANCH   1   2
BRANCH   1  21
ATOM     21  C   UNL A   1      33.502  28.793  25.713  1.00  0.00     0.023 C 
BRANCH  21  22
ATOM     22  C   UNL A   1      34.421  28.919  26.912  1.00  0.00     0.116 C 
BRANCH  22  23
ATOM     23  N   UNL A   1      34.739  30.301  27.238  1.00  0.00    -0.352 N 
ATOM     24  C   UNL A   1      35.856  30.753  27.912  1.00  0.00     0.251 C 
ATOM     25  H   UNL A   1      34.092  30.983  26.949  1.00  0.00     0.163 HD
ATOM     26  O   UNL A   1      35.870  31.842  28.453  1.00  0.00    -0.269 OA
BRANCH  24  27
ATOM     27  C   UNL A   1      37.030  29.860  27.992  1.00  0.00     0.039 A 
ATOM     28  C   UNL A   1      37.941  29.850  26.934  1.00  0.00     0.014 A 
ATOM     29  C   UNL A   1      37.231  29.076  29.135  1.00  0.00     0.014 A 
ATOM     30  C   UNL A   1      39.110  29.110  27.060  1.00  0.00     0.010 A 
ATOM     31  C   UNL A   1      38.406  28.354  29.272  1.00  0.00     0.010 A 
ATOM     32  C   UNL A   1      39.355  28.395  28.244  1.00  0.00    -0.014 A 
BRANCH  32  33
ATOM     33  C   UNL A   1      40.717  27.860  28.477  1.00  0.00     0.031 A 
ATOM     34  C   UNL A   1      40.780  26.352  28.065  1.00  0.00     0.074 A 
ATOM     35  C   UNL A   1      41.611  28.743  29.024  1.00  0.00     0.049 A 
ATOM     36  N   UNL A   1      41.363  25.326  28.625  1.00  0.00    -0.248 NA
ATOM     37  C   UNL A   1      39.927  25.907  26.923  1.00  0.00     0.031 C 
ATOM     38  C   UNL A   1      41.354  30.181  29.289  1.00  0.00     0.029 A 
ATOM     39  N   UNL A   1      42.907  28.638  29.472  1.00  0.00    -0.354 N 
ATOM     40  C   UNL A   1      41.128  24.197  27.784  1.00  0.00     0.074 A 
ATOM     41  C   UNL A   1      40.111  24.587  26.860  1.00  0.00     0.031 C 
ATOM     42  C   UNL A   1      42.397  30.760  29.929  1.00  0.00     0.029 A 
ATOM     43  C   UNL A   1      43.434  29.773  30.147  1.00  0.00     0.049 A 
ATOM     44  H   UNL A   1      43.440  27.822  29.332  1.00  0.00     0.167 HD
ATOM     45  C   UNL A   1      41.922  23.082  27.768  1.00  0.00     0.034 A 
ATOM     46  C   UNL A   1      44.579  29.869  30.902  1.00  0.00     0.034 A 
ATOM     47  C   UNL A   1      43.020  23.275  28.654  1.00  0.00     0.049 A 
ATOM     48  C   UNL A   1      45.155  28.521  30.841  1.00  0.00     0.074 A 
ATOM     49  C   UNL A   1      43.361  22.970  29.945  1.00  0.00     0.029 A 
ATOM     50  N   UNL A   1      44.033  24.007  28.092  1.00  0.00    -0.354 N 
ATOM     51  N   UNL A   1      45.717  27.999  29.796  1.00  0.00    -0.248 NA
ATOM     52  C   UNL A   1      44.758  27.610  31.909  1.00  0.00     0.031 C 
ATOM     53  C   UNL A   1      44.566  23.678  30.187  1.00  0.00     0.029 A 
ATOM     54  C   UNL A   1      44.757  24.544  29.111  1.00  0.00     0.049 A 
ATOM     55  H   UNL A   1      44.205  24.122  27.129  1.00  0.00     0.167 HD
ATOM     56  C   UNL A   1      45.463  26.655  29.938  1.00  0.00     0.074 A 
ATOM     57  C   UNL A   1      44.953  26.456  31.287  1.00  0.00     0.031 C 
ATOM     58  C   UNL A   1      45.343  25.827  28.870  1.00  0.00     0.034 A 
BRANCH  45  59
ATOM     59  C   UNL A   1      42.119  21.902  26.803  1.00  0.00     0.023 A 
ATOM     60  C   UNL A   1      41.148  20.858  26.927  1.00  0.00     0.012 A 
ATOM     61  C   UNL A   1      43.289  21.578  26.093  1.00  0.00     0.148 A 
ATOM     62  C   UNL A   1      41.388  19.540  26.543  1.00  0.00     0.002 A 
ATOM     63  C   UNL A   1      43.497  20.262  25.644  1.00  0.00     0.091 A 
ATOM     64  F   UNL A   1      44.230  22.509  25.912  1.00  0.00    -0.205 F 
ATOM     65  C   UNL A   1      42.577  19.237  25.915  1.00  0.00     0.022 A 
BRANCH  63  66
ATOM     66  S   UNL A   1      44.941  19.753  24.697  1.00  0.00     0.127 S 
ATOM     67  O   UNL A   1      44.802  18.299  24.684  1.00  0.00    -0.237 OA
ATOM     68  O   UNL A   1      44.692  20.395  23.403  1.00  0.00    -0.237 OA
ATOM     69  O   UNL A   1      46.090  20.289  25.413  1.00  0.00    -0.744 OA
ENDBRANCH  63  66
ENDBRANCH  45  59
BRANCH  46  70
ATOM     70  C   UNL A   1      45.160  30.829  31.917  1.00  0.00     0.023 A 
ATOM     71  C   UNL A   1      46.436  31.399  31.816  1.00  0.00     0.012 A 
ATOM     72  C   UNL A   1      44.363  31.278  33.020  1.00  0.00     0.148 A 
ATOM     73  C   UNL A   1      46.849  32.428  32.689  1.00  0.00     0.002 A 
ATOM     74  C   UNL A   1      44.725  32.369  33.807  1.00  0.00     0.091 A 
ATOM     75  F   UNL A   1      43.238  30.623  33.333  1.00  0.00    -0.205 F 
ATOM     76  C   UNL A   1      45.980  32.946  33.650  1.00  0.00     0.022 A 
BRANCH  74  77
ATOM     77  S   UNL A   1      43.559  33.177  34.926  1.00  0.00     0.127 S 
ATOM     78  O   UNL A   1      44.094  34.535  35.010  1.00  0.00    -0.237 OA
ATOM     79  O   UNL A   1      42.306  33.056  34.180  1.00  0.00    -0.237 OA
ATOM     80  O   UNL A   1      43.596  32.422  36.172  1.00  0.00    -0.744 OA
ENDBRANCH  74  77
ENDBRANCH  46  70
BRANCH  58  81
ATOM     81  C   UNL A   1      45.501  26.499  27.504  1.00  0.00     0.023 A 
ATOM     82  C   UNL A   1      44.351  26.973  26.860  1.00  0.00     0.012 A 
ATOM     83  C   UNL A   1      46.727  26.573  26.782  1.00  0.00     0.148 A 
ATOM     84  C   UNL A   1      44.412  27.505  25.565  1.00  0.00     0.002 A 
ATOM     85  C   UNL A   1      46.787  27.087  25.484  1.00  0.00     0.091 A 
ATOM     86  F   UNL A   1      47.841  26.155  27.381  1.00  0.00    -0.205 F 
ATOM     87  C   UNL A   1      45.623  27.562  24.878  1.00  0.00     0.022 A 
BRANCH  85  88
ATOM     88  S   UNL A   1      48.295  27.119  24.481  1.00  0.00     0.127 S 
ATOM     89  O   UNL A   1      47.780  27.445  23.149  1.00  0.00    -0.237 OA
ATOM     90  O   UNL A   1      49.058  28.196  25.106  1.00  0.00    -0.237 OA
ATOM     91  O   UNL A   1      48.893  25.792  24.577  1.00  0.00    -0.744 OA
ENDBRANCH  85  88
ENDBRANCH  58  81
ENDBRANCH  32  33
ENDBRANCH  24  27
ENDBRANCH  22  23
ENDBRANCH  21  22
ENDBRANCH   1  21
TORSDOF 17
ENDMDL
MODEL 3
REMARK VINA RESULT:     -11.4      1.755      2.375
REMARK SMILES C[C@@H]1C[C@@H]1NC(=O)Cn1cccc1C(=O)NCCCCNC(=O)c1ccc(-c2c3nc(c(-c4cccc(S(=O)(=O)[O-])c4F)c4ccc([nH]4)c(-c4cccc(S(=O)(=O)[O-])c4F)c4nc(c(-c5cccc(S(=O)(=O)[O-])c5F)c5ccc2[nH]5)C=C4)C=C3)cc1
REMARK SMILES IDX 18 1 17 2 16 3 14 4 15 5 13 7 9 8 10 9 11 10 12 11 8 12 6 13
REMARK SMILES IDX 5 14 7 16 4 17 1 18 2 19 3 20 19 21 20 22 21 23 22 24 23 26
REMARK SMILES IDX 24 27 25 28 86 29 26 30 85 31 27 32 28 33 29 34 79 35 30 36
REMARK SMILES IDX 84 37 78 38 80 39 31 40 83 41 77 42 76 43 32 45 64 46 44 47
REMARK SMILES IDX 63 48 45 49 48 50 62 51 81 52 46 53 47 54 61 56 82 57 49 58
REMARK SMILES IDX 33 59 34 60 42 61 35 62 37 63 43 64 36 65 38 66 39 67 40 68
REMARK SMILES IDX 41 69 65 70 66 71 74 72 67 73 69 74 75 75 68 76 70 77 71 78
REMARK SMILES IDX 72 79 73 80 50 81 51 82 59 83 52 84 54 85 60 86 53 87 55 88
REMARK SMILES IDX 56 89 57 90 58 91
REMARK H PARENT 16 6 5 15 21 25 80 44 48 55
REMARK Flexibility Score: inf
ROOT
ATOM      1  C   UNL A   1      32.094  28.820  27.199  1.00  0.00     0.023 C 
ENDROOT
BRANCH   1   2
ATOM      2  C   UNL A   1      31.075  27.691  26.863  1.00  0.00     0.116 C 
BRANCH   2   3
ATOM      3  N   UNL A   1      31.742  26.381  26.640  1.00  0.00    -0.351 N 
ATOM      4  C   UNL A   1      32.372  25.510  25.789  1.00  0.00     0.267 C 
ATOM      5  O   UNL A   1      32.833  24.586  26.485  1.00  0.00    -0.268 OA
ATOM      6  H   UNL A   1      31.720  25.926  27.512  1.00  0.00     0.163 HD
BRANCH   4   7
ATOM      7  C   UNL A   1      32.570  25.392  24.319  1.00  0.00     0.107 A 
ATOM      8  N   UNL A   1      32.027  25.841  23.109  1.00  0.00    -0.334 N 
ATOM      9  C   UNL A   1      32.686  25.248  22.029  1.00  0.00     0.087 A 
ATOM     10  C   UNL A   1      33.600  24.354  22.493  1.00  0.00     0.020 A 
ATOM     11  C   UNL A   1      33.544  24.460  23.888  1.00  0.00     0.033 A 
BRANCH   8  12
ATOM     12  C   UNL A   1      30.889  26.673  22.742  1.00  0.00     0.222 C 
BRANCH  12  13
ATOM     13  C   UNL A   1      30.936  28.078  23.181  1.00  0.00     0.240 C 
ATOM     14  N   UNL A   1      29.732  28.686  23.377  1.00  0.00    -0.352 N 
ATOM     15  H   UNL A   1      29.646  29.167  24.233  1.00  0.00     0.163 HD
ATOM     16  O   UNL A   1      32.006  28.639  23.412  1.00  0.00    -0.273 OA
BRANCH  14  17
ATOM     17  C   UNL A   1      28.586  28.739  22.546  1.00  0.00     0.085 C 
ATOM     18  C   UNL A   1      29.117  31.225  22.071  1.00  0.00     0.010 C 
ATOM     19  C   UNL A   1      28.209  30.046  21.901  1.00  0.00     0.010 C 
ATOM     20  C   UNL A   1      27.404  29.525  23.062  1.00  0.00     0.030 C 
ENDBRANCH  14  17
ENDBRANCH  12  13
ENDBRANCH   8  12
ENDBRANCH   4   7
ENDBRANCH   2   3
ENDBRANCH   1   2
BRANCH   1  21
ATOM     21  C   UNL A   1      33.552  28.502  27.534  1.00  0.00     0.023 C 
BRANCH  21  22
ATOM     22  C   UNL A   1      34.603  29.295  26.783  1.00  0.00     0.116 C 
BRANCH  22  23
ATOM     23  N   UNL A   1      34.877  30.588  27.391  1.00  0.00    -0.352 N 
ATOM     24  C   UNL A   1      35.918  30.895  28.244  1.00  0.00     0.251 C 
ATOM     25  H   UNL A   1      34.256  31.320  27.172  1.00  0.00     0.163 HD
ATOM     26  O   UNL A   1      35.870  31.864  28.977  1.00  0.00    -0.269 OA
BRANCH  24  27
ATOM     27  C   UNL A   1      37.085  29.991  28.271  1.00  0.00     0.039 A 
ATOM     28  C   UNL A   1      37.981  30.015  27.200  1.00  0.00     0.014 A 
ATOM     29  C   UNL A   1      37.296  29.160  29.379  1.00  0.00     0.014 A 
ATOM     30  C   UNL A   1      39.145  29.261  27.279  1.00  0.00     0.010 A 
ATOM     31  C   UNL A   1      38.467  28.424  29.470  1.00  0.00     0.010 A 
ATOM     32  C   UNL A   1      39.401  28.498  28.430  1.00  0.00    -0.014 A 
BRANCH  32  33
ATOM     33  C   UNL A   1      40.761  27.944  28.621  1.00  0.00     0.031 A 
ATOM     34  C   UNL A   1      40.785  26.429  28.231  1.00  0.00     0.074 A 
ATOM     35  C   UNL A   1      41.689  28.819  29.121  1.00  0.00     0.049 A 
ATOM     36  N   UNL A   1      41.371  25.401  28.784  1.00  0.00    -0.248 NA
ATOM     37  C   UNL A   1      39.883  25.982  27.127  1.00  0.00     0.031 C 
ATOM     38  C   UNL A   1      41.466  30.265  29.374  1.00  0.00     0.029 A 
ATOM     39  N   UNL A   1      42.999  28.698  29.523  1.00  0.00    -0.354 N 
ATOM     40  C   UNL A   1      41.086  24.264  27.970  1.00  0.00     0.074 A 
ATOM     41  C   UNL A   1      40.043  24.657  27.078  1.00  0.00     0.031 C 
ATOM     42  C   UNL A   1      42.542  30.836  29.966  1.00  0.00     0.029 A 
ATOM     43  C   UNL A   1      43.569  29.835  30.160  1.00  0.00     0.049 A 
ATOM     44  H   UNL A   1      43.513  27.872  29.376  1.00  0.00     0.167 HD
ATOM     45  C   UNL A   1      41.861  23.135  27.943  1.00  0.00     0.034 A 
ATOM     46  C   UNL A   1      44.744  29.922  30.872  1.00  0.00     0.034 A 
ATOM     47  C   UNL A   1      42.994  23.323  28.784  1.00  0.00     0.049 A 
ATOM     48  C   UNL A   1      45.294  28.563  30.810  1.00  0.00     0.074 A 
ATOM     49  C   UNL A   1      43.377  23.032  30.067  1.00  0.00     0.029 A 
ATOM     50  N   UNL A   1      43.998  24.029  28.174  1.00  0.00    -0.354 N 
ATOM     51  N   UNL A   1      45.808  28.017  29.754  1.00  0.00    -0.248 NA
ATOM     52  C   UNL A   1      44.922  27.675  31.906  1.00  0.00     0.031 C 
ATOM     53  C   UNL A   1      44.601  23.722  30.254  1.00  0.00     0.029 A 
ATOM     54  C   UNL A   1      44.767  24.569  29.158  1.00  0.00     0.049 A 
ATOM     55  H   UNL A   1      44.135  24.127  27.204  1.00  0.00     0.167 HD
ATOM     56  C   UNL A   1      45.538  26.679  29.925  1.00  0.00     0.074 A 
ATOM     57  C   UNL A   1      45.074  26.509  31.296  1.00  0.00     0.031 C 
ATOM     58  C   UNL A   1      45.365  25.838  28.876  1.00  0.00     0.034 A 
BRANCH  45  59
ATOM     59  C   UNL A   1      42.002  21.938  26.990  1.00  0.00     0.023 A 
ATOM     60  C   UNL A   1      41.093  20.862  27.240  1.00  0.00     0.012 A 
ATOM     61  C   UNL A   1      43.103  21.639  26.166  1.00  0.00     0.148 A 
ATOM     62  C   UNL A   1      41.345  19.544  26.863  1.00  0.00     0.002 A 
ATOM     63  C   UNL A   1      43.316  20.321  25.728  1.00  0.00     0.091 A 
ATOM     64  F   UNL A   1      43.981  22.601  25.864  1.00  0.00    -0.205 F 
ATOM     65  C   UNL A   1      42.472  19.270  26.119  1.00  0.00     0.022 A 
BRANCH  63  66
ATOM     66  S   UNL A   1      44.671  19.841  24.644  1.00  0.00     0.127 S 
ATOM     67  O   UNL A   1      45.841  20.141  25.465  1.00  0.00    -0.237 OA
ATOM     68  O   UNL A   1      44.414  18.411  24.458  1.00  0.00    -0.237 OA
ATOM     69  O   UNL A   1      44.507  20.635  23.434  1.00  0.00    -0.744 OA
ENDBRANCH  63  66
ENDBRANCH  45  59
BRANCH  46  70
ATOM     70  C   UNL A   1      45.376  30.887  31.850  1.00  0.00     0.023 A 
ATOM     71  C   UNL A   1      44.788  31.271  33.063  1.00  0.00     0.012 A 
ATOM     72  C   UNL A   1      46.692  31.400  31.606  1.00  0.00     0.148 A 
ATOM     73  C   UNL A   1      45.505  32.023  34.017  1.00  0.00     0.002 A 
ATOM     74  C   UNL A   1      47.437  32.041  32.592  1.00  0.00     0.091 A 
ATOM     75  F   UNL A   1      47.230  31.285  30.386  1.00  0.00    -0.205 F 
ATOM     76  C   UNL A   1      46.841  32.366  33.806  1.00  0.00     0.022 A 
BRANCH  74  77
ATOM     77  S   UNL A   1      49.212  32.332  32.420  1.00  0.00     0.127 S 
ATOM     78  O   UNL A   1      49.578  32.835  33.744  1.00  0.00    -0.237 OA
ATOM     79  O   UNL A   1      49.702  30.986  32.120  1.00  0.00    -0.237 OA
ATOM     80  O   UNL A   1      49.368  33.289  31.332  1.00  0.00    -0.744 OA
ENDBRANCH  74  77
ENDBRANCH  46  70
BRANCH  58  81
ATOM     81  C   UNL A   1      45.484  26.487  27.494  1.00  0.00     0.023 A 
ATOM     82  C   UNL A   1      44.314  26.941  26.871  1.00  0.00     0.012 A 
ATOM     83  C   UNL A   1      46.690  26.557  26.741  1.00  0.00     0.148 A 
ATOM     84  C   UNL A   1      44.338  27.450  25.567  1.00  0.00     0.002 A 
ATOM     85  C   UNL A   1      46.714  27.048  25.433  1.00  0.00     0.091 A 
ATOM     86  F   UNL A   1      47.822  26.158  27.319  1.00  0.00    -0.205 F 
ATOM     87  C   UNL A   1      45.531  27.504  24.848  1.00  0.00     0.022 A 
BRANCH  85  88
ATOM     88  S   UNL A   1      48.195  27.073  24.392  1.00  0.00     0.127 S 
ATOM     89  O   UNL A   1      49.047  28.047  25.078  1.00  0.00    -0.237 OA
ATOM     90  O   UNL A   1      48.666  25.694  24.491  1.00  0.00    -0.237 OA
ATOM     91  O   UNL A   1      47.767  27.493  23.062  1.00  0.00    -0.744 OA
ENDBRANCH  85  88
ENDBRANCH  58  81
ENDBRANCH  32  33
ENDBRANCH  24  27
ENDBRANCH  22  23
ENDBRANCH  21  22
ENDBRANCH   1  21
TORSDOF 17
ENDMDL
