MODEL 1
REMARK VINA RESULT:     -12.2      0.000      0.000
REMARK SMILES Cn1cc([C@@H]2CC(NCCCCNC(=O)c3ccc(-c4c5nc(c(-c6cccc(S(=O)(=O)[O-])c6F)c6ccc([nH]6)c(-c6cccc(S(=O)(=O)[O-])c6F)c6nc(c(-c7cccc(S(=O)(=O)[O-])c7F)c7ccc4[nH]7)C=C6)C=C5)cc3)=[NH+]c3c2sc(C(=O)[O-])c3-c2ccc(Cl)cc2)cn1
REMARK SMILES IDX 12 1 11 2 10 3 9 4 8 5 5 6 6 7 81 8 7 9 80 10 82 11 79 12
REMARK SMILES IDX 87 13 83 14 4 17 1 18 2 19 3 20 96 21 95 22 88 23 89 24
REMARK SMILES IDX 94 25 90 26 93 27 91 28 92 29 84 30 85 31 86 32 13 33 14 34
REMARK SMILES IDX 15 36 16 37 17 38 78 39 18 40 77 41 19 42 20 43 21 44 71 45
REMARK SMILES IDX 22 46 76 47 70 48 72 49 23 50 75 51 69 52 68 53 24 55 56 56
REMARK SMILES IDX 36 57 55 58 37 59 40 60 54 61 73 62 38 63 39 64 53 66 74 67
REMARK SMILES IDX 41 68 25 69 26 70 34 71 27 72 29 73 35 74 28 75 30 76 31 77
REMARK SMILES IDX 32 78 33 79 57 80 58 81 66 82 59 83 61 84 67 85 60 86 62 87
REMARK SMILES IDX 63 88 64 89 65 90 42 91 43 92 51 93 44 94 46 95 52 96 45 97
REMARK SMILES IDX 47 98 48 99 49 100 50 101
REMARK H PARENT 8 15 79 16 13 35 72 54 40 65
REMARK Flexibility Score: inf
ROOT
ATOM      1  C   UNL A   1      38.931  19.241  25.973  1.00  0.00     0.116 C 
ENDROOT
BRANCH   1   2
ATOM      2  C   UNL A   1      38.386  20.026  24.788  1.00  0.00     0.025 C 
BRANCH   2   3
ATOM      3  C   UNL A   1      38.035  21.488  25.092  1.00  0.00     0.048 C 
BRANCH   3   4
ATOM      4  C   UNL A   1      37.274  22.240  23.996  1.00  0.00     0.233 C 
BRANCH   4   5
ATOM      5  N   UNL A   1      36.928  23.587  24.419  1.00  0.00    -0.278 N 
ATOM      6  C   UNL A   1      34.197  25.827  25.955  1.00  0.00     0.079 C 
ATOM      7  C   UNL A   1      35.582  25.372  25.468  1.00  0.00     0.142 C 
ATOM      8  C   UNL A   1      33.258  24.669  26.009  1.00  0.00     0.061 A 
ATOM      9  C   UNL A   1      35.691  23.938  24.932  1.00  0.00     0.248 C 
ATOM     10  C   UNL A   1      33.533  23.415  25.551  1.00  0.00     0.147 A 
ATOM     11  S   UNL A   1      31.688  24.761  26.655  1.00  0.00    -0.133 S 
ATOM     12  N   UNL A   1      34.739  23.050  24.957  1.00  0.00    -0.243 N 
ATOM     13  C   UNL A   1      32.469  22.479  25.740  1.00  0.00     0.049 A 
ATOM     14  C   UNL A   1      31.357  23.098  26.311  1.00  0.00     0.062 A 
ATOM     15  H   UNL A   1      37.612  24.290  24.334  1.00  0.00     0.304 HD
ATOM     16  H   UNL A   1      34.865  22.154  24.568  1.00  0.00     0.312 HD
BRANCH   6  17
ATOM     17  C   UNL A   1      33.620  26.945  25.126  1.00  0.00    -0.001 A 
ATOM     18  C   UNL A   1      31.882  28.562  22.416  1.00  0.00     0.173 C 
ATOM     19  N   UNL A   1      32.604  28.142  23.591  1.00  0.00    -0.276 N 
ATOM     20  C   UNL A   1      33.107  26.902  23.844  1.00  0.00     0.112 A 
ATOM     21  N   UNL A   1      32.788  29.013  24.596  1.00  0.00    -0.182 NA
ATOM     22  C   UNL A   1      33.407  28.285  25.531  1.00  0.00     0.139 A 
ENDBRANCH   6  17
BRANCH  13  23
ATOM     23  C   UNL A   1      32.547  21.055  25.429  1.00  0.00    -0.012 A 
ATOM     24  C   UNL A   1      32.879  20.110  26.406  1.00  0.00     0.010 A 
ATOM     25  C   UNL A   1      32.263  20.627  24.123  1.00  0.00     0.010 A 
ATOM     26  C   UNL A   1      32.985  18.759  26.064  1.00  0.00     0.021 A 
ATOM     27  C   UNL A   1      32.356  19.277  23.785  1.00  0.00     0.021 A 
ATOM     28  C   UNL A   1      32.732  18.351  24.754  1.00  0.00     0.041 A 
ATOM     29  Cl  UNL A   1      32.891  16.689  24.334  1.00  0.00    -0.084 Cl
ENDBRANCH  13  23
BRANCH  14  30
ATOM     30  C   UNL A   1      30.041  22.620  26.674  1.00  0.00     0.082 C 
ATOM     31  O   UNL A   1      29.423  21.661  26.216  1.00  0.00    -0.544 OA
ATOM     32  O   UNL A   1      29.456  23.338  27.655  1.00  0.00    -0.544 OA
ENDBRANCH  14  30
ENDBRANCH   4   5
ENDBRANCH   3   4
ENDBRANCH   2   3
ENDBRANCH   1   2
BRANCH   1  33
ATOM     33  N   UNL A   1      40.302  18.768  25.772  1.00  0.00    -0.352 N 
ATOM     34  C   UNL A   1      41.460  19.528  25.771  1.00  0.00     0.251 C 
ATOM     35  H   UNL A   1      40.413  17.803  25.620  1.00  0.00     0.163 HD
ATOM     36  O   UNL A   1      42.477  19.129  25.215  1.00  0.00    -0.269 OA
BRANCH  34  37
ATOM     37  C   UNL A   1      41.447  20.826  26.467  1.00  0.00     0.039 A 
ATOM     38  C   UNL A   1      41.094  20.937  27.815  1.00  0.00     0.014 A 
ATOM     39  C   UNL A   1      41.847  21.944  25.740  1.00  0.00     0.014 A 
ATOM     40  C   UNL A   1      41.233  22.175  28.443  1.00  0.00     0.010 A 
ATOM     41  C   UNL A   1      42.140  23.111  26.395  1.00  0.00     0.010 A 
ATOM     42  C   UNL A   1      41.782  23.254  27.730  1.00  0.00    -0.014 A 
BRANCH  42  43
ATOM     43  C   UNL A   1      42.137  24.499  28.406  1.00  0.00     0.031 A 
ATOM     44  C   UNL A   1      41.169  25.602  28.158  1.00  0.00     0.074 A 
ATOM     45  C   UNL A   1      43.109  24.574  29.345  1.00  0.00     0.049 A 
ATOM     46  N   UNL A   1      41.355  26.674  27.461  1.00  0.00    -0.248 NA
ATOM     47  C   UNL A   1      39.769  25.406  28.576  1.00  0.00     0.031 C 
ATOM     48  C   UNL A   1      43.904  23.466  29.897  1.00  0.00     0.029 A 
ATOM     49  N   UNL A   1      43.494  25.626  30.121  1.00  0.00    -0.354 N 
ATOM     50  C   UNL A   1      40.185  27.415  27.607  1.00  0.00     0.074 A 
ATOM     51  C   UNL A   1      39.183  26.493  28.070  1.00  0.00     0.031 C 
ATOM     52  C   UNL A   1      44.461  23.845  31.068  1.00  0.00     0.029 A 
ATOM     53  C   UNL A   1      44.222  25.262  31.255  1.00  0.00     0.049 A 
ATOM     54  H   UNL A   1      43.279  26.562  29.900  1.00  0.00     0.167 HD
ATOM     55  C   UNL A   1      40.226  28.776  27.657  1.00  0.00     0.034 A 
ATOM     56  C   UNL A   1      44.577  26.057  32.293  1.00  0.00     0.034 A 
ATOM     57  C   UNL A   1      41.497  29.268  27.186  1.00  0.00     0.049 A 
ATOM     58  C   UNL A   1      44.499  27.450  31.815  1.00  0.00     0.074 A 
ATOM     59  C   UNL A   1      42.222  29.182  26.017  1.00  0.00     0.029 A 
ATOM     60  N   UNL A   1      42.380  29.642  28.167  1.00  0.00    -0.354 N 
ATOM     61  N   UNL A   1      45.283  27.941  30.898  1.00  0.00    -0.248 NA
ATOM     62  C   UNL A   1      43.276  28.194  32.061  1.00  0.00     0.031 C 
ATOM     63  C   UNL A   1      43.585  29.101  26.431  1.00  0.00     0.029 A 
ATOM     64  C   UNL A   1      43.633  29.219  27.822  1.00  0.00     0.049 A 
ATOM     65  H   UNL A   1      42.149  30.135  28.987  1.00  0.00     0.167 HD
ATOM     66  C   UNL A   1      44.448  28.744  30.136  1.00  0.00     0.074 A 
ATOM     67  C   UNL A   1      43.280  28.980  30.982  1.00  0.00     0.031 C 
ATOM     68  C   UNL A   1      44.653  28.880  28.792  1.00  0.00     0.034 A 
BRANCH  55  69
ATOM     69  C   UNL A   1      39.344  29.640  28.545  1.00  0.00     0.023 A 
ATOM     70  C   UNL A   1      39.674  29.690  29.920  1.00  0.00     0.012 A 
ATOM     71  C   UNL A   1      38.073  30.142  28.181  1.00  0.00     0.148 A 
ATOM     72  C   UNL A   1      38.766  30.151  30.881  1.00  0.00     0.002 A 
ATOM     73  C   UNL A   1      37.207  30.675  29.129  1.00  0.00     0.091 A 
ATOM     74  F   UNL A   1      37.617  29.988  26.937  1.00  0.00    -0.205 F 
ATOM     75  C   UNL A   1      37.532  30.650  30.484  1.00  0.00     0.022 A 
BRANCH  73  76
ATOM     76  S   UNL A   1      35.616  31.374  28.661  1.00  0.00     0.127 S 
ATOM     77  O   UNL A   1      34.935  30.206  28.113  1.00  0.00    -0.237 OA
ATOM     78  O   UNL A   1      35.109  31.842  29.951  1.00  0.00    -0.237 OA
ATOM     79  O   UNL A   1      35.918  32.442  27.716  1.00  0.00    -0.744 OA
ENDBRANCH  73  76
ENDBRANCH  55  69
BRANCH  56  80
ATOM     80  C   UNL A   1      44.778  25.742  33.727  1.00  0.00     0.023 A 
ATOM     81  C   UNL A   1      46.082  25.558  34.230  1.00  0.00     0.012 A 
ATOM     82  C   UNL A   1      43.724  25.917  34.650  1.00  0.00     0.148 A 
ATOM     83  C   UNL A   1      46.334  25.583  35.607  1.00  0.00     0.002 A 
ATOM     84  C   UNL A   1      43.979  25.941  36.018  1.00  0.00     0.091 A 
ATOM     85  F   UNL A   1      42.492  26.148  34.180  1.00  0.00    -0.205 F 
ATOM     86  C   UNL A   1      45.286  25.787  36.501  1.00  0.00     0.022 A 
BRANCH  84  87
ATOM     87  S   UNL A   1      42.686  26.235  37.235  1.00  0.00     0.127 S 
ATOM     88  O   UNL A   1      43.448  26.245  38.484  1.00  0.00    -0.237 OA
ATOM     89  O   UNL A   1      42.172  27.538  36.822  1.00  0.00    -0.237 OA
ATOM     90  O   UNL A   1      41.753  25.124  37.107  1.00  0.00    -0.744 OA
ENDBRANCH  84  87
ENDBRANCH  56  80
BRANCH  68  91
ATOM     91  C   UNL A   1      45.986  28.446  28.237  1.00  0.00     0.023 A 
ATOM     92  C   UNL A   1      47.152  29.236  28.319  1.00  0.00     0.012 A 
ATOM     93  C   UNL A   1      46.087  27.133  27.749  1.00  0.00     0.148 A 
ATOM     94  C   UNL A   1      48.387  28.729  27.901  1.00  0.00     0.002 A 
ATOM     95  C   UNL A   1      47.322  26.618  27.382  1.00  0.00     0.091 A 
ATOM     96  F   UNL A   1      44.966  26.398  27.676  1.00  0.00    -0.205 F 
ATOM     97  C   UNL A   1      48.474  27.414  27.446  1.00  0.00     0.022 A 
BRANCH  95  98
ATOM     98  S   UNL A   1      47.509  24.898  26.909  1.00  0.00     0.127 S 
ATOM     99  O   UNL A   1      47.102  24.922  25.506  1.00  0.00    -0.237 OA
ATOM    100  O   UNL A   1      48.937  24.665  27.129  1.00  0.00    -0.237 OA
ATOM    101  O   UNL A   1      46.640  24.140  27.801  1.00  0.00    -0.744 OA
ENDBRANCH  95  98
ENDBRANCH  68  91
ENDBRANCH  42  43
ENDBRANCH  34  37
ENDBRANCH   1  33
TORSDOF 16
ENDMDL
MODEL 2
REMARK VINA RESULT:     -12.0      3.077      8.039
REMARK SMILES Cn1cc([C@@H]2CC(NCCCCNC(=O)c3ccc(-c4c5nc(c(-c6cccc(S(=O)(=O)[O-])c6F)c6ccc([nH]6)c(-c6cccc(S(=O)(=O)[O-])c6F)c6nc(c(-c7cccc(S(=O)(=O)[O-])c7F)c7ccc4[nH]7)C=C6)C=C5)cc3)=[NH+]c3c2sc(C(=O)[O-])c3-c2ccc(Cl)cc2)cn1
REMARK SMILES IDX 12 1 11 2 10 3 9 4 8 5 5 6 6 7 81 8 7 9 80 10 82 11 79 12
REMARK SMILES IDX 87 13 83 14 4 17 1 18 2 19 3 20 96 21 95 22 88 23 89 24
REMARK SMILES IDX 94 25 90 26 93 27 91 28 92 29 84 30 85 31 86 32 13 33 14 34
REMARK SMILES IDX 15 36 16 37 17 38 78 39 18 40 77 41 19 42 20 43 21 44 71 45
REMARK SMILES IDX 22 46 76 47 70 48 72 49 23 50 75 51 69 52 68 53 24 55 56 56
REMARK SMILES IDX 36 57 55 58 37 59 40 60 54 61 73 62 38 63 39 64 53 66 74 67
REMARK SMILES IDX 41 68 25 69 26 70 34 71 27 72 29 73 35 74 28 75 30 76 31 77
REMARK SMILES IDX 32 78 33 79 57 80 58 81 66 82 59 83 61 84 67 85 60 86 62 87
REMARK SMILES IDX 63 88 64 89 65 90 42 91 43 92 51 93 44 94 46 95 52 96 45 97
REMARK SMILES IDX 47 98 48 99 49 100 50 101
REMARK H PARENT 8 15 79 16 13 35 72 54 40 65
REMARK Flexibility Score: inf
ROOT
ATOM      1  C   UNL A   1      36.179  32.404  28.661  1.00  0.00     0.116 C 
ENDROOT
BRANCH   1   2
ATOM      2  C   UNL A   1      35.389  31.324  27.935  1.00  0.00     0.025 C 
BRANCH   2   3
ATOM      3  C   UNL A   1      36.228  30.142  27.431  1.00  0.00     0.048 C 
BRANCH   3   4
ATOM      4  C   UNL A   1      35.448  28.963  26.843  1.00  0.00     0.233 C 
BRANCH   4   5
ATOM      5  N   UNL A   1      34.100  29.355  26.465  1.00  0.00    -0.278 N 
ATOM      6  C   UNL A   1      30.753  28.171  24.971  1.00  0.00     0.079 C 
ATOM      7  C   UNL A   1      31.769  29.061  25.706  1.00  0.00     0.142 C 
ATOM      8  C   UNL A   1      31.315  26.805  24.760  1.00  0.00     0.061 A 
ATOM      9  C   UNL A   1      33.185  28.497  25.880  1.00  0.00     0.248 C 
ATOM     10  C   UNL A   1      32.596  26.434  25.038  1.00  0.00     0.147 A 
ATOM     11  S   UNL A   1      30.417  25.507  24.127  1.00  0.00    -0.133 S 
ATOM     12  N   UNL A   1      33.563  27.294  25.552  1.00  0.00    -0.243 N 
ATOM     13  C   UNL A   1      32.876  25.059  24.763  1.00  0.00     0.049 A 
ATOM     14  C   UNL A   1      31.763  24.424  24.213  1.00  0.00     0.062 A 
ATOM     15  H   UNL A   1      33.823  30.284  26.633  1.00  0.00     0.304 HD
ATOM     16  H   UNL A   1      34.497  27.004  25.663  1.00  0.00     0.312 HD
BRANCH   6  17
ATOM     17  C   UNL A   1      30.286  28.765  23.668  1.00  0.00    -0.001 A 
ATOM     18  C   UNL A   1      28.158  30.522  21.353  1.00  0.00     0.173 C 
ATOM     19  N   UNL A   1      29.163  29.797  22.089  1.00  0.00    -0.276 N 
ATOM     20  C   UNL A   1      29.044  29.273  23.340  1.00  0.00     0.112 A 
ATOM     21  N   UNL A   1      30.382  29.634  21.550  1.00  0.00    -0.182 NA
ATOM     22  C   UNL A   1      31.067  29.006  22.511  1.00  0.00     0.139 A 
ENDBRANCH   6  17
BRANCH  13  23
ATOM     23  C   UNL A   1      34.138  24.390  25.064  1.00  0.00    -0.012 A 
ATOM     24  C   UNL A   1      34.421  23.905  26.346  1.00  0.00     0.010 A 
ATOM     25  C   UNL A   1      35.077  24.213  24.036  1.00  0.00     0.010 A 
ATOM     26  C   UNL A   1      35.657  23.306  26.609  1.00  0.00     0.021 A 
ATOM     27  C   UNL A   1      36.305  23.604  24.297  1.00  0.00     0.021 A 
ATOM     28  C   UNL A   1      36.595  23.167  25.587  1.00  0.00     0.041 A 
ATOM     29  Cl  UNL A   1      38.124  22.452  25.925  1.00  0.00    -0.084 Cl
ENDBRANCH  13  23
BRANCH  14  30
ATOM     30  C   UNL A   1      31.530  23.076  23.741  1.00  0.00     0.082 C 
ATOM     31  O   UNL A   1      31.865  22.572  22.671  1.00  0.00    -0.544 OA
ATOM     32  O   UNL A   1      30.867  22.301  24.625  1.00  0.00    -0.544 OA
ENDBRANCH  14  30
ENDBRANCH   4   5
ENDBRANCH   3   4
ENDBRANCH   2   3
ENDBRANCH   1   2
BRANCH   1  33
ATOM     33  N   UNL A   1      35.895  32.460  30.096  1.00  0.00    -0.352 N 
ATOM     34  C   UNL A   1      36.422  31.652  31.088  1.00  0.00     0.251 C 
ATOM     35  H   UNL A   1      35.257  33.151  30.388  1.00  0.00     0.163 HD
ATOM     36  O   UNL A   1      35.845  31.510  32.161  1.00  0.00    -0.269 OA
BRANCH  34  37
ATOM     37  C   UNL A   1      37.703  30.972  30.831  1.00  0.00     0.039 A 
ATOM     38  C   UNL A   1      38.907  31.676  30.736  1.00  0.00     0.014 A 
ATOM     39  C   UNL A   1      37.680  29.583  30.732  1.00  0.00     0.014 A 
ATOM     40  C   UNL A   1      40.096  30.956  30.625  1.00  0.00     0.010 A 
ATOM     41  C   UNL A   1      38.854  28.878  30.791  1.00  0.00     0.010 A 
ATOM     42  C   UNL A   1      40.062  29.553  30.679  1.00  0.00    -0.014 A 
BRANCH  42  43
ATOM     43  C   UNL A   1      41.295  28.774  30.778  1.00  0.00     0.031 A 
ATOM     44  C   UNL A   1      41.791  28.629  32.173  1.00  0.00     0.074 A 
ATOM     45  C   UNL A   1      41.799  28.064  29.742  1.00  0.00     0.049 A 
ATOM     46  N   UNL A   1      42.844  29.166  32.696  1.00  0.00    -0.248 NA
ATOM     47  C   UNL A   1      40.919  27.961  33.156  1.00  0.00     0.031 C 
ATOM     48  C   UNL A   1      41.201  27.880  28.410  1.00  0.00     0.029 A 
ATOM     49  N   UNL A   1      42.874  27.227  29.699  1.00  0.00    -0.354 N 
ATOM     50  C   UNL A   1      42.910  28.657  33.991  1.00  0.00     0.074 A 
ATOM     51  C   UNL A   1      41.599  28.148  34.289  1.00  0.00     0.031 C 
ATOM     52  C   UNL A   1      41.758  26.809  27.806  1.00  0.00     0.029 A 
ATOM     53  C   UNL A   1      42.868  26.347  28.615  1.00  0.00     0.049 A 
ATOM     54  H   UNL A   1      43.592  27.242  30.372  1.00  0.00     0.167 HD
ATOM     55  C   UNL A   1      44.114  28.397  34.574  1.00  0.00     0.034 A 
ATOM     56  C   UNL A   1      43.694  25.293  28.408  1.00  0.00     0.034 A 
ATOM     57  C   UNL A   1      45.184  29.040  33.851  1.00  0.00     0.049 A 
ATOM     58  C   UNL A   1      44.888  25.511  29.247  1.00  0.00     0.074 A 
ATOM     59  C   UNL A   1      45.510  30.335  33.507  1.00  0.00     0.029 A 
ATOM     60  N   UNL A   1      45.903  28.221  33.018  1.00  0.00    -0.354 N 
ATOM     61  N   UNL A   1      45.735  26.482  29.052  1.00  0.00    -0.248 NA
ATOM     62  C   UNL A   1      44.928  24.894  30.560  1.00  0.00     0.031 C 
ATOM     63  C   UNL A   1      46.089  30.238  32.207  1.00  0.00     0.029 A 
ATOM     64  C   UNL A   1      46.161  28.888  31.854  1.00  0.00     0.049 A 
ATOM     65  H   UNL A   1      46.188  27.302  33.225  1.00  0.00     0.167 HD
ATOM     66  C   UNL A   1      46.056  26.908  30.332  1.00  0.00     0.074 A 
ATOM     67  C   UNL A   1      45.657  25.807  31.206  1.00  0.00     0.031 C 
ATOM     68  C   UNL A   1      46.327  28.224  30.577  1.00  0.00     0.034 A 
BRANCH  55  69
ATOM     69  C   UNL A   1      44.401  27.214  35.485  1.00  0.00     0.023 A 
ATOM     70  C   UNL A   1      45.054  27.492  36.709  1.00  0.00     0.012 A 
ATOM     71  C   UNL A   1      44.347  25.856  35.092  1.00  0.00     0.148 A 
ATOM     72  C   UNL A   1      45.674  26.486  37.461  1.00  0.00     0.002 A 
ATOM     73  C   UNL A   1      44.893  24.851  35.883  1.00  0.00     0.091 A 
ATOM     74  F   UNL A   1      43.895  25.521  33.883  1.00  0.00    -0.205 F 
ATOM     75  C   UNL A   1      45.588  25.162  37.050  1.00  0.00     0.022 A 
BRANCH  73  76
ATOM     76  S   UNL A   1      44.769  23.118  35.417  1.00  0.00     0.127 S 
ATOM     77  O   UNL A   1      45.264  22.457  36.621  1.00  0.00    -0.237 OA
ATOM     78  O   UNL A   1      43.333  22.979  35.176  1.00  0.00    -0.237 OA
ATOM     79  O   UNL A   1      45.591  22.972  34.222  1.00  0.00    -0.744 OA
ENDBRANCH  73  76
ENDBRANCH  55  69
BRANCH  56  80
ATOM     80  C   UNL A   1      43.462  24.006  27.713  1.00  0.00     0.023 A 
ATOM     81  C   UNL A   1      42.206  23.374  27.803  1.00  0.00     0.012 A 
ATOM     82  C   UNL A   1      44.368  23.553  26.729  1.00  0.00     0.148 A 
ATOM     83  C   UNL A   1      41.848  22.349  26.919  1.00  0.00     0.002 A 
ATOM     84  C   UNL A   1      44.008  22.534  25.852  1.00  0.00     0.091 A 
ATOM     85  F   UNL A   1      45.543  24.184  26.600  1.00  0.00    -0.205 F 
ATOM     86  C   UNL A   1      42.743  21.938  25.935  1.00  0.00     0.022 A 
BRANCH  84  87
ATOM     87  S   UNL A   1      45.094  21.971  24.531  1.00  0.00     0.127 S 
ATOM     88  O   UNL A   1      46.288  21.572  25.277  1.00  0.00    -0.237 OA
ATOM     89  O   UNL A   1      44.330  20.864  23.962  1.00  0.00    -0.237 OA
ATOM     90  O   UNL A   1      45.287  23.117  23.652  1.00  0.00    -0.744 OA
ENDBRANCH  84  87
ENDBRANCH  56  80
BRANCH  68  91
ATOM     91  C   UNL A   1      46.624  29.113  29.395  1.00  0.00     0.023 A 
ATOM     92  C   UNL A   1      47.875  29.142  28.744  1.00  0.00     0.012 A 
ATOM     93  C   UNL A   1      45.551  29.830  28.840  1.00  0.00     0.148 A 
ATOM     94  C   UNL A   1      48.053  29.890  27.575  1.00  0.00     0.002 A 
ATOM     95  C   UNL A   1      45.719  30.530  27.654  1.00  0.00     0.091 A 
ATOM     96  F   UNL A   1      44.369  29.792  29.476  1.00  0.00    -0.205 F 
ATOM     97  C   UNL A   1      46.970  30.573  27.023  1.00  0.00     0.022 A 
BRANCH  95  98
ATOM     98  S   UNL A   1      44.332  31.321  26.836  1.00  0.00     0.127 S 
ATOM     99  O   UNL A   1      44.974  31.947  25.684  1.00  0.00    -0.237 OA
ATOM    100  O   UNL A   1      43.469  30.184  26.514  1.00  0.00    -0.237 OA
ATOM    101  O   UNL A   1      43.762  32.240  27.814  1.00  0.00    -0.744 OA
ENDBRANCH  95  98
ENDBRANCH  68  91
ENDBRANCH  42  43
ENDBRANCH  34  37
ENDBRANCH   1  33
TORSDOF 16
ENDMDL
MODEL 3
REMARK VINA RESULT:     -11.8      3.535      8.405
REMARK SMILES Cn1cc([C@@H]2CC(NCCCCNC(=O)c3ccc(-c4c5nc(c(-c6cccc(S(=O)(=O)[O-])c6F)c6ccc([nH]6)c(-c6cccc(S(=O)(=O)[O-])c6F)c6nc(c(-c7cccc(S(=O)(=O)[O-])c7F)c7ccc4[nH]7)C=C6)C=C5)cc3)=[NH+]c3c2sc(C(=O)[O-])c3-c2ccc(Cl)cc2)cn1
REMARK SMILES IDX 12 1 11 2 10 3 9 4 8 5 5 6 6 7 81 8 7 9 80 10 82 11 79 12
REMARK SMILES IDX 87 13 83 14 4 17 1 18 2 19 3 20 96 21 95 22 88 23 89 24
REMARK SMILES IDX 94 25 90 26 93 27 91 28 92 29 84 30 85 31 86 32 13 33 14 34
REMARK SMILES IDX 15 36 16 37 17 38 78 39 18 40 77 41 19 42 20 43 21 44 71 45
REMARK SMILES IDX 22 46 76 47 70 48 72 49 23 50 75 51 69 52 68 53 24 55 56 56
REMARK SMILES IDX 36 57 55 58 37 59 40 60 54 61 73 62 38 63 39 64 53 66 74 67
REMARK SMILES IDX 41 68 25 69 26 70 34 71 27 72 29 73 35 74 28 75 30 76 31 77
REMARK SMILES IDX 32 78 33 79 57 80 58 81 66 82 59 83 61 84 67 85 60 86 62 87
REMARK SMILES IDX 63 88 64 89 65 90 42 91 43 92 51 93 44 94 46 95 52 96 45 97
REMARK SMILES IDX 47 98 48 99 49 100 50 101
REMARK H PARENT 8 15 79 16 13 35 72 54 40 65
REMARK Flexibility Score: inf
ROOT
ATOM      1  C   UNL A   1      34.266  32.075  27.761  1.00  0.00     0.116 C 
ENDROOT
BRANCH   1   2
ATOM      2  C   UNL A   1      33.852  30.623  27.561  1.00  0.00     0.025 C 
BRANCH   2   3
ATOM      3  C   UNL A   1      32.370  30.419  27.219  1.00  0.00     0.048 C 
BRANCH   3   4
ATOM      4  C   UNL A   1      31.794  29.033  27.521  1.00  0.00     0.233 C 
BRANCH   4   5
ATOM      5  N   UNL A   1      32.823  28.008  27.472  1.00  0.00    -0.278 N 
ATOM      6  C   UNL A   1      34.617  25.416  25.260  1.00  0.00     0.079 C 
ATOM      7  C   UNL A   1      34.333  26.339  26.455  1.00  0.00     0.142 C 
ATOM      8  C   UNL A   1      33.733  25.765  24.110  1.00  0.00     0.061 A 
ATOM      9  C   UNL A   1      33.105  27.254  26.347  1.00  0.00     0.248 C 
ATOM     10  C   UNL A   1      32.714  26.668  24.152  1.00  0.00     0.147 A 
ATOM     11  S   UNL A   1      33.876  25.065  22.567  1.00  0.00    -0.133 S 
ATOM     12  N   UNL A   1      32.354  27.384  25.291  1.00  0.00    -0.243 N 
ATOM     13  C   UNL A   1      32.031  26.834  22.907  1.00  0.00     0.049 A 
ATOM     14  C   UNL A   1      32.547  25.974  21.938  1.00  0.00     0.062 A 
ATOM     15  H   UNL A   1      33.350  27.840  28.288  1.00  0.00     0.304 HD
ATOM     16  H   UNL A   1      31.560  27.967  25.298  1.00  0.00     0.312 HD
BRANCH   6  17
ATOM     17  C   UNL A   1      34.496  23.955  25.605  1.00  0.00    -0.001 A 
ATOM     18  C   UNL A   1      33.062  20.654  25.771  1.00  0.00     0.173 C 
ATOM     19  N   UNL A   1      33.826  21.874  25.822  1.00  0.00    -0.276 N 
ATOM     20  C   UNL A   1      33.395  23.126  25.504  1.00  0.00     0.112 A 
ATOM     21  N   UNL A   1      35.123  21.824  26.168  1.00  0.00    -0.182 NA
ATOM     22  C   UNL A   1      35.532  23.090  26.036  1.00  0.00     0.139 A 
ENDBRANCH   6  17
BRANCH  13  23
ATOM     23  C   UNL A   1      30.972  27.808  22.661  1.00  0.00    -0.012 A 
ATOM     24  C   UNL A   1      29.645  27.553  23.027  1.00  0.00     0.010 A 
ATOM     25  C   UNL A   1      31.299  29.034  22.063  1.00  0.00     0.010 A 
ATOM     26  C   UNL A   1      28.649  28.491  22.740  1.00  0.00     0.021 A 
ATOM     27  C   UNL A   1      30.306  29.975  21.788  1.00  0.00     0.021 A 
ATOM     28  C   UNL A   1      28.983  29.691  22.115  1.00  0.00     0.041 A 
ATOM     29  Cl  UNL A   1      27.746  30.830  21.740  1.00  0.00    -0.084 Cl
ENDBRANCH  13  23
BRANCH  14  30
ATOM     30  C   UNL A   1      32.203  25.729  20.554  1.00  0.00     0.082 C 
ATOM     31  O   UNL A   1      31.134  25.937  19.983  1.00  0.00    -0.544 OA
ATOM     32  O   UNL A   1      33.218  25.218  19.827  1.00  0.00    -0.544 OA
ENDBRANCH  14  30
ENDBRANCH   4   5
ENDBRANCH   3   4
ENDBRANCH   2   3
ENDBRANCH   1   2
BRANCH   1  33
ATOM     33  N   UNL A   1      34.208  32.505  29.160  1.00  0.00    -0.352 N 
ATOM     34  C   UNL A   1      34.993  32.057  30.208  1.00  0.00     0.251 C 
ATOM     35  H   UNL A   1      33.535  33.188  29.379  1.00  0.00     0.163 HD
ATOM     36  O   UNL A   1      34.620  32.169  31.370  1.00  0.00    -0.269 OA
BRANCH  34  37
ATOM     37  C   UNL A   1      36.300  31.452  29.896  1.00  0.00     0.039 A 
ATOM     38  C   UNL A   1      37.430  32.231  29.633  1.00  0.00     0.014 A 
ATOM     39  C   UNL A   1      36.381  30.062  29.919  1.00  0.00     0.014 A 
ATOM     40  C   UNL A   1      38.660  31.593  29.478  1.00  0.00     0.010 A 
ATOM     41  C   UNL A   1      37.609  29.453  29.933  1.00  0.00     0.010 A 
ATOM     42  C   UNL A   1      38.745  30.202  29.656  1.00  0.00    -0.014 A 
BRANCH  42  43
ATOM     43  C   UNL A   1      40.041  29.529  29.710  1.00  0.00     0.031 A 
ATOM     44  C   UNL A   1      40.554  29.346  31.095  1.00  0.00     0.074 A 
ATOM     45  C   UNL A   1      40.600  28.925  28.636  1.00  0.00     0.049 A 
ATOM     46  N   UNL A   1      41.558  29.941  31.649  1.00  0.00    -0.248 NA
ATOM     47  C   UNL A   1      39.747  28.549  32.036  1.00  0.00     0.031 C 
ATOM     48  C   UNL A   1      40.015  28.769  27.294  1.00  0.00     0.029 A 
ATOM     49  N   UNL A   1      41.743  28.189  28.544  1.00  0.00    -0.354 N 
ATOM     50  C   UNL A   1      41.674  29.365  32.912  1.00  0.00     0.074 A 
ATOM     51  C   UNL A   1      40.412  28.729  33.179  1.00  0.00     0.031 C 
ATOM     52  C   UNL A   1      40.660  27.786  26.629  1.00  0.00     0.029 A 
ATOM     53  C   UNL A   1      41.809  27.376  27.411  1.00  0.00     0.049 A 
ATOM     54  H   UNL A   1      42.460  28.227  29.218  1.00  0.00     0.167 HD
ATOM     55  C   UNL A   1      42.898  29.177  33.480  1.00  0.00     0.034 A 
ATOM     56  C   UNL A   1      42.722  26.411  27.144  1.00  0.00     0.034 A 
ATOM     57  C   UNL A   1      43.905  29.951  32.797  1.00  0.00     0.049 A 
ATOM     58  C   UNL A   1      43.896  26.683  27.995  1.00  0.00     0.074 A 
ATOM     59  C   UNL A   1      44.116  31.286  32.530  1.00  0.00     0.029 A 
ATOM     60  N   UNL A   1      44.689  29.247  31.919  1.00  0.00    -0.354 N 
ATOM     61  N   UNL A   1      44.656  27.732  27.858  1.00  0.00    -0.248 NA
ATOM     62  C   UNL A   1      43.995  25.996  29.270  1.00  0.00     0.031 C 
ATOM     63  C   UNL A   1      44.697  31.316  31.226  1.00  0.00     0.029 A 
ATOM     64  C   UNL A   1      44.884  30.000  30.795  1.00  0.00     0.049 A 
ATOM     65  H   UNL A   1      45.053  28.345  32.072  1.00  0.00     0.167 HD
ATOM     66  C   UNL A   1      44.943  28.110  29.161  1.00  0.00     0.074 A 
ATOM     67  C   UNL A   1      44.645  26.929  29.969  1.00  0.00     0.031 C 
ATOM     68  C   UNL A   1      45.101  29.428  29.482  1.00  0.00     0.034 A 
BRANCH  55  69
ATOM     69  C   UNL A   1      43.289  27.972  34.322  1.00  0.00     0.023 A 
ATOM     70  C   UNL A   1      43.831  28.234  35.602  1.00  0.00     0.012 A 
ATOM     71  C   UNL A   1      43.440  26.654  33.829  1.00  0.00     0.148 A 
ATOM     72  C   UNL A   1      44.537  27.260  36.319  1.00  0.00     0.002 A 
ATOM     73  C   UNL A   1      44.070  25.668  34.581  1.00  0.00     0.091 A 
ATOM     74  F   UNL A   1      43.104  26.361  32.573  1.00  0.00    -0.205 F 
ATOM     75  C   UNL A   1      44.652  25.973  35.810  1.00  0.00     0.022 A 
BRANCH  73  76
ATOM     76  S   UNL A   1      44.206  23.976  33.985  1.00  0.00     0.127 S 
ATOM     77  O   UNL A   1      45.295  23.464  34.810  1.00  0.00    -0.237 OA
ATOM     78  O   UNL A   1      42.880  23.445  34.303  1.00  0.00    -0.237 OA
ATOM     79  O   UNL A   1      44.478  24.082  32.557  1.00  0.00    -0.744 OA
ENDBRANCH  73  76
ENDBRANCH  55  69
BRANCH  56  80
ATOM     80  C   UNL A   1      42.599  25.151  26.375  1.00  0.00     0.023 A 
ATOM     81  C   UNL A   1      43.603  24.787  25.456  1.00  0.00     0.012 A 
ATOM     82  C   UNL A   1      41.658  24.170  26.759  1.00  0.00     0.148 A 
ATOM     83  C   UNL A   1      43.690  23.480  24.961  1.00  0.00     0.002 A 
ATOM     84  C   UNL A   1      41.747  22.872  26.264  1.00  0.00     0.091 A 
ATOM     85  F   UNL A   1      40.734  24.492  27.674  1.00  0.00    -0.205 F 
ATOM     86  C   UNL A   1      42.771  22.520  25.374  1.00  0.00     0.022 A 
BRANCH  84  87
ATOM     87  S   UNL A   1      40.622  21.566  26.777  1.00  0.00     0.127 S 
ATOM     88  O   UNL A   1      39.343  22.052  26.257  1.00  0.00    -0.237 OA
ATOM     89  O   UNL A   1      41.164  20.405  26.077  1.00  0.00    -0.237 OA
ATOM     90  O   UNL A   1      40.700  21.514  28.231  1.00  0.00    -0.744 OA
ENDBRANCH  84  87
ENDBRANCH  56  80
BRANCH  68  91
ATOM     91  C   UNL A   1      45.315  30.406  28.354  1.00  0.00     0.023 A 
ATOM     92  C   UNL A   1      44.259  31.054  27.681  1.00  0.00     0.012 A 
ATOM     93  C   UNL A   1      46.637  30.787  28.071  1.00  0.00     0.148 A 
ATOM     94  C   UNL A   1      44.522  32.046  26.730  1.00  0.00     0.002 A 
ATOM     95  C   UNL A   1      46.891  31.805  27.165  1.00  0.00     0.091 A 
ATOM     96  F   UNL A   1      47.629  30.157  28.721  1.00  0.00    -0.205 F 
ATOM     97  C   UNL A   1      45.838  32.431  26.482  1.00  0.00     0.022 A 
BRANCH  95  98
ATOM     98  S   UNL A   1      48.555  32.424  26.902  1.00  0.00     0.127 S 
ATOM     99  O   UNL A   1      48.886  32.973  28.215  1.00  0.00    -0.237 OA
ATOM    100  O   UNL A   1      49.288  31.209  26.543  1.00  0.00    -0.237 OA
ATOM    101  O   UNL A   1      48.454  33.398  25.822  1.00  0.00    -0.744 OA
ENDBRANCH  95  98
ENDBRANCH  68  91
ENDBRANCH  42  43
ENDBRANCH  34  37
ENDBRANCH   1  33
TORSDOF 16
ENDMDL
