MODEL 1
REMARK VINA RESULT:     -12.4      0.000      0.000
REMARK SMILES C[C@@H](C(=O)NCCCCNC(=O)c1ccc(-c2c3nc(c(-c4cccc(S(=O)(=O)[O-])c4F)c4ccc([nH]4)c(-c4cccc(S(=O)(=O)[O-])c4F)c4nc(c(-c5cccc(S(=O)(=O)[O-])c5F)c5ccc2[nH]5)C=C4)C=C3)cc1)c1ccc(C[C@H]2CCCC2=O)cc1Br
REMARK SMILES IDX 7 1 6 2 5 3 3 4 4 5 2 7 1 8 76 9 77 10 88 11 78 12 87 13
REMARK SMILES IDX 89 14 79 15 80 16 81 17 82 18 85 19 83 20 84 21 86 22 8 23
REMARK SMILES IDX 9 24 10 25 11 26 12 28 13 29 14 30 75 31 15 32 74 33 16 34
REMARK SMILES IDX 17 35 18 36 68 37 19 38 73 39 67 40 69 41 20 42 72 43 66 44
REMARK SMILES IDX 65 45 21 47 53 48 33 49 52 50 34 51 37 52 51 53 70 54 35 55
REMARK SMILES IDX 36 56 50 58 71 59 38 60 22 61 23 62 31 63 24 64 26 65 32 66
REMARK SMILES IDX 25 67 27 68 28 69 29 70 30 71 54 72 55 73 63 74 56 75 58 76
REMARK SMILES IDX 64 77 57 78 59 79 60 80 61 81 62 82 39 83 40 84 48 85 41 86
REMARK SMILES IDX 43 87 49 88 42 89 44 90 45 91 46 92 47 93
REMARK H PARENT 5 6 10 27 69 46 37 57
REMARK Flexibility Score: inf
ROOT
ATOM      1  C   UNL A   1      35.395  23.459  26.022  1.00  0.00     0.023 C 
ENDROOT
BRANCH   1   2
ATOM      2  C   UNL A   1      34.857  24.568  25.118  1.00  0.00     0.116 C 
BRANCH   2   3
ATOM      3  N   UNL A   1      33.996  25.483  25.838  1.00  0.00    -0.356 N 
ATOM      4  C   UNL A   1      32.681  25.797  25.659  1.00  0.00     0.227 C 
ATOM      5  O   UNL A   1      32.171  26.522  26.515  1.00  0.00    -0.274 OA
ATOM      6  H   UNL A   1      34.433  25.957  26.582  1.00  0.00     0.163 HD
BRANCH   4   7
ATOM      7  C   UNL A   1      31.875  25.175  24.505  1.00  0.00     0.106 C 
ATOM      8  C   UNL A   1      30.403  25.597  24.426  1.00  0.00     0.023 C 
BRANCH   7   9
ATOM      9  C   UNL A   1      31.991  23.648  24.456  1.00  0.00    -0.022 A 
ATOM     10  C   UNL A   1      31.539  22.928  25.580  1.00  0.00     0.006 A 
ATOM     11  C   UNL A   1      32.530  22.913  23.383  1.00  0.00     0.022 A 
ATOM     12  C   UNL A   1      31.662  21.538  25.654  1.00  0.00     0.004 A 
ATOM     13  C   UNL A   1      32.664  21.520  23.469  1.00  0.00     0.019 A 
ATOM     14  Br  UNL A   1      33.131  23.691  21.755  1.00  0.00    -0.051 Br
ATOM     15  C   UNL A   1      32.258  20.825  24.614  1.00  0.00    -0.046 A 
BRANCH  15  16
ATOM     16  C   UNL A   1      32.495  19.339  24.725  1.00  0.00     0.047 C 
BRANCH  16  17
ATOM     17  C   UNL A   1      33.647  18.782  23.878  1.00  0.00     0.060 C 
ATOM     18  C   UNL A   1      34.859  18.234  24.640  1.00  0.00     0.012 C 
ATOM     19  C   UNL A   1      33.231  17.587  23.051  1.00  0.00     0.136 C 
ATOM     20  C   UNL A   1      34.664  16.725  24.723  1.00  0.00     0.009 C 
ATOM     21  C   UNL A   1      33.980  16.335  23.421  1.00  0.00     0.076 C 
ATOM     22  O   UNL A   1      32.394  17.634  22.157  1.00  0.00    -0.299 OA
ENDBRANCH  16  17
ENDBRANCH  15  16
ENDBRANCH   7   9
ENDBRANCH   4   7
ENDBRANCH   2   3
ENDBRANCH   1   2
BRANCH   1  23
ATOM     23  C   UNL A   1      35.781  22.166  25.296  1.00  0.00     0.023 C 
BRANCH  23  24
ATOM     24  C   UNL A   1      37.168  22.152  24.662  1.00  0.00     0.116 C 
BRANCH  24  25
ATOM     25  N   UNL A   1      37.964  20.996  25.052  1.00  0.00    -0.352 N 
ATOM     26  C   UNL A   1      39.085  20.950  25.846  1.00  0.00     0.251 C 
ATOM     27  H   UNL A   1      37.657  20.130  24.699  1.00  0.00     0.163 HD
ATOM     28  O   UNL A   1      39.700  19.896  25.988  1.00  0.00    -0.269 OA
BRANCH  26  29
ATOM     29  C   UNL A   1      39.567  22.185  26.498  1.00  0.00     0.039 A 
ATOM     30  C   UNL A   1      40.565  22.090  27.472  1.00  0.00     0.014 A 
ATOM     31  C   UNL A   1      39.074  23.434  26.109  1.00  0.00     0.014 A 
ATOM     32  C   UNL A   1      41.138  23.255  27.989  1.00  0.00     0.010 A 
ATOM     33  C   UNL A   1      39.683  24.592  26.586  1.00  0.00     0.010 A 
ATOM     34  C   UNL A   1      40.735  24.513  27.512  1.00  0.00    -0.014 A 
BRANCH  34  35
ATOM     35  C   UNL A   1      41.452  25.756  27.895  1.00  0.00     0.031 A 
ATOM     36  C   UNL A   1      40.731  26.867  28.605  1.00  0.00     0.074 A 
ATOM     37  C   UNL A   1      42.720  25.937  27.470  1.00  0.00     0.049 A 
ATOM     38  N   UNL A   1      41.162  28.064  28.909  1.00  0.00    -0.248 NA
ATOM     39  C   UNL A   1      39.337  26.611  29.003  1.00  0.00     0.031 C 
ATOM     40  C   UNL A   1      43.497  24.968  26.693  1.00  0.00     0.029 A 
ATOM     41  N   UNL A   1      43.561  27.018  27.585  1.00  0.00    -0.354 N 
ATOM     42  C   UNL A   1      40.085  28.720  29.492  1.00  0.00     0.074 A 
ATOM     43  C   UNL A   1      38.975  27.791  29.493  1.00  0.00     0.031 C 
ATOM     44  C   UNL A   1      44.687  25.506  26.380  1.00  0.00     0.029 A 
ATOM     45  C   UNL A   1      44.749  26.865  26.908  1.00  0.00     0.049 A 
ATOM     46  H   UNL A   1      43.334  27.824  28.103  1.00  0.00     0.167 HD
ATOM     47  C   UNL A   1      40.034  29.974  29.996  1.00  0.00     0.034 A 
ATOM     48  C   UNL A   1      45.764  27.729  26.709  1.00  0.00     0.034 A 
ATOM     49  C   UNL A   1      41.157  30.871  30.050  1.00  0.00     0.049 A 
ATOM     50  C   UNL A   1      45.690  29.102  27.321  1.00  0.00     0.074 A 
ATOM     51  C   UNL A   1      41.241  32.102  30.678  1.00  0.00     0.029 A 
ATOM     52  N   UNL A   1      42.380  30.647  29.443  1.00  0.00    -0.354 N 
ATOM     53  N   UNL A   1      44.740  29.625  28.057  1.00  0.00    -0.248 NA
ATOM     54  C   UNL A   1      46.839  29.993  27.100  1.00  0.00     0.031 C 
ATOM     55  C   UNL A   1      42.511  32.632  30.429  1.00  0.00     0.029 A 
ATOM     56  C   UNL A   1      43.219  31.727  29.656  1.00  0.00     0.049 A 
ATOM     57  H   UNL A   1      42.619  29.838  28.934  1.00  0.00     0.167 HD
ATOM     58  C   UNL A   1      45.185  30.895  28.404  1.00  0.00     0.074 A 
ATOM     59  C   UNL A   1      46.502  31.052  27.824  1.00  0.00     0.031 C 
ATOM     60  C   UNL A   1      44.548  31.853  29.120  1.00  0.00     0.034 A 
BRANCH  47  61
ATOM     61  C   UNL A   1      38.738  30.445  30.598  1.00  0.00     0.023 A 
ATOM     62  C   UNL A   1      38.533  30.314  31.986  1.00  0.00     0.012 A 
ATOM     63  C   UNL A   1      37.778  31.112  29.814  1.00  0.00     0.148 A 
ATOM     64  C   UNL A   1      37.385  30.827  32.584  1.00  0.00     0.002 A 
ATOM     65  C   UNL A   1      36.651  31.652  30.422  1.00  0.00     0.091 A 
ATOM     66  F   UNL A   1      37.987  31.209  28.493  1.00  0.00    -0.205 F 
ATOM     67  C   UNL A   1      36.450  31.506  31.806  1.00  0.00     0.022 A 
BRANCH  65  68
ATOM     68  S   UNL A   1      35.422  32.605  29.522  1.00  0.00     0.127 S 
ATOM     69  O   UNL A   1      36.216  33.741  29.056  1.00  0.00    -0.237 OA
ATOM     70  O   UNL A   1      35.019  31.671  28.470  1.00  0.00    -0.237 OA
ATOM     71  O   UNL A   1      34.379  32.929  30.483  1.00  0.00    -0.744 OA
ENDBRANCH  65  68
ENDBRANCH  47  61
BRANCH  48  72
ATOM     72  C   UNL A   1      46.961  27.309  25.927  1.00  0.00     0.023 A 
ATOM     73  C   UNL A   1      47.930  26.486  26.533  1.00  0.00     0.012 A 
ATOM     74  C   UNL A   1      47.137  27.701  24.585  1.00  0.00     0.148 A 
ATOM     75  C   UNL A   1      49.068  26.091  25.830  1.00  0.00     0.002 A 
ATOM     76  C   UNL A   1      48.246  27.258  23.874  1.00  0.00     0.091 A 
ATOM     77  F   UNL A   1      46.218  28.503  24.028  1.00  0.00    -0.205 F 
ATOM     78  C   UNL A   1      49.221  26.466  24.498  1.00  0.00     0.022 A 
BRANCH  76  79
ATOM     79  S   UNL A   1      48.431  27.589  22.117  1.00  0.00     0.127 S 
ATOM     80  O   UNL A   1      49.565  28.508  22.101  1.00  0.00    -0.237 OA
ATOM     81  O   UNL A   1      48.709  26.257  21.576  1.00  0.00    -0.237 OA
ATOM     82  O   UNL A   1      47.147  28.139  21.701  1.00  0.00    -0.744 OA
ENDBRANCH  76  79
ENDBRANCH  48  72
BRANCH  60  83
ATOM     83  C   UNL A   1      45.262  33.162  29.328  1.00  0.00     0.023 A 
ATOM     84  C   UNL A   1      46.083  33.327  30.460  1.00  0.00     0.012 A 
ATOM     85  C   UNL A   1      45.189  34.190  28.368  1.00  0.00     0.148 A 
ATOM     86  C   UNL A   1      46.805  34.505  30.645  1.00  0.00     0.002 A 
ATOM     87  C   UNL A   1      45.946  35.343  28.537  1.00  0.00     0.091 A 
ATOM     88  F   UNL A   1      44.386  34.020  27.307  1.00  0.00    -0.205 F 
ATOM     89  C   UNL A   1      46.747  35.507  29.678  1.00  0.00     0.022 A 
BRANCH  87  90
ATOM     90  S   UNL A   1      46.002  36.647  27.302  1.00  0.00     0.127 S 
ATOM     91  O   UNL A   1      44.617  37.117  27.299  1.00  0.00    -0.237 OA
ATOM     92  O   UNL A   1      46.963  37.586  27.883  1.00  0.00    -0.237 OA
ATOM     93  O   UNL A   1      46.448  36.012  26.069  1.00  0.00    -0.744 OA
ENDBRANCH  87  90
ENDBRANCH  60  83
ENDBRANCH  34  35
ENDBRANCH  26  29
ENDBRANCH  24  25
ENDBRANCH  23  24
ENDBRANCH   1  23
TORSDOF 17
ENDMDL
MODEL 2
REMARK VINA RESULT:     -12.3      5.915     11.168
REMARK SMILES C[C@@H](C(=O)NCCCCNC(=O)c1ccc(-c2c3nc(c(-c4cccc(S(=O)(=O)[O-])c4F)c4ccc([nH]4)c(-c4cccc(S(=O)(=O)[O-])c4F)c4nc(c(-c5cccc(S(=O)(=O)[O-])c5F)c5ccc2[nH]5)C=C4)C=C3)cc1)c1ccc(C[C@H]2CCCC2=O)cc1Br
REMARK SMILES IDX 7 1 6 2 5 3 3 4 4 5 2 7 1 8 76 9 77 10 88 11 78 12 87 13
REMARK SMILES IDX 89 14 79 15 80 16 81 17 82 18 85 19 83 20 84 21 86 22 8 23
REMARK SMILES IDX 9 24 10 25 11 26 12 28 13 29 14 30 75 31 15 32 74 33 16 34
REMARK SMILES IDX 17 35 18 36 68 37 19 38 73 39 67 40 69 41 20 42 72 43 66 44
REMARK SMILES IDX 65 45 21 47 53 48 33 49 52 50 34 51 37 52 51 53 70 54 35 55
REMARK SMILES IDX 36 56 50 58 71 59 38 60 22 61 23 62 31 63 24 64 26 65 32 66
REMARK SMILES IDX 25 67 27 68 28 69 29 70 30 71 54 72 55 73 63 74 56 75 58 76
REMARK SMILES IDX 64 77 57 78 59 79 60 80 61 81 62 82 39 83 40 84 48 85 41 86
REMARK SMILES IDX 43 87 49 88 42 89 44 90 45 91 46 92 47 93
REMARK H PARENT 5 6 10 27 69 46 37 57
REMARK Flexibility Score: inf
ROOT
ATOM      1  C   UNL A   1      31.702  28.677  27.458  1.00  0.00     0.023 C 
ENDROOT
BRANCH   1   2
ATOM      2  C   UNL A   1      31.503  27.362  26.704  1.00  0.00     0.116 C 
BRANCH   2   3
ATOM      3  N   UNL A   1      32.716  26.927  26.046  1.00  0.00    -0.356 N 
ATOM      4  C   UNL A   1      32.906  26.298  24.851  1.00  0.00     0.227 C 
ATOM      5  O   UNL A   1      34.074  26.165  24.482  1.00  0.00    -0.274 OA
ATOM      6  H   UNL A   1      33.543  27.117  26.544  1.00  0.00     0.163 HD
BRANCH   4   7
ATOM      7  C   UNL A   1      31.706  25.889  23.979  1.00  0.00     0.106 C 
ATOM      8  C   UNL A   1      32.016  24.900  22.849  1.00  0.00     0.023 C 
BRANCH   7   9
ATOM      9  C   UNL A   1      30.934  27.094  23.430  1.00  0.00    -0.022 A 
ATOM     10  C   UNL A   1      29.532  27.087  23.581  1.00  0.00     0.006 A 
ATOM     11  C   UNL A   1      31.514  28.195  22.774  1.00  0.00     0.022 A 
ATOM     12  C   UNL A   1      28.736  28.109  23.059  1.00  0.00     0.004 A 
ATOM     13  C   UNL A   1      30.709  29.211  22.239  1.00  0.00     0.019 A 
ATOM     14  Br  UNL A   1      33.385  28.424  22.530  1.00  0.00    -0.051 Br
ATOM     15  C   UNL A   1      29.315  29.164  22.351  1.00  0.00    -0.046 A 
BRANCH  15  16
ATOM     16  C   UNL A   1      28.461  30.217  21.690  1.00  0.00     0.047 C 
BRANCH  16  17
ATOM     17  C   UNL A   1      27.897  31.298  22.622  1.00  0.00     0.060 C 
ATOM     18  C   UNL A   1      28.484  31.364  24.036  1.00  0.00     0.012 C 
ATOM     19  C   UNL A   1      28.157  32.696  22.109  1.00  0.00     0.136 C 
ATOM     20  C   UNL A   1      29.551  32.453  24.004  1.00  0.00     0.009 C 
ATOM     21  C   UNL A   1      29.025  33.503  23.038  1.00  0.00     0.076 C 
ATOM     22  O   UNL A   1      27.691  33.138  21.066  1.00  0.00    -0.299 OA
ENDBRANCH  16  17
ENDBRANCH  15  16
ENDBRANCH   7   9
ENDBRANCH   4   7
ENDBRANCH   2   3
ENDBRANCH   1   2
BRANCH   1  23
ATOM     23  C   UNL A   1      31.833  29.917  26.569  1.00  0.00     0.023 C 
BRANCH  23  24
ATOM     24  C   UNL A   1      32.982  30.860  26.912  1.00  0.00     0.116 C 
BRANCH  24  25
ATOM     25  N   UNL A   1      32.571  32.255  26.999  1.00  0.00    -0.352 N 
ATOM     26  C   UNL A   1      33.125  33.273  27.739  1.00  0.00     0.251 C 
ATOM     27  H   UNL A   1      31.790  32.503  26.452  1.00  0.00     0.163 HD
ATOM     28  O   UNL A   1      32.583  34.374  27.778  1.00  0.00    -0.269 OA
BRANCH  26  29
ATOM     29  C   UNL A   1      34.355  33.020  28.518  1.00  0.00     0.039 A 
ATOM     30  C   UNL A   1      34.246  32.433  29.781  1.00  0.00     0.014 A 
ATOM     31  C   UNL A   1      35.611  33.311  27.977  1.00  0.00     0.014 A 
ATOM     32  C   UNL A   1      35.401  32.050  30.466  1.00  0.00     0.010 A 
ATOM     33  C   UNL A   1      36.759  32.880  28.638  1.00  0.00     0.010 A 
ATOM     34  C   UNL A   1      36.664  32.226  29.876  1.00  0.00    -0.014 A 
BRANCH  34  35
ATOM     35  C   UNL A   1      37.894  31.658  30.487  1.00  0.00     0.031 A 
ATOM     36  C   UNL A   1      38.668  30.580  29.783  1.00  0.00     0.074 A 
ATOM     37  C   UNL A   1      38.225  32.016  31.745  1.00  0.00     0.049 A 
ATOM     38  N   UNL A   1      39.690  29.887  30.215  1.00  0.00    -0.248 NA
ATOM     39  C   UNL A   1      38.224  30.213  28.429  1.00  0.00     0.031 C 
ATOM     40  C   UNL A   1      37.496  32.986  32.567  1.00  0.00     0.029 A 
ATOM     41  N   UNL A   1      39.227  31.570  32.572  1.00  0.00    -0.354 N 
ATOM     42  C   UNL A   1      39.983  28.974  29.210  1.00  0.00     0.074 A 
ATOM     43  C   UNL A   1      39.027  29.195  28.147  1.00  0.00     0.031 C 
ATOM     44  C   UNL A   1      38.059  33.043  33.785  1.00  0.00     0.029 A 
ATOM     45  C   UNL A   1      39.167  32.095  33.842  1.00  0.00     0.049 A 
ATOM     46  H   UNL A   1      39.921  30.934  32.283  1.00  0.00     0.167 HD
ATOM     47  C   UNL A   1      40.972  28.052  29.171  1.00  0.00     0.034 A 
ATOM     48  C   UNL A   1      39.902  31.827  34.939  1.00  0.00     0.034 A 
ATOM     49  C   UNL A   1      41.959  27.879  30.203  1.00  0.00     0.049 A 
ATOM     50  C   UNL A   1      41.020  30.825  34.847  1.00  0.00     0.074 A 
ATOM     51  C   UNL A   1      43.086  27.075  30.184  1.00  0.00     0.029 A 
ATOM     52  N   UNL A   1      41.930  28.500  31.439  1.00  0.00    -0.354 N 
ATOM     53  N   UNL A   1      41.416  30.127  33.811  1.00  0.00    -0.248 NA
ATOM     54  C   UNL A   1      41.812  30.594  36.065  1.00  0.00     0.031 C 
ATOM     55  C   UNL A   1      43.727  27.194  31.422  1.00  0.00     0.029 A 
ATOM     56  C   UNL A   1      43.004  28.079  32.205  1.00  0.00     0.049 A 
ATOM     57  H   UNL A   1      41.247  29.146  31.731  1.00  0.00     0.167 HD
ATOM     58  C   UNL A   1      42.513  29.391  34.245  1.00  0.00     0.074 A 
ATOM     59  C   UNL A   1      42.739  29.752  35.629  1.00  0.00     0.031 C 
ATOM     60  C   UNL A   1      43.251  28.482  33.563  1.00  0.00     0.034 A 
BRANCH  47  61
ATOM     61  C   UNL A   1      41.091  27.189  27.944  1.00  0.00     0.023 A 
ATOM     62  C   UNL A   1      41.725  27.704  26.796  1.00  0.00     0.012 A 
ATOM     63  C   UNL A   1      40.677  25.843  27.964  1.00  0.00     0.148 A 
ATOM     64  C   UNL A   1      41.933  26.897  25.680  1.00  0.00     0.002 A 
ATOM     65  C   UNL A   1      40.919  25.035  26.860  1.00  0.00     0.091 A 
ATOM     66  F   UNL A   1      40.060  25.381  29.061  1.00  0.00    -0.205 F 
ATOM     67  C   UNL A   1      41.542  25.562  25.716  1.00  0.00     0.022 A 
BRANCH  65  68
ATOM     68  S   UNL A   1      40.518  23.284  26.830  1.00  0.00     0.127 S 
ATOM     69  O   UNL A   1      39.088  23.315  26.525  1.00  0.00    -0.237 OA
ATOM     70  O   UNL A   1      41.362  22.794  25.740  1.00  0.00    -0.237 OA
ATOM     71  O   UNL A   1      40.861  22.768  28.147  1.00  0.00    -0.744 OA
ENDBRANCH  65  68
ENDBRANCH  47  61
BRANCH  48  72
ATOM     72  C   UNL A   1      39.632  32.549  36.215  1.00  0.00     0.023 A 
ATOM     73  C   UNL A   1      40.337  33.735  36.502  1.00  0.00     0.012 A 
ATOM     74  C   UNL A   1      38.673  32.083  37.135  1.00  0.00     0.148 A 
ATOM     75  C   UNL A   1      40.116  34.423  37.695  1.00  0.00     0.002 A 
ATOM     76  C   UNL A   1      38.420  32.803  38.297  1.00  0.00     0.091 A 
ATOM     77  F   UNL A   1      38.026  30.941  36.860  1.00  0.00    -0.205 F 
ATOM     78  C   UNL A   1      39.151  33.965  38.587  1.00  0.00     0.022 A 
BRANCH  76  79
ATOM     79  S   UNL A   1      37.091  32.345  39.417  1.00  0.00     0.127 S 
ATOM     80  O   UNL A   1      37.399  30.945  39.692  1.00  0.00    -0.237 OA
ATOM     81  O   UNL A   1      37.305  33.256  40.544  1.00  0.00    -0.237 OA
ATOM     82  O   UNL A   1      35.865  32.604  38.673  1.00  0.00    -0.744 OA
ENDBRANCH  76  79
ENDBRANCH  48  72
BRANCH  60  83
ATOM     83  C   UNL A   1      44.383  27.810  34.295  1.00  0.00     0.023 A 
ATOM     84  C   UNL A   1      45.650  28.424  34.318  1.00  0.00     0.012 A 
ATOM     85  C   UNL A   1      44.173  26.624  35.024  1.00  0.00     0.148 A 
ATOM     86  C   UNL A   1      46.699  27.856  35.040  1.00  0.00     0.002 A 
ATOM     87  C   UNL A   1      45.211  26.087  35.777  1.00  0.00     0.091 A 
ATOM     88  F   UNL A   1      42.964  26.046  34.973  1.00  0.00    -0.205 F 
ATOM     89  C   UNL A   1      46.476  26.696  35.779  1.00  0.00     0.022 A 
BRANCH  87  90
ATOM     90  S   UNL A   1      44.992  24.648  36.829  1.00  0.00     0.127 S 
ATOM     91  O   UNL A   1      43.795  25.011  37.588  1.00  0.00    -0.237 OA
ATOM     92  O   UNL A   1      44.793  23.576  35.853  1.00  0.00    -0.237 OA
ATOM     93  O   UNL A   1      46.216  24.532  37.611  1.00  0.00    -0.744 OA
ENDBRANCH  87  90
ENDBRANCH  60  83
ENDBRANCH  34  35
ENDBRANCH  26  29
ENDBRANCH  24  25
ENDBRANCH  23  24
ENDBRANCH   1  23
TORSDOF 17
ENDMDL
MODEL 3
REMARK VINA RESULT:     -12.1      5.140      7.511
REMARK SMILES C[C@@H](C(=O)NCCCCNC(=O)c1ccc(-c2c3nc(c(-c4cccc(S(=O)(=O)[O-])c4F)c4ccc([nH]4)c(-c4cccc(S(=O)(=O)[O-])c4F)c4nc(c(-c5cccc(S(=O)(=O)[O-])c5F)c5ccc2[nH]5)C=C4)C=C3)cc1)c1ccc(C[C@H]2CCCC2=O)cc1Br
REMARK SMILES IDX 7 1 6 2 5 3 3 4 4 5 2 7 1 8 76 9 77 10 88 11 78 12 87 13
REMARK SMILES IDX 89 14 79 15 80 16 81 17 82 18 85 19 83 20 84 21 86 22 8 23
REMARK SMILES IDX 9 24 10 25 11 26 12 28 13 29 14 30 75 31 15 32 74 33 16 34
REMARK SMILES IDX 17 35 18 36 68 37 19 38 73 39 67 40 69 41 20 42 72 43 66 44
REMARK SMILES IDX 65 45 21 47 53 48 33 49 52 50 34 51 37 52 51 53 70 54 35 55
REMARK SMILES IDX 36 56 50 58 71 59 38 60 22 61 23 62 31 63 24 64 26 65 32 66
REMARK SMILES IDX 25 67 27 68 28 69 29 70 30 71 54 72 55 73 63 74 56 75 58 76
REMARK SMILES IDX 64 77 57 78 59 79 60 80 61 81 62 82 39 83 40 84 48 85 41 86
REMARK SMILES IDX 43 87 49 88 42 89 44 90 45 91 46 92 47 93
REMARK H PARENT 5 6 10 27 69 46 37 57
REMARK Flexibility Score: inf
ROOT
ATOM      1  C   UNL A   1      31.663  28.518  27.114  1.00  0.00     0.023 C 
ENDROOT
BRANCH   1   2
ATOM      2  C   UNL A   1      31.048  27.145  26.844  1.00  0.00     0.116 C 
BRANCH   2   3
ATOM      3  N   UNL A   1      31.111  26.791  25.442  1.00  0.00    -0.356 N 
ATOM      4  C   UNL A   1      31.904  25.897  24.784  1.00  0.00     0.227 C 
ATOM      5  O   UNL A   1      31.644  25.709  23.594  1.00  0.00    -0.274 OA
ATOM      6  H   UNL A   1      30.476  27.275  24.868  1.00  0.00     0.163 HD
BRANCH   4   7
ATOM      7  C   UNL A   1      32.981  25.098  25.537  1.00  0.00     0.106 C 
ATOM      8  C   UNL A   1      34.419  25.600  25.364  1.00  0.00     0.023 C 
BRANCH   7   9
ATOM      9  C   UNL A   1      32.909  23.593  25.255  1.00  0.00    -0.022 A 
ATOM     10  C   UNL A   1      33.962  23.023  24.511  1.00  0.00     0.006 A 
ATOM     11  C   UNL A   1      31.866  22.743  25.668  1.00  0.00     0.022 A 
ATOM     12  C   UNL A   1      33.954  21.673  24.151  1.00  0.00     0.004 A 
ATOM     13  C   UNL A   1      31.856  21.392  25.290  1.00  0.00     0.019 A 
ATOM     14  Br  UNL A   1      30.394  23.303  26.733  1.00  0.00    -0.051 Br
ATOM     15  C   UNL A   1      32.882  20.853  24.507  1.00  0.00    -0.046 A 
BRANCH  15  16
ATOM     16  C   UNL A   1      32.808  19.422  24.034  1.00  0.00     0.047 C 
BRANCH  16  17
ATOM     17  C   UNL A   1      33.331  18.368  25.019  1.00  0.00     0.060 C 
ATOM     18  C   UNL A   1      32.464  17.119  25.215  1.00  0.00     0.012 C 
ATOM     19  C   UNL A   1      34.648  17.769  24.579  1.00  0.00     0.136 C 
ATOM     20  C   UNL A   1      33.052  16.045  24.306  1.00  0.00     0.009 C 
ATOM     21  C   UNL A   1      34.553  16.290  24.312  1.00  0.00     0.076 C 
ATOM     22  O   UNL A   1      35.688  18.409  24.476  1.00  0.00    -0.299 OA
ENDBRANCH  16  17
ENDBRANCH  15  16
ENDBRANCH   7   9
ENDBRANCH   4   7
ENDBRANCH   2   3
ENDBRANCH   1   2
BRANCH   1  23
ATOM     23  C   UNL A   1      33.191  28.530  27.220  1.00  0.00     0.023 C 
BRANCH  23  24
ATOM     24  C   UNL A   1      33.900  29.628  26.433  1.00  0.00     0.116 C 
BRANCH  24  25
ATOM     25  N   UNL A   1      33.933  30.905  27.134  1.00  0.00    -0.352 N 
ATOM     26  C   UNL A   1      34.839  31.354  28.065  1.00  0.00     0.251 C 
ATOM     27  H   UNL A   1      33.207  31.531  26.910  1.00  0.00     0.163 HD
ATOM     28  O   UNL A   1      34.656  32.423  28.640  1.00  0.00    -0.269 OA
BRANCH  26  29
ATOM     29  C   UNL A   1      36.016  30.523  28.396  1.00  0.00     0.039 A 
ATOM     30  C   UNL A   1      37.157  30.619  27.596  1.00  0.00     0.014 A 
ATOM     31  C   UNL A   1      36.008  29.697  29.524  1.00  0.00     0.014 A 
ATOM     32  C   UNL A   1      38.327  29.958  27.979  1.00  0.00     0.010 A 
ATOM     33  C   UNL A   1      37.189  29.082  29.932  1.00  0.00     0.010 A 
ATOM     34  C   UNL A   1      38.364  29.225  29.177  1.00  0.00    -0.014 A 
BRANCH  34  35
ATOM     35  C   UNL A   1      39.636  28.673  29.711  1.00  0.00     0.031 A 
ATOM     36  C   UNL A   1      40.375  29.383  30.809  1.00  0.00     0.074 A 
ATOM     37  C   UNL A   1      40.193  27.606  29.100  1.00  0.00     0.049 A 
ATOM     38  N   UNL A   1      41.552  29.114  31.313  1.00  0.00    -0.248 NA
ATOM     39  C   UNL A   1      39.723  30.562  31.400  1.00  0.00     0.031 C 
ATOM     40  C   UNL A   1      39.615  26.886  27.963  1.00  0.00     0.029 A 
ATOM     41  N   UNL A   1      41.394  26.975  29.315  1.00  0.00    -0.354 N 
ATOM     42  C   UNL A   1      41.802  30.112  32.247  1.00  0.00     0.074 A 
ATOM     43  C   UNL A   1      40.659  30.998  32.235  1.00  0.00     0.031 C 
ATOM     44  C   UNL A   1      40.470  25.930  27.565  1.00  0.00     0.029 A 
ATOM     45  C   UNL A   1      41.668  25.986  28.397  1.00  0.00     0.049 A 
ATOM     46  H   UNL A   1      42.001  27.207  30.054  1.00  0.00     0.167 HD
ATOM     47  C   UNL A   1      42.879  30.263  33.053  1.00  0.00     0.034 A 
ATOM     48  C   UNL A   1      42.769  25.228  28.224  1.00  0.00     0.034 A 
ATOM     49  C   UNL A   1      43.984  29.345  33.106  1.00  0.00     0.049 A 
ATOM     50  C   UNL A   1      43.930  25.395  29.166  1.00  0.00     0.074 A 
ATOM     51  C   UNL A   1      45.045  29.332  33.995  1.00  0.00     0.029 A 
ATOM     52  N   UNL A   1      44.184  28.292  32.229  1.00  0.00    -0.354 N 
ATOM     53  N   UNL A   1      44.053  26.209  30.185  1.00  0.00    -0.248 NA
ATOM     54  C   UNL A   1      45.093  24.520  28.953  1.00  0.00     0.031 C 
ATOM     55  C   UNL A   1      45.899  28.283  33.640  1.00  0.00     0.029 A 
ATOM     56  C   UNL A   1      45.364  27.638  32.537  1.00  0.00     0.049 A 
ATOM     57  H   UNL A   1      43.576  28.046  31.495  1.00  0.00     0.167 HD
ATOM     58  C   UNL A   1      45.293  25.930  30.747  1.00  0.00     0.074 A 
ATOM     59  C   UNL A   1      45.871  24.851  29.974  1.00  0.00     0.031 C 
ATOM     60  C   UNL A   1      45.907  26.532  31.795  1.00  0.00     0.034 A 
BRANCH  47  61
ATOM     61  C   UNL A   1      42.898  31.430  34.002  1.00  0.00     0.023 A 
ATOM     62  C   UNL A   1      43.449  32.655  33.577  1.00  0.00     0.012 A 
ATOM     63  C   UNL A   1      42.277  31.347  35.263  1.00  0.00     0.148 A 
ATOM     64  C   UNL A   1      43.394  33.779  34.399  1.00  0.00     0.002 A 
ATOM     65  C   UNL A   1      42.196  32.480  36.063  1.00  0.00     0.091 A 
ATOM     66  F   UNL A   1      41.777  30.165  35.652  1.00  0.00    -0.205 F 
ATOM     67  C   UNL A   1      42.758  33.695  35.635  1.00  0.00     0.022 A 
BRANCH  65  68
ATOM     68  S   UNL A   1      41.338  32.497  37.641  1.00  0.00     0.127 S 
ATOM     69  O   UNL A   1      42.172  31.598  38.439  1.00  0.00    -0.237 OA
ATOM     70  O   UNL A   1      41.425  33.906  38.023  1.00  0.00    -0.237 OA
ATOM     71  O   UNL A   1      39.990  32.019  37.373  1.00  0.00    -0.744 OA
ENDBRANCH  65  68
ENDBRANCH  47  61
BRANCH  48  72
ATOM     72  C   UNL A   1      42.812  24.209  27.137  1.00  0.00     0.023 A 
ATOM     73  C   UNL A   1      43.509  24.496  25.947  1.00  0.00     0.012 A 
ATOM     74  C   UNL A   1      42.185  22.956  27.278  1.00  0.00     0.148 A 
ATOM     75  C   UNL A   1      43.553  23.568  24.907  1.00  0.00     0.002 A 
ATOM     76  C   UNL A   1      42.279  22.015  26.260  1.00  0.00     0.091 A 
ATOM     77  F   UNL A   1      41.506  22.704  28.407  1.00  0.00    -0.205 F 
ATOM     78  C   UNL A   1      42.949  22.324  25.066  1.00  0.00     0.022 A 
BRANCH  76  79
ATOM     79  S   UNL A   1      41.645  20.345  26.459  1.00  0.00     0.127 S 
ATOM     80  O   UNL A   1      42.140  19.992  27.785  1.00  0.00    -0.237 OA
ATOM     81  O   UNL A   1      40.197  20.550  26.375  1.00  0.00    -0.237 OA
ATOM     82  O   UNL A   1      42.201  19.595  25.340  1.00  0.00    -0.744 OA
ENDBRANCH  76  79
ENDBRANCH  48  72
BRANCH  60  83
ATOM     83  C   UNL A   1      47.276  26.039  32.181  1.00  0.00     0.023 A 
ATOM     84  C   UNL A   1      48.411  26.602  31.565  1.00  0.00     0.012 A 
ATOM     85  C   UNL A   1      47.444  25.087  33.205  1.00  0.00     0.148 A 
ATOM     86  C   UNL A   1      49.692  26.210  31.948  1.00  0.00     0.002 A 
ATOM     87  C   UNL A   1      48.724  24.733  33.612  1.00  0.00     0.091 A 
ATOM     88  F   UNL A   1      46.350  24.550  33.765  1.00  0.00    -0.205 F 
ATOM     89  C   UNL A   1      49.849  25.285  32.979  1.00  0.00     0.022 A 
BRANCH  87  90
ATOM     90  S   UNL A   1      49.023  23.620  34.990  1.00  0.00     0.127 S 
ATOM     91  O   UNL A   1      50.485  23.577  35.028  1.00  0.00    -0.237 OA
ATOM     92  O   UNL A   1      48.404  24.333  36.107  1.00  0.00    -0.237 OA
ATOM     93  O   UNL A   1      48.370  22.365  34.640  1.00  0.00    -0.744 OA
ENDBRANCH  87  90
ENDBRANCH  60  83
ENDBRANCH  34  35
ENDBRANCH  26  29
ENDBRANCH  24  25
ENDBRANCH  23  24
ENDBRANCH   1  23
TORSDOF 17
ENDMDL
