MODEL 1
REMARK VINA RESULT:     -11.1      0.000      0.000
REMARK SMILES CC(C)c1cc(=O)[nH]c(SCC(=O)NCCCCNC(=O)c2ccc(-c3c4nc(c(-c5cccc(S(=O)(=O)[O-])c5F)c5ccc([nH]5)c(-c5cccc(S(=O)(=O)[O-])c5F)c5nc(c(-c6cccc(S(=O)(=O)[O-])c6F)c6ccc3[nH]6)C=C5)C=C4)cc2)n1
REMARK SMILES IDX 16 1 15 2 14 3 12 4 13 5 11 7 10 8 9 9 4 10 5 11 85 12 6 13
REMARK SMILES IDX 7 14 8 15 2 17 1 18 3 19 17 20 18 21 19 22 20 23 21 25 22 26
REMARK SMILES IDX 23 27 84 28 24 29 83 30 25 31 26 32 27 33 77 34 28 35 82 36
REMARK SMILES IDX 76 37 78 38 29 39 81 40 75 41 74 42 30 44 62 45 42 46 61 47
REMARK SMILES IDX 43 48 46 49 60 50 79 51 44 52 45 53 59 55 80 56 47 57 31 58
REMARK SMILES IDX 32 59 40 60 33 61 35 62 41 63 34 64 36 65 37 66 38 67 39 68
REMARK SMILES IDX 63 69 64 70 72 71 65 72 67 73 73 74 66 75 68 76 69 77 70 78
REMARK SMILES IDX 71 79 48 80 49 81 57 82 50 83 52 84 58 85 51 86 53 87 54 88
REMARK SMILES IDX 55 89 56 90
REMARK H PARENT 14 6 8 16 19 24 78 43 46 54
REMARK Flexibility Score: inf
ROOT
ATOM      1  C   UNL A   1      31.830  30.119  26.749  1.00  0.00     0.023 C 
ENDROOT
BRANCH   1   2
ATOM      2  C   UNL A   1      32.121  29.529  25.370  1.00  0.00     0.116 C 
BRANCH   2   3
ATOM      3  N   UNL A   1      31.143  29.961  24.390  1.00  0.00    -0.355 N 
ATOM      4  C   UNL A   1      30.343  29.229  23.564  1.00  0.00     0.230 C 
ATOM      5  O   UNL A   1      29.544  29.845  22.853  1.00  0.00    -0.274 OA
ATOM      6  H   UNL A   1      31.043  30.937  24.307  1.00  0.00     0.163 HD
BRANCH   4   7
ATOM      7  C   UNL A   1      30.328  27.712  23.622  1.00  0.00     0.178 C 
BRANCH   7   8
ATOM      8  S   UNL A   1      31.654  26.891  22.703  1.00  0.00    -0.078 SA
BRANCH   8   9
ATOM      9  C   UNL A   1      32.429  25.959  23.938  1.00  0.00     0.168 A 
ATOM     10  C   UNL A   1      34.090  24.705  24.875  1.00  0.00     0.051 A 
ATOM     11  C   UNL A   1      33.384  24.511  26.004  1.00  0.00     0.095 A 
ATOM     12  N   UNL A   1      33.595  25.431  23.809  1.00  0.00    -0.229 NA
ATOM     13  C   UNL A   1      32.038  25.092  26.104  1.00  0.00     0.251 A 
ATOM     14  O   UNL A   1      31.322  24.898  27.081  1.00  0.00    -0.269 OA
ATOM     15  N   UNL A   1      31.645  25.829  25.036  1.00  0.00    -0.301 N 
ATOM     16  H   UNL A   1      30.770  26.280  25.058  1.00  0.00     0.172 HD
BRANCH  10  17
ATOM     17  C   UNL A   1      35.506  24.164  24.660  1.00  0.00     0.032 C 
ATOM     18  C   UNL A   1      36.177  23.561  25.902  1.00  0.00     0.014 C 
ATOM     19  C   UNL A   1      35.519  23.122  23.533  1.00  0.00     0.014 C 
ENDBRANCH  10  17
ENDBRANCH   8   9
ENDBRANCH   7   8
ENDBRANCH   4   7
ENDBRANCH   2   3
ENDBRANCH   1   2
BRANCH   1  20
ATOM     20  C   UNL A   1      31.695  31.645  26.773  1.00  0.00     0.023 C 
BRANCH  20  21
ATOM     21  C   UNL A   1      32.912  32.400  27.299  1.00  0.00     0.116 C 
BRANCH  21  22
ATOM     22  N   UNL A   1      32.622  33.793  27.605  1.00  0.00    -0.352 N 
ATOM     23  C   UNL A   1      33.196  34.609  28.552  1.00  0.00     0.251 C 
ATOM     24  H   UNL A   1      31.918  34.210  27.059  1.00  0.00     0.163 HD
ATOM     25  O   UNL A   1      32.723  35.721  28.766  1.00  0.00    -0.269 OA
BRANCH  23  26
ATOM     26  C   UNL A   1      34.362  34.132  29.328  1.00  0.00     0.039 A 
ATOM     27  C   UNL A   1      34.142  33.404  30.500  1.00  0.00     0.014 A 
ATOM     28  C   UNL A   1      35.666  34.385  28.893  1.00  0.00     0.014 A 
ATOM     29  C   UNL A   1      35.229  32.873  31.200  1.00  0.00     0.010 A 
ATOM     30  C   UNL A   1      36.741  33.790  29.549  1.00  0.00     0.010 A 
ATOM     31  C   UNL A   1      36.535  33.028  30.709  1.00  0.00    -0.014 A 
BRANCH  31  32
ATOM     32  C   UNL A   1      37.695  32.386  31.382  1.00  0.00     0.031 A 
ATOM     33  C   UNL A   1      38.413  31.234  30.731  1.00  0.00     0.074 A 
ATOM     34  C   UNL A   1      38.048  32.782  32.623  1.00  0.00     0.049 A 
ATOM     35  N   UNL A   1      39.403  30.515  31.190  1.00  0.00    -0.248 NA
ATOM     36  C   UNL A   1      37.940  30.818  29.401  1.00  0.00     0.031 C 
ATOM     37  C   UNL A   1      37.387  33.837  33.394  1.00  0.00     0.029 A 
ATOM     38  N   UNL A   1      39.032  32.325  33.465  1.00  0.00    -0.354 N 
ATOM     39  C   UNL A   1      39.645  29.539  30.230  1.00  0.00     0.074 A 
ATOM     40  C   UNL A   1      38.679  29.741  29.174  1.00  0.00     0.031 C 
ATOM     41  C   UNL A   1      37.988  33.951  34.590  1.00  0.00     0.029 A 
ATOM     42  C   UNL A   1      39.049  32.955  34.688  1.00  0.00     0.049 A 
ATOM     43  H   UNL A   1      39.666  31.614  33.217  1.00  0.00     0.167 HD
ATOM     44  C   UNL A   1      40.597  28.577  30.218  1.00  0.00     0.034 A 
ATOM     45  C   UNL A   1      39.822  32.747  35.772  1.00  0.00     0.034 A 
ATOM     46  C   UNL A   1      41.582  28.403  31.251  1.00  0.00     0.049 A 
ATOM     47  C   UNL A   1      40.890  31.687  35.719  1.00  0.00     0.074 A 
ATOM     48  C   UNL A   1      42.648  27.522  31.280  1.00  0.00     0.029 A 
ATOM     49  N   UNL A   1      41.614  29.108  32.444  1.00  0.00    -0.354 N 
ATOM     50  N   UNL A   1      41.208  30.885  34.731  1.00  0.00    -0.248 NA
ATOM     51  C   UNL A   1      41.727  31.524  36.916  1.00  0.00     0.031 C 
ATOM     52  C   UNL A   1      43.301  27.667  32.509  1.00  0.00     0.029 A 
ATOM     53  C   UNL A   1      42.667  28.669  33.225  1.00  0.00     0.049 A 
ATOM     54  H   UNL A   1      40.979  29.818  32.696  1.00  0.00     0.167 HD
ATOM     55  C   UNL A   1      42.307  30.155  35.172  1.00  0.00     0.074 A 
ATOM     56  C   UNL A   1      42.610  30.622  36.508  1.00  0.00     0.031 C 
ATOM     57  C   UNL A   1      42.994  29.179  34.533  1.00  0.00     0.034 A 
BRANCH  44  58
ATOM     58  C   UNL A   1      40.648  27.650  29.030  1.00  0.00     0.023 A 
ATOM     59  C   UNL A   1      39.704  26.610  28.910  1.00  0.00     0.012 A 
ATOM     60  C   UNL A   1      41.584  27.855  27.997  1.00  0.00     0.148 A 
ATOM     61  C   UNL A   1      39.711  25.766  27.801  1.00  0.00     0.002 A 
ATOM     62  C   UNL A   1      41.555  27.041  26.871  1.00  0.00     0.091 A 
ATOM     63  F   UNL A   1      42.485  28.837  28.136  1.00  0.00    -0.205 F 
ATOM     64  C   UNL A   1      40.629  25.989  26.776  1.00  0.00     0.022 A 
BRANCH  62  65
ATOM     65  S   UNL A   1      42.636  27.297  25.460  1.00  0.00     0.127 S 
ATOM     66  O   UNL A   1      43.937  27.454  26.110  1.00  0.00    -0.237 OA
ATOM     67  O   UNL A   1      42.473  26.048  24.718  1.00  0.00    -0.237 OA
ATOM     68  O   UNL A   1      42.135  28.482  24.778  1.00  0.00    -0.744 OA
ENDBRANCH  62  65
ENDBRANCH  44  58
BRANCH  45  69
ATOM     69  C   UNL A   1      39.655  33.594  36.989  1.00  0.00     0.023 A 
ATOM     70  C   UNL A   1      38.647  33.278  37.920  1.00  0.00     0.012 A 
ATOM     71  C   UNL A   1      40.490  34.702  37.231  1.00  0.00     0.148 A 
ATOM     72  C   UNL A   1      38.445  34.073  39.048  1.00  0.00     0.002 A 
ATOM     73  C   UNL A   1      40.321  35.456  38.386  1.00  0.00     0.091 A 
ATOM     74  F   UNL A   1      41.438  34.992  36.329  1.00  0.00    -0.205 F 
ATOM     75  C   UNL A   1      39.287  35.156  39.286  1.00  0.00     0.022 A 
BRANCH  73  76
ATOM     76  S   UNL A   1      41.437  36.788  38.838  1.00  0.00     0.127 S 
ATOM     77  O   UNL A   1      40.504  37.831  39.256  1.00  0.00    -0.237 OA
ATOM     78  O   UNL A   1      42.207  36.180  39.924  1.00  0.00    -0.237 OA
ATOM     79  O   UNL A   1      42.214  37.076  37.641  1.00  0.00    -0.744 OA
ENDBRANCH  73  76
ENDBRANCH  45  69
BRANCH  57  80
ATOM     80  C   UNL A   1      44.182  28.575  35.239  1.00  0.00     0.023 A 
ATOM     81  C   UNL A   1      45.476  29.079  35.004  1.00  0.00     0.012 A 
ATOM     82  C   UNL A   1      43.999  27.555  36.195  1.00  0.00     0.148 A 
ATOM     83  C   UNL A   1      46.575  28.553  35.683  1.00  0.00     0.002 A 
ATOM     84  C   UNL A   1      45.092  27.075  36.906  1.00  0.00     0.091 A 
ATOM     85  F   UNL A   1      42.762  27.079  36.392  1.00  0.00    -0.205 F 
ATOM     86  C   UNL A   1      46.381  27.562  36.642  1.00  0.00     0.022 A 
BRANCH  84  87
ATOM     87  S   UNL A   1      44.925  25.873  38.231  1.00  0.00     0.127 S 
ATOM     88  O   UNL A   1      46.322  25.622  38.582  1.00  0.00    -0.237 OA
ATOM     89  O   UNL A   1      44.169  26.623  39.235  1.00  0.00    -0.237 OA
ATOM     90  O   UNL A   1      44.213  24.738  37.659  1.00  0.00    -0.744 OA
ENDBRANCH  84  87
ENDBRANCH  57  80
ENDBRANCH  31  32
ENDBRANCH  23  26
ENDBRANCH  21  22
ENDBRANCH  20  21
ENDBRANCH   1  20
TORSDOF 17
ENDMDL
MODEL 2
REMARK VINA RESULT:     -11.1      2.729      8.750
REMARK SMILES CC(C)c1cc(=O)[nH]c(SCC(=O)NCCCCNC(=O)c2ccc(-c3c4nc(c(-c5cccc(S(=O)(=O)[O-])c5F)c5ccc([nH]5)c(-c5cccc(S(=O)(=O)[O-])c5F)c5nc(c(-c6cccc(S(=O)(=O)[O-])c6F)c6ccc3[nH]6)C=C5)C=C4)cc2)n1
REMARK SMILES IDX 16 1 15 2 14 3 12 4 13 5 11 7 10 8 9 9 4 10 5 11 85 12 6 13
REMARK SMILES IDX 7 14 8 15 2 17 1 18 3 19 17 20 18 21 19 22 20 23 21 25 22 26
REMARK SMILES IDX 23 27 84 28 24 29 83 30 25 31 26 32 27 33 77 34 28 35 82 36
REMARK SMILES IDX 76 37 78 38 29 39 81 40 75 41 74 42 30 44 62 45 42 46 61 47
REMARK SMILES IDX 43 48 46 49 60 50 79 51 44 52 45 53 59 55 80 56 47 57 31 58
REMARK SMILES IDX 32 59 40 60 33 61 35 62 41 63 34 64 36 65 37 66 38 67 39 68
REMARK SMILES IDX 63 69 64 70 72 71 65 72 67 73 73 74 66 75 68 76 69 77 70 78
REMARK SMILES IDX 71 79 48 80 49 81 57 82 50 83 52 84 58 85 51 86 53 87 54 88
REMARK SMILES IDX 55 89 56 90
REMARK H PARENT 14 6 8 16 19 24 78 43 46 54
REMARK Flexibility Score: inf
ROOT
ATOM      1  C   UNL A   1      31.892  27.944  27.242  1.00  0.00     0.023 C 
ENDROOT
BRANCH   1   2
ATOM      2  C   UNL A   1      31.057  26.800  26.666  1.00  0.00     0.116 C 
BRANCH   2   3
ATOM      3  N   UNL A   1      31.697  25.516  26.876  1.00  0.00    -0.355 N 
ATOM      4  C   UNL A   1      32.233  24.642  25.976  1.00  0.00     0.230 C 
ATOM      5  O   UNL A   1      32.778  23.629  26.423  1.00  0.00    -0.274 OA
ATOM      6  H   UNL A   1      31.753  25.229  27.817  1.00  0.00     0.163 HD
BRANCH   4   7
ATOM      7  C   UNL A   1      32.290  24.972  24.496  1.00  0.00     0.178 C 
BRANCH   7   8
ATOM      8  S   UNL A   1      30.689  25.001  23.649  1.00  0.00    -0.078 SA
BRANCH   8   9
ATOM      9  C   UNL A   1      30.502  26.683  23.284  1.00  0.00     0.168 A 
ATOM     10  C   UNL A   1      29.361  28.603  22.819  1.00  0.00     0.051 A 
ATOM     11  C   UNL A   1      30.496  29.310  22.675  1.00  0.00     0.095 A 
ATOM     12  N   UNL A   1      29.362  27.253  23.113  1.00  0.00    -0.229 NA
ATOM     13  C   UNL A   1      31.784  28.619  22.836  1.00  0.00     0.251 A 
ATOM     14  O   UNL A   1      32.852  29.195  22.655  1.00  0.00    -0.269 OA
ATOM     15  N   UNL A   1      31.699  27.308  23.170  1.00  0.00    -0.301 N 
ATOM     16  H   UNL A   1      32.525  26.798  23.333  1.00  0.00     0.172 HD
BRANCH  10  17
ATOM     17  C   UNL A   1      27.963  29.214  22.692  1.00  0.00     0.032 C 
ATOM     18  C   UNL A   1      26.854  28.489  23.468  1.00  0.00     0.014 C 
ATOM     19  C   UNL A   1      27.978  30.689  23.112  1.00  0.00     0.014 C 
ENDBRANCH  10  17
ENDBRANCH   8   9
ENDBRANCH   7   8
ENDBRANCH   4   7
ENDBRANCH   2   3
ENDBRANCH   1   2
BRANCH   1  20
ATOM     20  C   UNL A   1      31.816  29.250  26.444  1.00  0.00     0.023 C 
BRANCH  20  21
ATOM     21  C   UNL A   1      33.130  30.013  26.317  1.00  0.00     0.116 C 
BRANCH  21  22
ATOM     22  N   UNL A   1      33.028  31.393  26.770  1.00  0.00    -0.352 N 
ATOM     23  C   UNL A   1      33.838  32.079  27.643  1.00  0.00     0.251 C 
ATOM     24  H   UNL A   1      32.275  31.906  26.399  1.00  0.00     0.163 HD
ATOM     25  O   UNL A   1      33.514  33.201  28.022  1.00  0.00    -0.269 OA
BRANCH  23  26
ATOM     26  C   UNL A   1      35.080  31.453  28.146  1.00  0.00     0.039 A 
ATOM     27  C   UNL A   1      36.259  32.203  28.160  1.00  0.00     0.014 A 
ATOM     28  C   UNL A   1      35.081  30.138  28.619  1.00  0.00     0.014 A 
ATOM     29  C   UNL A   1      37.421  31.658  28.710  1.00  0.00     0.010 A 
ATOM     30  C   UNL A   1      36.219  29.625  29.236  1.00  0.00     0.010 A 
ATOM     31  C   UNL A   1      37.402  30.378  29.288  1.00  0.00    -0.014 A 
BRANCH  31  32
ATOM     32  C   UNL A   1      38.600  29.819  29.968  1.00  0.00     0.031 A 
ATOM     33  C   UNL A   1      39.022  30.336  31.318  1.00  0.00     0.074 A 
ATOM     34  C   UNL A   1      39.362  28.905  29.331  1.00  0.00     0.049 A 
ATOM     35  N   UNL A   1      40.066  30.012  32.035  1.00  0.00    -0.248 NA
ATOM     36  C   UNL A   1      38.175  31.373  31.931  1.00  0.00     0.031 C 
ATOM     37  C   UNL A   1      39.104  28.376  27.990  1.00  0.00     0.029 A 
ATOM     38  N   UNL A   1      40.524  28.282  29.715  1.00  0.00    -0.354 N 
ATOM     39  C   UNL A   1      40.026  30.830  33.159  1.00  0.00     0.074 A 
ATOM     40  C   UNL A   1      38.869  31.684  33.016  1.00  0.00     0.031 C 
ATOM     41  C   UNL A   1      40.073  27.503  27.667  1.00  0.00     0.029 A 
ATOM     42  C   UNL A   1      41.041  27.440  28.757  1.00  0.00     0.049 A 
ATOM     43  H   UNL A   1      40.948  28.424  30.591  1.00  0.00     0.167 HD
ATOM     44  C   UNL A   1      40.863  30.851  34.223  1.00  0.00     0.034 A 
ATOM     45  C   UNL A   1      42.172  26.708  28.750  1.00  0.00     0.034 A 
ATOM     46  C   UNL A   1      41.991  29.973  34.381  1.00  0.00     0.049 A 
ATOM     47  C   UNL A   1      43.070  26.732  29.958  1.00  0.00     0.074 A 
ATOM     48  C   UNL A   1      42.837  29.851  35.468  1.00  0.00     0.029 A 
ATOM     49  N   UNL A   1      42.441  29.080  33.421  1.00  0.00    -0.354 N 
ATOM     50  N   UNL A   1      42.921  27.391  31.083  1.00  0.00    -0.248 NA
ATOM     51  C   UNL A   1      44.272  25.890  29.912  1.00  0.00     0.031 C 
ATOM     52  C   UNL A   1      43.824  28.913  35.150  1.00  0.00     0.029 A 
ATOM     53  C   UNL A   1      43.566  28.419  33.882  1.00  0.00     0.049 A 
ATOM     54  H   UNL A   1      42.022  28.938  32.542  1.00  0.00     0.167 HD
ATOM     55  C   UNL A   1      43.986  27.008  31.891  1.00  0.00     0.074 A 
ATOM     56  C   UNL A   1      44.762  26.048  31.134  1.00  0.00     0.031 C 
ATOM     57  C   UNL A   1      44.300  27.424  33.142  1.00  0.00     0.034 A 
BRANCH  44  58
ATOM     58  C   UNL A   1      40.574  31.837  35.327  1.00  0.00     0.023 A 
ATOM     59  C   UNL A   1      41.384  32.982  35.474  1.00  0.00     0.012 A 
ATOM     60  C   UNL A   1      39.459  31.666  36.171  1.00  0.00     0.148 A 
ATOM     61  C   UNL A   1      41.110  33.923  36.465  1.00  0.00     0.002 A 
ATOM     62  C   UNL A   1      39.164  32.633  37.124  1.00  0.00     0.091 A 
ATOM     63  F   UNL A   1      38.712  30.562  36.028  1.00  0.00    -0.205 F 
ATOM     64  C   UNL A   1      39.995  33.755  37.281  1.00  0.00     0.022 A 
BRANCH  62  65
ATOM     65  S   UNL A   1      37.704  32.553  38.167  1.00  0.00     0.127 S 
ATOM     66  O   UNL A   1      36.642  32.866  37.213  1.00  0.00    -0.237 OA
ATOM     67  O   UNL A   1      37.727  31.162  38.620  1.00  0.00    -0.237 OA
ATOM     68  O   UNL A   1      37.906  33.539  39.219  1.00  0.00    -0.744 OA
ENDBRANCH  62  65
ENDBRANCH  44  58
BRANCH  45  69
ATOM     69  C   UNL A   1      42.501  25.842  27.580  1.00  0.00     0.023 A 
ATOM     70  C   UNL A   1      43.275  26.367  26.526  1.00  0.00     0.012 A 
ATOM     71  C   UNL A   1      42.058  24.507  27.508  1.00  0.00     0.148 A 
ATOM     72  C   UNL A   1      43.567  25.592  25.404  1.00  0.00     0.002 A 
ATOM     73  C   UNL A   1      42.403  23.723  26.412  1.00  0.00     0.091 A 
ATOM     74  F   UNL A   1      41.316  24.029  28.515  1.00  0.00    -0.205 F 
ATOM     75  C   UNL A   1      43.139  24.268  25.351  1.00  0.00     0.022 A 
BRANCH  73  76
ATOM     76  S   UNL A   1      42.005  21.975  26.318  1.00  0.00     0.127 S 
ATOM     77  O   UNL A   1      40.563  22.008  26.088  1.00  0.00    -0.237 OA
ATOM     78  O   UNL A   1      42.803  21.546  25.168  1.00  0.00    -0.237 OA
ATOM     79  O   UNL A   1      42.429  21.403  27.588  1.00  0.00    -0.744 OA
ENDBRANCH  73  76
ENDBRANCH  45  69
BRANCH  57  80
ATOM     80  C   UNL A   1      45.506  26.810  33.806  1.00  0.00     0.023 A 
ATOM     81  C   UNL A   1      46.754  27.462  33.749  1.00  0.00     0.012 A 
ATOM     82  C   UNL A   1      45.380  25.620  34.551  1.00  0.00     0.148 A 
ATOM     83  C   UNL A   1      47.865  26.920  34.394  1.00  0.00     0.002 A 
ATOM     84  C   UNL A   1      46.479  25.117  35.236  1.00  0.00     0.091 A 
ATOM     85  F   UNL A   1      44.188  25.006  34.579  1.00  0.00    -0.205 F 
ATOM     86  C   UNL A   1      47.725  25.756  35.148  1.00  0.00     0.022 A 
BRANCH  84  87
ATOM     87  S   UNL A   1      46.370  23.682  36.312  1.00  0.00     0.127 S 
ATOM     88  O   UNL A   1      47.756  23.534  36.753  1.00  0.00    -0.237 OA
ATOM     89  O   UNL A   1      45.445  24.143  37.349  1.00  0.00    -0.237 OA
ATOM     90  O   UNL A   1      45.860  22.595  35.486  1.00  0.00    -0.744 OA
ENDBRANCH  84  87
ENDBRANCH  57  80
ENDBRANCH  31  32
ENDBRANCH  23  26
ENDBRANCH  21  22
ENDBRANCH  20  21
ENDBRANCH   1  20
TORSDOF 17
ENDMDL
MODEL 3
REMARK VINA RESULT:     -10.9      2.187      2.554
REMARK SMILES CC(C)c1cc(=O)[nH]c(SCC(=O)NCCCCNC(=O)c2ccc(-c3c4nc(c(-c5cccc(S(=O)(=O)[O-])c5F)c5ccc([nH]5)c(-c5cccc(S(=O)(=O)[O-])c5F)c5nc(c(-c6cccc(S(=O)(=O)[O-])c6F)c6ccc3[nH]6)C=C5)C=C4)cc2)n1
REMARK SMILES IDX 16 1 15 2 14 3 12 4 13 5 11 7 10 8 9 9 4 10 5 11 85 12 6 13
REMARK SMILES IDX 7 14 8 15 2 17 1 18 3 19 17 20 18 21 19 22 20 23 21 25 22 26
REMARK SMILES IDX 23 27 84 28 24 29 83 30 25 31 26 32 27 33 77 34 28 35 82 36
REMARK SMILES IDX 76 37 78 38 29 39 81 40 75 41 74 42 30 44 62 45 42 46 61 47
REMARK SMILES IDX 43 48 46 49 60 50 79 51 44 52 45 53 59 55 80 56 47 57 31 58
REMARK SMILES IDX 32 59 40 60 33 61 35 62 41 63 34 64 36 65 37 66 38 67 39 68
REMARK SMILES IDX 63 69 64 70 72 71 65 72 67 73 73 74 66 75 68 76 69 77 70 78
REMARK SMILES IDX 71 79 48 80 49 81 57 82 50 83 52 84 58 85 51 86 53 87 54 88
REMARK SMILES IDX 55 89 56 90
REMARK H PARENT 14 6 8 16 19 24 78 43 46 54
REMARK Flexibility Score: inf
ROOT
ATOM      1  C   UNL A   1      31.761  30.401  26.475  1.00  0.00     0.023 C 
ENDROOT
BRANCH   1   2
ATOM      2  C   UNL A   1      33.213  29.986  26.240  1.00  0.00     0.116 C 
BRANCH   2   3
ATOM      3  N   UNL A   1      33.458  29.675  24.845  1.00  0.00    -0.355 N 
ATOM      4  C   UNL A   1      33.289  28.506  24.161  1.00  0.00     0.230 C 
ATOM      5  O   UNL A   1      33.520  28.519  22.949  1.00  0.00    -0.274 OA
ATOM      6  H   UNL A   1      33.802  30.424  24.307  1.00  0.00     0.163 HD
BRANCH   4   7
ATOM      7  C   UNL A   1      32.700  27.279  24.833  1.00  0.00     0.178 C 
BRANCH   7   8
ATOM      8  S   UNL A   1      33.905  26.154  25.581  1.00  0.00    -0.078 SA
BRANCH   8   9
ATOM      9  C   UNL A   1      33.039  24.656  25.602  1.00  0.00     0.168 A 
ATOM     10  C   UNL A   1      32.575  22.505  24.999  1.00  0.00     0.051 A 
ATOM     11  C   UNL A   1      31.488  22.458  25.790  1.00  0.00     0.095 A 
ATOM     12  N   UNL A   1      33.360  23.636  24.888  1.00  0.00    -0.229 NA
ATOM     13  C   UNL A   1      31.123  23.655  26.561  1.00  0.00     0.251 A 
ATOM     14  O   UNL A   1      30.110  23.694  27.251  1.00  0.00    -0.269 OA
ATOM     15  N   UNL A   1      31.971  24.705  26.434  1.00  0.00    -0.301 N 
ATOM     16  H   UNL A   1      31.806  25.523  26.957  1.00  0.00     0.172 HD
BRANCH  10  17
ATOM     17  C   UNL A   1      33.063  21.320  24.161  1.00  0.00     0.032 C 
ATOM     18  C   UNL A   1      33.199  19.991  24.917  1.00  0.00     0.014 C 
ATOM     19  C   UNL A   1      32.152  21.108  22.945  1.00  0.00     0.014 C 
ENDBRANCH  10  17
ENDBRANCH   8   9
ENDBRANCH   7   8
ENDBRANCH   4   7
ENDBRANCH   2   3
ENDBRANCH   1   2
BRANCH   1  20
ATOM     20  C   UNL A   1      31.561  31.899  26.727  1.00  0.00     0.023 C 
BRANCH  20  21
ATOM     21  C   UNL A   1      32.748  32.619  27.358  1.00  0.00     0.116 C 
BRANCH  21  22
ATOM     22  N   UNL A   1      32.475  34.023  27.633  1.00  0.00    -0.352 N 
ATOM     23  C   UNL A   1      33.060  34.853  28.559  1.00  0.00     0.251 C 
ATOM     24  H   UNL A   1      31.774  34.435  27.078  1.00  0.00     0.163 HD
ATOM     25  O   UNL A   1      32.601  35.975  28.749  1.00  0.00    -0.269 OA
BRANCH  23  26
ATOM     26  C   UNL A   1      34.223  34.381  29.343  1.00  0.00     0.039 A 
ATOM     27  C   UNL A   1      33.998  33.728  30.558  1.00  0.00     0.014 A 
ATOM     28  C   UNL A   1      35.527  34.563  28.876  1.00  0.00     0.014 A 
ATOM     29  C   UNL A   1      35.078  33.200  31.271  1.00  0.00     0.010 A 
ATOM     30  C   UNL A   1      36.592  33.970  29.547  1.00  0.00     0.010 A 
ATOM     31  C   UNL A   1      36.381  33.282  30.752  1.00  0.00    -0.014 A 
BRANCH  31  32
ATOM     32  C   UNL A   1      37.530  32.639  31.443  1.00  0.00     0.031 A 
ATOM     33  C   UNL A   1      38.264  31.494  30.798  1.00  0.00     0.074 A 
ATOM     34  C   UNL A   1      37.857  33.027  32.694  1.00  0.00     0.049 A 
ATOM     35  N   UNL A   1      39.248  30.775  31.271  1.00  0.00    -0.248 NA
ATOM     36  C   UNL A   1      37.819  31.086  29.455  1.00  0.00     0.031 C 
ATOM     37  C   UNL A   1      37.177  34.074  33.459  1.00  0.00     0.029 A 
ATOM     38  N   UNL A   1      38.826  32.567  33.551  1.00  0.00    -0.354 N 
ATOM     39  C   UNL A   1      39.512  29.807  30.308  1.00  0.00     0.074 A 
ATOM     40  C   UNL A   1      38.566  30.013  29.235  1.00  0.00     0.031 C 
ATOM     41  C   UNL A   1      37.754  34.181  34.668  1.00  0.00     0.029 A 
ATOM     42  C   UNL A   1      38.816  33.188  34.779  1.00  0.00     0.049 A 
ATOM     43  H   UNL A   1      39.467  31.860  33.311  1.00  0.00     0.167 HD
ATOM     44  C   UNL A   1      40.468  28.848  30.308  1.00  0.00     0.034 A 
ATOM     45  C   UNL A   1      39.569  32.974  35.877  1.00  0.00     0.034 A 
ATOM     46  C   UNL A   1      41.433  28.671  31.359  1.00  0.00     0.049 A 
ATOM     47  C   UNL A   1      40.642  31.918  35.837  1.00  0.00     0.074 A 
ATOM     48  C   UNL A   1      42.502  27.793  31.403  1.00  0.00     0.029 A 
ATOM     49  N   UNL A   1      41.439  29.367  32.557  1.00  0.00    -0.354 N 
ATOM     50  N   UNL A   1      40.982  31.125  34.849  1.00  0.00    -0.248 NA
ATOM     51  C   UNL A   1      41.455  31.750  37.048  1.00  0.00     0.031 C 
ATOM     52  C   UNL A   1      43.129  27.931  32.645  1.00  0.00     0.029 A 
ATOM     53  C   UNL A   1      42.478  28.926  33.356  1.00  0.00     0.049 A 
ATOM     54  H   UNL A   1      40.796  30.072  32.803  1.00  0.00     0.167 HD
ATOM     55  C   UNL A   1      42.075  30.396  35.307  1.00  0.00     0.074 A 
ATOM     56  C   UNL A   1      42.350  30.855  36.652  1.00  0.00     0.031 C 
ATOM     57  C   UNL A   1      42.778  29.427  34.673  1.00  0.00     0.034 A 
BRANCH  44  58
ATOM     58  C   UNL A   1      40.545  27.931  29.114  1.00  0.00     0.023 A 
ATOM     59  C   UNL A   1      39.658  26.840  29.009  1.00  0.00     0.012 A 
ATOM     60  C   UNL A   1      41.447  28.192  28.064  1.00  0.00     0.148 A 
ATOM     61  C   UNL A   1      39.689  26.003  27.895  1.00  0.00     0.002 A 
ATOM     62  C   UNL A   1      41.440  27.382  26.934  1.00  0.00     0.091 A 
ATOM     63  F   UNL A   1      42.296  29.221  28.190  1.00  0.00    -0.205 F 
ATOM     64  C   UNL A   1      40.571  26.280  26.853  1.00  0.00     0.022 A 
BRANCH  62  65
ATOM     65  S   UNL A   1      42.476  27.703  25.503  1.00  0.00     0.127 S 
ATOM     66  O   UNL A   1      41.905  28.951  25.000  1.00  0.00    -0.237 OA
ATOM     67  O   UNL A   1      43.801  27.840  26.108  1.00  0.00    -0.237 OA
ATOM     68  O   UNL A   1      42.322  26.551  24.627  1.00  0.00    -0.744 OA
ENDBRANCH  62  65
ENDBRANCH  44  58
BRANCH  45  69
ATOM     69  C   UNL A   1      39.375  33.811  37.096  1.00  0.00     0.023 A 
ATOM     70  C   UNL A   1      39.867  35.131  37.116  1.00  0.00     0.012 A 
ATOM     71  C   UNL A   1      38.706  33.311  38.230  1.00  0.00     0.148 A 
ATOM     72  C   UNL A   1      39.732  35.924  38.255  1.00  0.00     0.002 A 
ATOM     73  C   UNL A   1      38.524  34.127  39.341  1.00  0.00     0.091 A 
ATOM     74  F   UNL A   1      38.253  32.050  38.196  1.00  0.00    -0.205 F 
ATOM     75  C   UNL A   1      39.053  35.426  39.364  1.00  0.00     0.022 A 
BRANCH  73  76
ATOM     76  S   UNL A   1      37.554  33.615  40.762  1.00  0.00     0.127 S 
ATOM     77  O   UNL A   1      38.440  32.641  41.394  1.00  0.00    -0.237 OA
ATOM     78  O   UNL A   1      37.401  34.874  41.492  1.00  0.00    -0.237 OA
ATOM     79  O   UNL A   1      36.311  33.081  40.221  1.00  0.00    -0.744 OA
ENDBRANCH  73  76
ENDBRANCH  45  69
BRANCH  57  80
ATOM     80  C   UNL A   1      43.953  28.822  35.399  1.00  0.00     0.023 A 
ATOM     81  C   UNL A   1      43.775  27.683  36.209  1.00  0.00     0.012 A 
ATOM     82  C   UNL A   1      45.250  29.344  35.214  1.00  0.00     0.148 A 
ATOM     83  C   UNL A   1      44.864  27.095  36.852  1.00  0.00     0.002 A 
ATOM     84  C   UNL A   1      46.336  28.719  35.814  1.00  0.00     0.091 A 
ATOM     85  F   UNL A   1      45.395  30.438  34.452  1.00  0.00    -0.205 F 
ATOM     86  C   UNL A   1      46.144  27.604  36.644  1.00  0.00     0.022 A 
BRANCH  84  87
ATOM     87  S   UNL A   1      48.030  29.241  35.522  1.00  0.00     0.127 S 
ATOM     88  O   UNL A   1      48.762  28.432  36.495  1.00  0.00    -0.237 OA
ATOM     89  O   UNL A   1      48.237  28.852  34.126  1.00  0.00    -0.237 OA
ATOM     90  O   UNL A   1      48.056  30.678  35.761  1.00  0.00    -0.744 OA
ENDBRANCH  84  87
ENDBRANCH  57  80
ENDBRANCH  31  32
ENDBRANCH  23  26
ENDBRANCH  21  22
ENDBRANCH  20  21
ENDBRANCH   1  20
TORSDOF 17
ENDMDL
