MODEL 1
REMARK VINA RESULT:     -10.5      0.000      0.000
REMARK SMILES C[C@@H]1CC[C@@H](C(=O)NCCCCNC(=O)c2ccc(-c3c4nc(c(-c5cccc(S(=O)(=O)[O-])c5F)c5ccc([nH]5)c(-c5cccc(S(=O)(=O)[O-])c5F)c5nc(c(-c6cccc(S(=O)(=O)[O-])c6F)c6ccc3[nH]6)C=C5)C=C4)cc2)[C@H](SCC[NH+](C)C)C1
REMARK SMILES IDX 10 1 9 2 8 3 6 4 7 5 5 7 1 8 2 9 3 10 86 11 4 12 79 13 80 14
REMARK SMILES IDX 81 15 82 16 83 17 84 18 85 19 11 21 12 22 13 23 14 24 15 26
REMARK SMILES IDX 16 27 17 28 78 29 18 30 77 31 19 32 20 33 21 34 71 35 22 36
REMARK SMILES IDX 76 37 70 38 72 39 23 40 75 41 69 42 68 43 24 45 56 46 36 47
REMARK SMILES IDX 55 48 37 49 40 50 54 51 73 52 38 53 39 54 53 56 74 57 41 58
REMARK SMILES IDX 25 59 26 60 34 61 27 62 29 63 35 64 28 65 30 66 31 67 32 68
REMARK SMILES IDX 33 69 57 70 58 71 66 72 59 73 61 74 67 75 60 76 62 77 63 78
REMARK SMILES IDX 64 79 65 80 42 81 43 82 51 83 44 84 46 85 52 86 45 87 47 88
REMARK SMILES IDX 48 89 49 90 50 91
REMARK H PARENT 8 6 83 20 13 25 72 44 40 55
REMARK Flexibility Score: inf
ROOT
ATOM      1  C   UNL A   1      31.949  27.967  27.066  1.00  0.00     0.023 C 
ENDROOT
BRANCH   1   2
ATOM      2  C   UNL A   1      31.240  26.916  26.213  1.00  0.00     0.116 C 
BRANCH   2   3
ATOM      3  N   UNL A   1      31.135  25.633  26.862  1.00  0.00    -0.356 N 
ATOM      4  C   UNL A   1      31.483  24.387  26.471  1.00  0.00     0.224 C 
ATOM      5  O   UNL A   1      31.391  23.514  27.339  1.00  0.00    -0.275 OA
ATOM      6  H   UNL A   1      30.735  25.672  27.761  1.00  0.00     0.163 HD
BRANCH   4   7
ATOM      7  C   UNL A   1      31.855  24.038  25.011  1.00  0.00     0.091 C 
ATOM      8  C   UNL A   1      35.733  22.838  24.195  1.00  0.00     0.007 C 
ATOM      9  C   UNL A   1      34.738  23.130  25.321  1.00  0.00    -0.013 C 
ATOM     10  C   UNL A   1      33.590  22.104  25.406  1.00  0.00     0.004 C 
ATOM     11  C   UNL A   1      34.339  24.604  25.305  1.00  0.00     0.018 C 
ATOM     12  C   UNL A   1      32.144  22.535  25.122  1.00  0.00     0.015 C 
ATOM     13  C   UNL A   1      33.033  24.943  24.567  1.00  0.00     0.059 C 
BRANCH  13  14
ATOM     14  S   UNL A   1      33.507  25.630  22.864  1.00  0.00    -0.152 SA
BRANCH  14  15
ATOM     15  C   UNL A   1      32.089  26.124  21.804  1.00  0.00     0.131 C 
BRANCH  15  16
ATOM     16  C   UNL A   1      30.981  27.028  22.445  1.00  0.00     0.272 C 
BRANCH  16  17
ATOM     17  N   UNL A   1      31.046  28.491  22.236  1.00  0.00    -0.339 N 
ATOM     18  C   UNL A   1      29.725  29.131  22.277  1.00  0.00     0.332 C 
ATOM     19  C   UNL A   1      31.931  29.123  23.182  1.00  0.00     0.332 C 
ATOM     20  H   UNL A   1      31.420  28.621  21.296  1.00  0.00     0.347 HD
ENDBRANCH  16  17
ENDBRANCH  15  16
ENDBRANCH  14  15
ENDBRANCH  13  14
ENDBRANCH   4   7
ENDBRANCH   2   3
ENDBRANCH   1   2
BRANCH   1  21
ATOM     21  C   UNL A   1      33.472  28.059  26.914  1.00  0.00     0.023 C 
BRANCH  21  22
ATOM     22  C   UNL A   1      34.022  29.291  26.203  1.00  0.00     0.116 C 
BRANCH  22  23
ATOM     23  N   UNL A   1      33.840  30.523  26.952  1.00  0.00    -0.352 N 
ATOM     24  C   UNL A   1      34.625  31.059  27.949  1.00  0.00     0.251 C 
ATOM     25  H   UNL A   1      33.042  31.049  26.713  1.00  0.00     0.163 HD
ATOM     26  O   UNL A   1      34.258  32.068  28.536  1.00  0.00    -0.269 OA
BRANCH  24  27
ATOM     27  C   UNL A   1      35.892  30.393  28.331  1.00  0.00     0.039 A 
ATOM     28  C   UNL A   1      37.018  30.583  27.525  1.00  0.00     0.014 A 
ATOM     29  C   UNL A   1      35.978  29.601  29.477  1.00  0.00     0.014 A 
ATOM     30  C   UNL A   1      38.246  30.035  27.907  1.00  0.00     0.010 A 
ATOM     31  C   UNL A   1      37.217  29.119  29.896  1.00  0.00     0.010 A 
ATOM     32  C   UNL A   1      38.365  29.330  29.116  1.00  0.00    -0.014 A 
BRANCH  32  33
ATOM     33  C   UNL A   1      39.682  28.824  29.585  1.00  0.00     0.031 A 
ATOM     34  C   UNL A   1      40.415  29.522  30.699  1.00  0.00     0.074 A 
ATOM     35  C   UNL A   1      40.259  27.781  28.952  1.00  0.00     0.049 A 
ATOM     36  N   UNL A   1      41.588  29.252  31.211  1.00  0.00    -0.248 NA
ATOM     37  C   UNL A   1      39.756  30.693  31.301  1.00  0.00     0.031 C 
ATOM     38  C   UNL A   1      39.688  27.065  27.810  1.00  0.00     0.029 A 
ATOM     39  N   UNL A   1      41.465  27.158  29.163  1.00  0.00    -0.354 N 
ATOM     40  C   UNL A   1      41.825  30.236  32.163  1.00  0.00     0.074 A 
ATOM     41  C   UNL A   1      40.688  31.130  32.137  1.00  0.00     0.031 C 
ATOM     42  C   UNL A   1      40.536  26.097  27.427  1.00  0.00     0.029 A 
ATOM     43  C   UNL A   1      41.726  26.145  28.271  1.00  0.00     0.049 A 
ATOM     44  H   UNL A   1      42.084  27.414  29.885  1.00  0.00     0.167 HD
ATOM     45  C   UNL A   1      42.880  30.372  33.001  1.00  0.00     0.034 A 
ATOM     46  C   UNL A   1      42.806  25.348  28.139  1.00  0.00     0.034 A 
ATOM     47  C   UNL A   1      43.993  29.462  33.049  1.00  0.00     0.049 A 
ATOM     48  C   UNL A   1      43.953  25.504  29.101  1.00  0.00     0.074 A 
ATOM     49  C   UNL A   1      45.064  29.460  33.927  1.00  0.00     0.029 A 
ATOM     50  N   UNL A   1      44.189  28.403  32.177  1.00  0.00    -0.354 N 
ATOM     51  N   UNL A   1      44.082  26.340  30.103  1.00  0.00    -0.248 NA
ATOM     52  C   UNL A   1      45.088  24.584  28.937  1.00  0.00     0.031 C 
ATOM     53  C   UNL A   1      45.926  28.422  33.560  1.00  0.00     0.029 A 
ATOM     54  C   UNL A   1      45.372  27.752  32.482  1.00  0.00     0.049 A 
ATOM     55  H   UNL A   1      43.578  28.152  31.448  1.00  0.00     0.167 HD
ATOM     56  C   UNL A   1      45.290  26.021  30.712  1.00  0.00     0.074 A 
ATOM     57  C   UNL A   1      45.845  24.902  29.978  1.00  0.00     0.031 C 
ATOM     58  C   UNL A   1      45.891  26.608  31.777  1.00  0.00     0.034 A 
BRANCH  45  59
ATOM     59  C   UNL A   1      42.867  31.532  33.964  1.00  0.00     0.023 A 
ATOM     60  C   UNL A   1      43.373  32.785  33.560  1.00  0.00     0.012 A 
ATOM     61  C   UNL A   1      42.300  31.400  35.247  1.00  0.00     0.148 A 
ATOM     62  C   UNL A   1      43.351  33.875  34.428  1.00  0.00     0.002 A 
ATOM     63  C   UNL A   1      42.236  32.503  36.089  1.00  0.00     0.091 A 
ATOM     64  F   UNL A   1      41.840  30.198  35.622  1.00  0.00    -0.205 F 
ATOM     65  C   UNL A   1      42.774  33.737  35.688  1.00  0.00     0.022 A 
BRANCH  63  66
ATOM     66  S   UNL A   1      41.437  32.452  37.697  1.00  0.00     0.127 S 
ATOM     67  O   UNL A   1      40.077  32.052  37.337  1.00  0.00    -0.237 OA
ATOM     68  O   UNL A   1      42.212  31.423  38.392  1.00  0.00    -0.237 OA
ATOM     69  O   UNL A   1      41.567  33.791  38.254  1.00  0.00    -0.744 OA
ENDBRANCH  63  66
ENDBRANCH  45  59
BRANCH  46  70
ATOM     70  C   UNL A   1      42.831  24.290  27.089  1.00  0.00     0.023 A 
ATOM     71  C   UNL A   1      43.530  24.522  25.888  1.00  0.00     0.012 A 
ATOM     72  C   UNL A   1      42.184  23.053  27.278  1.00  0.00     0.148 A 
ATOM     73  C   UNL A   1      43.553  23.558  24.879  1.00  0.00     0.002 A 
ATOM     74  C   UNL A   1      42.259  22.075  26.293  1.00  0.00     0.091 A 
ATOM     75  F   UNL A   1      41.517  22.854  28.423  1.00  0.00    -0.205 F 
ATOM     76  C   UNL A   1      42.926  22.333  25.085  1.00  0.00     0.022 A 
BRANCH  74  77
ATOM     77  S   UNL A   1      41.593  20.423  26.521  1.00  0.00     0.127 S 
ATOM     78  O   UNL A   1      42.223  19.692  25.424  1.00  0.00    -0.237 OA
ATOM     79  O   UNL A   1      42.089  20.081  27.854  1.00  0.00    -0.237 OA
ATOM     80  O   UNL A   1      40.146  20.566  26.436  1.00  0.00    -0.744 OA
ENDBRANCH  74  77
ENDBRANCH  46  70
BRANCH  58  81
ATOM     81  C   UNL A   1      47.199  26.028  32.252  1.00  0.00     0.023 A 
ATOM     82  C   UNL A   1      48.415  26.491  31.711  1.00  0.00     0.012 A 
ATOM     83  C   UNL A   1      47.222  25.076  33.289  1.00  0.00     0.148 A 
ATOM     84  C   UNL A   1      49.632  25.986  32.169  1.00  0.00     0.002 A 
ATOM     85  C   UNL A   1      48.439  24.618  33.779  1.00  0.00     0.091 A 
ATOM     86  F   UNL A   1      46.054  24.635  33.779  1.00  0.00    -0.205 F 
ATOM     87  C   UNL A   1      49.645  25.061  33.211  1.00  0.00     0.022 A 
BRANCH  85  88
ATOM     88  S   UNL A   1      48.556  23.504  35.183  1.00  0.00     0.127 S 
ATOM     89  O   UNL A   1      50.004  23.345  35.317  1.00  0.00    -0.237 OA
ATOM     90  O   UNL A   1      47.926  24.282  36.250  1.00  0.00    -0.237 OA
ATOM     91  O   UNL A   1      47.831  22.299  34.803  1.00  0.00    -0.744 OA
ENDBRANCH  85  88
ENDBRANCH  58  81
ENDBRANCH  32  33
ENDBRANCH  24  27
ENDBRANCH  22  23
ENDBRANCH  21  22
ENDBRANCH   1  21
TORSDOF 18
ENDMDL
MODEL 2
REMARK VINA RESULT:     -10.4      5.253      9.645
REMARK SMILES C[C@@H]1CC[C@@H](C(=O)NCCCCNC(=O)c2ccc(-c3c4nc(c(-c5cccc(S(=O)(=O)[O-])c5F)c5ccc([nH]5)c(-c5cccc(S(=O)(=O)[O-])c5F)c5nc(c(-c6cccc(S(=O)(=O)[O-])c6F)c6ccc3[nH]6)C=C5)C=C4)cc2)[C@H](SCC[NH+](C)C)C1
REMARK SMILES IDX 10 1 9 2 8 3 6 4 7 5 5 7 1 8 2 9 3 10 86 11 4 12 79 13 80 14
REMARK SMILES IDX 81 15 82 16 83 17 84 18 85 19 11 21 12 22 13 23 14 24 15 26
REMARK SMILES IDX 16 27 17 28 78 29 18 30 77 31 19 32 20 33 21 34 71 35 22 36
REMARK SMILES IDX 76 37 70 38 72 39 23 40 75 41 69 42 68 43 24 45 56 46 36 47
REMARK SMILES IDX 55 48 37 49 40 50 54 51 73 52 38 53 39 54 53 56 74 57 41 58
REMARK SMILES IDX 25 59 26 60 34 61 27 62 29 63 35 64 28 65 30 66 31 67 32 68
REMARK SMILES IDX 33 69 57 70 58 71 66 72 59 73 61 74 67 75 60 76 62 77 63 78
REMARK SMILES IDX 64 79 65 80 42 81 43 82 51 83 44 84 46 85 52 86 45 87 47 88
REMARK SMILES IDX 48 89 49 90 50 91
REMARK H PARENT 8 6 83 20 13 25 72 44 40 55
REMARK Flexibility Score: inf
ROOT
ATOM      1  C   UNL A   1      35.242  22.798  23.458  1.00  0.00     0.023 C 
ENDROOT
BRANCH   1   2
ATOM      2  C   UNL A   1      34.006  23.190  22.649  1.00  0.00     0.116 C 
BRANCH   2   3
ATOM      3  N   UNL A   1      32.836  23.404  23.465  1.00  0.00    -0.356 N 
ATOM      4  C   UNL A   1      32.180  24.527  23.833  1.00  0.00     0.224 C 
ATOM      5  O   UNL A   1      31.112  24.346  24.425  1.00  0.00    -0.275 OA
ATOM      6  H   UNL A   1      32.441  22.576  23.820  1.00  0.00     0.163 HD
BRANCH   4   7
ATOM      7  C   UNL A   1      32.769  25.944  23.645  1.00  0.00     0.091 C 
ATOM      8  C   UNL A   1      32.361  28.677  26.729  1.00  0.00     0.007 C 
ATOM      9  C   UNL A   1      32.194  27.203  26.349  1.00  0.00    -0.013 C 
ATOM     10  C   UNL A   1      33.531  26.478  26.103  1.00  0.00     0.004 C 
ATOM     11  C   UNL A   1      31.124  27.054  25.269  1.00  0.00     0.018 C 
ATOM     12  C   UNL A   1      33.882  25.954  24.703  1.00  0.00     0.015 C 
ATOM     13  C   UNL A   1      31.633  26.984  23.820  1.00  0.00     0.059 C 
BRANCH  13  14
ATOM     14  S   UNL A   1      31.378  28.697  23.048  1.00  0.00    -0.152 SA
BRANCH  14  15
ATOM     15  C   UNL A   1      29.636  29.108  22.626  1.00  0.00     0.131 C 
BRANCH  15  16
ATOM     16  C   UNL A   1      29.390  30.282  21.617  1.00  0.00     0.272 C 
BRANCH  16  17
ATOM     17  N   UNL A   1      29.137  31.638  22.150  1.00  0.00    -0.339 N 
ATOM     18  C   UNL A   1      28.089  32.354  21.411  1.00  0.00     0.332 C 
ATOM     19  C   UNL A   1      28.817  31.605  23.554  1.00  0.00     0.332 C 
ATOM     20  H   UNL A   1      30.007  32.154  22.022  1.00  0.00     0.347 HD
ENDBRANCH  16  17
ENDBRANCH  15  16
ENDBRANCH  14  15
ENDBRANCH  13  14
ENDBRANCH   4   7
ENDBRANCH   2   3
ENDBRANCH   1   2
BRANCH   1  21
ATOM     21  C   UNL A   1      35.016  21.834  24.630  1.00  0.00     0.023 C 
BRANCH  21  22
ATOM     22  C   UNL A   1      36.052  21.855  25.749  1.00  0.00     0.116 C 
BRANCH  22  23
ATOM     23  N   UNL A   1      37.119  20.885  25.571  1.00  0.00    -0.352 N 
ATOM     24  C   UNL A   1      38.478  21.047  25.727  1.00  0.00     0.251 C 
ATOM     25  H   UNL A   1      36.829  19.983  25.299  1.00  0.00     0.163 HD
ATOM     26  O   UNL A   1      39.238  20.134  25.437  1.00  0.00    -0.269 OA
BRANCH  24  27
ATOM     27  C   UNL A   1      39.017  22.340  26.212  1.00  0.00     0.039 A 
ATOM     28  C   UNL A   1      40.092  22.325  27.104  1.00  0.00     0.014 A 
ATOM     29  C   UNL A   1      38.480  23.556  25.783  1.00  0.00     0.014 A 
ATOM     30  C   UNL A   1      40.674  23.530  27.510  1.00  0.00     0.010 A 
ATOM     31  C   UNL A   1      39.107  24.751  26.130  1.00  0.00     0.010 A 
ATOM     32  C   UNL A   1      40.211  24.752  26.997  1.00  0.00    -0.014 A 
BRANCH  32  33
ATOM     33  C   UNL A   1      40.878  26.035  27.344  1.00  0.00     0.031 A 
ATOM     34  C   UNL A   1      42.307  26.285  26.940  1.00  0.00     0.074 A 
ATOM     35  C   UNL A   1      40.224  26.945  28.096  1.00  0.00     0.049 A 
ATOM     36  N   UNL A   1      43.065  27.322  27.189  1.00  0.00    -0.248 NA
ATOM     37  C   UNL A   1      42.981  25.222  26.177  1.00  0.00     0.031 C 
ATOM     38  C   UNL A   1      38.864  26.791  28.616  1.00  0.00     0.029 A 
ATOM     39  N   UNL A   1      40.624  28.168  28.574  1.00  0.00    -0.354 N 
ATOM     40  C   UNL A   1      44.310  27.022  26.652  1.00  0.00     0.074 A 
ATOM     41  C   UNL A   1      44.217  25.692  26.089  1.00  0.00     0.031 C 
ATOM     42  C   UNL A   1      38.539  27.879  29.331  1.00  0.00     0.029 A 
ATOM     43  C   UNL A   1      39.677  28.793  29.353  1.00  0.00     0.049 A 
ATOM     44  H   UNL A   1      41.505  28.561  28.379  1.00  0.00     0.167 HD
ATOM     45  C   UNL A   1      45.425  27.790  26.607  1.00  0.00     0.034 A 
ATOM     46  C   UNL A   1      39.721  29.964  30.018  1.00  0.00     0.034 A 
ATOM     47  C   UNL A   1      45.504  29.126  27.136  1.00  0.00     0.049 A 
ATOM     48  C   UNL A   1      40.964  30.810  29.929  1.00  0.00     0.074 A 
ATOM     49  C   UNL A   1      46.557  30.020  27.056  1.00  0.00     0.029 A 
ATOM     50  N   UNL A   1      44.500  29.754  27.857  1.00  0.00    -0.354 N 
ATOM     51  N   UNL A   1      42.075  30.578  29.275  1.00  0.00    -0.248 NA
ATOM     52  C   UNL A   1      40.944  32.097  30.641  1.00  0.00     0.031 C 
ATOM     53  C   UNL A   1      46.204  31.175  27.761  1.00  0.00     0.029 A 
ATOM     54  C   UNL A   1      44.915  31.017  28.244  1.00  0.00     0.049 A 
ATOM     55  H   UNL A   1      43.622  29.360  28.062  1.00  0.00     0.167 HD
ATOM     56  C   UNL A   1      42.870  31.703  29.461  1.00  0.00     0.074 A 
ATOM     57  C   UNL A   1      42.104  32.624  30.275  1.00  0.00     0.031 C 
ATOM     58  C   UNL A   1      44.126  31.947  29.010  1.00  0.00     0.034 A 
BRANCH  45  59
ATOM     59  C   UNL A   1      46.645  27.220  25.930  1.00  0.00     0.023 A 
ATOM     60  C   UNL A   1      47.405  26.224  26.579  1.00  0.00     0.012 A 
ATOM     61  C   UNL A   1      47.004  27.622  24.630  1.00  0.00     0.148 A 
ATOM     62  C   UNL A   1      48.524  25.668  25.962  1.00  0.00     0.002 A 
ATOM     63  C   UNL A   1      48.092  27.029  24.000  1.00  0.00     0.091 A 
ATOM     64  F   UNL A   1      46.283  28.583  24.034  1.00  0.00    -0.205 F 
ATOM     65  C   UNL A   1      48.862  26.063  24.669  1.00  0.00     0.022 A 
BRANCH  63  66
ATOM     66  S   UNL A   1      48.558  27.405  22.306  1.00  0.00     0.127 S 
ATOM     67  O   UNL A   1      48.651  26.067  21.723  1.00  0.00    -0.237 OA
ATOM     68  O   UNL A   1      47.416  28.195  21.843  1.00  0.00    -0.237 OA
ATOM     69  O   UNL A   1      49.812  28.139  22.387  1.00  0.00    -0.744 OA
ENDBRANCH  63  66
ENDBRANCH  45  59
BRANCH  46  70
ATOM     70  C   UNL A   1      38.531  30.438  30.781  1.00  0.00     0.023 A 
ATOM     71  C   UNL A   1      38.415  30.122  32.149  1.00  0.00     0.012 A 
ATOM     72  C   UNL A   1      37.525  31.209  30.167  1.00  0.00     0.148 A 
ATOM     73  C   UNL A   1      37.302  30.533  32.884  1.00  0.00     0.002 A 
ATOM     74  C   UNL A   1      36.447  31.663  30.918  1.00  0.00     0.091 A 
ATOM     75  F   UNL A   1      37.649  31.491  28.863  1.00  0.00    -0.205 F 
ATOM     76  C   UNL A   1      36.324  31.310  32.271  1.00  0.00     0.022 A 
BRANCH  74  77
ATOM     77  S   UNL A   1      35.206  32.776  30.249  1.00  0.00     0.127 S 
ATOM     78  O   UNL A   1      36.018  33.919  29.837  1.00  0.00    -0.237 OA
ATOM     79  O   UNL A   1      34.654  31.983  29.149  1.00  0.00    -0.237 OA
ATOM     80  O   UNL A   1      34.271  33.025  31.338  1.00  0.00    -0.744 OA
ENDBRANCH  74  77
ENDBRANCH  46  70
BRANCH  58  81
ATOM     81  C   UNL A   1      44.743  33.281  29.340  1.00  0.00     0.023 A 
ATOM     82  C   UNL A   1      45.547  33.424  30.488  1.00  0.00     0.012 A 
ATOM     83  C   UNL A   1      44.584  34.376  28.468  1.00  0.00     0.148 A 
ATOM     84  C   UNL A   1      46.152  34.645  30.782  1.00  0.00     0.002 A 
ATOM     85  C   UNL A   1      45.233  35.574  28.738  1.00  0.00     0.091 A 
ATOM     86  F   UNL A   1      43.801  34.226  27.389  1.00  0.00    -0.205 F 
ATOM     87  C   UNL A   1      46.007  35.715  29.902  1.00  0.00     0.022 A 
BRANCH  85  88
ATOM     88  S   UNL A   1      45.187  36.972  27.611  1.00  0.00     0.127 S 
ATOM     89  O   UNL A   1      45.989  37.961  28.331  1.00  0.00    -0.237 OA
ATOM     90  O   UNL A   1      45.823  36.426  26.412  1.00  0.00    -0.237 OA
ATOM     91  O   UNL A   1      43.779  37.312  27.449  1.00  0.00    -0.744 OA
ENDBRANCH  85  88
ENDBRANCH  58  81
ENDBRANCH  32  33
ENDBRANCH  24  27
ENDBRANCH  22  23
ENDBRANCH  21  22
ENDBRANCH   1  21
TORSDOF 18
ENDMDL
MODEL 3
REMARK VINA RESULT:     -10.4      1.750      2.232
REMARK SMILES C[C@@H]1CC[C@@H](C(=O)NCCCCNC(=O)c2ccc(-c3c4nc(c(-c5cccc(S(=O)(=O)[O-])c5F)c5ccc([nH]5)c(-c5cccc(S(=O)(=O)[O-])c5F)c5nc(c(-c6cccc(S(=O)(=O)[O-])c6F)c6ccc3[nH]6)C=C5)C=C4)cc2)[C@H](SCC[NH+](C)C)C1
REMARK SMILES IDX 10 1 9 2 8 3 6 4 7 5 5 7 1 8 2 9 3 10 86 11 4 12 79 13 80 14
REMARK SMILES IDX 81 15 82 16 83 17 84 18 85 19 11 21 12 22 13 23 14 24 15 26
REMARK SMILES IDX 16 27 17 28 78 29 18 30 77 31 19 32 20 33 21 34 71 35 22 36
REMARK SMILES IDX 76 37 70 38 72 39 23 40 75 41 69 42 68 43 24 45 56 46 36 47
REMARK SMILES IDX 55 48 37 49 40 50 54 51 73 52 38 53 39 54 53 56 74 57 41 58
REMARK SMILES IDX 25 59 26 60 34 61 27 62 29 63 35 64 28 65 30 66 31 67 32 68
REMARK SMILES IDX 33 69 57 70 58 71 66 72 59 73 61 74 67 75 60 76 62 77 63 78
REMARK SMILES IDX 64 79 65 80 42 81 43 82 51 83 44 84 46 85 52 86 45 87 47 88
REMARK SMILES IDX 48 89 49 90 50 91
REMARK H PARENT 8 6 83 20 13 25 72 44 40 55
REMARK Flexibility Score: inf
ROOT
ATOM      1  C   UNL A   1      32.121  27.349  26.793  1.00  0.00     0.023 C 
ENDROOT
BRANCH   1   2
ATOM      2  C   UNL A   1      31.313  26.263  26.085  1.00  0.00     0.116 C 
BRANCH   2   3
ATOM      3  N   UNL A   1      31.112  25.086  26.893  1.00  0.00    -0.356 N 
ATOM      4  C   UNL A   1      31.445  23.789  26.706  1.00  0.00     0.224 C 
ATOM      5  O   UNL A   1      31.254  23.048  27.675  1.00  0.00    -0.275 OA
ATOM      6  H   UNL A   1      30.644  25.259  27.742  1.00  0.00     0.163 HD
BRANCH   4   7
ATOM      7  C   UNL A   1      31.917  23.232  25.343  1.00  0.00     0.091 C 
ATOM      8  C   UNL A   1      35.636  21.423  25.132  1.00  0.00     0.007 C 
ATOM      9  C   UNL A   1      34.579  21.973  26.093  1.00  0.00    -0.013 C 
ATOM     10  C   UNL A   1      33.288  21.133  26.132  1.00  0.00     0.004 C 
ATOM     11  C   UNL A   1      34.411  23.478  25.889  1.00  0.00     0.018 C 
ATOM     12  C   UNL A   1      31.963  21.724  25.631  1.00  0.00     0.015 C 
ATOM     13  C   UNL A   1      33.260  23.910  24.965  1.00  0.00     0.059 C 
BRANCH  13  14
ATOM     14  S   UNL A   1      34.014  24.330  23.277  1.00  0.00    -0.152 SA
BRANCH  14  15
ATOM     15  C   UNL A   1      32.798  24.755  21.966  1.00  0.00     0.131 C 
BRANCH  15  16
ATOM     16  C   UNL A   1      32.959  26.138  21.246  1.00  0.00     0.272 C 
BRANCH  16  17
ATOM     17  N   UNL A   1      32.348  27.337  21.860  1.00  0.00    -0.339 N 
ATOM     18  C   UNL A   1      31.063  27.051  22.510  1.00  0.00     0.332 C 
ATOM     19  C   UNL A   1      33.244  27.971  22.792  1.00  0.00     0.332 C 
ATOM     20  H   UNL A   1      32.164  27.980  21.089  1.00  0.00     0.347 HD
ENDBRANCH  16  17
ENDBRANCH  15  16
ENDBRANCH  14  15
ENDBRANCH  13  14
ENDBRANCH   4   7
ENDBRANCH   2   3
ENDBRANCH   1   2
BRANCH   1  21
ATOM     21  C   UNL A   1      31.870  28.794  26.343  1.00  0.00     0.023 C 
BRANCH  21  22
ATOM     22  C   UNL A   1      33.097  29.676  26.139  1.00  0.00     0.116 C 
BRANCH  22  23
ATOM     23  N   UNL A   1      32.926  31.033  26.630  1.00  0.00    -0.352 N 
ATOM     24  C   UNL A   1      33.712  31.746  27.508  1.00  0.00     0.251 C 
ATOM     25  H   UNL A   1      32.135  31.510  26.287  1.00  0.00     0.163 HD
ATOM     26  O   UNL A   1      33.354  32.854  27.884  1.00  0.00    -0.269 OA
BRANCH  24  27
ATOM     27  C   UNL A   1      34.969  31.154  28.022  1.00  0.00     0.039 A 
ATOM     28  C   UNL A   1      36.146  31.902  27.934  1.00  0.00     0.014 A 
ATOM     29  C   UNL A   1      34.990  29.883  28.599  1.00  0.00     0.014 A 
ATOM     30  C   UNL A   1      37.329  31.403  28.487  1.00  0.00     0.010 A 
ATOM     31  C   UNL A   1      36.151  29.420  29.215  1.00  0.00     0.010 A 
ATOM     32  C   UNL A   1      37.334  30.174  29.166  1.00  0.00    -0.014 A 
BRANCH  32  33
ATOM     33  C   UNL A   1      38.559  29.673  29.843  1.00  0.00     0.031 A 
ATOM     34  C   UNL A   1      38.950  30.197  31.200  1.00  0.00     0.074 A 
ATOM     35  C   UNL A   1      39.368  28.805  29.201  1.00  0.00     0.049 A 
ATOM     36  N   UNL A   1      40.002  29.910  31.922  1.00  0.00    -0.248 NA
ATOM     37  C   UNL A   1      38.056  31.191  31.814  1.00  0.00     0.031 C 
ATOM     38  C   UNL A   1      39.143  28.278  27.852  1.00  0.00     0.029 A 
ATOM     39  N   UNL A   1      40.555  28.230  29.584  1.00  0.00    -0.354 N 
ATOM     40  C   UNL A   1      39.918  30.713  33.053  1.00  0.00     0.074 A 
ATOM     41  C   UNL A   1      38.728  31.522  32.908  1.00  0.00     0.031 C 
ATOM     42  C   UNL A   1      40.150  27.454  27.526  1.00  0.00     0.029 A 
ATOM     43  C   UNL A   1      41.112  27.419  28.624  1.00  0.00     0.049 A 
ATOM     44  H   UNL A   1      40.968  28.386  30.465  1.00  0.00     0.167 HD
ATOM     45  C   UNL A   1      40.741  30.757  34.128  1.00  0.00     0.034 A 
ATOM     46  C   UNL A   1      42.271  26.730  28.620  1.00  0.00     0.034 A 
ATOM     47  C   UNL A   1      41.904  29.925  34.287  1.00  0.00     0.049 A 
ATOM     48  C   UNL A   1      43.153  26.776  29.839  1.00  0.00     0.074 A 
ATOM     49  C   UNL A   1      42.748  29.827  35.380  1.00  0.00     0.029 A 
ATOM     50  N   UNL A   1      42.398  29.061  33.321  1.00  0.00    -0.354 N 
ATOM     51  N   UNL A   1      42.969  27.417  30.967  1.00  0.00    -0.248 NA
ATOM     52  C   UNL A   1      44.386  25.975  29.798  1.00  0.00     0.031 C 
ATOM     53  C   UNL A   1      43.773  28.932  35.060  1.00  0.00     0.029 A 
ATOM     54  C   UNL A   1      43.545  28.440  33.785  1.00  0.00     0.049 A 
ATOM     55  H   UNL A   1      41.993  28.912  32.437  1.00  0.00     0.167 HD
ATOM     56  C   UNL A   1      44.038  27.067  31.784  1.00  0.00     0.074 A 
ATOM     57  C   UNL A   1      44.856  26.142  31.026  1.00  0.00     0.031 C 
ATOM     58  C   UNL A   1      44.324  27.482  33.043  1.00  0.00     0.034 A 
BRANCH  45  59
ATOM     59  C   UNL A   1      40.394  31.713  35.240  1.00  0.00     0.023 A 
ATOM     60  C   UNL A   1      41.084  32.938  35.351  1.00  0.00     0.012 A 
ATOM     61  C   UNL A   1      39.346  31.430  36.136  1.00  0.00     0.148 A 
ATOM     62  C   UNL A   1      40.764  33.847  36.360  1.00  0.00     0.002 A 
ATOM     63  C   UNL A   1      38.999  32.361  37.109  1.00  0.00     0.091 A 
ATOM     64  F   UNL A   1      38.712  30.253  36.028  1.00  0.00    -0.205 F 
ATOM     65  C   UNL A   1      39.715  33.563  37.231  1.00  0.00     0.022 A 
BRANCH  63  66
ATOM     66  S   UNL A   1      37.610  32.129  38.223  1.00  0.00     0.127 S 
ATOM     67  O   UNL A   1      37.279  30.723  37.993  1.00  0.00    -0.237 OA
ATOM     68  O   UNL A   1      38.213  32.408  39.527  1.00  0.00    -0.237 OA
ATOM     69  O   UNL A   1      36.594  33.085  37.806  1.00  0.00    -0.744 OA
ENDBRANCH  63  66
ENDBRANCH  45  59
BRANCH  46  70
ATOM     70  C   UNL A   1      42.639  25.889  27.445  1.00  0.00     0.023 A 
ATOM     71  C   UNL A   1      43.407  26.449  26.406  1.00  0.00     0.012 A 
ATOM     72  C   UNL A   1      42.248  24.539  27.358  1.00  0.00     0.148 A 
ATOM     73  C   UNL A   1      43.748  25.692  25.284  1.00  0.00     0.002 A 
ATOM     74  C   UNL A   1      42.639  23.774  26.265  1.00  0.00     0.091 A 
ATOM     75  F   UNL A   1      41.510  24.027  28.352  1.00  0.00    -0.205 F 
ATOM     76  C   UNL A   1      43.372  24.354  25.218  1.00  0.00     0.022 A 
BRANCH  74  77
ATOM     77  S   UNL A   1      42.313  22.011  26.154  1.00  0.00     0.127 S 
ATOM     78  O   UNL A   1      42.741  21.544  27.470  1.00  0.00    -0.237 OA
ATOM     79  O   UNL A   1      40.866  21.988  25.932  1.00  0.00    -0.237 OA
ATOM     80  O   UNL A   1      43.102  21.535  25.026  1.00  0.00    -0.744 OA
ENDBRANCH  74  77
ENDBRANCH  46  70
BRANCH  58  81
ATOM     81  C   UNL A   1      45.547  26.908  33.711  1.00  0.00     0.023 A 
ATOM     82  C   UNL A   1      46.772  27.603  33.661  1.00  0.00     0.012 A 
ATOM     83  C   UNL A   1      45.460  25.712  34.451  1.00  0.00     0.148 A 
ATOM     84  C   UNL A   1      47.900  27.097  34.306  1.00  0.00     0.002 A 
ATOM     85  C   UNL A   1      46.574  25.243  35.136  1.00  0.00     0.091 A 
ATOM     86  F   UNL A   1      44.291  25.057  34.472  1.00  0.00    -0.205 F 
ATOM     87  C   UNL A   1      47.798  25.926  35.054  1.00  0.00     0.022 A 
BRANCH  85  88
ATOM     88  S   UNL A   1      46.511  23.800  36.205  1.00  0.00     0.127 S 
ATOM     89  O   UNL A   1      45.447  24.167  37.139  1.00  0.00    -0.237 OA
ATOM     90  O   UNL A   1      46.160  22.734  35.267  1.00  0.00    -0.237 OA
ATOM     91  O   UNL A   1      47.839  23.676  36.792  1.00  0.00    -0.744 OA
ENDBRANCH  85  88
ENDBRANCH  58  81
ENDBRANCH  32  33
ENDBRANCH  24  27
ENDBRANCH  22  23
ENDBRANCH  21  22
ENDBRANCH   1  21
TORSDOF 18
ENDMDL
