MODEL 1
REMARK VINA RESULT:     -12.2      0.000      0.000
REMARK SMILES Cc1ccn2c([C@@H]3CCCC[C@@H]3C(=O)NCCCCNC(=O)c3ccc(-c4c5nc(c(-c6cccc(S(=O)(=O)[O-])c6F)c6ccc([nH]6)c(-c6cccc(S(=O)(=O)[O-])c6F)c6nc(c(-c7cccc(S(=O)(=O)[O-])c7F)c7ccc4[nH]7)C=C6)C=C5)cc3)nnc2c1
REMARK SMILES IDX 18 1 17 2 16 3 15 4 13 5 14 6 12 8 7 9 8 10 9 11 11 12 10 13
REMARK SMILES IDX 6 14 1 15 2 16 3 17 89 18 4 19 88 20 5 21 87 22 86 23 19 24
REMARK SMILES IDX 20 25 21 26 22 28 23 29 24 30 85 31 25 32 84 33 26 34 27 35
REMARK SMILES IDX 28 36 78 37 29 38 83 39 77 40 79 41 30 42 82 43 76 44 75 45
REMARK SMILES IDX 31 47 63 48 43 49 62 50 44 51 47 52 61 53 80 54 45 55 46 56
REMARK SMILES IDX 60 58 81 59 48 60 32 61 33 62 41 63 34 64 36 65 42 66 35 67
REMARK SMILES IDX 37 68 38 69 39 70 40 71 64 72 65 73 73 74 66 75 68 76 74 77
REMARK SMILES IDX 67 78 69 79 70 80 71 81 72 82 49 83 50 84 58 85 51 86 53 87
REMARK SMILES IDX 59 88 52 89 54 90 55 91 56 92 57 93
REMARK H PARENT 15 7 20 27 79 46 47 57
REMARK Flexibility Score: inf
ROOT
ATOM      1  C   UNL A   1      38.413  20.269  24.996  1.00  0.00     0.023 C 
ENDROOT
BRANCH   1   2
ATOM      2  C   UNL A   1      38.552  21.611  25.731  1.00  0.00     0.023 C 
BRANCH   2   3
ATOM      3  C   UNL A   1      37.624  22.747  25.291  1.00  0.00     0.116 C 
BRANCH   3   4
ATOM      4  N   UNL A   1      36.407  22.837  26.083  1.00  0.00    -0.356 N 
ATOM      5  C   UNL A   1      35.160  22.323  25.902  1.00  0.00     0.223 C 
ATOM      6  O   UNL A   1      34.355  22.485  26.823  1.00  0.00    -0.275 OA
ATOM      7  H   UNL A   1      36.503  23.371  26.905  1.00  0.00     0.163 HD
BRANCH   5   8
ATOM      8  C   UNL A   1      34.756  21.624  24.606  1.00  0.00     0.089 C 
ATOM      9  C   UNL A   1      33.480  22.203  23.952  1.00  0.00     0.071 C 
ATOM     10  C   UNL A   1      32.174  21.850  24.673  1.00  0.00     0.012 C 
ATOM     11  C   UNL A   1      32.040  20.342  24.869  1.00  0.00     0.001 C 
ATOM     12  C   UNL A   1      34.571  20.112  24.874  1.00  0.00     0.014 C 
ATOM     13  C   UNL A   1      33.256  19.748  25.570  1.00  0.00     0.001 C 
BRANCH   9  14
ATOM     14  C   UNL A   1      33.580  23.643  23.542  1.00  0.00     0.141 A 
ATOM     15  C   UNL A   1      33.426  28.647  26.036  1.00  0.00     0.044 C 
ATOM     16  C   UNL A   1      33.344  27.318  25.347  1.00  0.00    -0.046 A 
ATOM     17  C   UNL A   1      32.893  26.186  26.152  1.00  0.00     0.022 A 
ATOM     18  C   UNL A   1      33.699  27.142  24.055  1.00  0.00     0.053 A 
ATOM     19  C   UNL A   1      32.902  24.952  25.619  1.00  0.00     0.095 A 
ATOM     20  C   UNL A   1      33.697  25.836  23.489  1.00  0.00     0.161 A 
ATOM     21  N   UNL A   1      33.341  24.771  24.309  1.00  0.00    -0.286 N 
ATOM     22  N   UNL A   1      34.033  25.390  22.301  1.00  0.00    -0.130 NA
ATOM     23  N   UNL A   1      33.961  24.021  22.333  1.00  0.00    -0.134 NA
ENDBRANCH   9  14
ENDBRANCH   5   8
ENDBRANCH   3   4
ENDBRANCH   2   3
ENDBRANCH   1   2
BRANCH   1  24
ATOM     24  C   UNL A   1      38.961  19.050  25.735  1.00  0.00     0.116 C 
BRANCH  24  25
ATOM     25  N   UNL A   1      40.361  18.787  25.490  1.00  0.00    -0.352 N 
ATOM     26  C   UNL A   1      41.543  19.370  25.858  1.00  0.00     0.251 C 
ATOM     27  H   UNL A   1      40.498  17.995  24.921  1.00  0.00     0.163 HD
ATOM     28  O   UNL A   1      42.554  18.706  25.604  1.00  0.00    -0.269 OA
BRANCH  26  29
ATOM     29  C   UNL A   1      41.705  20.722  26.463  1.00  0.00     0.039 A 
ATOM     30  C   UNL A   1      42.248  21.841  25.833  1.00  0.00     0.014 A 
ATOM     31  C   UNL A   1      41.309  20.841  27.812  1.00  0.00     0.014 A 
ATOM     32  C   UNL A   1      42.458  23.018  26.553  1.00  0.00     0.010 A 
ATOM     33  C   UNL A   1      41.508  22.016  28.532  1.00  0.00     0.010 A 
ATOM     34  C   UNL A   1      42.117  23.097  27.910  1.00  0.00    -0.014 A 
BRANCH  34  35
ATOM     35  C   UNL A   1      42.258  24.392  28.580  1.00  0.00     0.031 A 
ATOM     36  C   UNL A   1      41.140  25.329  28.281  1.00  0.00     0.074 A 
ATOM     37  C   UNL A   1      43.224  24.705  29.473  1.00  0.00     0.049 A 
ATOM     38  N   UNL A   1      41.188  26.420  27.588  1.00  0.00    -0.248 NA
ATOM     39  C   UNL A   1      39.778  24.924  28.667  1.00  0.00     0.031 C 
ATOM     40  C   UNL A   1      44.187  23.784  30.081  1.00  0.00     0.029 A 
ATOM     41  N   UNL A   1      43.477  25.885  30.123  1.00  0.00    -0.354 N 
ATOM     42  C   UNL A   1      39.912  26.971  27.691  1.00  0.00     0.074 A 
ATOM     43  C   UNL A   1      39.049  25.932  28.184  1.00  0.00     0.031 C 
ATOM     44  C   UNL A   1      44.740  24.369  31.168  1.00  0.00     0.029 A 
ATOM     45  C   UNL A   1      44.287  25.746  31.251  1.00  0.00     0.049 A 
ATOM     46  H   UNL A   1      43.120  26.753  29.821  1.00  0.00     0.167 HD
ATOM     47  C   UNL A   1      39.732  28.320  27.679  1.00  0.00     0.034 A 
ATOM     48  C   UNL A   1      44.519  26.678  32.210  1.00  0.00     0.034 A 
ATOM     49  C   UNL A   1      40.899  29.011  27.216  1.00  0.00     0.049 A 
ATOM     50  C   UNL A   1      44.282  28.002  31.595  1.00  0.00     0.074 A 
ATOM     51  C   UNL A   1      41.526  29.260  26.018  1.00  0.00     0.029 A 
ATOM     52  N   UNL A   1      41.796  29.264  28.217  1.00  0.00    -0.354 N 
ATOM     53  N   UNL A   1      45.015  28.500  30.639  1.00  0.00    -0.248 NA
ATOM     54  C   UNL A   1      43.035  28.709  31.871  1.00  0.00     0.031 C 
ATOM     55  C   UNL A   1      42.888  29.541  26.335  1.00  0.00     0.029 A 
ATOM     56  C   UNL A   1      43.046  29.483  27.717  1.00  0.00     0.049 A 
ATOM     57  H   UNL A   1      41.568  29.286  29.174  1.00  0.00     0.167 HD
ATOM     58  C   UNL A   1      44.132  29.286  29.927  1.00  0.00     0.074 A 
ATOM     59  C   UNL A   1      43.011  29.531  30.821  1.00  0.00     0.031 C 
ATOM     60  C   UNL A   1      44.205  29.366  28.571  1.00  0.00     0.034 A 
BRANCH  47  61
ATOM     61  C   UNL A   1      38.726  29.043  28.547  1.00  0.00     0.023 A 
ATOM     62  C   UNL A   1      37.935  30.050  27.952  1.00  0.00     0.012 A 
ATOM     63  C   UNL A   1      38.743  28.992  29.960  1.00  0.00     0.148 A 
ATOM     64  C   UNL A   1      37.192  30.950  28.727  1.00  0.00     0.002 A 
ATOM     65  C   UNL A   1      37.940  29.833  30.721  1.00  0.00     0.091 A 
ATOM     66  F   UNL A   1      39.649  28.232  30.583  1.00  0.00    -0.205 F 
ATOM     67  C   UNL A   1      37.179  30.829  30.112  1.00  0.00     0.022 A 
BRANCH  65  68
ATOM     68  S   UNL A   1      37.869  29.686  32.511  1.00  0.00     0.127 S 
ATOM     69  O   UNL A   1      39.231  30.068  32.887  1.00  0.00    -0.237 OA
ATOM     70  O   UNL A   1      36.836  30.669  32.846  1.00  0.00    -0.237 OA
ATOM     71  O   UNL A   1      37.491  28.309  32.772  1.00  0.00    -0.744 OA
ENDBRANCH  65  68
ENDBRANCH  47  61
BRANCH  48  72
ATOM     72  C   UNL A   1      44.750  26.553  33.676  1.00  0.00     0.023 A 
ATOM     73  C   UNL A   1      45.969  27.024  34.217  1.00  0.00     0.012 A 
ATOM     74  C   UNL A   1      43.697  26.286  34.575  1.00  0.00     0.148 A 
ATOM     75  C   UNL A   1      46.102  27.307  35.582  1.00  0.00     0.002 A 
ATOM     76  C   UNL A   1      43.839  26.555  35.936  1.00  0.00     0.091 A 
ATOM     77  F   UNL A   1      42.522  25.860  34.093  1.00  0.00    -0.205 F 
ATOM     78  C   UNL A   1      45.031  27.090  36.439  1.00  0.00     0.022 A 
BRANCH  76  79
ATOM     79  S   UNL A   1      42.495  26.292  37.103  1.00  0.00     0.127 S 
ATOM     80  O   UNL A   1      41.537  27.326  36.708  1.00  0.00    -0.237 OA
ATOM     81  O   UNL A   1      42.082  24.927  36.789  1.00  0.00    -0.237 OA
ATOM     82  O   UNL A   1      43.078  26.495  38.422  1.00  0.00    -0.744 OA
ENDBRANCH  76  79
ENDBRANCH  48  72
BRANCH  60  83
ATOM     83  C   UNL A   1      45.522  29.128  27.910  1.00  0.00     0.023 A 
ATOM     84  C   UNL A   1      46.541  30.095  27.859  1.00  0.00     0.012 A 
ATOM     85  C   UNL A   1      45.786  27.813  27.492  1.00  0.00     0.148 A 
ATOM     86  C   UNL A   1      47.818  29.743  27.411  1.00  0.00     0.002 A 
ATOM     87  C   UNL A   1      47.063  27.458  27.094  1.00  0.00     0.091 A 
ATOM     88  F   UNL A   1      44.784  26.922  27.553  1.00  0.00    -0.205 F 
ATOM     89  C   UNL A   1      48.083  28.421  27.046  1.00  0.00     0.022 A 
BRANCH  87  90
ATOM     90  S   UNL A   1      47.497  25.755  26.739  1.00  0.00     0.127 S 
ATOM     91  O   UNL A   1      47.178  25.088  28.000  1.00  0.00    -0.237 OA
ATOM     92  O   UNL A   1      46.595  25.437  25.631  1.00  0.00    -0.237 OA
ATOM     93  O   UNL A   1      48.910  25.758  26.384  1.00  0.00    -0.744 OA
ENDBRANCH  87  90
ENDBRANCH  60  83
ENDBRANCH  34  35
ENDBRANCH  26  29
ENDBRANCH  24  25
ENDBRANCH   1  24
TORSDOF 15
ENDMDL
MODEL 2
REMARK VINA RESULT:     -12.1      3.140      8.000
REMARK SMILES Cc1ccn2c([C@@H]3CCCC[C@@H]3C(=O)NCCCCNC(=O)c3ccc(-c4c5nc(c(-c6cccc(S(=O)(=O)[O-])c6F)c6ccc([nH]6)c(-c6cccc(S(=O)(=O)[O-])c6F)c6nc(c(-c7cccc(S(=O)(=O)[O-])c7F)c7ccc4[nH]7)C=C6)C=C5)cc3)nnc2c1
REMARK SMILES IDX 18 1 17 2 16 3 15 4 13 5 14 6 12 8 7 9 8 10 9 11 11 12 10 13
REMARK SMILES IDX 6 14 1 15 2 16 3 17 89 18 4 19 88 20 5 21 87 22 86 23 19 24
REMARK SMILES IDX 20 25 21 26 22 28 23 29 24 30 85 31 25 32 84 33 26 34 27 35
REMARK SMILES IDX 28 36 78 37 29 38 83 39 77 40 79 41 30 42 82 43 76 44 75 45
REMARK SMILES IDX 31 47 63 48 43 49 62 50 44 51 47 52 61 53 80 54 45 55 46 56
REMARK SMILES IDX 60 58 81 59 48 60 32 61 33 62 41 63 34 64 36 65 42 66 35 67
REMARK SMILES IDX 37 68 38 69 39 70 40 71 64 72 65 73 73 74 66 75 68 76 74 77
REMARK SMILES IDX 67 78 69 79 70 80 71 81 72 82 49 83 50 84 58 85 51 86 53 87
REMARK SMILES IDX 59 88 52 89 54 90 55 91 56 92 57 93
REMARK H PARENT 15 7 20 27 79 46 47 57
REMARK Flexibility Score: inf
ROOT
ATOM      1  C   UNL A   1      33.698  30.901  27.480  1.00  0.00     0.023 C 
ENDROOT
BRANCH   1   2
ATOM      2  C   UNL A   1      34.666  29.732  27.243  1.00  0.00     0.023 C 
BRANCH   2   3
ATOM      3  C   UNL A   1      34.100  28.485  26.559  1.00  0.00     0.116 C 
BRANCH   3   4
ATOM      4  N   UNL A   1      33.943  28.636  25.121  1.00  0.00    -0.356 N 
ATOM      5  C   UNL A   1      32.847  28.831  24.338  1.00  0.00     0.223 C 
ATOM      6  O   UNL A   1      33.053  29.037  23.139  1.00  0.00    -0.275 OA
ATOM      7  H   UNL A   1      34.789  28.588  24.619  1.00  0.00     0.163 HD
BRANCH   5   8
ATOM      8  C   UNL A   1      31.430  28.752  24.899  1.00  0.00     0.089 C 
ATOM      9  C   UNL A   1      30.747  27.381  24.688  1.00  0.00     0.071 C 
ATOM     10  C   UNL A   1      30.305  27.101  23.248  1.00  0.00     0.012 C 
ATOM     11  C   UNL A   1      29.426  28.227  22.710  1.00  0.00     0.001 C 
ATOM     12  C   UNL A   1      30.566  29.872  24.275  1.00  0.00     0.014 C 
ATOM     13  C   UNL A   1      30.097  29.589  22.845  1.00  0.00     0.001 C 
BRANCH   9  14
ATOM     14  C   UNL A   1      31.437  26.225  25.350  1.00  0.00     0.141 A 
ATOM     15  C   UNL A   1      35.962  23.067  24.428  1.00  0.00     0.044 C 
ATOM     16  C   UNL A   1      34.682  23.825  24.613  1.00  0.00    -0.046 A 
ATOM     17  C   UNL A   1      34.245  24.661  23.498  1.00  0.00     0.022 A 
ATOM     18  C   UNL A   1      33.968  23.786  25.760  1.00  0.00     0.053 A 
ATOM     19  C   UNL A   1      33.165  25.447  23.646  1.00  0.00     0.095 A 
ATOM     20  C   UNL A   1      32.819  24.610  25.911  1.00  0.00     0.161 A 
ATOM     21  N   UNL A   1      32.479  25.454  24.859  1.00  0.00    -0.286 N 
ATOM     22  N   UNL A   1      31.992  24.796  26.914  1.00  0.00    -0.130 NA
ATOM     23  N   UNL A   1      31.130  25.803  26.565  1.00  0.00    -0.134 NA
ENDBRANCH   9  14
ENDBRANCH   5   8
ENDBRANCH   3   4
ENDBRANCH   2   3
ENDBRANCH   1   2
BRANCH   1  24
ATOM     24  C   UNL A   1      34.320  32.166  28.067  1.00  0.00     0.116 C 
BRANCH  24  25
ATOM     25  N   UNL A   1      34.267  32.240  29.510  1.00  0.00    -0.352 N 
ATOM     26  C   UNL A   1      35.155  32.039  30.530  1.00  0.00     0.251 C 
ATOM     27  H   UNL A   1      33.375  32.499  29.837  1.00  0.00     0.163 HD
ATOM     28  O   UNL A   1      34.765  32.412  31.642  1.00  0.00    -0.269 OA
BRANCH  26  29
ATOM     29  C   UNL A   1      36.484  31.373  30.422  1.00  0.00     0.039 A 
ATOM     30  C   UNL A   1      37.720  32.016  30.381  1.00  0.00     0.014 A 
ATOM     31  C   UNL A   1      36.456  29.968  30.303  1.00  0.00     0.014 A 
ATOM     32  C   UNL A   1      38.884  31.281  30.154  1.00  0.00     0.010 A 
ATOM     33  C   UNL A   1      37.616  29.230  30.085  1.00  0.00     0.010 A 
ATOM     34  C   UNL A   1      38.831  29.892  29.973  1.00  0.00    -0.014 A 
BRANCH  34  35
ATOM     35  C   UNL A   1      40.096  29.166  29.849  1.00  0.00     0.031 A 
ATOM     36  C   UNL A   1      40.780  28.955  31.155  1.00  0.00     0.074 A 
ATOM     37  C   UNL A   1      40.574  28.625  28.706  1.00  0.00     0.049 A 
ATOM     38  N   UNL A   1      41.883  29.492  31.565  1.00  0.00    -0.248 NA
ATOM     39  C   UNL A   1      40.073  28.178  32.188  1.00  0.00     0.031 C 
ATOM     40  C   UNL A   1      39.860  28.492  27.434  1.00  0.00     0.029 A 
ATOM     41  N   UNL A   1      41.753  27.968  28.464  1.00  0.00    -0.354 N 
ATOM     42  C   UNL A   1      42.139  28.898  32.799  1.00  0.00     0.074 A 
ATOM     43  C   UNL A   1      40.918  28.264  33.217  1.00  0.00     0.031 C 
ATOM     44  C   UNL A   1      40.505  27.598  26.650  1.00  0.00     0.029 A 
ATOM     45  C   UNL A   1      41.746  27.207  27.295  1.00  0.00     0.049 A 
ATOM     46  H   UNL A   1      42.534  28.028  29.062  1.00  0.00     0.167 HD
ATOM     47  C   UNL A   1      43.416  28.692  33.222  1.00  0.00     0.034 A 
ATOM     48  C   UNL A   1      42.665  26.284  26.915  1.00  0.00     0.034 A 
ATOM     49  C   UNL A   1      44.362  29.441  32.450  1.00  0.00     0.049 A 
ATOM     50  C   UNL A   1      43.931  26.623  27.602  1.00  0.00     0.074 A 
ATOM     51  C   UNL A   1      44.792  30.744  32.351  1.00  0.00     0.029 A 
ATOM     52  N   UNL A   1      44.763  28.783  31.320  1.00  0.00    -0.354 N 
ATOM     53  N   UNL A   1      44.615  27.707  27.366  1.00  0.00    -0.248 NA
ATOM     54  C   UNL A   1      44.338  25.859  28.777  1.00  0.00     0.031 C 
ATOM     55  C   UNL A   1      45.348  30.879  31.045  1.00  0.00     0.029 A 
ATOM     56  C   UNL A   1      45.268  29.650  30.396  1.00  0.00     0.049 A 
ATOM     57  H   UNL A   1      44.694  27.810  31.191  1.00  0.00     0.167 HD
ATOM     58  C   UNL A   1      45.220  27.980  28.576  1.00  0.00     0.074 A 
ATOM     59  C   UNL A   1      45.178  26.736  29.329  1.00  0.00     0.031 C 
ATOM     60  C   UNL A   1      45.370  29.261  29.008  1.00  0.00     0.034 A 
BRANCH  47  61
ATOM     61  C   UNL A   1      43.866  27.456  33.969  1.00  0.00     0.023 A 
ATOM     62  C   UNL A   1      43.916  26.234  33.264  1.00  0.00     0.012 A 
ATOM     63  C   UNL A   1      43.941  27.386  35.380  1.00  0.00     0.148 A 
ATOM     64  C   UNL A   1      44.045  25.009  33.932  1.00  0.00     0.002 A 
ATOM     65  C   UNL A   1      44.153  26.177  36.031  1.00  0.00     0.091 A 
ATOM     66  F   UNL A   1      43.657  28.468  36.111  1.00  0.00    -0.205 F 
ATOM     67  C   UNL A   1      44.184  24.982  35.315  1.00  0.00     0.022 A 
BRANCH  65  68
ATOM     68  S   UNL A   1      44.371  26.104  37.813  1.00  0.00     0.127 S 
ATOM     69  O   UNL A   1      44.773  24.708  37.999  1.00  0.00    -0.237 OA
ATOM     70  O   UNL A   1      45.436  27.088  38.021  1.00  0.00    -0.237 OA
ATOM     71  O   UNL A   1      43.088  26.484  38.376  1.00  0.00    -0.744 OA
ENDBRANCH  65  68
ENDBRANCH  47  61
BRANCH  48  72
ATOM     72  C   UNL A   1      42.533  25.009  26.157  1.00  0.00     0.023 A 
ATOM     73  C   UNL A   1      43.536  24.664  25.221  1.00  0.00     0.012 A 
ATOM     74  C   UNL A   1      41.636  23.996  26.556  1.00  0.00     0.148 A 
ATOM     75  C   UNL A   1      43.698  23.346  24.775  1.00  0.00     0.002 A 
ATOM     76  C   UNL A   1      41.792  22.688  26.097  1.00  0.00     0.091 A 
ATOM     77  F   UNL A   1      40.689  24.283  27.457  1.00  0.00    -0.205 F 
ATOM     78  C   UNL A   1      42.837  22.354  25.227  1.00  0.00     0.022 A 
BRANCH  76  79
ATOM     79  S   UNL A   1      40.710  21.356  26.636  1.00  0.00     0.127 S 
ATOM     80  O   UNL A   1      39.436  21.722  26.014  1.00  0.00    -0.237 OA
ATOM     81  O   UNL A   1      41.357  20.184  26.055  1.00  0.00    -0.237 OA
ATOM     82  O   UNL A   1      40.702  21.424  28.091  1.00  0.00    -0.744 OA
ENDBRANCH  76  79
ENDBRANCH  48  72
BRANCH  60  83
ATOM     83  C   UNL A   1      45.451  30.354  27.995  1.00  0.00     0.023 A 
ATOM     84  C   UNL A   1      44.317  30.976  27.444  1.00  0.00     0.012 A 
ATOM     85  C   UNL A   1      46.728  30.880  27.741  1.00  0.00     0.148 A 
ATOM     86  C   UNL A   1      44.462  32.125  26.661  1.00  0.00     0.002 A 
ATOM     87  C   UNL A   1      46.863  32.044  27.004  1.00  0.00     0.091 A 
ATOM     88  F   UNL A   1      47.785  30.253  28.282  1.00  0.00    -0.205 F 
ATOM     89  C   UNL A   1      45.732  32.669  26.457  1.00  0.00     0.022 A 
BRANCH  87  90
ATOM     90  S   UNL A   1      48.448  32.859  26.817  1.00  0.00     0.127 S 
ATOM     91  O   UNL A   1      49.312  31.759  26.393  1.00  0.00    -0.237 OA
ATOM     92  O   UNL A   1      48.159  33.848  25.777  1.00  0.00    -0.237 OA
ATOM     93  O   UNL A   1      48.771  33.430  28.118  1.00  0.00    -0.744 OA
ENDBRANCH  87  90
ENDBRANCH  60  83
ENDBRANCH  34  35
ENDBRANCH  26  29
ENDBRANCH  24  25
ENDBRANCH   1  24
TORSDOF 15
ENDMDL
MODEL 3
REMARK VINA RESULT:     -12.1      3.302      7.672
REMARK SMILES Cc1ccn2c([C@@H]3CCCC[C@@H]3C(=O)NCCCCNC(=O)c3ccc(-c4c5nc(c(-c6cccc(S(=O)(=O)[O-])c6F)c6ccc([nH]6)c(-c6cccc(S(=O)(=O)[O-])c6F)c6nc(c(-c7cccc(S(=O)(=O)[O-])c7F)c7ccc4[nH]7)C=C6)C=C5)cc3)nnc2c1
REMARK SMILES IDX 18 1 17 2 16 3 15 4 13 5 14 6 12 8 7 9 8 10 9 11 11 12 10 13
REMARK SMILES IDX 6 14 1 15 2 16 3 17 89 18 4 19 88 20 5 21 87 22 86 23 19 24
REMARK SMILES IDX 20 25 21 26 22 28 23 29 24 30 85 31 25 32 84 33 26 34 27 35
REMARK SMILES IDX 28 36 78 37 29 38 83 39 77 40 79 41 30 42 82 43 76 44 75 45
REMARK SMILES IDX 31 47 63 48 43 49 62 50 44 51 47 52 61 53 80 54 45 55 46 56
REMARK SMILES IDX 60 58 81 59 48 60 32 61 33 62 41 63 34 64 36 65 42 66 35 67
REMARK SMILES IDX 37 68 38 69 39 70 40 71 64 72 65 73 73 74 66 75 68 76 74 77
REMARK SMILES IDX 67 78 69 79 70 80 71 81 72 82 49 83 50 84 58 85 51 86 53 87
REMARK SMILES IDX 59 88 52 89 54 90 55 91 56 92 57 93
REMARK H PARENT 15 7 20 27 79 46 47 57
REMARK Flexibility Score: inf
ROOT
ATOM      1  C   UNL A   1      32.200  30.596  26.921  1.00  0.00     0.023 C 
ENDROOT
BRANCH   1   2
ATOM      2  C   UNL A   1      31.985  29.235  26.242  1.00  0.00     0.023 C 
BRANCH   2   3
ATOM      3  C   UNL A   1      32.124  27.988  27.119  1.00  0.00     0.116 C 
BRANCH   3   4
ATOM      4  N   UNL A   1      31.062  27.015  26.912  1.00  0.00    -0.356 N 
ATOM      5  C   UNL A   1      31.045  25.797  26.307  1.00  0.00     0.223 C 
ATOM      6  O   UNL A   1      29.998  25.151  26.393  1.00  0.00    -0.275 OA
ATOM      7  H   UNL A   1      30.191  27.291  27.279  1.00  0.00     0.163 HD
BRANCH   5   8
ATOM      8  C   UNL A   1      32.242  25.271  25.519  1.00  0.00     0.089 C 
ATOM      9  C   UNL A   1      32.050  25.312  23.985  1.00  0.00     0.071 C 
ATOM     10  C   UNL A   1      31.087  24.255  23.432  1.00  0.00     0.012 C 
ATOM     11  C   UNL A   1      31.485  22.852  23.887  1.00  0.00     0.001 C 
ATOM     12  C   UNL A   1      32.562  23.827  25.971  1.00  0.00     0.014 C 
ATOM     13  C   UNL A   1      31.622  22.761  25.402  1.00  0.00     0.001 C 
BRANCH   9  14
ATOM     14  C   UNL A   1      31.844  26.683  23.412  1.00  0.00     0.141 A 
ATOM     15  C   UNL A   1      27.628  30.320  22.872  1.00  0.00     0.044 C 
ATOM     16  C   UNL A   1      28.729  29.303  22.901  1.00  0.00    -0.046 A 
ATOM     17  C   UNL A   1      28.358  27.942  23.276  1.00  0.00     0.022 A 
ATOM     18  C   UNL A   1      30.017  29.612  22.634  1.00  0.00     0.053 A 
ATOM     19  C   UNL A   1      29.317  27.012  23.425  1.00  0.00     0.095 A 
ATOM     20  C   UNL A   1      31.031  28.625  22.782  1.00  0.00     0.161 A 
ATOM     21  N   UNL A   1      30.650  27.361  23.220  1.00  0.00    -0.286 N 
ATOM     22  N   UNL A   1      32.335  28.671  22.635  1.00  0.00    -0.130 NA
ATOM     23  N   UNL A   1      32.843  27.460  23.029  1.00  0.00    -0.134 NA
ENDBRANCH   9  14
ENDBRANCH   5   8
ENDBRANCH   3   4
ENDBRANCH   2   3
ENDBRANCH   1   2
BRANCH   1  24
ATOM     24  C   UNL A   1      33.654  30.978  27.193  1.00  0.00     0.116 C 
BRANCH  24  25
ATOM     25  N   UNL A   1      33.867  31.639  28.461  1.00  0.00    -0.352 N 
ATOM     26  C   UNL A   1      34.929  31.806  29.307  1.00  0.00     0.251 C 
ATOM     27  H   UNL A   1      33.051  32.074  28.797  1.00  0.00     0.163 HD
ATOM     28  O   UNL A   1      34.750  32.628  30.213  1.00  0.00    -0.269 OA
BRANCH  26  29
ATOM     29  C   UNL A   1      36.217  31.057  29.263  1.00  0.00     0.039 A 
ATOM     30  C   UNL A   1      36.356  29.671  29.205  1.00  0.00     0.014 A 
ATOM     31  C   UNL A   1      37.385  31.845  29.333  1.00  0.00     0.014 A 
ATOM     32  C   UNL A   1      37.621  29.090  29.293  1.00  0.00     0.010 A 
ATOM     33  C   UNL A   1      38.651  31.269  29.412  1.00  0.00     0.010 A 
ATOM     34  C   UNL A   1      38.767  29.886  29.428  1.00  0.00    -0.014 A 
BRANCH  34  35
ATOM     35  C   UNL A   1      40.072  29.222  29.402  1.00  0.00     0.031 A 
ATOM     36  C   UNL A   1      40.667  29.051  30.756  1.00  0.00     0.074 A 
ATOM     37  C   UNL A   1      40.658  28.700  28.302  1.00  0.00     0.049 A 
ATOM     38  N   UNL A   1      41.711  29.644  31.240  1.00  0.00    -0.248 NA
ATOM     39  C   UNL A   1      39.926  28.245  31.741  1.00  0.00     0.031 C 
ATOM     40  C   UNL A   1      40.046  28.526  26.982  1.00  0.00     0.029 A 
ATOM     41  N   UNL A   1      41.882  28.100  28.152  1.00  0.00    -0.354 N 
ATOM     42  C   UNL A   1      41.904  29.069  32.495  1.00  0.00     0.074 A 
ATOM     43  C   UNL A   1      40.688  28.378  32.828  1.00  0.00     0.031 C 
ATOM     44  C   UNL A   1      40.789  27.661  26.254  1.00  0.00     0.029 A 
ATOM     45  C   UNL A   1      41.997  27.334  26.991  1.00  0.00     0.049 A 
ATOM     46  H   UNL A   1      42.613  28.201  28.804  1.00  0.00     0.167 HD
ATOM     47  C   UNL A   1      43.155  28.928  33.012  1.00  0.00     0.034 A 
ATOM     48  C   UNL A   1      42.985  26.455  26.687  1.00  0.00     0.034 A 
ATOM     49  C   UNL A   1      44.118  29.718  32.304  1.00  0.00     0.049 A 
ATOM     50  C   UNL A   1      44.180  26.860  27.461  1.00  0.00     0.074 A 
ATOM     51  C   UNL A   1      44.490  31.040  32.226  1.00  0.00     0.029 A 
ATOM     52  N   UNL A   1      44.631  29.075  31.212  1.00  0.00    -0.354 N 
ATOM     53  N   UNL A   1      44.826  27.975  27.267  1.00  0.00    -0.248 NA
ATOM     54  C   UNL A   1      44.536  26.122  28.669  1.00  0.00     0.031 C 
ATOM     55  C   UNL A   1      45.133  31.196  30.963  1.00  0.00     0.029 A 
ATOM     56  C   UNL A   1      45.161  29.962  30.320  1.00  0.00     0.049 A 
ATOM     57  H   UNL A   1      44.620  28.099  31.086  1.00  0.00     0.167 HD
ATOM     58  C   UNL A   1      45.326  28.283  28.515  1.00  0.00     0.074 A 
ATOM     59  C   UNL A   1      45.290  27.042  29.273  1.00  0.00     0.031 C 
ATOM     60  C   UNL A   1      45.382  29.571  28.947  1.00  0.00     0.034 A 
BRANCH  47  61
ATOM     61  C   UNL A   1      43.609  27.719  33.799  1.00  0.00     0.023 A 
ATOM     62  C   UNL A   1      43.949  26.549  33.086  1.00  0.00     0.012 A 
ATOM     63  C   UNL A   1      43.421  27.587  35.195  1.00  0.00     0.148 A 
ATOM     64  C   UNL A   1      44.105  25.316  33.734  1.00  0.00     0.002 A 
ATOM     65  C   UNL A   1      43.658  26.381  35.844  1.00  0.00     0.091 A 
ATOM     66  F   UNL A   1      42.865  28.588  35.884  1.00  0.00    -0.205 F 
ATOM     67  C   UNL A   1      43.978  25.236  35.116  1.00  0.00     0.022 A 
BRANCH  65  68
ATOM     68  S   UNL A   1      43.538  26.244  37.631  1.00  0.00     0.127 S 
ATOM     69  O   UNL A   1      42.088  26.290  37.829  1.00  0.00    -0.237 OA
ATOM     70  O   UNL A   1      44.154  24.936  37.869  1.00  0.00    -0.237 OA
ATOM     71  O   UNL A   1      44.295  27.366  38.157  1.00  0.00    -0.744 OA
ENDBRANCH  65  68
ENDBRANCH  47  61
BRANCH  48  72
ATOM     72  C   UNL A   1      42.971  25.172  25.932  1.00  0.00     0.023 A 
ATOM     73  C   UNL A   1      43.985  24.931  24.975  1.00  0.00     0.012 A 
ATOM     74  C   UNL A   1      42.192  24.072  26.349  1.00  0.00     0.148 A 
ATOM     75  C   UNL A   1      44.275  23.636  24.526  1.00  0.00     0.002 A 
ATOM     76  C   UNL A   1      42.474  22.786  25.887  1.00  0.00     0.091 A 
ATOM     77  F   UNL A   1      41.239  24.262  27.269  1.00  0.00    -0.205 F 
ATOM     78  C   UNL A   1      43.530  22.561  24.996  1.00  0.00     0.022 A 
BRANCH  76  79
ATOM     79  S   UNL A   1      41.547  21.350  26.449  1.00  0.00     0.127 S 
ATOM     80  O   UNL A   1      40.184  21.679  26.027  1.00  0.00    -0.237 OA
ATOM     81  O   UNL A   1      42.175  20.269  25.694  1.00  0.00    -0.237 OA
ATOM     82  O   UNL A   1      41.729  21.309  27.893  1.00  0.00    -0.744 OA
ENDBRANCH  76  79
ENDBRANCH  48  72
BRANCH  60  83
ATOM     83  C   UNL A   1      45.484  30.662  27.933  1.00  0.00     0.023 A 
ATOM     84  C   UNL A   1      44.362  31.309  27.385  1.00  0.00     0.012 A 
ATOM     85  C   UNL A   1      46.772  31.160  27.675  1.00  0.00     0.148 A 
ATOM     86  C   UNL A   1      44.529  32.454  26.601  1.00  0.00     0.002 A 
ATOM     87  C   UNL A   1      46.929  32.321  26.938  1.00  0.00     0.091 A 
ATOM     88  F   UNL A   1      47.816  30.511  28.214  1.00  0.00    -0.205 F 
ATOM     89  C   UNL A   1      45.810  32.971  26.393  1.00  0.00     0.022 A 
BRANCH  87  90
ATOM     90  S   UNL A   1      48.531  33.103  26.746  1.00  0.00     0.127 S 
ATOM     91  O   UNL A   1      49.374  31.981  26.337  1.00  0.00    -0.237 OA
ATOM     92  O   UNL A   1      48.265  34.085  25.695  1.00  0.00    -0.237 OA
ATOM     93  O   UNL A   1      48.862  33.682  28.042  1.00  0.00    -0.744 OA
ENDBRANCH  87  90
ENDBRANCH  60  83
ENDBRANCH  34  35
ENDBRANCH  26  29
ENDBRANCH  24  25
ENDBRANCH   1  24
TORSDOF 15
ENDMDL
