MODEL 1
REMARK VINA RESULT:     -12.3      0.000      0.000
REMARK SMILES COc1c(C)cccc1C(=O)NC(=S)Nc1ccc(C(=O)NCCCCNC(=O)c2ccc(-c3c4nc(c(-c5cccc(S(=O)(=O)[O-])c5F)c5ccc([nH]5)c(-c5cccc(S(=O)(=O)[O-])c5F)c5nc(c(-c6cccc(S(=O)(=O)[O-])c6F)c6ccc3[nH]6)C=C5)C=C4)cc2)cc1C
REMARK SMILES IDX 23 1 22 2 20 3 21 4 19 6 16 7 17 8 94 9 18 10 93 11 95 12
REMARK SMILES IDX 15 13 13 15 14 16 12 17 10 18 11 19 9 21 3 22 4 23 5 24 6 25
REMARK SMILES IDX 8 26 7 27 2 28 1 29 24 30 25 31 26 32 27 33 28 34 29 36
REMARK SMILES IDX 30 37 31 38 92 39 32 40 91 41 33 42 34 43 35 44 85 45 36 46
REMARK SMILES IDX 90 47 84 48 86 49 37 50 89 51 83 52 82 53 38 55 70 56 50 57
REMARK SMILES IDX 69 58 51 59 54 60 68 61 87 62 52 63 53 64 67 66 88 67 55 68
REMARK SMILES IDX 39 69 40 70 48 71 41 72 43 73 49 74 42 75 44 76 45 77 46 78
REMARK SMILES IDX 47 79 71 80 72 81 80 82 73 83 75 84 81 85 74 86 76 87 77 88
REMARK SMILES IDX 78 89 79 90 56 91 57 92 65 93 58 94 60 95 66 96 59 97 61 98
REMARK SMILES IDX 62 99 63 100 64 101
REMARK H PARENT 22 5 15 14 12 20 27 35 86 54 54 65
REMARK Flexibility Score: inf
ROOT
ATOM      1  C   UNL A   1      39.579  31.441  31.048  1.00  0.00     0.116 C 
ENDROOT
BRANCH   1   2
ATOM      2  N   UNL A   1      38.779  30.431  31.710  1.00  0.00    -0.352 N 
ATOM      3  C   UNL A   1      37.472  30.607  32.102  1.00  0.00     0.251 C 
ATOM      4  O   UNL A   1      37.317  30.749  33.318  1.00  0.00    -0.269 OA
ATOM      5  H   UNL A   1      39.199  29.559  31.890  1.00  0.00     0.163 HD
BRANCH   3   6
ATOM      6  C   UNL A   1      36.233  30.752  31.017  1.00  0.00     0.040 A 
ATOM      7  C   UNL A   1      34.972  30.529  27.707  1.00  0.00     0.043 A 
ATOM      8  C   UNL A   1      36.121  29.394  28.366  1.00  0.00     0.027 A 
ATOM      9  C   UNL A   1      34.577  32.113  28.559  1.00  0.00    -0.027 A 
ATOM     10  C   UNL A   1      36.679  29.443  29.931  1.00  0.00     0.016 A 
ATOM     11  C   UNL A   1      35.011  32.210  30.359  1.00  0.00     0.019 A 
ATOM     12  C   UNL A   1      34.298  33.451  27.934  1.00  0.00     0.046 C 
BRANCH   7  13
ATOM     13  N   UNL A   1      33.880  29.374  27.660  1.00  0.00    -0.332 N 
ATOM     14  H   UNL A   1      33.738  28.989  28.554  1.00  0.00     0.169 HD
BRANCH  13  15
ATOM     15  C   UNL A   1      33.051  28.739  26.703  1.00  0.00     0.177 C 
ATOM     16  S   UNL A   1      32.874  29.593  25.252  1.00  0.00    -0.040 S 
BRANCH  15  17
ATOM     17  N   UNL A   1      32.267  27.533  26.762  1.00  0.00    -0.299 N 
ATOM     18  C   UNL A   1      32.078  26.067  26.492  1.00  0.00     0.261 C 
ATOM     19  O   UNL A   1      31.093  25.468  26.910  1.00  0.00    -0.269 OA
ATOM     20  H   UNL A   1      31.430  27.809  27.200  1.00  0.00     0.172 HD
BRANCH  18  21
ATOM     21  C   UNL A   1      33.101  25.372  25.695  1.00  0.00     0.082 A 
ATOM     22  C   UNL A   1      32.153  24.522  24.533  1.00  0.00     0.134 A 
ATOM     23  C   UNL A   1      32.929  23.031  23.416  1.00  0.00    -0.008 A 
ATOM     24  C   UNL A   1      32.416  22.004  22.358  1.00  0.00     0.048 C 
ATOM     25  C   UNL A   1      34.743  22.808  23.520  1.00  0.00     0.007 A 
ATOM     26  C   UNL A   1      34.810  25.071  25.717  1.00  0.00     0.018 A 
ATOM     27  C   UNL A   1      35.628  23.868  24.669  1.00  0.00     0.001 A 
BRANCH  22  28
ATOM     28  O   UNL A   1      32.038  26.239  23.981  1.00  0.00    -0.496 OA
ATOM     29  C   UNL A   1      31.745  26.849  22.656  1.00  0.00     0.278 C 
ENDBRANCH  22  28
ENDBRANCH  18  21
ENDBRANCH  15  17
ENDBRANCH  13  15
ENDBRANCH   7  13
ENDBRANCH   3   6
ENDBRANCH   1   2
BRANCH   1  30
ATOM     30  C   UNL A   1      40.585  30.888  30.006  1.00  0.00     0.023 C 
BRANCH  30  31
ATOM     31  C   UNL A   1      40.282  29.614  29.206  1.00  0.00     0.023 C 
BRANCH  31  32
ATOM     32  C   UNL A   1      40.806  28.337  29.804  1.00  0.00     0.116 C 
BRANCH  32  33
ATOM     33  N   UNL A   1      40.058  27.166  29.335  1.00  0.00    -0.352 N 
ATOM     34  C   UNL A   1      40.392  26.248  28.353  1.00  0.00     0.251 C 
ATOM     35  H   UNL A   1      39.195  27.010  29.782  1.00  0.00     0.163 HD
ATOM     36  O   UNL A   1      39.498  25.778  27.660  1.00  0.00    -0.269 OA
BRANCH  34  37
ATOM     37  C   UNL A   1      41.793  25.796  28.251  1.00  0.00     0.039 A 
ATOM     38  C   UNL A   1      42.237  24.534  28.637  1.00  0.00     0.014 A 
ATOM     39  C   UNL A   1      42.734  26.788  28.029  1.00  0.00     0.014 A 
ATOM     40  C   UNL A   1      43.577  24.416  29.004  1.00  0.00     0.010 A 
ATOM     41  C   UNL A   1      44.048  26.551  27.962  1.00  0.00     0.010 A 
ATOM     42  C   UNL A   1      44.415  25.500  28.762  1.00  0.00    -0.014 A 
BRANCH  42  43
ATOM     43  C   UNL A   1      45.748  25.726  29.245  1.00  0.00     0.031 A 
ATOM     44  C   UNL A   1      46.778  25.326  28.302  1.00  0.00     0.074 A 
ATOM     45  C   UNL A   1      45.868  26.586  30.293  1.00  0.00     0.049 A 
ATOM     46  N   UNL A   1      47.960  24.990  28.642  1.00  0.00    -0.248 NA
ATOM     47  C   UNL A   1      46.515  25.183  26.864  1.00  0.00     0.031 C 
ATOM     48  C   UNL A   1      46.961  27.481  30.643  1.00  0.00     0.029 A 
ATOM     49  N   UNL A   1      44.940  26.814  31.316  1.00  0.00    -0.354 N 
ATOM     50  C   UNL A   1      48.689  25.005  27.477  1.00  0.00     0.074 A 
ATOM     51  C   UNL A   1      47.735  24.891  26.406  1.00  0.00     0.031 C 
ATOM     52  C   UNL A   1      46.793  27.917  31.909  1.00  0.00     0.029 A 
ATOM     53  C   UNL A   1      45.639  27.228  32.462  1.00  0.00     0.049 A 
ATOM     54  H   UNL A   1      43.965  26.702  31.246  1.00  0.00     0.167 HD
ATOM     55  C   UNL A   1      49.979  25.420  27.548  1.00  0.00     0.034 A 
ATOM     56  C   UNL A   1      45.653  26.418  33.567  1.00  0.00     0.034 A 
ATOM     57  C   UNL A   1      50.267  25.857  28.925  1.00  0.00     0.049 A 
ATOM     58  C   UNL A   1      47.005  25.752  33.742  1.00  0.00     0.074 A 
ATOM     59  C   UNL A   1      50.268  27.109  29.521  1.00  0.00     0.029 A 
ATOM     60  N   UNL A   1      50.193  24.933  29.958  1.00  0.00    -0.354 N 
ATOM     61  N   UNL A   1      47.916  25.718  32.809  1.00  0.00    -0.248 NA
ATOM     62  C   UNL A   1      47.461  25.119  34.975  1.00  0.00     0.031 C 
ATOM     63  C   UNL A   1      50.179  26.925  30.927  1.00  0.00     0.029 A 
ATOM     64  C   UNL A   1      50.122  25.566  31.185  1.00  0.00     0.049 A 
ATOM     65  H   UNL A   1      50.191  23.957  29.832  1.00  0.00     0.167 HD
ATOM     66  C   UNL A   1      49.017  25.032  33.240  1.00  0.00     0.074 A 
ATOM     67  C   UNL A   1      48.696  24.715  34.623  1.00  0.00     0.031 C 
ATOM     68  C   UNL A   1      50.077  24.777  32.410  1.00  0.00     0.034 A 
BRANCH  55  69
ATOM     69  C   UNL A   1      50.864  25.774  26.378  1.00  0.00     0.023 A 
ATOM     70  C   UNL A   1      51.995  24.949  26.185  1.00  0.00     0.012 A 
ATOM     71  C   UNL A   1      50.679  26.815  25.438  1.00  0.00     0.148 A 
ATOM     72  C   UNL A   1      52.921  25.165  25.167  1.00  0.00     0.002 A 
ATOM     73  C   UNL A   1      51.625  27.054  24.436  1.00  0.00     0.091 A 
ATOM     74  F   UNL A   1      49.559  27.546  25.462  1.00  0.00    -0.205 F 
ATOM     75  C   UNL A   1      52.746  26.228  24.300  1.00  0.00     0.022 A 
BRANCH  73  76
ATOM     76  S   UNL A   1      51.509  28.427  23.275  1.00  0.00     0.127 S 
ATOM     77  O   UNL A   1      51.570  29.587  24.167  1.00  0.00    -0.237 OA
ATOM     78  O   UNL A   1      52.699  28.238  22.448  1.00  0.00    -0.237 OA
ATOM     79  O   UNL A   1      50.235  28.275  22.585  1.00  0.00    -0.744 OA
ENDBRANCH  73  76
ENDBRANCH  55  69
BRANCH  56  80
ATOM     80  C   UNL A   1      44.313  25.764  33.763  1.00  0.00     0.023 A 
ATOM     81  C   UNL A   1      44.271  24.364  33.523  1.00  0.00     0.012 A 
ATOM     82  C   UNL A   1      43.376  26.326  34.644  1.00  0.00     0.148 A 
ATOM     83  C   UNL A   1      43.521  23.529  34.353  1.00  0.00     0.002 A 
ATOM     84  C   UNL A   1      42.602  25.484  35.443  1.00  0.00     0.091 A 
ATOM     85  F   UNL A   1      43.303  27.659  34.748  1.00  0.00    -0.205 F 
ATOM     86  C   UNL A   1      42.733  24.088  35.356  1.00  0.00     0.022 A 
BRANCH  84  87
ATOM     87  S   UNL A   1      41.478  26.177  36.660  1.00  0.00     0.127 S 
ATOM     88  O   UNL A   1      42.359  26.347  37.812  1.00  0.00    -0.237 OA
ATOM     89  O   UNL A   1      41.050  27.430  36.042  1.00  0.00    -0.237 OA
ATOM     90  O   UNL A   1      40.421  25.185  36.798  1.00  0.00    -0.744 OA
ENDBRANCH  84  87
ENDBRANCH  56  80
BRANCH  68  91
ATOM     91  C   UNL A   1      51.205  23.792  32.671  1.00  0.00     0.023 A 
ATOM     92  C   UNL A   1      52.557  24.147  32.546  1.00  0.00     0.012 A 
ATOM     93  C   UNL A   1      50.942  22.488  33.184  1.00  0.00     0.148 A 
ATOM     94  C   UNL A   1      53.589  23.243  32.820  1.00  0.00     0.002 A 
ATOM     95  C   UNL A   1      51.970  21.649  33.593  1.00  0.00     0.091 A 
ATOM     96  F   UNL A   1      49.689  22.021  33.249  1.00  0.00    -0.205 F 
ATOM     97  C   UNL A   1      53.297  22.002  33.367  1.00  0.00     0.022 A 
BRANCH  95  98
ATOM     98  S   UNL A   1      51.650  20.150  34.534  1.00  0.00     0.127 S 
ATOM     99  O   UNL A   1      50.317  19.781  34.062  1.00  0.00    -0.237 OA
ATOM    100  O   UNL A   1      52.726  19.269  34.078  1.00  0.00    -0.237 OA
ATOM    101  O   UNL A   1      51.745  20.533  35.936  1.00  0.00    -0.744 OA
ENDBRANCH  95  98
ENDBRANCH  68  91
ENDBRANCH  42  43
ENDBRANCH  34  37
ENDBRANCH  32  33
ENDBRANCH  31  32
ENDBRANCH  30  31
ENDBRANCH   1  30
TORSDOF 19
ENDMDL
MODEL 2
REMARK VINA RESULT:     -11.9      7.596     13.531
REMARK SMILES COc1c(C)cccc1C(=O)NC(=S)Nc1ccc(C(=O)NCCCCNC(=O)c2ccc(-c3c4nc(c(-c5cccc(S(=O)(=O)[O-])c5F)c5ccc([nH]5)c(-c5cccc(S(=O)(=O)[O-])c5F)c5nc(c(-c6cccc(S(=O)(=O)[O-])c6F)c6ccc3[nH]6)C=C5)C=C4)cc2)cc1C
REMARK SMILES IDX 23 1 22 2 20 3 21 4 19 6 16 7 17 8 94 9 18 10 93 11 95 12
REMARK SMILES IDX 15 13 13 15 14 16 12 17 10 18 11 19 9 21 3 22 4 23 5 24 6 25
REMARK SMILES IDX 8 26 7 27 2 28 1 29 24 30 25 31 26 32 27 33 28 34 29 36
REMARK SMILES IDX 30 37 31 38 92 39 32 40 91 41 33 42 34 43 35 44 85 45 36 46
REMARK SMILES IDX 90 47 84 48 86 49 37 50 89 51 83 52 82 53 38 55 70 56 50 57
REMARK SMILES IDX 69 58 51 59 54 60 68 61 87 62 52 63 53 64 67 66 88 67 55 68
REMARK SMILES IDX 39 69 40 70 48 71 41 72 43 73 49 74 42 75 44 76 45 77 46 78
REMARK SMILES IDX 47 79 71 80 72 81 80 82 73 83 75 84 81 85 74 86 76 87 77 88
REMARK SMILES IDX 78 89 79 90 56 91 57 92 65 93 58 94 60 95 66 96 59 97 61 98
REMARK SMILES IDX 62 99 63 100 64 101
REMARK H PARENT 22 5 15 14 12 20 27 35 86 54 54 65
REMARK Flexibility Score: inf
ROOT
ATOM      1  C   UNL A   1      38.599  29.283  28.682  1.00  0.00     0.116 C 
ENDROOT
BRANCH   1   2
ATOM      2  N   UNL A   1      39.971  29.308  28.221  1.00  0.00    -0.352 N 
ATOM      3  C   UNL A   1      40.820  28.225  28.243  1.00  0.00     0.251 C 
ATOM      4  O   UNL A   1      41.686  28.271  29.120  1.00  0.00    -0.269 OA
ATOM      5  H   UNL A   1      40.321  30.158  27.867  1.00  0.00     0.163 HD
BRANCH   3   6
ATOM      6  C   UNL A   1      40.606  26.913  27.260  1.00  0.00     0.040 A 
ATOM      7  C   UNL A   1      39.670  23.523  26.778  1.00  0.00     0.043 A 
ATOM      8  C   UNL A   1      38.834  24.596  27.871  1.00  0.00     0.027 A 
ATOM      9  C   UNL A   1      41.298  23.968  26.040  1.00  0.00    -0.027 A 
ATOM     10  C   UNL A   1      39.216  26.201  28.068  1.00  0.00     0.016 A 
ATOM     11  C   UNL A   1      41.747  25.767  26.061  1.00  0.00     0.019 A 
ATOM     12  C   UNL A   1      42.462  23.059  25.762  1.00  0.00     0.046 C 
BRANCH   7  13
ATOM     13  N   UNL A   1      38.378  23.484  25.850  1.00  0.00    -0.332 N 
ATOM     14  H   UNL A   1      38.392  24.223  25.200  1.00  0.00     0.169 HD
BRANCH  13  15
ATOM     15  C   UNL A   1      37.214  22.694  25.690  1.00  0.00     0.177 C 
ATOM     16  S   UNL A   1      37.107  21.900  24.199  1.00  0.00    -0.040 S 
BRANCH  15  17
ATOM     17  N   UNL A   1      36.063  22.499  26.531  1.00  0.00    -0.299 N 
ATOM     18  C   UNL A   1      34.580  22.355  26.728  1.00  0.00     0.261 C 
ATOM     19  O   UNL A   1      34.111  22.072  27.825  1.00  0.00    -0.269 OA
ATOM     20  H   UNL A   1      36.436  22.418  27.439  1.00  0.00     0.172 HD
BRANCH  18  21
ATOM     21  C   UNL A   1      33.703  22.584  25.569  1.00  0.00     0.082 A 
ATOM     22  C   UNL A   1      32.712  23.889  26.103  1.00  0.00     0.134 A 
ATOM     23  C   UNL A   1      31.010  24.391  25.144  1.00  0.00    -0.008 A 
ATOM     24  C   UNL A   1      29.841  25.407  25.338  1.00  0.00     0.048 C 
ATOM     25  C   UNL A   1      30.713  23.558  23.540  1.00  0.00     0.007 A 
ATOM     26  C   UNL A   1      33.321  21.855  24.041  1.00  0.00     0.018 A 
ATOM     27  C   UNL A   1      31.912  22.319  23.035  1.00  0.00     0.001 A 
BRANCH  22  28
ATOM     28  O   UNL A   1      34.309  24.681  25.803  1.00  0.00    -0.496 OA
ATOM     29  C   UNL A   1      34.681  26.048  25.349  1.00  0.00     0.278 C 
ENDBRANCH  22  28
ENDBRANCH  18  21
ENDBRANCH  15  17
ENDBRANCH  13  15
ENDBRANCH   7  13
ENDBRANCH   3   6
ENDBRANCH   1   2
BRANCH   1  30
ATOM     30  C   UNL A   1      37.565  29.828  27.664  1.00  0.00     0.023 C 
BRANCH  30  31
ATOM     31  C   UNL A   1      36.162  30.264  28.109  1.00  0.00     0.023 C 
BRANCH  31  32
ATOM     32  C   UNL A   1      35.860  31.729  27.943  1.00  0.00     0.116 C 
BRANCH  32  33
ATOM     33  N   UNL A   1      35.244  32.299  29.145  1.00  0.00    -0.352 N 
ATOM     34  C   UNL A   1      35.699  32.291  30.453  1.00  0.00     0.251 C 
ATOM     35  H   UNL A   1      34.382  32.754  29.001  1.00  0.00     0.163 HD
ATOM     36  O   UNL A   1      34.879  32.202  31.359  1.00  0.00    -0.269 OA
BRANCH  34  37
ATOM     37  C   UNL A   1      37.139  32.493  30.704  1.00  0.00     0.039 A 
ATOM     38  C   UNL A   1      38.000  31.499  31.160  1.00  0.00     0.014 A 
ATOM     39  C   UNL A   1      37.565  33.810  30.754  1.00  0.00     0.014 A 
ATOM     40  C   UNL A   1      39.136  31.912  31.855  1.00  0.00     0.010 A 
ATOM     41  C   UNL A   1      38.826  34.164  31.020  1.00  0.00     0.010 A 
ATOM     42  C   UNL A   1      39.436  33.270  31.863  1.00  0.00    -0.014 A 
BRANCH  42  43
ATOM     43  C   UNL A   1      40.387  33.972  32.677  1.00  0.00     0.031 A 
ATOM     44  C   UNL A   1      39.807  34.529  33.888  1.00  0.00     0.074 A 
ATOM     45  C   UNL A   1      41.698  33.713  32.427  1.00  0.00     0.049 A 
ATOM     46  N   UNL A   1      40.283  35.540  34.503  1.00  0.00    -0.248 NA
ATOM     47  C   UNL A   1      38.551  34.029  34.461  1.00  0.00     0.031 C 
ATOM     48  C   UNL A   1      42.839  33.723  33.331  1.00  0.00     0.029 A 
ATOM     49  N   UNL A   1      42.278  33.371  31.199  1.00  0.00    -0.354 N 
ATOM     50  C   UNL A   1      39.664  35.540  35.730  1.00  0.00     0.074 A 
ATOM     51  C   UNL A   1      38.464  34.763  35.572  1.00  0.00     0.031 C 
ATOM     52  C   UNL A   1      43.980  33.708  32.610  1.00  0.00     0.029 A 
ATOM     53  C   UNL A   1      43.615  33.801  31.206  1.00  0.00     0.049 A 
ATOM     54  H   UNL A   1      41.826  32.908  30.457  1.00  0.00     0.167 HD
ATOM     55  C   UNL A   1      40.395  35.937  36.803  1.00  0.00     0.034 A 
ATOM     56  C   UNL A   1      44.001  34.800  30.350  1.00  0.00     0.034 A 
ATOM     57  C   UNL A   1      41.777  36.204  36.369  1.00  0.00     0.049 A 
ATOM     58  C   UNL A   1      44.227  36.103  31.093  1.00  0.00     0.074 A 
ATOM     59  C   UNL A   1      42.926  35.428  36.399  1.00  0.00     0.029 A 
ATOM     60  N   UNL A   1      42.014  37.219  35.453  1.00  0.00    -0.354 N 
ATOM     61  N   UNL A   1      43.818  36.315  32.314  1.00  0.00    -0.248 NA
ATOM     62  C   UNL A   1      44.962  37.243  30.555  1.00  0.00     0.031 C 
ATOM     63  C   UNL A   1      43.853  35.984  35.477  1.00  0.00     0.029 A 
ATOM     64  C   UNL A   1      43.270  37.091  34.887  1.00  0.00     0.049 A 
ATOM     65  H   UNL A   1      41.374  37.934  35.236  1.00  0.00     0.167 HD
ATOM     66  C   UNL A   1      44.141  37.582  32.712  1.00  0.00     0.074 A 
ATOM     67  C   UNL A   1      44.897  38.108  31.586  1.00  0.00     0.031 C 
ATOM     68  C   UNL A   1      43.738  38.080  33.924  1.00  0.00     0.034 A 
BRANCH  55  69
ATOM     69  C   UNL A   1      40.014  35.757  38.252  1.00  0.00     0.023 A 
ATOM     70  C   UNL A   1      39.370  36.856  38.864  1.00  0.00     0.012 A 
ATOM     71  C   UNL A   1      40.203  34.610  39.059  1.00  0.00     0.148 A 
ATOM     72  C   UNL A   1      38.984  36.853  40.202  1.00  0.00     0.002 A 
ATOM     73  C   UNL A   1      39.846  34.618  40.411  1.00  0.00     0.091 A 
ATOM     74  F   UNL A   1      40.669  33.480  38.516  1.00  0.00    -0.205 F 
ATOM     75  C   UNL A   1      39.236  35.740  40.983  1.00  0.00     0.022 A 
BRANCH  73  76
ATOM     76  S   UNL A   1      40.156  33.234  41.522  1.00  0.00     0.127 S 
ATOM     77  O   UNL A   1      39.427  32.145  40.866  1.00  0.00    -0.237 OA
ATOM     78  O   UNL A   1      41.611  33.106  41.464  1.00  0.00    -0.237 OA
ATOM     79  O   UNL A   1      39.611  33.617  42.818  1.00  0.00    -0.744 OA
ENDBRANCH  73  76
ENDBRANCH  55  69
BRANCH  56  80
ATOM     80  C   UNL A   1      43.322  34.648  29.017  1.00  0.00     0.023 A 
ATOM     81  C   UNL A   1      42.440  35.701  28.653  1.00  0.00     0.012 A 
ATOM     82  C   UNL A   1      43.924  33.890  28.000  1.00  0.00     0.148 A 
ATOM     83  C   UNL A   1      42.399  36.162  27.335  1.00  0.00     0.002 A 
ATOM     84  C   UNL A   1      43.846  34.336  26.681  1.00  0.00     0.091 A 
ATOM     85  F   UNL A   1      44.621  32.797  28.335  1.00  0.00    -0.205 F 
ATOM     86  C   UNL A   1      43.154  35.516  26.360  1.00  0.00     0.022 A 
BRANCH  84  87
ATOM     87  S   UNL A   1      44.703  33.448  25.376  1.00  0.00     0.127 S 
ATOM     88  O   UNL A   1      46.095  33.582  25.795  1.00  0.00    -0.237 OA
ATOM     89  O   UNL A   1      44.169  32.093  25.490  1.00  0.00    -0.237 OA
ATOM     90  O   UNL A   1      44.331  34.138  24.149  1.00  0.00    -0.744 OA
ENDBRANCH  84  87
ENDBRANCH  56  80
BRANCH  68  91
ATOM     91  C   UNL A   1      43.774  39.539  34.351  1.00  0.00     0.023 A 
ATOM     92  C   UNL A   1      42.986  40.522  33.733  1.00  0.00     0.012 A 
ATOM     93  C   UNL A   1      44.519  39.955  35.492  1.00  0.00     0.148 A 
ATOM     94  C   UNL A   1      43.002  41.856  34.154  1.00  0.00     0.002 A 
ATOM     95  C   UNL A   1      44.416  41.245  35.994  1.00  0.00     0.091 A 
ATOM     96  F   UNL A   1      45.374  39.116  36.091  1.00  0.00    -0.205 F 
ATOM     97  C   UNL A   1      43.697  42.214  35.299  1.00  0.00     0.022 A 
BRANCH  95  98
ATOM     98  S   UNL A   1      45.085  41.691  37.603  1.00  0.00     0.127 S 
ATOM     99  O   UNL A   1      46.506  41.846  37.301  1.00  0.00    -0.237 OA
ATOM    100  O   UNL A   1      44.381  42.943  37.889  1.00  0.00    -0.237 OA
ATOM    101  O   UNL A   1      44.740  40.594  38.496  1.00  0.00    -0.744 OA
ENDBRANCH  95  98
ENDBRANCH  68  91
ENDBRANCH  42  43
ENDBRANCH  34  37
ENDBRANCH  32  33
ENDBRANCH  31  32
ENDBRANCH  30  31
ENDBRANCH   1  30
TORSDOF 19
ENDMDL
MODEL 3
REMARK VINA RESULT:     -11.9      7.648     13.780
REMARK SMILES COc1c(C)cccc1C(=O)NC(=S)Nc1ccc(C(=O)NCCCCNC(=O)c2ccc(-c3c4nc(c(-c5cccc(S(=O)(=O)[O-])c5F)c5ccc([nH]5)c(-c5cccc(S(=O)(=O)[O-])c5F)c5nc(c(-c6cccc(S(=O)(=O)[O-])c6F)c6ccc3[nH]6)C=C5)C=C4)cc2)cc1C
REMARK SMILES IDX 23 1 22 2 20 3 21 4 19 6 16 7 17 8 94 9 18 10 93 11 95 12
REMARK SMILES IDX 15 13 13 15 14 16 12 17 10 18 11 19 9 21 3 22 4 23 5 24 6 25
REMARK SMILES IDX 8 26 7 27 2 28 1 29 24 30 25 31 26 32 27 33 28 34 29 36
REMARK SMILES IDX 30 37 31 38 92 39 32 40 91 41 33 42 34 43 35 44 85 45 36 46
REMARK SMILES IDX 90 47 84 48 86 49 37 50 89 51 83 52 82 53 38 55 70 56 50 57
REMARK SMILES IDX 69 58 51 59 54 60 68 61 87 62 52 63 53 64 67 66 88 67 55 68
REMARK SMILES IDX 39 69 40 70 48 71 41 72 43 73 49 74 42 75 44 76 45 77 46 78
REMARK SMILES IDX 47 79 71 80 72 81 80 82 73 83 75 84 81 85 74 86 76 87 77 88
REMARK SMILES IDX 78 89 79 90 56 91 57 92 65 93 58 94 60 95 66 96 59 97 61 98
REMARK SMILES IDX 62 99 63 100 64 101
REMARK H PARENT 22 5 15 14 12 20 27 35 86 54 54 65
REMARK Flexibility Score: inf
ROOT
ATOM      1  C   UNL A   1      38.300  29.472  28.944  1.00  0.00     0.116 C 
ENDROOT
BRANCH   1   2
ATOM      2  N   UNL A   1      39.657  29.620  28.460  1.00  0.00    -0.352 N 
ATOM      3  C   UNL A   1      40.580  28.602  28.406  1.00  0.00     0.251 C 
ATOM      4  O   UNL A   1      41.460  28.662  29.269  1.00  0.00    -0.269 OA
ATOM      5  H   UNL A   1      39.938  30.512  28.148  1.00  0.00     0.163 HD
BRANCH   3   6
ATOM      6  C   UNL A   1      40.439  27.333  27.356  1.00  0.00     0.040 A 
ATOM      7  C   UNL A   1      39.951  23.875  26.722  1.00  0.00     0.043 A 
ATOM      8  C   UNL A   1      39.111  24.740  27.983  1.00  0.00     0.027 A 
ATOM      9  C   UNL A   1      41.393  24.607  25.841  1.00  0.00    -0.027 A 
ATOM     10  C   UNL A   1      39.278  26.370  28.259  1.00  0.00     0.016 A 
ATOM     11  C   UNL A   1      41.577  26.449  25.950  1.00  0.00     0.019 A 
ATOM     12  C   UNL A   1      42.634  23.906  25.363  1.00  0.00     0.046 C 
BRANCH   7  13
ATOM     13  N   UNL A   1      38.574  23.693  25.947  1.00  0.00    -0.332 N 
ATOM     14  H   UNL A   1      38.437  24.423  25.302  1.00  0.00     0.169 HD
BRANCH  13  15
ATOM     15  C   UNL A   1      37.488  22.786  25.918  1.00  0.00     0.177 C 
ATOM     16  S   UNL A   1      37.637  21.551  24.770  1.00  0.00    -0.040 S 
BRANCH  15  17
ATOM     17  N   UNL A   1      36.239  22.760  26.634  1.00  0.00    -0.299 N 
ATOM     18  C   UNL A   1      34.796  23.150  26.785  1.00  0.00     0.261 C 
ATOM     19  O   UNL A   1      34.106  22.686  27.686  1.00  0.00    -0.269 OA
ATOM     20  H   UNL A   1      36.424  22.206  27.426  1.00  0.00     0.172 HD
BRANCH  18  21
ATOM     21  C   UNL A   1      34.237  24.121  25.832  1.00  0.00     0.082 A 
ATOM     22  C   UNL A   1      33.880  23.136  24.463  1.00  0.00     0.134 A 
ATOM     23  C   UNL A   1      33.495  23.937  22.651  1.00  0.00    -0.008 A 
ATOM     24  C   UNL A   1      33.217  23.421  21.204  1.00  0.00     0.048 C 
ATOM     25  C   UNL A   1      33.293  25.756  22.601  1.00  0.00     0.007 A 
ATOM     26  C   UNL A   1      34.028  25.836  25.668  1.00  0.00     0.018 A 
ATOM     27  C   UNL A   1      33.551  26.645  24.141  1.00  0.00     0.001 A 
BRANCH  22  28
ATOM     28  O   UNL A   1      32.600  22.669  25.650  1.00  0.00    -0.496 OA
ATOM     29  C   UNL A   1      31.128  22.880  25.672  1.00  0.00     0.278 C 
ENDBRANCH  22  28
ENDBRANCH  18  21
ENDBRANCH  15  17
ENDBRANCH  13  15
ENDBRANCH   7  13
ENDBRANCH   3   6
ENDBRANCH   1   2
BRANCH   1  30
ATOM     30  C   UNL A   1      37.209  29.575  27.848  1.00  0.00     0.023 C 
BRANCH  30  31
ATOM     31  C   UNL A   1      35.866  30.267  28.123  1.00  0.00     0.023 C 
BRANCH  31  32
ATOM     32  C   UNL A   1      35.915  31.770  28.172  1.00  0.00     0.116 C 
BRANCH  32  33
ATOM     33  N   UNL A   1      35.298  32.296  29.394  1.00  0.00    -0.352 N 
ATOM     34  C   UNL A   1      35.757  32.246  30.700  1.00  0.00     0.251 C 
ATOM     35  H   UNL A   1      34.434  32.751  29.267  1.00  0.00     0.163 HD
ATOM     36  O   UNL A   1      34.940  32.123  31.605  1.00  0.00    -0.269 OA
BRANCH  34  37
ATOM     37  C   UNL A   1      37.196  32.448  30.954  1.00  0.00     0.039 A 
ATOM     38  C   UNL A   1      38.028  31.496  31.537  1.00  0.00     0.014 A 
ATOM     39  C   UNL A   1      37.650  33.753  30.862  1.00  0.00     0.014 A 
ATOM     40  C   UNL A   1      39.160  31.962  32.203  1.00  0.00     0.010 A 
ATOM     41  C   UNL A   1      38.914  34.110  31.111  1.00  0.00     0.010 A 
ATOM     42  C   UNL A   1      39.490  33.307  32.061  1.00  0.00    -0.014 A 
BRANCH  42  43
ATOM     43  C   UNL A   1      40.441  34.079  32.809  1.00  0.00     0.031 A 
ATOM     44  C   UNL A   1      39.889  34.652  34.025  1.00  0.00     0.074 A 
ATOM     45  C   UNL A   1      41.751  33.870  32.509  1.00  0.00     0.049 A 
ATOM     46  N   UNL A   1      40.345  35.703  34.584  1.00  0.00    -0.248 NA
ATOM     47  C   UNL A   1      38.684  34.116  34.670  1.00  0.00     0.031 C 
ATOM     48  C   UNL A   1      42.929  33.962  33.360  1.00  0.00     0.029 A 
ATOM     49  N   UNL A   1      42.293  33.510  31.268  1.00  0.00    -0.354 N 
ATOM     50  C   UNL A   1      39.780  35.719  35.837  1.00  0.00     0.074 A 
ATOM     51  C   UNL A   1      38.610  34.885  35.759  1.00  0.00     0.031 C 
ATOM     52  C   UNL A   1      44.037  33.972  32.590  1.00  0.00     0.029 A 
ATOM     53  C   UNL A   1      43.608  33.999  31.202  1.00  0.00     0.049 A 
ATOM     54  H   UNL A   1      41.831  33.002  30.563  1.00  0.00     0.167 HD
ATOM     55  C   UNL A   1      40.537  36.186  36.862  1.00  0.00     0.034 A 
ATOM     56  C   UNL A   1      43.910  34.983  30.297  1.00  0.00     0.034 A 
ATOM     57  C   UNL A   1      41.885  36.498  36.359  1.00  0.00     0.049 A 
ATOM     58  C   UNL A   1      44.109  36.320  30.985  1.00  0.00     0.074 A 
ATOM     59  C   UNL A   1      43.069  35.776  36.363  1.00  0.00     0.029 A 
ATOM     60  N   UNL A   1      42.036  37.490  35.400  1.00  0.00    -0.354 N 
ATOM     61  N   UNL A   1      43.743  36.557  32.215  1.00  0.00    -0.248 NA
ATOM     62  C   UNL A   1      44.767  37.472  30.377  1.00  0.00     0.031 C 
ATOM     63  C   UNL A   1      43.929  36.339  35.382  1.00  0.00     0.029 A 
ATOM     64  C   UNL A   1      43.271  37.398  34.783  1.00  0.00     0.049 A 
ATOM     65  H   UNL A   1      41.356  38.169  35.187  1.00  0.00     0.167 HD
ATOM     66  C   UNL A   1      44.024  37.850  32.556  1.00  0.00     0.074 A 
ATOM     67  C   UNL A   1      44.706  38.369  31.380  1.00  0.00     0.031 C 
ATOM     68  C   UNL A   1      43.651  38.373  33.767  1.00  0.00     0.034 A 
BRANCH  55  69
ATOM     69  C   UNL A   1      40.228  36.040  38.332  1.00  0.00     0.023 A 
ATOM     70  C   UNL A   1      39.379  37.025  38.887  1.00  0.00     0.012 A 
ATOM     71  C   UNL A   1      40.665  35.021  39.210  1.00  0.00     0.148 A 
ATOM     72  C   UNL A   1      39.026  37.043  40.234  1.00  0.00     0.002 A 
ATOM     73  C   UNL A   1      40.338  35.056  40.570  1.00  0.00     0.091 A 
ATOM     74  F   UNL A   1      41.346  33.974  38.732  1.00  0.00    -0.205 F 
ATOM     75  C   UNL A   1      39.518  36.068  41.082  1.00  0.00     0.022 A 
BRANCH  73  76
ATOM     76  S   UNL A   1      40.949  33.853  41.764  1.00  0.00     0.127 S 
ATOM     77  O   UNL A   1      40.264  32.629  41.342  1.00  0.00    -0.237 OA
ATOM     78  O   UNL A   1      42.388  33.859  41.506  1.00  0.00    -0.237 OA
ATOM     79  O   UNL A   1      40.546  34.336  43.077  1.00  0.00    -0.744 OA
ENDBRANCH  73  76
ENDBRANCH  55  69
BRANCH  56  80
ATOM     80  C   UNL A   1      43.183  34.754  29.001  1.00  0.00     0.023 A 
ATOM     81  C   UNL A   1      42.215  35.737  28.658  1.00  0.00     0.012 A 
ATOM     82  C   UNL A   1      43.787  34.015  27.972  1.00  0.00     0.148 A 
ATOM     83  C   UNL A   1      42.082  36.163  27.334  1.00  0.00     0.002 A 
ATOM     84  C   UNL A   1      43.618  34.423  26.649  1.00  0.00     0.091 A 
ATOM     85  F   UNL A   1      44.572  32.979  28.295  1.00  0.00    -0.205 F 
ATOM     86  C   UNL A   1      42.833  35.546  26.337  1.00  0.00     0.022 A 
BRANCH  84  87
ATOM     87  S   UNL A   1      44.472  33.564  25.324  1.00  0.00     0.127 S 
ATOM     88  O   UNL A   1      44.056  34.338  24.157  1.00  0.00    -0.237 OA
ATOM     89  O   UNL A   1      45.881  33.722  25.677  1.00  0.00    -0.237 OA
ATOM     90  O   UNL A   1      43.986  32.194  25.394  1.00  0.00    -0.744 OA
ENDBRANCH  84  87
ENDBRANCH  56  80
BRANCH  68  91
ATOM     91  C   UNL A   1      43.639  39.845  34.144  1.00  0.00     0.023 A 
ATOM     92  C   UNL A   1      44.259  40.329  35.307  1.00  0.00     0.012 A 
ATOM     93  C   UNL A   1      43.104  40.828  33.262  1.00  0.00     0.148 A 
ATOM     94  C   UNL A   1      44.271  41.689  35.629  1.00  0.00     0.002 A 
ATOM     95  C   UNL A   1      43.249  42.186  33.515  1.00  0.00     0.091 A 
ATOM     96  F   UNL A   1      42.409  40.464  32.177  1.00  0.00    -0.205 F 
ATOM     97  C   UNL A   1      43.788  42.621  34.723  1.00  0.00     0.022 A 
BRANCH  95  98
ATOM     98  S   UNL A   1      42.874  43.427  32.268  1.00  0.00     0.127 S 
ATOM     99  O   UNL A   1      42.244  44.473  33.071  1.00  0.00    -0.237 OA
ATOM    100  O   UNL A   1      44.207  43.763  31.764  1.00  0.00    -0.237 OA
ATOM    101  O   UNL A   1      42.015  42.766  31.295  1.00  0.00    -0.744 OA
ENDBRANCH  95  98
ENDBRANCH  68  91
ENDBRANCH  42  43
ENDBRANCH  34  37
ENDBRANCH  32  33
ENDBRANCH  31  32
ENDBRANCH  30  31
ENDBRANCH   1  30
TORSDOF 19
ENDMDL
