MODEL 1
REMARK VINA RESULT:     -10.1      0.000      0.000
REMARK SMILES C[C@@H](C(=O)NCCCCNC(=O)c1ccc(-c2c3nc(c(-c4cccc(S(=O)(=O)[O-])c4F)c4ccc([nH]4)c(-c4cccc(S(=O)(=O)[O-])c4F)c4nc(c(-c5cccc(S(=O)(=O)[O-])c5F)c5ccc2[nH]5)C=C4)C=C3)cc1)N1C(=O)/C(=C/c2ccc(-c3ccc([N+](=O)[O-])cc3Cl)o2)SC1=S
REMARK SMILES IDX 7 1 6 2 5 3 3 4 4 5 2 7 1 8 76 9 77 10 97 11 78 12 79 13
REMARK SMILES IDX 96 14 98 15 80 16 81 17 82 18 95 19 83 20 84 21 85 22 86 23
REMARK SMILES IDX 93 24 87 25 92 26 94 27 88 28 89 29 90 30 91 31 8 32 9 33
REMARK SMILES IDX 10 34 11 35 12 37 13 38 14 39 75 40 15 41 74 42 16 43 17 44
REMARK SMILES IDX 18 45 68 46 19 47 73 48 67 49 69 50 20 51 72 52 66 53 65 54
REMARK SMILES IDX 21 56 53 57 33 58 52 59 34 60 37 61 51 62 70 63 35 64 36 65
REMARK SMILES IDX 50 67 71 68 38 69 22 70 23 71 31 72 24 73 26 74 32 75 25 76
REMARK SMILES IDX 27 77 28 78 29 79 30 80 54 81 55 82 63 83 56 84 58 85 64 86
REMARK SMILES IDX 57 87 59 88 60 89 61 90 62 91 39 92 40 93 48 94 41 95 43 96
REMARK SMILES IDX 49 97 42 98 44 99 45 100 46 101 47 102
REMARK H PARENT 5 6 10 36 69 55 37 66
REMARK Flexibility Score: inf
ROOT
ATOM      1  C   UNL A   1      34.569  35.207  29.018  1.00  0.00     0.023 C 
ENDROOT
BRANCH   1   2
ATOM      2  C   UNL A   1      33.654  35.317  30.244  1.00  0.00     0.116 C 
BRANCH   2   3
ATOM      3  N   UNL A   1      34.359  35.904  31.370  1.00  0.00    -0.354 N 
ATOM      4  C   UNL A   1      34.845  35.297  32.499  1.00  0.00     0.242 C 
ATOM      5  O   UNL A   1      34.963  35.985  33.515  1.00  0.00    -0.273 OA
ATOM      6  H   UNL A   1      34.508  36.875  31.315  1.00  0.00     0.163 HD
BRANCH   4   7
ATOM      7  C   UNL A   1      35.087  33.769  32.498  1.00  0.00     0.178 C 
ATOM      8  C   UNL A   1      33.954  33.228  33.394  1.00  0.00     0.042 C 
BRANCH   7   9
ATOM      9  N   UNL A   1      36.406  33.289  32.993  1.00  0.00    -0.281 N 
ATOM     10  C   UNL A   1      36.631  33.010  34.332  1.00  0.00     0.267 C 
ATOM     11  C   UNL A   1      37.573  33.383  32.255  1.00  0.00     0.149 C 
ATOM     12  O   UNL A   1      35.993  33.411  35.293  1.00  0.00    -0.268 OA
ATOM     13  C   UNL A   1      37.945  32.331  34.501  1.00  0.00     0.084 C 
ATOM     14  S   UNL A   1      38.888  32.566  33.088  1.00  0.00    -0.054 SA
ATOM     15  S   UNL A   1      37.852  34.180  30.811  1.00  0.00    -0.052 S 
ATOM     16  C   UNL A   1      38.263  31.661  35.617  1.00  0.00     0.068 C 
BRANCH  16  17
ATOM     17  C   UNL A   1      39.546  31.082  35.827  1.00  0.00     0.128 A 
ATOM     18  C   UNL A   1      40.682  31.662  36.379  1.00  0.00     0.051 A 
ATOM     19  O   UNL A   1      39.857  29.775  35.514  1.00  0.00    -0.457 OA
ATOM     20  C   UNL A   1      41.714  30.701  36.365  1.00  0.00     0.051 A 
ATOM     21  C   UNL A   1      41.171  29.568  35.804  1.00  0.00     0.136 A 
BRANCH  21  22
ATOM     22  C   UNL A   1      41.724  28.252  35.517  1.00  0.00     0.036 A 
ATOM     23  C   UNL A   1      41.584  27.251  36.497  1.00  0.00     0.020 A 
ATOM     24  C   UNL A   1      42.461  27.956  34.355  1.00  0.00     0.058 A 
ATOM     25  C   UNL A   1      42.177  25.996  36.341  1.00  0.00     0.086 A 
ATOM     26  C   UNL A   1      43.060  26.700  34.188  1.00  0.00     0.106 A 
ATOM     27  Cl  UNL A   1      42.746  29.127  33.114  1.00  0.00    -0.083 Cl
ATOM     28  C   UNL A   1      42.924  25.730  35.189  1.00  0.00     0.270 A 
BRANCH  28  29
ATOM     29  N   UNL A   1      43.601  24.434  35.047  1.00  0.00     0.062 N 
ATOM     30  O   UNL A   1      44.811  24.445  34.774  1.00  0.00    -0.258 OA
ATOM     31  O   UNL A   1      42.922  23.409  35.188  1.00  0.00    -0.258 OA
ENDBRANCH  28  29
ENDBRANCH  21  22
ENDBRANCH  16  17
ENDBRANCH   7   9
ENDBRANCH   4   7
ENDBRANCH   2   3
ENDBRANCH   1   2
BRANCH   1  32
ATOM     32  C   UNL A   1      34.305  33.993  28.123  1.00  0.00     0.023 C 
BRANCH  32  33
ATOM     33  C   UNL A   1      34.844  32.668  28.651  1.00  0.00     0.116 C 
BRANCH  33  34
ATOM     34  N   UNL A   1      34.057  31.526  28.212  1.00  0.00    -0.352 N 
ATOM     35  C   UNL A   1      34.470  30.241  27.954  1.00  0.00     0.251 C 
ATOM     36  H   UNL A   1      33.096  31.697  28.082  1.00  0.00     0.163 HD
ATOM     37  O   UNL A   1      33.685  29.435  27.463  1.00  0.00    -0.269 OA
BRANCH  35  38
ATOM     38  C   UNL A   1      35.866  29.842  28.241  1.00  0.00     0.039 A 
ATOM     39  C   UNL A   1      36.819  29.947  27.224  1.00  0.00     0.014 A 
ATOM     40  C   UNL A   1      36.235  29.379  29.507  1.00  0.00     0.014 A 
ATOM     41  C   UNL A   1      38.156  29.649  27.496  1.00  0.00     0.010 A 
ATOM     42  C   UNL A   1      37.577  29.143  29.792  1.00  0.00     0.010 A 
ATOM     43  C   UNL A   1      38.550  29.275  28.791  1.00  0.00    -0.014 A 
BRANCH  43  44
ATOM     44  C   UNL A   1      39.977  29.037  29.127  1.00  0.00     0.031 A 
ATOM     45  C   UNL A   1      40.828  30.157  29.659  1.00  0.00     0.074 A 
ATOM     46  C   UNL A   1      40.532  27.839  28.854  1.00  0.00     0.049 A 
ATOM     47  N   UNL A   1      42.104  30.159  29.942  1.00  0.00    -0.248 NA
ATOM     48  C   UNL A   1      40.163  31.453  29.876  1.00  0.00     0.031 C 
ATOM     49  C   UNL A   1      39.833  26.700  28.256  1.00  0.00     0.029 A 
ATOM     50  N   UNL A   1      41.819  27.390  29.016  1.00  0.00    -0.354 N 
ATOM     51  C   UNL A   1      42.406  31.458  30.332  1.00  0.00     0.074 A 
ATOM     52  C   UNL A   1      41.184  32.226  30.224  1.00  0.00     0.031 C 
ATOM     53  C   UNL A   1      40.698  25.685  28.099  1.00  0.00     0.029 A 
ATOM     54  C   UNL A   1      42.016  26.106  28.567  1.00  0.00     0.049 A 
ATOM     55  H   UNL A   1      42.533  27.937  29.417  1.00  0.00     0.167 HD
ATOM     56  C   UNL A   1      43.584  31.960  30.772  1.00  0.00     0.034 A 
ATOM     57  C   UNL A   1      43.132  25.351  28.534  1.00  0.00     0.034 A 
ATOM     58  C   UNL A   1      44.781  31.180  30.936  1.00  0.00     0.049 A 
ATOM     59  C   UNL A   1      44.411  25.913  29.091  1.00  0.00     0.074 A 
ATOM     60  C   UNL A   1      45.996  31.574  31.468  1.00  0.00     0.029 A 
ATOM     61  N   UNL A   1      44.913  29.849  30.574  1.00  0.00    -0.354 N 
ATOM     62  N   UNL A   1      44.633  27.093  29.617  1.00  0.00    -0.248 NA
ATOM     63  C   UNL A   1      45.585  25.027  29.088  1.00  0.00     0.031 C 
ATOM     64  C   UNL A   1      46.866  30.479  31.423  1.00  0.00     0.029 A 
ATOM     65  C   UNL A   1      46.190  29.404  30.869  1.00  0.00     0.049 A 
ATOM     66  H   UNL A   1      44.205  29.301  30.167  1.00  0.00     0.167 HD
ATOM     67  C   UNL A   1      45.958  27.082  30.036  1.00  0.00     0.074 A 
ATOM     68  C   UNL A   1      46.484  25.769  29.722  1.00  0.00     0.031 C 
ATOM     69  C   UNL A   1      46.680  28.075  30.611  1.00  0.00     0.034 A 
BRANCH  56  70
ATOM     70  C   UNL A   1      43.616  33.408  31.179  1.00  0.00     0.023 A 
ATOM     71  C   UNL A   1      44.065  34.373  30.254  1.00  0.00     0.012 A 
ATOM     72  C   UNL A   1      43.155  33.825  32.442  1.00  0.00     0.148 A 
ATOM     73  C   UNL A   1      44.081  35.725  30.588  1.00  0.00     0.002 A 
ATOM     74  C   UNL A   1      43.139  35.180  32.755  1.00  0.00     0.091 A 
ATOM     75  F   UNL A   1      42.757  32.892  33.319  1.00  0.00    -0.205 F 
ATOM     76  C   UNL A   1      43.610  36.130  31.834  1.00  0.00     0.022 A 
BRANCH  74  77
ATOM     77  S   UNL A   1      42.484  35.802  34.309  1.00  0.00     0.127 S 
ATOM     78  O   UNL A   1      43.403  35.207  35.276  1.00  0.00    -0.237 OA
ATOM     79  O   UNL A   1      42.623  37.251  34.147  1.00  0.00    -0.237 OA
ATOM     80  O   UNL A   1      41.107  35.332  34.375  1.00  0.00    -0.744 OA
ENDBRANCH  74  77
ENDBRANCH  56  70
BRANCH  57  81
ATOM     81  C   UNL A   1      43.063  23.949  28.036  1.00  0.00     0.023 A 
ATOM     82  C   UNL A   1      42.316  23.000  28.761  1.00  0.00     0.012 A 
ATOM     83  C   UNL A   1      43.691  23.558  26.838  1.00  0.00     0.148 A 
ATOM     84  C   UNL A   1      42.216  21.682  28.316  1.00  0.00     0.002 A 
ATOM     85  C   UNL A   1      43.545  22.256  26.374  1.00  0.00     0.091 A 
ATOM     86  F   UNL A   1      44.411  24.470  26.170  1.00  0.00    -0.205 F 
ATOM     87  C   UNL A   1      42.820  21.312  27.118  1.00  0.00     0.022 A 
BRANCH  85  88
ATOM     88  S   UNL A   1      44.179  21.735  24.775  1.00  0.00     0.127 S 
ATOM     89  O   UNL A   1      43.530  22.681  23.872  1.00  0.00    -0.237 OA
ATOM     90  O   UNL A   1      45.621  21.928  24.938  1.00  0.00    -0.237 OA
ATOM     91  O   UNL A   1      43.778  20.341  24.638  1.00  0.00    -0.744 OA
ENDBRANCH  85  88
ENDBRANCH  57  81
BRANCH  69  92
ATOM     92  C   UNL A   1      48.113  27.782  30.966  1.00  0.00     0.023 A 
ATOM     93  C   UNL A   1      48.421  27.274  32.243  1.00  0.00     0.012 A 
ATOM     94  C   UNL A   1      49.140  27.929  30.013  1.00  0.00     0.148 A 
ATOM     95  C   UNL A   1      49.732  26.937  32.575  1.00  0.00     0.002 A 
ATOM     96  C   UNL A   1      50.438  27.553  30.337  1.00  0.00     0.091 A 
ATOM     97  F   UNL A   1      48.830  28.436  28.811  1.00  0.00    -0.205 F 
ATOM     98  C   UNL A   1      50.738  27.065  31.619  1.00  0.00     0.022 A 
BRANCH  96  99
ATOM     99  S   UNL A   1      51.774  27.601  29.136  1.00  0.00     0.127 S 
ATOM    100  O   UNL A   1      52.173  29.006  29.189  1.00  0.00    -0.237 OA
ATOM    101  O   UNL A   1      52.746  26.670  29.708  1.00  0.00    -0.237 OA
ATOM    102  O   UNL A   1      51.190  27.158  27.877  1.00  0.00    -0.744 OA
ENDBRANCH  96  99
ENDBRANCH  69  92
ENDBRANCH  43  44
ENDBRANCH  35  38
ENDBRANCH  33  34
ENDBRANCH  32  33
ENDBRANCH   1  32
TORSDOF 18
ENDMDL
MODEL 2
REMARK VINA RESULT:     -10.0      3.711     10.183
REMARK SMILES C[C@@H](C(=O)NCCCCNC(=O)c1ccc(-c2c3nc(c(-c4cccc(S(=O)(=O)[O-])c4F)c4ccc([nH]4)c(-c4cccc(S(=O)(=O)[O-])c4F)c4nc(c(-c5cccc(S(=O)(=O)[O-])c5F)c5ccc2[nH]5)C=C4)C=C3)cc1)N1C(=O)/C(=C/c2ccc(-c3ccc([N+](=O)[O-])cc3Cl)o2)SC1=S
REMARK SMILES IDX 7 1 6 2 5 3 3 4 4 5 2 7 1 8 76 9 77 10 97 11 78 12 79 13
REMARK SMILES IDX 96 14 98 15 80 16 81 17 82 18 95 19 83 20 84 21 85 22 86 23
REMARK SMILES IDX 93 24 87 25 92 26 94 27 88 28 89 29 90 30 91 31 8 32 9 33
REMARK SMILES IDX 10 34 11 35 12 37 13 38 14 39 75 40 15 41 74 42 16 43 17 44
REMARK SMILES IDX 18 45 68 46 19 47 73 48 67 49 69 50 20 51 72 52 66 53 65 54
REMARK SMILES IDX 21 56 53 57 33 58 52 59 34 60 37 61 51 62 70 63 35 64 36 65
REMARK SMILES IDX 50 67 71 68 38 69 22 70 23 71 31 72 24 73 26 74 32 75 25 76
REMARK SMILES IDX 27 77 28 78 29 79 30 80 54 81 55 82 63 83 56 84 58 85 64 86
REMARK SMILES IDX 57 87 59 88 60 89 61 90 62 91 39 92 40 93 48 94 41 95 43 96
REMARK SMILES IDX 49 97 42 98 44 99 45 100 46 101 47 102
REMARK H PARENT 5 6 10 36 69 55 37 66
REMARK Flexibility Score: inf
ROOT
ATOM      1  C   UNL A   1      44.967  23.679  24.583  1.00  0.00     0.023 C 
ENDROOT
BRANCH   1   2
ATOM      2  C   UNL A   1      43.533  23.533  25.104  1.00  0.00     0.116 C 
BRANCH   2   3
ATOM      3  N   UNL A   1      43.029  22.189  24.876  1.00  0.00    -0.354 N 
ATOM      4  C   UNL A   1      42.634  21.246  25.789  1.00  0.00     0.242 C 
ATOM      5  O   UNL A   1      42.705  20.061  25.457  1.00  0.00    -0.273 OA
ATOM      6  H   UNL A   1      42.963  21.918  23.932  1.00  0.00     0.163 HD
BRANCH   4   7
ATOM      7  C   UNL A   1      42.256  21.685  27.223  1.00  0.00     0.178 C 
ATOM      8  C   UNL A   1      41.425  20.499  27.752  1.00  0.00     0.042 C 
BRANCH   7   9
ATOM      9  N   UNL A   1      41.489  22.953  27.367  1.00  0.00    -0.281 N 
ATOM     10  C   UNL A   1      41.844  23.925  28.289  1.00  0.00     0.267 C 
ATOM     11  C   UNL A   1      40.217  23.132  26.851  1.00  0.00     0.149 C 
ATOM     12  O   UNL A   1      42.531  23.787  29.288  1.00  0.00    -0.268 OA
ATOM     13  C   UNL A   1      41.057  25.167  28.054  1.00  0.00     0.084 C 
ATOM     14  S   UNL A   1      39.701  24.798  27.071  1.00  0.00    -0.054 SA
ATOM     15  S   UNL A   1      39.186  22.010  26.160  1.00  0.00    -0.052 S 
ATOM     16  C   UNL A   1      41.421  26.350  28.567  1.00  0.00     0.068 C 
BRANCH  16  17
ATOM     17  C   UNL A   1      40.633  27.526  28.422  1.00  0.00     0.128 A 
ATOM     18  C   UNL A   1      40.242  28.171  27.255  1.00  0.00     0.051 A 
ATOM     19  O   UNL A   1      40.094  28.222  29.483  1.00  0.00    -0.457 OA
ATOM     20  C   UNL A   1      39.483  29.304  27.616  1.00  0.00     0.051 A 
ATOM     21  C   UNL A   1      39.439  29.310  28.990  1.00  0.00     0.136 A 
BRANCH  21  22
ATOM     22  C   UNL A   1      38.816  30.212  29.950  1.00  0.00     0.036 A 
ATOM     23  C   UNL A   1      39.657  30.922  30.827  1.00  0.00     0.020 A 
ATOM     24  C   UNL A   1      37.424  30.341  30.102  1.00  0.00     0.058 A 
ATOM     25  C   UNL A   1      39.133  31.724  31.843  1.00  0.00     0.086 A 
ATOM     26  C   UNL A   1      36.886  31.144  31.118  1.00  0.00     0.106 A 
ATOM     27  Cl  UNL A   1      36.298  29.470  29.119  1.00  0.00    -0.083 Cl
ATOM     28  C   UNL A   1      37.746  31.822  31.991  1.00  0.00     0.270 A 
BRANCH  28  29
ATOM     29  N   UNL A   1      37.188  32.614  33.095  1.00  0.00     0.062 N 
ATOM     30  O   UNL A   1      36.527  32.015  33.956  1.00  0.00    -0.258 OA
ATOM     31  O   UNL A   1      37.393  33.835  33.091  1.00  0.00    -0.258 OA
ENDBRANCH  28  29
ENDBRANCH  21  22
ENDBRANCH  16  17
ENDBRANCH   7   9
ENDBRANCH   4   7
ENDBRANCH   2   3
ENDBRANCH   1   2
BRANCH   1  32
ATOM     32  C   UNL A   1      46.060  23.317  25.592  1.00  0.00     0.023 C 
BRANCH  32  33
ATOM     33  C   UNL A   1      47.053  24.433  25.900  1.00  0.00     0.116 C 
BRANCH  33  34
ATOM     34  N   UNL A   1      47.247  25.339  24.778  1.00  0.00    -0.352 N 
ATOM     35  C   UNL A   1      46.851  26.647  24.648  1.00  0.00     0.251 C 
ATOM     36  H   UNL A   1      47.730  24.962  24.007  1.00  0.00     0.163 HD
ATOM     37  O   UNL A   1      46.986  27.221  23.571  1.00  0.00    -0.269 OA
BRANCH  35  38
ATOM     38  C   UNL A   1      46.235  27.351  25.795  1.00  0.00     0.039 A 
ATOM     39  C   UNL A   1      44.844  27.314  25.940  1.00  0.00     0.014 A 
ATOM     40  C   UNL A   1      47.021  28.033  26.727  1.00  0.00     0.014 A 
ATOM     41  C   UNL A   1      44.249  27.906  27.056  1.00  0.00     0.010 A 
ATOM     42  C   UNL A   1      46.433  28.566  27.869  1.00  0.00     0.010 A 
ATOM     43  C   UNL A   1      45.042  28.509  28.046  1.00  0.00    -0.014 A 
BRANCH  43  44
ATOM     44  C   UNL A   1      44.441  29.068  29.284  1.00  0.00     0.031 A 
ATOM     45  C   UNL A   1      44.056  30.520  29.351  1.00  0.00     0.074 A 
ATOM     46  C   UNL A   1      44.339  28.291  30.380  1.00  0.00     0.049 A 
ATOM     47  N   UNL A   1      43.586  31.200  30.363  1.00  0.00    -0.248 NA
ATOM     48  C   UNL A   1      44.251  31.318  28.129  1.00  0.00     0.031 C 
ATOM     49  C   UNL A   1      44.760  26.891  30.467  1.00  0.00     0.029 A 
ATOM     50  N   UNL A   1      43.879  28.577  31.641  1.00  0.00    -0.354 N 
ATOM     51  C   UNL A   1      43.465  32.511  29.917  1.00  0.00     0.074 A 
ATOM     52  C   UNL A   1      43.936  32.536  28.549  1.00  0.00     0.031 C 
ATOM     53  C   UNL A   1      44.540  26.441  31.713  1.00  0.00     0.029 A 
ATOM     54  C   UNL A   1      43.982  27.524  32.519  1.00  0.00     0.049 A 
ATOM     55  H   UNL A   1      43.509  29.454  31.893  1.00  0.00     0.167 HD
ATOM     56  C   UNL A   1      42.974  33.589  30.573  1.00  0.00     0.034 A 
ATOM     57  C   UNL A   1      43.665  27.438  33.826  1.00  0.00     0.034 A 
ATOM     58  C   UNL A   1      42.449  33.548  31.911  1.00  0.00     0.049 A 
ATOM     59  C   UNL A   1      43.060  28.634  34.511  1.00  0.00     0.074 A 
ATOM     60  C   UNL A   1      41.839  34.563  32.626  1.00  0.00     0.029 A 
ATOM     61  N   UNL A   1      42.467  32.433  32.733  1.00  0.00    -0.354 N 
ATOM     62  N   UNL A   1      42.793  29.819  34.019  1.00  0.00    -0.248 NA
ATOM     63  C   UNL A   1      42.675  28.470  35.921  1.00  0.00     0.031 C 
ATOM     64  C   UNL A   1      41.493  34.062  33.885  1.00  0.00     0.029 A 
ATOM     65  C   UNL A   1      41.882  32.734  33.950  1.00  0.00     0.049 A 
ATOM     66  H   UNL A   1      42.842  31.557  32.489  1.00  0.00     0.167 HD
ATOM     67  C   UNL A   1      42.182  30.530  35.044  1.00  0.00     0.074 A 
ATOM     68  C   UNL A   1      42.097  29.635  36.180  1.00  0.00     0.031 C 
ATOM     69  C   UNL A   1      41.746  31.814  35.050  1.00  0.00     0.034 A 
BRANCH  56  70
ATOM     70  C   UNL A   1      42.913  34.893  29.824  1.00  0.00     0.023 A 
ATOM     71  C   UNL A   1      41.818  35.145  28.971  1.00  0.00     0.012 A 
ATOM     72  C   UNL A   1      43.895  35.886  30.001  1.00  0.00     0.148 A 
ATOM     73  C   UNL A   1      41.716  36.354  28.285  1.00  0.00     0.002 A 
ATOM     74  C   UNL A   1      43.766  37.104  29.341  1.00  0.00     0.091 A 
ATOM     75  F   UNL A   1      44.942  35.619  30.794  1.00  0.00    -0.205 F 
ATOM     76  C   UNL A   1      42.684  37.336  28.477  1.00  0.00     0.022 A 
BRANCH  74  77
ATOM     77  S   UNL A   1      44.926  38.456  29.580  1.00  0.00     0.127 S 
ATOM     78  O   UNL A   1      46.111  37.747  30.058  1.00  0.00    -0.237 OA
ATOM     79  O   UNL A   1      45.048  39.005  28.228  1.00  0.00    -0.237 OA
ATOM     80  O   UNL A   1      44.298  39.352  30.541  1.00  0.00    -0.744 OA
ENDBRANCH  74  77
ENDBRANCH  56  70
BRANCH  57  81
ATOM     81  C   UNL A   1      43.829  26.145  34.545  1.00  0.00     0.023 A 
ATOM     82  C   UNL A   1      42.736  25.260  34.621  1.00  0.00     0.012 A 
ATOM     83  C   UNL A   1      45.060  25.766  35.114  1.00  0.00     0.148 A 
ATOM     84  C   UNL A   1      42.858  24.032  35.272  1.00  0.00     0.002 A 
ATOM     85  C   UNL A   1      45.190  24.520  35.717  1.00  0.00     0.091 A 
ATOM     86  F   UNL A   1      46.084  26.629  35.047  1.00  0.00    -0.205 F 
ATOM     87  C   UNL A   1      44.087  23.658  35.810  1.00  0.00     0.022 A 
BRANCH  85  88
ATOM     88  S   UNL A   1      46.769  23.908  36.316  1.00  0.00     0.127 S 
ATOM     89  O   UNL A   1      46.408  22.583  36.814  1.00  0.00    -0.237 OA
ATOM     90  O   UNL A   1      47.582  23.909  35.098  1.00  0.00    -0.237 OA
ATOM     91  O   UNL A   1      47.200  24.873  37.318  1.00  0.00    -0.744 OA
ENDBRANCH  85  88
ENDBRANCH  57  81
BRANCH  69  92
ATOM     92  C   UNL A   1      41.113  32.331  36.314  1.00  0.00     0.023 A 
ATOM     93  C   UNL A   1      41.871  33.128  37.194  1.00  0.00     0.012 A 
ATOM     94  C   UNL A   1      39.751  32.099  36.588  1.00  0.00     0.148 A 
ATOM     95  C   UNL A   1      41.289  33.669  38.339  1.00  0.00     0.002 A 
ATOM     96  C   UNL A   1      39.167  32.675  37.710  1.00  0.00     0.091 A 
ATOM     97  F   UNL A   1      39.053  31.318  35.750  1.00  0.00    -0.205 F 
ATOM     98  C   UNL A   1      39.936  33.452  38.591  1.00  0.00     0.022 A 
BRANCH  96  99
ATOM     99  S   UNL A   1      37.410  32.520  38.058  1.00  0.00     0.127 S 
ATOM    100  O   UNL A   1      36.818  33.219  36.920  1.00  0.00    -0.237 OA
ATOM    101  O   UNL A   1      37.214  31.070  38.053  1.00  0.00    -0.237 OA
ATOM    102  O   UNL A   1      37.209  33.146  39.359  1.00  0.00    -0.744 OA
ENDBRANCH  96  99
ENDBRANCH  69  92
ENDBRANCH  43  44
ENDBRANCH  35  38
ENDBRANCH  33  34
ENDBRANCH  32  33
ENDBRANCH   1  32
TORSDOF 18
ENDMDL
MODEL 3
REMARK VINA RESULT:      -9.7      5.431     10.924
REMARK SMILES C[C@@H](C(=O)NCCCCNC(=O)c1ccc(-c2c3nc(c(-c4cccc(S(=O)(=O)[O-])c4F)c4ccc([nH]4)c(-c4cccc(S(=O)(=O)[O-])c4F)c4nc(c(-c5cccc(S(=O)(=O)[O-])c5F)c5ccc2[nH]5)C=C4)C=C3)cc1)N1C(=O)/C(=C/c2ccc(-c3ccc([N+](=O)[O-])cc3Cl)o2)SC1=S
REMARK SMILES IDX 7 1 6 2 5 3 3 4 4 5 2 7 1 8 76 9 77 10 97 11 78 12 79 13
REMARK SMILES IDX 96 14 98 15 80 16 81 17 82 18 95 19 83 20 84 21 85 22 86 23
REMARK SMILES IDX 93 24 87 25 92 26 94 27 88 28 89 29 90 30 91 31 8 32 9 33
REMARK SMILES IDX 10 34 11 35 12 37 13 38 14 39 75 40 15 41 74 42 16 43 17 44
REMARK SMILES IDX 18 45 68 46 19 47 73 48 67 49 69 50 20 51 72 52 66 53 65 54
REMARK SMILES IDX 21 56 53 57 33 58 52 59 34 60 37 61 51 62 70 63 35 64 36 65
REMARK SMILES IDX 50 67 71 68 38 69 22 70 23 71 31 72 24 73 26 74 32 75 25 76
REMARK SMILES IDX 27 77 28 78 29 79 30 80 54 81 55 82 63 83 56 84 58 85 64 86
REMARK SMILES IDX 57 87 59 88 60 89 61 90 62 91 39 92 40 93 48 94 41 95 43 96
REMARK SMILES IDX 49 97 42 98 44 99 45 100 46 101 47 102
REMARK H PARENT 5 6 10 36 69 55 37 66
REMARK Flexibility Score: inf
ROOT
ATOM      1  C   UNL A   1      37.773  23.369  26.133  1.00  0.00     0.023 C 
ENDROOT
BRANCH   1   2
ATOM      2  C   UNL A   1      36.364  22.952  25.694  1.00  0.00     0.116 C 
BRANCH   2   3
ATOM      3  N   UNL A   1      35.739  22.097  26.688  1.00  0.00    -0.354 N 
ATOM      4  C   UNL A   1      34.412  21.812  26.874  1.00  0.00     0.242 C 
ATOM      5  O   UNL A   1      34.048  21.486  28.006  1.00  0.00    -0.273 OA
ATOM      6  H   UNL A   1      36.357  21.660  27.318  1.00  0.00     0.163 HD
BRANCH   4   7
ATOM      7  C   UNL A   1      33.413  22.045  25.716  1.00  0.00     0.178 C 
ATOM      8  C   UNL A   1      34.129  21.427  24.498  1.00  0.00     0.042 C 
BRANCH   7   9
ATOM      9  N   UNL A   1      33.026  23.452  25.423  1.00  0.00    -0.281 N 
ATOM     10  C   UNL A   1      32.257  24.201  26.301  1.00  0.00     0.267 C 
ATOM     11  C   UNL A   1      33.112  24.015  24.161  1.00  0.00     0.149 C 
ATOM     12  O   UNL A   1      31.529  23.788  27.188  1.00  0.00    -0.268 OA
ATOM     13  C   UNL A   1      32.225  25.625  25.868  1.00  0.00     0.084 C 
ATOM     14  S   UNL A   1      32.731  25.729  24.232  1.00  0.00    -0.054 SA
ATOM     15  S   UNL A   1      33.448  23.283  22.695  1.00  0.00    -0.052 S 
ATOM     16  C   UNL A   1      31.846  26.612  26.691  1.00  0.00     0.068 C 
BRANCH  16  17
ATOM     17  C   UNL A   1      31.727  27.964  26.266  1.00  0.00     0.128 A 
ATOM     18  C   UNL A   1      32.294  29.104  26.826  1.00  0.00     0.051 A 
ATOM     19  O   UNL A   1      31.009  28.359  25.157  1.00  0.00    -0.457 OA
ATOM     20  C   UNL A   1      31.879  30.216  26.065  1.00  0.00     0.051 A 
ATOM     21  C   UNL A   1      31.073  29.717  25.068  1.00  0.00     0.136 A 
BRANCH  21  22
ATOM     22  C   UNL A   1      30.348  30.354  23.977  1.00  0.00     0.036 A 
ATOM     23  C   UNL A   1      29.650  31.544  24.257  1.00  0.00     0.020 A 
ATOM     24  C   UNL A   1      30.238  29.798  22.690  1.00  0.00     0.058 A 
ATOM     25  C   UNL A   1      28.848  32.157  23.293  1.00  0.00     0.086 A 
ATOM     26  C   UNL A   1      29.436  30.405  21.714  1.00  0.00     0.106 A 
ATOM     27  Cl  UNL A   1      31.005  28.309  22.254  1.00  0.00    -0.083 Cl
ATOM     28  C   UNL A   1      28.735  31.576  22.026  1.00  0.00     0.270 A 
BRANCH  28  29
ATOM     29  N   UNL A   1      27.845  32.182  21.026  1.00  0.00     0.062 N 
ATOM     30  O   UNL A   1      27.403  31.447  20.130  1.00  0.00    -0.258 OA
ATOM     31  O   UNL A   1      27.603  33.391  21.126  1.00  0.00    -0.258 OA
ENDBRANCH  28  29
ENDBRANCH  21  22
ENDBRANCH  16  17
ENDBRANCH   7   9
ENDBRANCH   4   7
ENDBRANCH   2   3
ENDBRANCH   1   2
BRANCH   1  32
ATOM     32  C   UNL A   1      38.701  22.209  26.505  1.00  0.00     0.023 C 
BRANCH  32  33
ATOM     33  C   UNL A   1      38.991  21.223  25.379  1.00  0.00     0.116 C 
BRANCH  33  34
ATOM     34  N   UNL A   1      39.803  20.096  25.814  1.00  0.00    -0.352 N 
ATOM     35  C   UNL A   1      41.081  20.096  26.317  1.00  0.00     0.251 C 
ATOM     36  H   UNL A   1      39.377  19.211  25.737  1.00  0.00     0.163 HD
ATOM     37  O   UNL A   1      41.661  19.031  26.509  1.00  0.00    -0.269 OA
BRANCH  35  38
ATOM     38  C   UNL A   1      41.765  21.378  26.595  1.00  0.00     0.039 A 
ATOM     39  C   UNL A   1      42.152  22.183  25.519  1.00  0.00     0.014 A 
ATOM     40  C   UNL A   1      42.014  21.790  27.908  1.00  0.00     0.014 A 
ATOM     41  C   UNL A   1      42.729  23.432  25.762  1.00  0.00     0.010 A 
ATOM     42  C   UNL A   1      42.531  23.060  28.147  1.00  0.00     0.010 A 
ATOM     43  C   UNL A   1      42.894  23.893  27.078  1.00  0.00    -0.014 A 
BRANCH  43  44
ATOM     44  C   UNL A   1      43.425  25.251  27.361  1.00  0.00     0.031 A 
ATOM     45  C   UNL A   1      42.538  26.299  27.975  1.00  0.00     0.074 A 
ATOM     46  C   UNL A   1      44.674  25.570  26.969  1.00  0.00     0.049 A 
ATOM     47  N   UNL A   1      42.801  27.554  28.229  1.00  0.00    -0.248 NA
ATOM     48  C   UNL A   1      41.166  25.891  28.322  1.00  0.00     0.031 C 
ATOM     49  C   UNL A   1      45.602  24.667  26.285  1.00  0.00     0.029 A 
ATOM     50  N   UNL A   1      45.369  26.750  27.063  1.00  0.00    -0.354 N 
ATOM     51  C   UNL A   1      41.624  28.096  28.729  1.00  0.00     0.074 A 
ATOM     52  C   UNL A   1      40.634  27.040  28.718  1.00  0.00     0.031 C 
ATOM     53  C   UNL A   1      46.742  25.325  26.019  1.00  0.00     0.029 A 
ATOM     54  C   UNL A   1      46.620  26.700  26.495  1.00  0.00     0.049 A 
ATOM     55  H   UNL A   1      45.005  27.555  27.496  1.00  0.00     0.167 HD
ATOM     56  C   UNL A   1      41.393  29.349  29.189  1.00  0.00     0.034 A 
ATOM     57  C   UNL A   1      47.564  27.654  26.370  1.00  0.00     0.034 A 
ATOM     58  C   UNL A   1      42.395  30.378  29.256  1.00  0.00     0.049 A 
ATOM     59  C   UNL A   1      47.305  29.018  26.949  1.00  0.00     0.074 A 
ATOM     60  C   UNL A   1      42.287  31.648  29.796  1.00  0.00     0.029 A 
ATOM     61  N   UNL A   1      43.688  30.257  28.773  1.00  0.00    -0.354 N 
ATOM     62  N   UNL A   1      46.242  29.460  27.575  1.00  0.00    -0.248 NA
ATOM     63  C   UNL A   1      48.391  30.005  26.841  1.00  0.00     0.031 C 
ATOM     64  C   UNL A   1      43.516  32.296  29.634  1.00  0.00     0.029 A 
ATOM     65  C   UNL A   1      44.389  31.428  28.999  1.00  0.00     0.049 A 
ATOM     66  H   UNL A   1      44.053  29.457  28.332  1.00  0.00     0.167 HD
ATOM     67  C   UNL A   1      46.540  30.761  27.963  1.00  0.00     0.074 A 
ATOM     68  C   UNL A   1      47.892  31.029  27.520  1.00  0.00     0.031 C 
ATOM     69  C   UNL A   1      45.757  31.659  28.610  1.00  0.00     0.034 A 
BRANCH  56  70
ATOM     70  C   UNL A   1      40.021  29.655  29.725  1.00  0.00     0.023 A 
ATOM     71  C   UNL A   1      38.972  29.917  28.820  1.00  0.00     0.012 A 
ATOM     72  C   UNL A   1      39.751  29.628  31.106  1.00  0.00     0.148 A 
ATOM     73  C   UNL A   1      37.683  30.176  29.281  1.00  0.00     0.002 A 
ATOM     74  C   UNL A   1      38.455  29.850  31.557  1.00  0.00     0.091 A 
ATOM     75  F   UNL A   1      40.765  29.403  31.954  1.00  0.00    -0.205 F 
ATOM     76  C   UNL A   1      37.422  30.133  30.648  1.00  0.00     0.022 A 
BRANCH  74  77
ATOM     77  S   UNL A   1      38.008  29.745  33.295  1.00  0.00     0.127 S 
ATOM     78  O   UNL A   1      37.081  28.615  33.293  1.00  0.00    -0.237 OA
ATOM     79  O   UNL A   1      39.298  29.475  33.933  1.00  0.00    -0.237 OA
ATOM     80  O   UNL A   1      37.426  31.037  33.633  1.00  0.00    -0.744 OA
ENDBRANCH  74  77
ENDBRANCH  56  70
BRANCH  57  81
ATOM     81  C   UNL A   1      48.876  27.321  25.749  1.00  0.00     0.023 A 
ATOM     82  C   UNL A   1      49.882  26.737  26.543  1.00  0.00     0.012 A 
ATOM     83  C   UNL A   1      49.122  27.536  24.379  1.00  0.00     0.148 A 
ATOM     84  C   UNL A   1      51.117  26.397  25.992  1.00  0.00     0.002 A 
ATOM     85  C   UNL A   1      50.336  27.149  23.825  1.00  0.00     0.091 A 
ATOM     86  F   UNL A   1      48.159  28.108  23.642  1.00  0.00    -0.205 F 
ATOM     87  C   UNL A   1      51.340  26.592  24.632  1.00  0.00     0.022 A 
BRANCH  85  88
ATOM     88  S   UNL A   1      50.653  27.242  22.059  1.00  0.00     0.127 S 
ATOM     89  O   UNL A   1      49.560  26.442  21.515  1.00  0.00    -0.237 OA
ATOM     90  O   UNL A   1      50.552  28.680  21.803  1.00  0.00    -0.237 OA
ATOM     91  O   UNL A   1      51.994  26.700  21.880  1.00  0.00    -0.744 OA
ENDBRANCH  85  88
ENDBRANCH  57  81
BRANCH  69  92
ATOM     92  C   UNL A   1      46.344  33.012  28.908  1.00  0.00     0.023 A 
ATOM     93  C   UNL A   1      47.254  33.154  29.974  1.00  0.00     0.012 A 
ATOM     94  C   UNL A   1      46.062  34.120  28.085  1.00  0.00     0.148 A 
ATOM     95  C   UNL A   1      47.858  34.384  30.231  1.00  0.00     0.002 A 
ATOM     96  C   UNL A   1      46.699  35.333  28.322  1.00  0.00     0.091 A 
ATOM     97  F   UNL A   1      45.176  33.970  27.089  1.00  0.00    -0.205 F 
ATOM     98  C   UNL A   1      47.590  35.469  29.398  1.00  0.00     0.022 A 
BRANCH  96  99
ATOM     99  S   UNL A   1      46.479  36.754  27.243  1.00  0.00     0.127 S 
ATOM    100  O   UNL A   1      45.178  37.258  27.675  1.00  0.00    -0.237 OA
ATOM    101  O   UNL A   1      47.614  37.603  27.606  1.00  0.00    -0.237 OA
ATOM    102  O   UNL A   1      46.534  36.230  25.884  1.00  0.00    -0.744 OA
ENDBRANCH  96  99
ENDBRANCH  69  92
ENDBRANCH  43  44
ENDBRANCH  35  38
ENDBRANCH  33  34
ENDBRANCH  32  33
ENDBRANCH   1  32
TORSDOF 18
ENDMDL
