MODEL 1
REMARK VINA RESULT:     -11.4      0.000      0.000
REMARK SMILES CC(C)(O)CC[C@@H](C(=O)NCCCCNC(=O)c1ccc(-c2c3nc(c(-c4cccc(S(=O)(=O)[O-])c4F)c4ccc([nH]4)c(-c4cccc(S(=O)(=O)[O-])c4F)c4nc(c(-c5cccc(S(=O)(=O)[O-])c5F)c5ccc2[nH]5)C=C4)C=C3)cc1)[C@@H]1CCS(=O)(=O)C1
REMARK SMILES IDX 12 1 11 2 10 3 8 4 9 5 7 7 6 8 5 9 2 10 1 11 3 12 4 13 81 15
REMARK SMILES IDX 82 16 87 17 83 18 84 19 85 20 86 21 13 22 14 23 15 24 16 25
REMARK SMILES IDX 17 27 18 28 19 29 80 30 20 31 79 32 21 33 22 34 23 35 73 36
REMARK SMILES IDX 24 37 78 38 72 39 74 40 25 41 77 42 71 43 70 44 26 46 58 47
REMARK SMILES IDX 38 48 57 49 39 50 42 51 56 52 75 53 40 54 41 55 55 57 76 58
REMARK SMILES IDX 43 59 27 60 28 61 36 62 29 63 31 64 37 65 30 66 32 67 33 68
REMARK SMILES IDX 34 69 35 70 59 71 60 72 68 73 61 74 63 75 69 76 62 77 64 78
REMARK SMILES IDX 65 79 66 80 67 81 44 82 45 83 53 84 46 85 48 86 54 87 47 88
REMARK SMILES IDX 49 89 50 90 51 91 52 92
REMARK H PARENT 10 6 4 14 15 26 74 45 42 56
REMARK Flexibility Score: inf
ROOT
ATOM      1  C   UNL A   1      32.228  29.069  24.199  1.00  0.00     0.023 C 
ENDROOT
BRANCH   1   2
ATOM      2  C   UNL A   1      31.361  28.342  23.165  1.00  0.00     0.116 C 
BRANCH   2   3
ATOM      3  N   UNL A   1      32.173  27.573  22.252  1.00  0.00    -0.356 N 
ATOM      4  C   UNL A   1      32.905  26.442  22.435  1.00  0.00     0.223 C 
ATOM      5  O   UNL A   1      33.600  26.078  21.484  1.00  0.00    -0.275 OA
ATOM      6  H   UNL A   1      32.202  27.929  21.334  1.00  0.00     0.163 HD
BRANCH   4   7
ATOM      7  C   UNL A   1      32.846  25.622  23.752  1.00  0.00     0.082 C 
BRANCH   7   8
ATOM      8  C   UNL A   1      34.097  24.711  23.892  1.00  0.00     0.017 C 
BRANCH   8   9
ATOM      9  C   UNL A   1      34.920  24.679  25.191  1.00  0.00     0.035 C 
BRANCH   9  10
ATOM     10  C   UNL A   1      35.785  23.464  25.616  1.00  0.00     0.059 C 
ATOM     11  C   UNL A   1      37.285  23.665  25.809  1.00  0.00     0.042 C 
ATOM     12  C   UNL A   1      35.580  22.337  24.587  1.00  0.00     0.042 C 
BRANCH  10  13
ATOM     13  O   UNL A   1      35.265  23.012  26.872  1.00  0.00    -0.390 OA
ATOM     14  H   UNL A   1      34.468  22.482  26.721  1.00  0.00     0.211 HD
ENDBRANCH  10  13
ENDBRANCH   9  10
ENDBRANCH   8   9
ENDBRANCH   7   8
BRANCH   7  15
ATOM     15  C   UNL A   1      31.547  24.723  23.701  1.00  0.00     0.017 C 
ATOM     16  C   UNL A   1      30.334  25.310  24.465  1.00  0.00     0.021 C 
ATOM     17  C   UNL A   1      31.687  23.292  24.266  1.00  0.00     0.141 C 
ATOM     18  C   UNL A   1      30.508  24.983  25.940  1.00  0.00     0.137 C 
ATOM     19  S   UNL A   1      31.162  23.331  25.970  1.00  0.00     0.150 S 
ATOM     20  O   UNL A   1      32.329  23.309  26.831  1.00  0.00    -0.229 OA
ATOM     21  O   UNL A   1      30.075  22.393  26.138  1.00  0.00    -0.229 OA
ENDBRANCH   7  15
ENDBRANCH   4   7
ENDBRANCH   2   3
ENDBRANCH   1   2
BRANCH   1  22
ATOM     22  C   UNL A   1      31.443  29.825  25.255  1.00  0.00     0.023 C 
BRANCH  22  23
ATOM     23  C   UNL A   1      32.293  30.336  26.408  1.00  0.00     0.116 C 
BRANCH  23  24
ATOM     24  N   UNL A   1      32.055  31.733  26.763  1.00  0.00    -0.352 N 
ATOM     25  C   UNL A   1      32.914  32.591  27.417  1.00  0.00     0.251 C 
ATOM     26  H   UNL A   1      31.181  32.105  26.505  1.00  0.00     0.163 HD
ATOM     27  O   UNL A   1      32.572  33.733  27.705  1.00  0.00    -0.269 OA
BRANCH  25  28
ATOM     28  C   UNL A   1      34.240  32.072  27.809  1.00  0.00     0.039 A 
ATOM     29  C   UNL A   1      35.288  32.971  28.001  1.00  0.00     0.014 A 
ATOM     30  C   UNL A   1      34.378  30.725  28.150  1.00  0.00     0.014 A 
ATOM     31  C   UNL A   1      36.454  32.532  28.630  1.00  0.00     0.010 A 
ATOM     32  C   UNL A   1      35.491  30.322  28.876  1.00  0.00     0.010 A 
ATOM     33  C   UNL A   1      36.542  31.218  29.122  1.00  0.00    -0.014 A 
BRANCH  33  34
ATOM     34  C   UNL A   1      37.721  30.761  29.902  1.00  0.00     0.031 A 
ATOM     35  C   UNL A   1      38.694  29.791  29.288  1.00  0.00     0.074 A 
ATOM     36  C   UNL A   1      37.872  31.144  31.186  1.00  0.00     0.049 A 
ATOM     37  N   UNL A   1      39.747  29.230  29.822  1.00  0.00    -0.248 NA
ATOM     38  C   UNL A   1      38.429  29.366  27.902  1.00  0.00     0.031 C 
ATOM     39  C   UNL A   1      36.948  32.006  31.930  1.00  0.00     0.029 A 
ATOM     40  N   UNL A   1      38.846  30.839  32.105  1.00  0.00    -0.354 N 
ATOM     41  C   UNL A   1      40.246  28.365  28.856  1.00  0.00     0.074 A 
ATOM     42  C   UNL A   1      39.350  28.433  27.723  1.00  0.00     0.031 C 
ATOM     43  C   UNL A   1      37.407  32.171  33.181  1.00  0.00     0.029 A 
ATOM     44  C   UNL A   1      38.636  31.401  33.343  1.00  0.00     0.049 A 
ATOM     45  H   UNL A   1      39.622  30.270  31.896  1.00  0.00     0.167 HD
ATOM     46  C   UNL A   1      41.369  27.611  28.887  1.00  0.00     0.034 A 
ATOM     47  C   UNL A   1      39.348  31.299  34.484  1.00  0.00     0.034 A 
ATOM     48  C   UNL A   1      42.280  27.577  29.998  1.00  0.00     0.049 A 
ATOM     49  C   UNL A   1      40.613  30.485  34.484  1.00  0.00     0.074 A 
ATOM     50  C   UNL A   1      43.489  26.914  30.097  1.00  0.00     0.029 A 
ATOM     51  N   UNL A   1      42.078  28.228  31.205  1.00  0.00    -0.354 N 
ATOM     52  N   UNL A   1      41.152  29.798  33.506  1.00  0.00    -0.248 NA
ATOM     53  C   UNL A   1      41.389  30.460  35.732  1.00  0.00     0.031 C 
ATOM     54  C   UNL A   1      44.003  27.137  31.378  1.00  0.00     0.029 A 
ATOM     55  C   UNL A   1      43.134  27.973  32.062  1.00  0.00     0.049 A 
ATOM     56  H   UNL A   1      41.297  28.789  31.421  1.00  0.00     0.167 HD
ATOM     57  C   UNL A   1      42.345  29.291  34.008  1.00  0.00     0.074 A 
ATOM     58  C   UNL A   1      42.461  29.768  35.370  1.00  0.00     0.031 C 
ATOM     59  C   UNL A   1      43.258  28.494  33.399  1.00  0.00     0.034 A 
BRANCH  46  60
ATOM     60  C   UNL A   1      41.697  26.800  27.661  1.00  0.00     0.023 A 
ATOM     61  C   UNL A   1      42.202  27.444  26.512  1.00  0.00     0.012 A 
ATOM     62  C   UNL A   1      41.546  25.400  27.657  1.00  0.00     0.148 A 
ATOM     63  C   UNL A   1      42.507  26.715  25.363  1.00  0.00     0.002 A 
ATOM     64  C   UNL A   1      41.902  24.674  26.527  1.00  0.00     0.091 A 
ATOM     65  F   UNL A   1      41.045  24.808  28.750  1.00  0.00    -0.205 F 
ATOM     66  C   UNL A   1      42.368  25.331  25.375  1.00  0.00     0.022 A 
BRANCH  64  67
ATOM     67  S   UNL A   1      41.840  22.881  26.468  1.00  0.00     0.127 S 
ATOM     68  O   UNL A   1      40.398  22.636  26.492  1.00  0.00    -0.237 OA
ATOM     69  O   UNL A   1      42.485  22.594  25.186  1.00  0.00    -0.237 OA
ATOM     70  O   UNL A   1      42.571  22.413  27.636  1.00  0.00    -0.744 OA
ENDBRANCH  64  67
ENDBRANCH  46  60
BRANCH  47  71
ATOM     71  C   UNL A   1      38.910  32.032  35.708  1.00  0.00     0.023 A 
ATOM     72  C   UNL A   1      39.194  33.406  35.837  1.00  0.00     0.012 A 
ATOM     73  C   UNL A   1      38.197  31.379  36.732  1.00  0.00     0.148 A 
ATOM     74  C   UNL A   1      38.808  34.108  36.980  1.00  0.00     0.002 A 
ATOM     75  C   UNL A   1      37.765  32.098  37.841  1.00  0.00     0.091 A 
ATOM     76  F   UNL A   1      37.944  30.070  36.593  1.00  0.00    -0.205 F 
ATOM     77  C   UNL A   1      38.085  33.457  37.976  1.00  0.00     0.022 A 
BRANCH  75  78
ATOM     78  S   UNL A   1      36.717  31.375  39.108  1.00  0.00     0.127 S 
ATOM     79  O   UNL A   1      35.591  32.303  39.131  1.00  0.00    -0.237 OA
ATOM     80  O   UNL A   1      36.422  30.059  38.537  1.00  0.00    -0.237 OA
ATOM     81  O   UNL A   1      37.530  31.336  40.316  1.00  0.00    -0.744 OA
ENDBRANCH  75  78
ENDBRANCH  47  71
BRANCH  59  82
ATOM     82  C   UNL A   1      44.490  28.115  34.180  1.00  0.00     0.023 A 
ATOM     83  C   UNL A   1      45.571  29.013  34.271  1.00  0.00     0.012 A 
ATOM     84  C   UNL A   1      44.540  26.898  34.887  1.00  0.00     0.148 A 
ATOM     85  C   UNL A   1      46.698  28.689  35.027  1.00  0.00     0.002 A 
ATOM     86  C   UNL A   1      45.640  26.605  35.681  1.00  0.00     0.091 A 
ATOM     87  F   UNL A   1      43.506  26.050  34.773  1.00  0.00    -0.205 F 
ATOM     88  C   UNL A   1      46.727  27.493  35.741  1.00  0.00     0.022 A 
BRANCH  86  89
ATOM     89  S   UNL A   1      45.723  25.139  36.714  1.00  0.00     0.127 S 
ATOM     90  O   UNL A   1      45.688  24.070  35.717  1.00  0.00    -0.237 OA
ATOM     91  O   UNL A   1      47.012  25.306  37.386  1.00  0.00    -0.237 OA
ATOM     92  O   UNL A   1      44.567  25.204  37.599  1.00  0.00    -0.744 OA
ENDBRANCH  86  89
ENDBRANCH  59  82
ENDBRANCH  33  34
ENDBRANCH  25  28
ENDBRANCH  23  24
ENDBRANCH  22  23
ENDBRANCH   1  22
TORSDOF 19
ENDMDL
MODEL 2
REMARK VINA RESULT:     -11.4      1.901      8.088
REMARK SMILES CC(C)(O)CC[C@@H](C(=O)NCCCCNC(=O)c1ccc(-c2c3nc(c(-c4cccc(S(=O)(=O)[O-])c4F)c4ccc([nH]4)c(-c4cccc(S(=O)(=O)[O-])c4F)c4nc(c(-c5cccc(S(=O)(=O)[O-])c5F)c5ccc2[nH]5)C=C4)C=C3)cc1)[C@@H]1CCS(=O)(=O)C1
REMARK SMILES IDX 12 1 11 2 10 3 8 4 9 5 7 7 6 8 5 9 2 10 1 11 3 12 4 13 81 15
REMARK SMILES IDX 82 16 87 17 83 18 84 19 85 20 86 21 13 22 14 23 15 24 16 25
REMARK SMILES IDX 17 27 18 28 19 29 80 30 20 31 79 32 21 33 22 34 23 35 73 36
REMARK SMILES IDX 24 37 78 38 72 39 74 40 25 41 77 42 71 43 70 44 26 46 58 47
REMARK SMILES IDX 38 48 57 49 39 50 42 51 56 52 75 53 40 54 41 55 55 57 76 58
REMARK SMILES IDX 43 59 27 60 28 61 36 62 29 63 31 64 37 65 30 66 32 67 33 68
REMARK SMILES IDX 34 69 35 70 59 71 60 72 68 73 61 74 63 75 69 76 62 77 64 78
REMARK SMILES IDX 65 79 66 80 67 81 44 82 45 83 53 84 46 85 48 86 54 87 47 88
REMARK SMILES IDX 49 89 50 90 51 91 52 92
REMARK H PARENT 10 6 4 14 15 26 74 45 42 56
REMARK Flexibility Score: inf
ROOT
ATOM      1  C   UNL A   1      31.402  28.273  26.604  1.00  0.00     0.023 C 
ENDROOT
BRANCH   1   2
ATOM      2  C   UNL A   1      32.304  27.038  26.488  1.00  0.00     0.116 C 
BRANCH   2   3
ATOM      3  N   UNL A   1      31.525  25.823  26.484  1.00  0.00    -0.356 N 
ATOM      4  C   UNL A   1      31.728  24.629  25.868  1.00  0.00     0.223 C 
ATOM      5  O   UNL A   1      30.815  23.803  25.955  1.00  0.00    -0.275 OA
ATOM      6  H   UNL A   1      30.702  25.866  27.023  1.00  0.00     0.163 HD
BRANCH   4   7
ATOM      7  C   UNL A   1      33.050  24.293  25.127  1.00  0.00     0.082 C 
BRANCH   7   8
ATOM      8  C   UNL A   1      32.857  24.378  23.587  1.00  0.00     0.017 C 
BRANCH   8   9
ATOM      9  C   UNL A   1      31.683  25.159  22.971  1.00  0.00     0.035 C 
BRANCH   9  10
ATOM     10  C   UNL A   1      31.864  26.493  22.203  1.00  0.00     0.059 C 
ATOM     11  C   UNL A   1      33.154  27.284  22.404  1.00  0.00     0.042 C 
ATOM     12  C   UNL A   1      30.678  27.415  22.542  1.00  0.00     0.042 C 
BRANCH  10  13
ATOM     13  O   UNL A   1      31.790  26.175  20.808  1.00  0.00    -0.390 OA
ATOM     14  H   UNL A   1      31.567  25.237  20.702  1.00  0.00     0.211 HD
ENDBRANCH  10  13
ENDBRANCH   9  10
ENDBRANCH   8   9
ENDBRANCH   7   8
BRANCH   7  15
ATOM     15  C   UNL A   1      33.462  22.819  25.522  1.00  0.00     0.017 C 
ATOM     16  C   UNL A   1      34.528  22.732  26.643  1.00  0.00     0.021 C 
ATOM     17  C   UNL A   1      34.043  21.948  24.386  1.00  0.00     0.141 C 
ATOM     18  C   UNL A   1      35.893  22.949  26.008  1.00  0.00     0.137 C 
ATOM     19  S   UNL A   1      35.820  22.083  24.457  1.00  0.00     0.150 S 
ATOM     20  O   UNL A   1      36.275  22.974  23.407  1.00  0.00    -0.229 OA
ATOM     21  O   UNL A   1      36.376  20.760  24.627  1.00  0.00    -0.229 OA
ENDBRANCH   7  15
ENDBRANCH   4   7
ENDBRANCH   2   3
ENDBRANCH   1   2
BRANCH   1  22
ATOM     22  C   UNL A   1      31.640  29.324  25.535  1.00  0.00     0.023 C 
BRANCH  22  23
ATOM     23  C   UNL A   1      32.832  30.227  25.812  1.00  0.00     0.116 C 
BRANCH  23  24
ATOM     24  N   UNL A   1      32.500  31.480  26.486  1.00  0.00    -0.352 N 
ATOM     25  C   UNL A   1      33.263  32.164  27.409  1.00  0.00     0.251 C 
ATOM     26  H   UNL A   1      31.632  31.882  26.254  1.00  0.00     0.163 HD
ATOM     27  O   UNL A   1      32.845  33.185  27.944  1.00  0.00    -0.269 OA
BRANCH  25  28
ATOM     28  C   UNL A   1      34.577  31.597  27.772  1.00  0.00     0.039 A 
ATOM     29  C   UNL A   1      35.648  32.462  27.997  1.00  0.00     0.014 A 
ATOM     30  C   UNL A   1      34.684  30.234  28.056  1.00  0.00     0.014 A 
ATOM     31  C   UNL A   1      36.805  31.968  28.601  1.00  0.00     0.010 A 
ATOM     32  C   UNL A   1      35.789  29.774  28.760  1.00  0.00     0.010 A 
ATOM     33  C   UNL A   1      36.863  30.633  29.038  1.00  0.00    -0.014 A 
BRANCH  33  34
ATOM     34  C   UNL A   1      38.033  30.116  29.792  1.00  0.00     0.031 A 
ATOM     35  C   UNL A   1      38.280  30.581  31.203  1.00  0.00     0.074 A 
ATOM     36  C   UNL A   1      38.922  29.302  29.187  1.00  0.00     0.049 A 
ATOM     37  N   UNL A   1      39.272  30.294  32.004  1.00  0.00    -0.248 NA
ATOM     38  C   UNL A   1      37.301  31.522  31.776  1.00  0.00     0.031 C 
ATOM     39  C   UNL A   1      38.850  28.852  27.793  1.00  0.00     0.029 A 
ATOM     40  N   UNL A   1      40.076  28.725  29.658  1.00  0.00    -0.354 N 
ATOM     41  C   UNL A   1      39.056  31.043  33.155  1.00  0.00     0.074 A 
ATOM     42  C   UNL A   1      37.870  31.838  32.928  1.00  0.00     0.031 C 
ATOM     43  C   UNL A   1      39.902  28.061  27.530  1.00  0.00     0.029 A 
ATOM     44  C   UNL A   1      40.744  27.974  28.719  1.00  0.00     0.049 A 
ATOM     45  H   UNL A   1      40.395  28.840  30.582  1.00  0.00     0.167 HD
ATOM     46  C   UNL A   1      39.755  31.041  34.314  1.00  0.00     0.034 A 
ATOM     47  C   UNL A   1      41.907  27.298  28.803  1.00  0.00     0.034 A 
ATOM     48  C   UNL A   1      40.910  30.219  34.551  1.00  0.00     0.049 A 
ATOM     49  C   UNL A   1      42.648  27.280  30.113  1.00  0.00     0.074 A 
ATOM     50  C   UNL A   1      41.639  30.079  35.717  1.00  0.00     0.029 A 
ATOM     51  N   UNL A   1      41.507  29.404  33.603  1.00  0.00    -0.354 N 
ATOM     52  N   UNL A   1      42.340  27.872  31.242  1.00  0.00    -0.248 NA
ATOM     53  C   UNL A   1      43.876  26.475  30.173  1.00  0.00     0.031 C 
ATOM     54  C   UNL A   1      42.699  29.204  35.465  1.00  0.00     0.029 A 
ATOM     55  C   UNL A   1      42.606  28.766  34.153  1.00  0.00     0.049 A 
ATOM     56  H   UNL A   1      41.197  29.296  32.674  1.00  0.00     0.167 HD
ATOM     57  C   UNL A   1      43.314  27.482  32.155  1.00  0.00     0.074 A 
ATOM     58  C   UNL A   1      44.209  26.586  31.452  1.00  0.00     0.031 C 
ATOM     59  C   UNL A   1      43.459  27.841  33.454  1.00  0.00     0.034 A 
BRANCH  46  60
ATOM     60  C   UNL A   1      39.257  31.923  35.428  1.00  0.00     0.023 A 
ATOM     61  C   UNL A   1      38.300  31.427  36.338  1.00  0.00     0.012 A 
ATOM     62  C   UNL A   1      39.761  33.226  35.601  1.00  0.00     0.148 A 
ATOM     63  C   UNL A   1      37.819  32.226  37.374  1.00  0.00     0.002 A 
ATOM     64  C   UNL A   1      39.317  33.999  36.667  1.00  0.00     0.091 A 
ATOM     65  F   UNL A   1      40.653  33.690  34.715  1.00  0.00    -0.205 F 
ATOM     66  C   UNL A   1      38.336  33.506  37.544  1.00  0.00     0.022 A 
BRANCH  64  67
ATOM     67  S   UNL A   1      39.978  35.630  37.024  1.00  0.00     0.127 S 
ATOM     68  O   UNL A   1      39.272  35.969  38.259  1.00  0.00    -0.237 OA
ATOM     69  O   UNL A   1      41.404  35.352  37.193  1.00  0.00    -0.237 OA
ATOM     70  O   UNL A   1      39.651  36.458  35.873  1.00  0.00    -0.744 OA
ENDBRANCH  64  67
ENDBRANCH  46  60
BRANCH  47  71
ATOM     71  C   UNL A   1      42.416  26.535  27.626  1.00  0.00     0.023 A 
ATOM     72  C   UNL A   1      43.251  27.173  26.689  1.00  0.00     0.012 A 
ATOM     73  C   UNL A   1      42.093  25.176  27.444  1.00  0.00     0.148 A 
ATOM     74  C   UNL A   1      43.726  26.483  25.572  1.00  0.00     0.002 A 
ATOM     75  C   UNL A   1      42.617  24.479  26.361  1.00  0.00     0.091 A 
ATOM     76  F   UNL A   1      41.291  24.589  28.343  1.00  0.00    -0.205 F 
ATOM     77  C   UNL A   1      43.417  25.135  25.413  1.00  0.00     0.022 A 
BRANCH  75  78
ATOM     78  S   UNL A   1      42.381  22.711  26.149  1.00  0.00     0.127 S 
ATOM     79  O   UNL A   1      43.016  22.178  27.350  1.00  0.00    -0.237 OA
ATOM     80  O   UNL A   1      40.921  22.605  26.123  1.00  0.00    -0.237 OA
ATOM     81  O   UNL A   1      43.029  22.375  24.888  1.00  0.00    -0.744 OA
ENDBRANCH  75  78
ENDBRANCH  47  71
BRANCH  59  82
ATOM     82  C   UNL A   1      44.603  27.234  34.225  1.00  0.00     0.023 A 
ATOM     83  C   UNL A   1      45.870  27.850  34.211  1.00  0.00     0.012 A 
ATOM     84  C   UNL A   1      44.397  26.094  35.026  1.00  0.00     0.148 A 
ATOM     85  C   UNL A   1      46.923  27.319  34.956  1.00  0.00     0.002 A 
ATOM     86  C   UNL A   1      45.435  25.602  35.807  1.00  0.00     0.091 A 
ATOM     87  F   UNL A   1      43.187  25.513  35.012  1.00  0.00    -0.205 F 
ATOM     88  C   UNL A   1      46.703  26.205  35.762  1.00  0.00     0.022 A 
BRANCH  86  89
ATOM     89  S   UNL A   1      45.217  24.236  36.952  1.00  0.00     0.127 S 
ATOM     90  O   UNL A   1      46.539  24.153  37.570  1.00  0.00    -0.237 OA
ATOM     91  O   UNL A   1      44.161  24.736  37.832  1.00  0.00    -0.237 OA
ATOM     92  O   UNL A   1      44.835  23.088  36.141  1.00  0.00    -0.744 OA
ENDBRANCH  86  89
ENDBRANCH  59  82
ENDBRANCH  33  34
ENDBRANCH  25  28
ENDBRANCH  23  24
ENDBRANCH  22  23
ENDBRANCH   1  22
TORSDOF 19
ENDMDL
MODEL 3
REMARK VINA RESULT:     -11.4      5.337      7.982
REMARK SMILES CC(C)(O)CC[C@@H](C(=O)NCCCCNC(=O)c1ccc(-c2c3nc(c(-c4cccc(S(=O)(=O)[O-])c4F)c4ccc([nH]4)c(-c4cccc(S(=O)(=O)[O-])c4F)c4nc(c(-c5cccc(S(=O)(=O)[O-])c5F)c5ccc2[nH]5)C=C4)C=C3)cc1)[C@@H]1CCS(=O)(=O)C1
REMARK SMILES IDX 12 1 11 2 10 3 8 4 9 5 7 7 6 8 5 9 2 10 1 11 3 12 4 13 81 15
REMARK SMILES IDX 82 16 87 17 83 18 84 19 85 20 86 21 13 22 14 23 15 24 16 25
REMARK SMILES IDX 17 27 18 28 19 29 80 30 20 31 79 32 21 33 22 34 23 35 73 36
REMARK SMILES IDX 24 37 78 38 72 39 74 40 25 41 77 42 71 43 70 44 26 46 58 47
REMARK SMILES IDX 38 48 57 49 39 50 42 51 56 52 75 53 40 54 41 55 55 57 76 58
REMARK SMILES IDX 43 59 27 60 28 61 36 62 29 63 31 64 37 65 30 66 32 67 33 68
REMARK SMILES IDX 34 69 35 70 59 71 60 72 68 73 61 74 63 75 69 76 62 77 64 78
REMARK SMILES IDX 65 79 66 80 67 81 44 82 45 83 53 84 46 85 48 86 54 87 47 88
REMARK SMILES IDX 49 89 50 90 51 91 52 92
REMARK H PARENT 10 6 4 14 15 26 74 45 42 56
REMARK Flexibility Score: inf
ROOT
ATOM      1  C   UNL A   1      34.715  22.125  25.434  1.00  0.00     0.023 C 
ENDROOT
BRANCH   1   2
ATOM      2  C   UNL A   1      34.643  22.783  26.816  1.00  0.00     0.116 C 
BRANCH   2   3
ATOM      3  N   UNL A   1      33.324  23.312  27.073  1.00  0.00    -0.356 N 
ATOM      4  C   UNL A   1      32.623  24.307  26.471  1.00  0.00     0.223 C 
ATOM      5  O   UNL A   1      31.550  24.618  26.994  1.00  0.00    -0.275 OA
ATOM      6  H   UNL A   1      32.849  22.873  27.816  1.00  0.00     0.163 HD
BRANCH   4   7
ATOM      7  C   UNL A   1      33.115  24.997  25.170  1.00  0.00     0.082 C 
BRANCH   7   8
ATOM      8  C   UNL A   1      33.833  26.337  25.491  1.00  0.00     0.017 C 
BRANCH   8   9
ATOM      9  C   UNL A   1      33.219  27.359  26.462  1.00  0.00     0.035 C 
BRANCH   9  10
ATOM     10  C   UNL A   1      33.670  28.842  26.528  1.00  0.00     0.059 C 
ATOM     11  C   UNL A   1      34.974  29.179  27.245  1.00  0.00     0.042 C 
ATOM     12  C   UNL A   1      32.541  29.666  27.172  1.00  0.00     0.042 C 
BRANCH  10  13
ATOM     13  O   UNL A   1      33.820  29.283  25.173  1.00  0.00    -0.390 OA
ATOM     14  H   UNL A   1      34.094  28.535  24.618  1.00  0.00     0.211 HD
ENDBRANCH  10  13
ENDBRANCH   9  10
ENDBRANCH   8   9
ENDBRANCH   7   8
BRANCH   7  15
ATOM     15  C   UNL A   1      31.848  25.285  24.270  1.00  0.00     0.017 C 
ATOM     16  C   UNL A   1      31.440  24.111  23.345  1.00  0.00     0.021 C 
ATOM     17  C   UNL A   1      31.954  26.493  23.313  1.00  0.00     0.141 C 
ATOM     18  C   UNL A   1      32.330  24.154  22.113  1.00  0.00     0.137 C 
ATOM     19  S   UNL A   1      32.497  25.881  21.728  1.00  0.00     0.150 S 
ATOM     20  O   UNL A   1      33.905  26.184  21.555  1.00  0.00    -0.229 OA
ATOM     21  O   UNL A   1      31.513  26.242  20.733  1.00  0.00    -0.229 OA
ENDBRANCH   7  15
ENDBRANCH   4   7
ENDBRANCH   2   3
ENDBRANCH   1   2
BRANCH   1  22
ATOM     22  C   UNL A   1      35.798  21.070  25.298  1.00  0.00     0.023 C 
BRANCH  22  23
ATOM     23  C   UNL A   1      37.211  21.632  25.299  1.00  0.00     0.116 C 
BRANCH  23  24
ATOM     24  N   UNL A   1      38.261  20.629  25.463  1.00  0.00    -0.352 N 
ATOM     25  C   UNL A   1      39.474  20.781  26.100  1.00  0.00     0.251 C 
ATOM     26  H   UNL A   1      38.081  19.743  25.074  1.00  0.00     0.163 HD
ATOM     27  O   UNL A   1      40.297  19.872  26.123  1.00  0.00    -0.269 OA
BRANCH  25  28
ATOM     28  C   UNL A   1      39.774  22.094  26.707  1.00  0.00     0.039 A 
ATOM     29  C   UNL A   1      40.774  22.178  27.676  1.00  0.00     0.014 A 
ATOM     30  C   UNL A   1      39.185  23.245  26.182  1.00  0.00     0.014 A 
ATOM     31  C   UNL A   1      41.251  23.434  28.053  1.00  0.00     0.010 A 
ATOM     32  C   UNL A   1      39.741  24.483  26.474  1.00  0.00     0.010 A 
ATOM     33  C   UNL A   1      40.777  24.593  27.414  1.00  0.00    -0.014 A 
BRANCH  33  34
ATOM     34  C   UNL A   1      41.356  25.930  27.708  1.00  0.00     0.031 A 
ATOM     35  C   UNL A   1      42.764  26.247  27.281  1.00  0.00     0.074 A 
ATOM     36  C   UNL A   1      40.655  26.825  28.433  1.00  0.00     0.049 A 
ATOM     37  N   UNL A   1      43.466  27.328  27.493  1.00  0.00    -0.248 NA
ATOM     38  C   UNL A   1      43.492  25.195  26.548  1.00  0.00     0.031 C 
ATOM     39  C   UNL A   1      39.316  26.606  28.989  1.00  0.00     0.029 A 
ATOM     40  N   UNL A   1      40.980  28.093  28.850  1.00  0.00    -0.354 N 
ATOM     41  C   UNL A   1      44.723  27.074  26.956  1.00  0.00     0.074 A 
ATOM     42  C   UNL A   1      44.704  25.718  26.456  1.00  0.00     0.031 C 
ATOM     43  C   UNL A   1      38.931  27.704  29.659  1.00  0.00     0.029 A 
ATOM     44  C   UNL A   1      40.004  28.692  29.613  1.00  0.00     0.049 A 
ATOM     45  H   UNL A   1      41.831  28.531  28.624  1.00  0.00     0.167 HD
ATOM     46  C   UNL A   1      45.786  27.905  26.848  1.00  0.00     0.034 A 
ATOM     47  C   UNL A   1      39.980  29.898  30.216  1.00  0.00     0.034 A 
ATOM     48  C   UNL A   1      45.787  29.267  27.309  1.00  0.00     0.049 A 
ATOM     49  C   UNL A   1      41.158  30.819  30.051  1.00  0.00     0.074 A 
ATOM     50  C   UNL A   1      46.781  30.218  27.172  1.00  0.00     0.029 A 
ATOM     51  N   UNL A   1      44.748  29.867  28.002  1.00  0.00    -0.354 N 
ATOM     52  N   UNL A   1      42.279  30.616  29.402  1.00  0.00    -0.248 NA
ATOM     53  C   UNL A   1      41.057  32.148  30.671  1.00  0.00     0.031 C 
ATOM     54  C   UNL A   1      46.356  31.386  27.813  1.00  0.00     0.029 A 
ATOM     55  C   UNL A   1      45.080  31.175  28.312  1.00  0.00     0.049 A 
ATOM     56  H   UNL A   1      43.899  29.428  28.239  1.00  0.00     0.167 HD
ATOM     57  C   UNL A   1      42.999  31.802  29.503  1.00  0.00     0.074 A 
ATOM     58  C   UNL A   1      42.177  32.725  30.258  1.00  0.00     0.031 C 
ATOM     59  C   UNL A   1      44.232  32.096  29.023  1.00  0.00     0.034 A 
BRANCH  46  60
ATOM     60  C   UNL A   1      47.017  27.375  26.163  1.00  0.00     0.023 A 
ATOM     61  C   UNL A   1      47.192  27.585  24.779  1.00  0.00     0.012 A 
ATOM     62  C   UNL A   1      48.019  26.705  26.890  1.00  0.00     0.148 A 
ATOM     63  C   UNL A   1      48.321  27.098  24.121  1.00  0.00     0.002 A 
ATOM     64  C   UNL A   1      49.166  26.268  26.238  1.00  0.00     0.091 A 
ATOM     65  F   UNL A   1      47.826  26.494  28.200  1.00  0.00    -0.205 F 
ATOM     66  C   UNL A   1      49.311  26.451  24.853  1.00  0.00     0.022 A 
BRANCH  64  67
ATOM     67  S   UNL A   1      50.538  25.497  27.102  1.00  0.00     0.127 S 
ATOM     68  O   UNL A   1      49.904  24.300  27.653  1.00  0.00    -0.237 OA
ATOM     69  O   UNL A   1      51.481  25.241  26.013  1.00  0.00    -0.237 OA
ATOM     70  O   UNL A   1      50.992  26.469  28.086  1.00  0.00    -0.744 OA
ENDBRANCH  64  67
ENDBRANCH  46  60
BRANCH  47  71
ATOM     71  C   UNL A   1      38.776  30.327  30.985  1.00  0.00     0.023 A 
ATOM     72  C   UNL A   1      38.674  30.013  32.354  1.00  0.00     0.012 A 
ATOM     73  C   UNL A   1      37.742  31.060  30.370  1.00  0.00     0.148 A 
ATOM     74  C   UNL A   1      37.548  30.390  33.089  1.00  0.00     0.002 A 
ATOM     75  C   UNL A   1      36.651  31.482  31.122  1.00  0.00     0.091 A 
ATOM     76  F   UNL A   1      37.854  31.341  29.064  1.00  0.00    -0.205 F 
ATOM     77  C   UNL A   1      36.543  31.132  32.476  1.00  0.00     0.022 A 
BRANCH  75  78
ATOM     78  S   UNL A   1      35.375  32.553  30.450  1.00  0.00     0.127 S 
ATOM     79  O   UNL A   1      34.399  32.573  31.536  1.00  0.00    -0.237 OA
ATOM     80  O   UNL A   1      36.108  33.805  30.254  1.00  0.00    -0.237 OA
ATOM     81  O   UNL A   1      34.935  31.916  29.216  1.00  0.00    -0.744 OA
ENDBRANCH  75  78
ENDBRANCH  47  71
BRANCH  59  82
ATOM     82  C   UNL A   1      44.762  33.487  29.257  1.00  0.00     0.023 A 
ATOM     83  C   UNL A   1      45.575  33.755  30.376  1.00  0.00     0.012 A 
ATOM     84  C   UNL A   1      44.515  34.511  28.321  1.00  0.00     0.148 A 
ATOM     85  C   UNL A   1      46.104  35.029  30.576  1.00  0.00     0.002 A 
ATOM     86  C   UNL A   1      45.089  35.762  28.498  1.00  0.00     0.091 A 
ATOM     87  F   UNL A   1      43.724  34.239  27.271  1.00  0.00    -0.205 F 
ATOM     88  C   UNL A   1      45.872  36.028  29.633  1.00  0.00     0.022 A 
BRANCH  86  89
ATOM     89  S   UNL A   1      44.930  37.078  27.287  1.00  0.00     0.127 S 
ATOM     90  O   UNL A   1      45.307  38.252  28.071  1.00  0.00    -0.237 OA
ATOM     91  O   UNL A   1      45.906  36.682  26.271  1.00  0.00    -0.237 OA
ATOM     92  O   UNL A   1      43.544  37.046  26.838  1.00  0.00    -0.744 OA
ENDBRANCH  86  89
ENDBRANCH  59  82
ENDBRANCH  33  34
ENDBRANCH  25  28
ENDBRANCH  23  24
ENDBRANCH  22  23
ENDBRANCH   1  22
TORSDOF 19
ENDMDL
