MODEL 1
REMARK VINA RESULT:     -12.2      0.000      0.000
REMARK SMILES COc1ccc2cc([C@H](C)C(=O)NCCCCNC(=O)c3ccc(-c4c5nc(c(-c6cccc(S(=O)(=O)[O-])c6F)c6ccc([nH]6)c(-c6cccc(S(=O)(=O)[O-])c6F)c6nc(c(-c7cccc(S(=O)(=O)[O-])c7F)c7ccc4[nH]7)C=C6)C=C5)cc3)ccc2c1
REMARK SMILES IDX 16 1 15 2 14 3 13 4 11 5 12 6 9 8 10 9 8 10 3 11 4 12 87 13
REMARK SMILES IDX 5 14 86 15 6 16 85 17 7 18 84 19 2 20 1 21 17 22 18 23 19 24
REMARK SMILES IDX 20 26 21 27 22 28 83 29 23 30 82 31 24 32 25 33 26 34 76 35
REMARK SMILES IDX 27 36 81 37 75 38 77 39 28 40 80 41 74 42 73 43 29 45 61 46
REMARK SMILES IDX 41 47 60 48 42 49 45 50 59 51 78 52 43 53 44 54 58 56 79 57
REMARK SMILES IDX 46 58 30 59 31 60 39 61 32 62 34 63 40 64 33 65 35 66 36 67
REMARK SMILES IDX 37 68 38 69 62 70 63 71 71 72 64 73 66 74 72 75 65 76 67 77
REMARK SMILES IDX 68 78 69 79 70 80 47 81 48 82 56 83 49 84 51 85 57 86 50 87
REMARK SMILES IDX 52 88 53 89 54 90 55 91
REMARK H PARENT 13 7 18 25 77 44 45 55
REMARK Flexibility Score: inf
ROOT
ATOM      1  C   UNL A   1      31.755  28.623  25.696  1.00  0.00     0.023 C 
ENDROOT
BRANCH   1   2
ATOM      2  C   UNL A   1      31.909  27.374  24.824  1.00  0.00     0.023 C 
BRANCH   2   3
ATOM      3  C   UNL A   1      33.100  26.494  25.180  1.00  0.00     0.116 C 
BRANCH   3   4
ATOM      4  N   UNL A   1      33.683  25.859  24.012  1.00  0.00    -0.356 N 
ATOM      5  C   UNL A   1      33.384  24.668  23.422  1.00  0.00     0.227 C 
ATOM      6  O   UNL A   1      33.926  24.418  22.340  1.00  0.00    -0.274 OA
ATOM      7  H   UNL A   1      34.406  26.369  23.579  1.00  0.00     0.163 HD
BRANCH   5   8
ATOM      8  C   UNL A   1      32.440  23.651  24.067  1.00  0.00     0.105 C 
ATOM      9  C   UNL A   1      31.051  23.708  23.415  1.00  0.00     0.023 C 
BRANCH   8  10
ATOM     10  C   UNL A   1      32.982  22.235  24.247  1.00  0.00    -0.035 A 
ATOM     11  C   UNL A   1      33.887  17.241  23.818  1.00  0.00     0.119 A 
ATOM     12  C   UNL A   1      32.759  17.496  23.040  1.00  0.00     0.047 A 
ATOM     13  C   UNL A   1      34.474  18.275  24.547  1.00  0.00     0.055 A 
ATOM     14  C   UNL A   1      32.256  18.796  22.946  1.00  0.00     0.012 A 
ATOM     15  C   UNL A   1      33.972  19.583  24.468  1.00  0.00    -0.015 A 
ATOM     16  C   UNL A   1      32.863  19.855  23.640  1.00  0.00    -0.018 A 
ATOM     17  C   UNL A   1      34.539  20.624  25.210  1.00  0.00     0.009 A 
ATOM     18  C   UNL A   1      32.389  21.176  23.536  1.00  0.00     0.013 A 
ATOM     19  C   UNL A   1      34.031  21.923  25.122  1.00  0.00     0.005 A 
BRANCH  11  20
ATOM     20  O   UNL A   1      34.451  16.004  23.974  1.00  0.00    -0.497 OA
ATOM     21  C   UNL A   1      35.119  15.824  25.218  1.00  0.00     0.278 C 
ENDBRANCH  11  20
ENDBRANCH   8  10
ENDBRANCH   5   8
ENDBRANCH   3   4
ENDBRANCH   2   3
ENDBRANCH   1   2
BRANCH   1  22
ATOM     22  C   UNL A   1      32.913  29.616  25.633  1.00  0.00     0.116 C 
BRANCH  22  23
ATOM     23  N   UNL A   1      32.563  30.935  26.145  1.00  0.00    -0.352 N 
ATOM     24  C   UNL A   1      33.197  31.678  27.112  1.00  0.00     0.251 C 
ATOM     25  H   UNL A   1      31.764  31.349  25.745  1.00  0.00     0.163 HD
ATOM     26  O   UNL A   1      32.692  32.723  27.515  1.00  0.00    -0.269 OA
BRANCH  24  27
ATOM     27  C   UNL A   1      34.472  31.199  27.682  1.00  0.00     0.039 A 
ATOM     28  C   UNL A   1      35.499  32.117  27.912  1.00  0.00     0.014 A 
ATOM     29  C   UNL A   1      34.639  29.852  28.021  1.00  0.00     0.014 A 
ATOM     30  C   UNL A   1      36.671  31.696  28.544  1.00  0.00     0.010 A 
ATOM     31  C   UNL A   1      35.777  29.452  28.715  1.00  0.00     0.010 A 
ATOM     32  C   UNL A   1      36.806  30.368  28.983  1.00  0.00    -0.014 A 
BRANCH  32  33
ATOM     33  C   UNL A   1      38.009  29.920  29.731  1.00  0.00     0.031 A 
ATOM     34  C   UNL A   1      38.280  30.446  31.114  1.00  0.00     0.074 A 
ATOM     35  C   UNL A   1      38.900  29.104  29.134  1.00  0.00     0.049 A 
ATOM     36  N   UNL A   1      39.300  30.215  31.899  1.00  0.00    -0.248 NA
ATOM     37  C   UNL A   1      37.289  31.378  31.680  1.00  0.00     0.031 C 
ATOM     38  C   UNL A   1      38.793  28.588  27.766  1.00  0.00     0.029 A 
ATOM     39  N   UNL A   1      40.087  28.586  29.589  1.00  0.00    -0.354 N 
ATOM     40  C   UNL A   1      39.092  30.993  33.033  1.00  0.00     0.074 A 
ATOM     41  C   UNL A   1      37.869  31.735  32.817  1.00  0.00     0.031 C 
ATOM     42  C   UNL A   1      39.864  27.823  27.499  1.00  0.00     0.029 A 
ATOM     43  C   UNL A   1      40.746  27.813  28.662  1.00  0.00     0.049 A 
ATOM     44  H   UNL A   1      40.434  28.752  30.495  1.00  0.00     0.167 HD
ATOM     45  C   UNL A   1      39.831  31.058  34.166  1.00  0.00     0.034 A 
ATOM     46  C   UNL A   1      41.928  27.170  28.739  1.00  0.00     0.034 A 
ATOM     47  C   UNL A   1      41.021  30.286  34.396  1.00  0.00     0.049 A 
ATOM     48  C   UNL A   1      42.708  27.227  30.025  1.00  0.00     0.074 A 
ATOM     49  C   UNL A   1      41.799  30.223  35.540  1.00  0.00     0.029 A 
ATOM     50  N   UNL A   1      41.608  29.442  33.467  1.00  0.00    -0.354 N 
ATOM     51  N   UNL A   1      42.412  27.845  31.143  1.00  0.00    -0.248 NA
ATOM     52  C   UNL A   1      43.965  26.465  30.074  1.00  0.00     0.031 C 
ATOM     53  C   UNL A   1      42.864  29.350  35.296  1.00  0.00     0.029 A 
ATOM     54  C   UNL A   1      42.738  28.853  34.009  1.00  0.00     0.049 A 
ATOM     55  H   UNL A   1      41.272  29.284  32.556  1.00  0.00     0.167 HD
ATOM     56  C   UNL A   1      43.423  27.515  32.040  1.00  0.00     0.074 A 
ATOM     57  C   UNL A   1      44.327  26.625  31.341  1.00  0.00     0.031 C 
ATOM     58  C   UNL A   1      43.594  27.921  33.321  1.00  0.00     0.034 A 
BRANCH  45  59
ATOM     59  C   UNL A   1      39.332  31.952  35.272  1.00  0.00     0.023 A 
ATOM     60  C   UNL A   1      38.400  31.445  36.202  1.00  0.00     0.012 A 
ATOM     61  C   UNL A   1      39.820  33.264  35.430  1.00  0.00     0.148 A 
ATOM     62  C   UNL A   1      37.934  32.240  37.247  1.00  0.00     0.002 A 
ATOM     63  C   UNL A   1      39.384  34.035  36.501  1.00  0.00     0.091 A 
ATOM     64  F   UNL A   1      40.690  33.736  34.525  1.00  0.00    -0.205 F 
ATOM     65  C   UNL A   1      38.432  33.529  37.402  1.00  0.00     0.022 A 
BRANCH  63  66
ATOM     66  S   UNL A   1      40.023  35.680  36.835  1.00  0.00     0.127 S 
ATOM     67  O   UNL A   1      39.336  36.016  38.082  1.00  0.00    -0.237 OA
ATOM     68  O   UNL A   1      41.458  35.429  36.979  1.00  0.00    -0.237 OA
ATOM     69  O   UNL A   1      39.663  36.493  35.683  1.00  0.00    -0.744 OA
ENDBRANCH  63  66
ENDBRANCH  45  59
BRANCH  46  70
ATOM     70  C   UNL A   1      42.409  26.348  27.592  1.00  0.00     0.023 A 
ATOM     71  C   UNL A   1      43.264  26.934  26.637  1.00  0.00     0.012 A 
ATOM     72  C   UNL A   1      42.045  24.995  27.449  1.00  0.00     0.148 A 
ATOM     73  C   UNL A   1      43.718  26.200  25.542  1.00  0.00     0.002 A 
ATOM     74  C   UNL A   1      42.546  24.254  26.383  1.00  0.00     0.091 A 
ATOM     75  F   UNL A   1      41.222  24.458  28.358  1.00  0.00    -0.205 F 
ATOM     76  C   UNL A   1      43.367  24.858  25.420  1.00  0.00     0.022 A 
BRANCH  74  77
ATOM     77  S   UNL A   1      42.251  22.489  26.220  1.00  0.00     0.127 S 
ATOM     78  O   UNL A   1      42.971  22.178  24.989  1.00  0.00    -0.237 OA
ATOM     79  O   UNL A   1      42.864  21.965  27.441  1.00  0.00    -0.237 OA
ATOM     80  O   UNL A   1      40.803  22.338  26.167  1.00  0.00    -0.744 OA
ENDBRANCH  74  77
ENDBRANCH  46  70
BRANCH  58  81
ATOM     81  C   UNL A   1      44.782  27.381  34.074  1.00  0.00     0.023 A 
ATOM     82  C   UNL A   1      46.017  28.055  34.011  1.00  0.00     0.012 A 
ATOM     83  C   UNL A   1      44.654  26.246  34.899  1.00  0.00     0.148 A 
ATOM     84  C   UNL A   1      47.116  27.590  34.733  1.00  0.00     0.002 A 
ATOM     85  C   UNL A   1      45.739  25.817  35.654  1.00  0.00     0.091 A 
ATOM     86  F   UNL A   1      43.475  25.607  34.930  1.00  0.00    -0.205 F 
ATOM     87  C   UNL A   1      46.974  26.479  35.562  1.00  0.00     0.022 A 
BRANCH  85  88
ATOM     88  S   UNL A   1      45.619  24.456  36.820  1.00  0.00     0.127 S 
ATOM     89  O   UNL A   1      45.352  23.325  35.933  1.00  0.00    -0.237 OA
ATOM     90  O   UNL A   1      46.949  24.452  37.432  1.00  0.00    -0.237 OA
ATOM     91  O   UNL A   1      44.539  24.806  37.732  1.00  0.00    -0.744 OA
ENDBRANCH  85  88
ENDBRANCH  58  81
ENDBRANCH  32  33
ENDBRANCH  24  27
ENDBRANCH  22  23
ENDBRANCH   1  22
TORSDOF 16
ENDMDL
MODEL 2
REMARK VINA RESULT:     -12.1      5.192      7.351
REMARK SMILES COc1ccc2cc([C@H](C)C(=O)NCCCCNC(=O)c3ccc(-c4c5nc(c(-c6cccc(S(=O)(=O)[O-])c6F)c6ccc([nH]6)c(-c6cccc(S(=O)(=O)[O-])c6F)c6nc(c(-c7cccc(S(=O)(=O)[O-])c7F)c7ccc4[nH]7)C=C6)C=C5)cc3)ccc2c1
REMARK SMILES IDX 16 1 15 2 14 3 13 4 11 5 12 6 9 8 10 9 8 10 3 11 4 12 87 13
REMARK SMILES IDX 5 14 86 15 6 16 85 17 7 18 84 19 2 20 1 21 17 22 18 23 19 24
REMARK SMILES IDX 20 26 21 27 22 28 83 29 23 30 82 31 24 32 25 33 26 34 76 35
REMARK SMILES IDX 27 36 81 37 75 38 77 39 28 40 80 41 74 42 73 43 29 45 61 46
REMARK SMILES IDX 41 47 60 48 42 49 45 50 59 51 78 52 43 53 44 54 58 56 79 57
REMARK SMILES IDX 46 58 30 59 31 60 39 61 32 62 34 63 40 64 33 65 35 66 36 67
REMARK SMILES IDX 37 68 38 69 62 70 63 71 71 72 64 73 66 74 72 75 65 76 67 77
REMARK SMILES IDX 68 78 69 79 70 80 47 81 48 82 56 83 49 84 51 85 57 86 50 87
REMARK SMILES IDX 52 88 53 89 54 90 55 91
REMARK H PARENT 13 7 18 25 77 44 45 55
REMARK Flexibility Score: inf
ROOT
ATOM      1  C   UNL A   1      36.181  21.805  24.209  1.00  0.00     0.023 C 
ENDROOT
BRANCH   1   2
ATOM      2  C   UNL A   1      36.291  23.197  23.581  1.00  0.00     0.023 C 
BRANCH   2   3
ATOM      3  C   UNL A   1      35.294  24.217  24.116  1.00  0.00     0.116 C 
BRANCH   3   4
ATOM      4  N   UNL A   1      34.195  24.445  23.196  1.00  0.00    -0.356 N 
ATOM      5  C   UNL A   1      32.853  24.293  23.380  1.00  0.00     0.227 C 
ATOM      6  O   UNL A   1      32.107  24.700  22.483  1.00  0.00    -0.274 OA
ATOM      7  H   UNL A   1      34.460  24.759  22.301  1.00  0.00     0.163 HD
BRANCH   5   8
ATOM      8  C   UNL A   1      32.271  23.624  24.627  1.00  0.00     0.105 C 
ATOM      9  C   UNL A   1      30.800  24.022  24.821  1.00  0.00     0.023 C 
BRANCH   8  10
ATOM     10  C   UNL A   1      32.533  22.128  24.784  1.00  0.00    -0.035 A 
ATOM     11  C   UNL A   1      33.176  17.148  23.933  1.00  0.00     0.119 A 
ATOM     12  C   UNL A   1      32.656  17.676  22.753  1.00  0.00     0.047 A 
ATOM     13  C   UNL A   1      33.356  17.975  25.041  1.00  0.00     0.055 A 
ATOM     14  C   UNL A   1      32.372  19.042  22.665  1.00  0.00     0.012 A 
ATOM     15  C   UNL A   1      33.065  19.346  24.969  1.00  0.00    -0.015 A 
ATOM     16  C   UNL A   1      32.589  19.894  23.759  1.00  0.00    -0.018 A 
ATOM     17  C   UNL A   1      33.222  20.181  26.079  1.00  0.00     0.009 A 
ATOM     18  C   UNL A   1      32.337  21.276  23.682  1.00  0.00     0.013 A 
ATOM     19  C   UNL A   1      32.931  21.545  25.994  1.00  0.00     0.005 A 
BRANCH  11  20
ATOM     20  O   UNL A   1      33.482  15.827  24.115  1.00  0.00    -0.497 OA
ATOM     21  C   UNL A   1      32.899  15.252  25.280  1.00  0.00     0.278 C 
ENDBRANCH  11  20
ENDBRANCH   8  10
ENDBRANCH   5   8
ENDBRANCH   3   4
ENDBRANCH   2   3
ENDBRANCH   1   2
BRANCH   1  22
ATOM     22  C   UNL A   1      36.794  21.660  25.599  1.00  0.00     0.116 C 
BRANCH  22  23
ATOM     23  N   UNL A   1      37.791  20.600  25.676  1.00  0.00    -0.352 N 
ATOM     24  C   UNL A   1      39.115  20.687  26.033  1.00  0.00     0.251 C 
ATOM     25  H   UNL A   1      37.472  19.698  25.440  1.00  0.00     0.163 HD
ATOM     26  O   UNL A   1      39.849  19.708  25.922  1.00  0.00    -0.269 OA
BRANCH  24  27
ATOM     27  C   UNL A   1      39.655  21.972  26.522  1.00  0.00     0.039 A 
ATOM     28  C   UNL A   1      40.700  21.958  27.449  1.00  0.00     0.014 A 
ATOM     29  C   UNL A   1      39.154  23.185  26.041  1.00  0.00     0.014 A 
ATOM     30  C   UNL A   1      41.288  23.162  27.844  1.00  0.00     0.010 A 
ATOM     31  C   UNL A   1      39.789  24.377  26.380  1.00  0.00     0.010 A 
ATOM     32  C   UNL A   1      40.861  24.378  27.286  1.00  0.00    -0.014 A 
BRANCH  32  33
ATOM     33  C   UNL A   1      41.529  25.661  27.628  1.00  0.00     0.031 A 
ATOM     34  C   UNL A   1      40.785  26.721  28.393  1.00  0.00     0.074 A 
ATOM     35  C   UNL A   1      42.775  25.905  27.175  1.00  0.00     0.049 A 
ATOM     36  N   UNL A   1      41.179  27.920  28.736  1.00  0.00    -0.248 NA
ATOM     37  C   UNL A   1      39.407  26.404  28.805  1.00  0.00     0.031 C 
ATOM     38  C   UNL A   1      43.573  24.991  26.354  1.00  0.00     0.029 A 
ATOM     39  N   UNL A   1      43.581  27.007  27.319  1.00  0.00    -0.354 N 
ATOM     40  C   UNL A   1      40.093  28.511  29.372  1.00  0.00     0.074 A 
ATOM     41  C   UNL A   1      39.009  27.552  29.333  1.00  0.00     0.031 C 
ATOM     42  C   UNL A   1      44.754  25.567  26.074  1.00  0.00     0.029 A 
ATOM     43  C   UNL A   1      44.790  26.898  26.672  1.00  0.00     0.049 A 
ATOM     44  H   UNL A   1      43.319  27.802  27.838  1.00  0.00     0.167 HD
ATOM     45  C   UNL A   1      40.013  29.725  29.967  1.00  0.00     0.034 A 
ATOM     46  C   UNL A   1      45.811  27.771  26.572  1.00  0.00     0.034 A 
ATOM     47  C   UNL A   1      41.105  30.656  30.045  1.00  0.00     0.049 A 
ATOM     48  C   UNL A   1      45.712  29.096  27.278  1.00  0.00     0.074 A 
ATOM     49  C   UNL A   1      41.149  31.879  30.691  1.00  0.00     0.029 A 
ATOM     50  N   UNL A   1      42.346  30.470  29.456  1.00  0.00    -0.354 N 
ATOM     51  N   UNL A   1      44.732  29.571  28.008  1.00  0.00    -0.248 NA
ATOM     52  C   UNL A   1      46.875  29.990  27.179  1.00  0.00     0.031 C 
ATOM     53  C   UNL A   1      42.414  32.438  30.483  1.00  0.00     0.029 A 
ATOM     54  C   UNL A   1      43.165  31.555  29.724  1.00  0.00     0.049 A 
ATOM     55  H   UNL A   1      42.608  29.683  28.927  1.00  0.00     0.167 HD
ATOM     56  C   UNL A   1      45.174  30.798  28.489  1.00  0.00     0.074 A 
ATOM     57  C   UNL A   1      46.519  30.984  27.984  1.00  0.00     0.031 C 
ATOM     58  C   UNL A   1      44.523  31.697  29.266  1.00  0.00     0.034 A 
BRANCH  45  59
ATOM     59  C   UNL A   1      38.715  30.087  30.641  1.00  0.00     0.023 A 
ATOM     60  C   UNL A   1      38.488  29.673  31.970  1.00  0.00     0.012 A 
ATOM     61  C   UNL A   1      37.748  30.877  29.990  1.00  0.00     0.148 A 
ATOM     62  C   UNL A   1      37.306  30.006  32.627  1.00  0.00     0.002 A 
ATOM     63  C   UNL A   1      36.590  31.244  30.668  1.00  0.00     0.091 A 
ATOM     64  F   UNL A   1      37.971  31.244  28.720  1.00  0.00    -0.205 F 
ATOM     65  C   UNL A   1      36.363  30.799  31.981  1.00  0.00     0.022 A 
BRANCH  63  66
ATOM     66  S   UNL A   1      35.350  32.328  29.951  1.00  0.00     0.127 S 
ATOM     67  O   UNL A   1      36.152  33.499  29.597  1.00  0.00    -0.237 OA
ATOM     68  O   UNL A   1      34.879  31.544  28.809  1.00  0.00    -0.237 OA
ATOM     69  O   UNL A   1      34.355  32.542  30.991  1.00  0.00    -0.744 OA
ENDBRANCH  63  66
ENDBRANCH  45  59
BRANCH  46  70
ATOM     70  C   UNL A   1      47.053  27.389  25.839  1.00  0.00     0.023 A 
ATOM     71  C   UNL A   1      48.060  26.677  26.519  1.00  0.00     0.012 A 
ATOM     72  C   UNL A   1      47.235  27.705  24.479  1.00  0.00     0.148 A 
ATOM     73  C   UNL A   1      49.242  26.319  25.870  1.00  0.00     0.002 A 
ATOM     74  C   UNL A   1      48.393  27.299  23.824  1.00  0.00     0.091 A 
ATOM     75  F   UNL A   1      46.272  28.394  23.852  1.00  0.00    -0.205 F 
ATOM     76  C   UNL A   1      49.404  26.622  24.521  1.00  0.00     0.022 A 
BRANCH  74  77
ATOM     77  S   UNL A   1      48.627  27.531  22.058  1.00  0.00     0.127 S 
ATOM     78  O   UNL A   1      47.394  28.214  21.680  1.00  0.00    -0.237 OA
ATOM     79  O   UNL A   1      49.830  28.364  22.018  1.00  0.00    -0.237 OA
ATOM     80  O   UNL A   1      48.808  26.194  21.509  1.00  0.00    -0.744 OA
ENDBRANCH  74  77
ENDBRANCH  46  70
BRANCH  58  81
ATOM     81  C   UNL A   1      45.262  32.949  29.658  1.00  0.00     0.023 A 
ATOM     82  C   UNL A   1      46.098  32.943  30.792  1.00  0.00     0.012 A 
ATOM     83  C   UNL A   1      45.182  34.110  28.864  1.00  0.00     0.148 A 
ATOM     84  C   UNL A   1      46.820  34.082  31.147  1.00  0.00     0.002 A 
ATOM     85  C   UNL A   1      45.942  35.225  29.196  1.00  0.00     0.091 A 
ATOM     86  F   UNL A   1      44.365  34.103  27.800  1.00  0.00    -0.205 F 
ATOM     87  C   UNL A   1      46.751  35.218  30.343  1.00  0.00     0.022 A 
BRANCH  85  88
ATOM     88  S   UNL A   1      45.988  36.696  28.165  1.00  0.00     0.127 S 
ATOM     89  O   UNL A   1      44.696  37.311  28.463  1.00  0.00    -0.237 OA
ATOM     90  O   UNL A   1      47.144  37.416  28.702  1.00  0.00    -0.237 OA
ATOM     91  O   UNL A   1      46.157  36.221  26.799  1.00  0.00    -0.744 OA
ENDBRANCH  85  88
ENDBRANCH  58  81
ENDBRANCH  32  33
ENDBRANCH  24  27
ENDBRANCH  22  23
ENDBRANCH   1  22
TORSDOF 16
ENDMDL
MODEL 3
REMARK VINA RESULT:     -11.9      5.304     10.727
REMARK SMILES COc1ccc2cc([C@H](C)C(=O)NCCCCNC(=O)c3ccc(-c4c5nc(c(-c6cccc(S(=O)(=O)[O-])c6F)c6ccc([nH]6)c(-c6cccc(S(=O)(=O)[O-])c6F)c6nc(c(-c7cccc(S(=O)(=O)[O-])c7F)c7ccc4[nH]7)C=C6)C=C5)cc3)ccc2c1
REMARK SMILES IDX 16 1 15 2 14 3 13 4 11 5 12 6 9 8 10 9 8 10 3 11 4 12 87 13
REMARK SMILES IDX 5 14 86 15 6 16 85 17 7 18 84 19 2 20 1 21 17 22 18 23 19 24
REMARK SMILES IDX 20 26 21 27 22 28 83 29 23 30 82 31 24 32 25 33 26 34 76 35
REMARK SMILES IDX 27 36 81 37 75 38 77 39 28 40 80 41 74 42 73 43 29 45 61 46
REMARK SMILES IDX 41 47 60 48 42 49 45 50 59 51 78 52 43 53 44 54 58 56 79 57
REMARK SMILES IDX 46 58 30 59 31 60 39 61 32 62 34 63 40 64 33 65 35 66 36 67
REMARK SMILES IDX 37 68 38 69 62 70 63 71 71 72 64 73 66 74 72 75 65 76 67 77
REMARK SMILES IDX 68 78 69 79 70 80 47 81 48 82 56 83 49 84 51 85 57 86 50 87
REMARK SMILES IDX 52 88 53 89 54 90 55 91
REMARK H PARENT 13 7 18 25 77 44 45 55
REMARK Flexibility Score: inf
ROOT
ATOM      1  C   UNL A   1      35.577  21.612  25.166  1.00  0.00     0.023 C 
ENDROOT
BRANCH   1   2
ATOM      2  C   UNL A   1      34.576  22.623  24.601  1.00  0.00     0.023 C 
BRANCH   2   3
ATOM      3  C   UNL A   1      34.713  24.034  25.161  1.00  0.00     0.116 C 
BRANCH   3   4
ATOM      4  N   UNL A   1      33.604  24.391  26.025  1.00  0.00    -0.356 N 
ATOM      5  C   UNL A   1      32.325  24.744  25.710  1.00  0.00     0.227 C 
ATOM      6  O   UNL A   1      31.521  24.858  26.641  1.00  0.00    -0.274 OA
ATOM      7  H   UNL A   1      33.806  24.377  26.989  1.00  0.00     0.163 HD
BRANCH   5   8
ATOM      8  C   UNL A   1      31.887  25.021  24.270  1.00  0.00     0.105 C 
ATOM      9  C   UNL A   1      31.031  23.865  23.731  1.00  0.00     0.023 C 
BRANCH   8  10
ATOM     10  C   UNL A   1      31.307  26.404  23.987  1.00  0.00    -0.035 A 
ATOM     11  C   UNL A   1      28.168  30.320  23.119  1.00  0.00     0.119 A 
ATOM     12  C   UNL A   1      27.378  29.174  23.061  1.00  0.00     0.047 A 
ATOM     13  C   UNL A   1      29.542  30.205  23.326  1.00  0.00     0.055 A 
ATOM     14  C   UNL A   1      27.955  27.917  23.267  1.00  0.00     0.012 A 
ATOM     15  C   UNL A   1      30.134  28.948  23.523  1.00  0.00    -0.015 A 
ATOM     16  C   UNL A   1      29.330  27.790  23.518  1.00  0.00    -0.018 A 
ATOM     17  C   UNL A   1      31.514  28.818  23.711  1.00  0.00     0.009 A 
ATOM     18  C   UNL A   1      29.925  26.537  23.756  1.00  0.00     0.013 A 
ATOM     19  C   UNL A   1      32.092  27.561  23.909  1.00  0.00     0.005 A 
BRANCH  11  20
ATOM     20  O   UNL A   1      27.695  31.590  22.929  1.00  0.00    -0.497 OA
ATOM     21  C   UNL A   1      28.714  32.561  22.711  1.00  0.00     0.278 C 
ENDBRANCH  11  20
ENDBRANCH   8  10
ENDBRANCH   5   8
ENDBRANCH   3   4
ENDBRANCH   2   3
ENDBRANCH   1   2
BRANCH   1  22
ATOM     22  C   UNL A   1      37.049  21.954  24.954  1.00  0.00     0.116 C 
BRANCH  22  23
ATOM     23  N   UNL A   1      37.949  20.880  25.352  1.00  0.00    -0.352 N 
ATOM     24  C   UNL A   1      39.159  20.965  25.997  1.00  0.00     0.251 C 
ATOM     25  H   UNL A   1      37.650  19.969  25.126  1.00  0.00     0.163 HD
ATOM     26  O   UNL A   1      39.851  19.960  26.144  1.00  0.00    -0.269 OA
BRANCH  24  27
ATOM     27  C   UNL A   1      39.634  22.275  26.487  1.00  0.00     0.039 A 
ATOM     28  C   UNL A   1      40.734  22.318  27.347  1.00  0.00     0.014 A 
ATOM     29  C   UNL A   1      39.015  23.458  26.071  1.00  0.00     0.014 A 
ATOM     30  C   UNL A   1      41.256  23.554  27.736  1.00  0.00     0.010 A 
ATOM     31  C   UNL A   1      39.582  24.686  26.402  1.00  0.00     0.010 A 
ATOM     32  C   UNL A   1      40.707  24.747  27.239  1.00  0.00    -0.014 A 
BRANCH  32  33
ATOM     33  C   UNL A   1      41.298  26.069  27.574  1.00  0.00     0.031 A 
ATOM     34  C   UNL A   1      42.709  26.391  27.166  1.00  0.00     0.074 A 
ATOM     35  C   UNL A   1      40.594  26.945  28.318  1.00  0.00     0.049 A 
ATOM     36  N   UNL A   1      43.414  27.465  27.413  1.00  0.00    -0.248 NA
ATOM     37  C   UNL A   1      43.436  25.362  26.404  1.00  0.00     0.031 C 
ATOM     38  C   UNL A   1      39.246  26.719  28.844  1.00  0.00     0.029 A 
ATOM     39  N   UNL A   1      40.924  28.193  28.784  1.00  0.00    -0.354 N 
ATOM     40  C   UNL A   1      44.671  27.229  26.868  1.00  0.00     0.074 A 
ATOM     41  C   UNL A   1      44.646  25.894  26.312  1.00  0.00     0.031 C 
ATOM     42  C   UNL A   1      38.863  27.793  29.553  1.00  0.00     0.029 A 
ATOM     43  C   UNL A   1      39.944  28.774  29.554  1.00  0.00     0.049 A 
ATOM     44  H   UNL A   1      41.782  28.632  28.585  1.00  0.00     0.167 HD
ATOM     45  C   UNL A   1      45.739  28.060  26.804  1.00  0.00     0.034 A 
ATOM     46  C   UNL A   1      39.918  29.962  30.190  1.00  0.00     0.034 A 
ATOM     47  C   UNL A   1      45.747  29.402  27.316  1.00  0.00     0.049 A 
ATOM     48  C   UNL A   1      41.103  30.882  30.066  1.00  0.00     0.074 A 
ATOM     49  C   UNL A   1      46.752  30.350  27.232  1.00  0.00     0.029 A 
ATOM     50  N   UNL A   1      44.700  29.990  28.010  1.00  0.00    -0.354 N 
ATOM     51  N   UNL A   1      42.224  30.701  29.411  1.00  0.00    -0.248 NA
ATOM     52  C   UNL A   1      41.003  32.187  30.736  1.00  0.00     0.031 C 
ATOM     53  C   UNL A   1      46.316  31.507  27.887  1.00  0.00     0.029 A 
ATOM     54  C   UNL A   1      45.033  31.287  28.361  1.00  0.00     0.049 A 
ATOM     55  H   UNL A   1      43.845  29.550  28.222  1.00  0.00     0.167 HD
ATOM     56  C   UNL A   1      42.945  31.881  29.555  1.00  0.00     0.074 A 
ATOM     57  C   UNL A   1      42.125  32.778  30.342  1.00  0.00     0.031 C 
ATOM     58  C   UNL A   1      44.180  32.190  29.091  1.00  0.00     0.034 A 
BRANCH  45  59
ATOM     59  C   UNL A   1      46.970  27.559  26.092  1.00  0.00     0.023 A 
ATOM     60  C   UNL A   1      47.878  26.730  26.784  1.00  0.00     0.012 A 
ATOM     61  C   UNL A   1      47.203  27.855  24.736  1.00  0.00     0.148 A 
ATOM     62  C   UNL A   1      49.015  26.236  26.150  1.00  0.00     0.002 A 
ATOM     63  C   UNL A   1      48.316  27.321  24.097  1.00  0.00     0.091 A 
ATOM     64  F   UNL A   1      46.340  28.661  24.100  1.00  0.00    -0.205 F 
ATOM     65  C   UNL A   1      49.229  26.522  24.805  1.00  0.00     0.022 A 
BRANCH  63  66
ATOM     66  S   UNL A   1      48.640  27.565  22.347  1.00  0.00     0.127 S 
ATOM     67  O   UNL A   1      49.923  28.267  22.379  1.00  0.00    -0.237 OA
ATOM     68  O   UNL A   1      48.710  26.190  21.851  1.00  0.00    -0.237 OA
ATOM     69  O   UNL A   1      47.517  28.337  21.835  1.00  0.00    -0.744 OA
ENDBRANCH  63  66
ENDBRANCH  45  59
BRANCH  46  70
ATOM     70  C   UNL A   1      38.698  30.387  30.934  1.00  0.00     0.023 A 
ATOM     71  C   UNL A   1      38.582  30.068  32.302  1.00  0.00     0.012 A 
ATOM     72  C   UNL A   1      37.668  31.115  30.309  1.00  0.00     0.148 A 
ATOM     73  C   UNL A   1      37.446  30.434  33.024  1.00  0.00     0.002 A 
ATOM     74  C   UNL A   1      36.563  31.523  31.049  1.00  0.00     0.091 A 
ATOM     75  F   UNL A   1      37.789  31.398  29.005  1.00  0.00    -0.205 F 
ATOM     76  C   UNL A   1      36.442  31.169  32.401  1.00  0.00     0.022 A 
BRANCH  74  77
ATOM     77  S   UNL A   1      35.286  32.583  30.361  1.00  0.00     0.127 S 
ATOM     78  O   UNL A   1      34.824  31.794  29.222  1.00  0.00    -0.237 OA
ATOM     79  O   UNL A   1      34.337  32.676  31.472  1.00  0.00    -0.237 OA
ATOM     80  O   UNL A   1      35.952  33.837  30.038  1.00  0.00    -0.744 OA
ENDBRANCH  74  77
ENDBRANCH  46  70
BRANCH  58  81
ATOM     81  C   UNL A   1      44.713  33.568  29.381  1.00  0.00     0.023 A 
ATOM     82  C   UNL A   1      45.365  33.825  30.603  1.00  0.00     0.012 A 
ATOM     83  C   UNL A   1      44.629  34.590  28.413  1.00  0.00     0.148 A 
ATOM     84  C   UNL A   1      45.899  35.085  30.871  1.00  0.00     0.002 A 
ATOM     85  C   UNL A   1      45.206  35.828  28.668  1.00  0.00     0.091 A 
ATOM     86  F   UNL A   1      43.987  34.333  27.265  1.00  0.00    -0.205 F 
ATOM     87  C   UNL A   1      45.829  36.082  29.900  1.00  0.00     0.022 A 
BRANCH  85  88
ATOM     88  S   UNL A   1      45.247  37.138  27.439  1.00  0.00     0.127 S 
ATOM     89  O   UNL A   1      46.013  36.513  26.362  1.00  0.00    -0.237 OA
ATOM     90  O   UNL A   1      43.827  37.333  27.143  1.00  0.00    -0.237 OA
ATOM     91  O   UNL A   1      45.888  38.274  28.087  1.00  0.00    -0.744 OA
ENDBRANCH  85  88
ENDBRANCH  58  81
ENDBRANCH  32  33
ENDBRANCH  24  27
ENDBRANCH  22  23
ENDBRANCH   1  22
TORSDOF 16
ENDMDL
