MODEL 1
REMARK VINA RESULT:     -11.7      0.000      0.000
REMARK SMILES CC(C)[C@H](NC(N)=O)C(=O)N[C@H](C)C(=O)NCCCCNC(=O)c1ccc(-c2c3nc(c(-c4cccc(S(=O)(=O)[O-])c4F)c4ccc([nH]4)c(-c4cccc(S(=O)(=O)[O-])c4F)c4nc(c(-c5cccc(S(=O)(=O)[O-])c5F)c5ccc2[nH]5)C=C4)C=C3)cc1
REMARK SMILES IDX 18 1 17 2 16 3 14 4 15 5 12 7 13 8 11 9 9 10 10 11 4 13 2 14
REMARK SMILES IDX 1 15 3 16 5 17 6 18 7 20 8 21 19 24 20 25 21 26 22 27 23 29
REMARK SMILES IDX 24 30 25 31 86 32 26 33 85 34 27 35 28 36 29 37 79 38 30 39
REMARK SMILES IDX 84 40 78 41 80 42 31 43 83 44 77 45 76 46 32 48 64 49 44 50
REMARK SMILES IDX 63 51 45 52 48 53 62 54 81 55 46 56 47 57 61 59 82 60 49 61
REMARK SMILES IDX 33 62 34 63 42 64 35 65 37 66 43 67 36 68 38 69 39 70 40 71
REMARK SMILES IDX 41 72 65 73 66 74 74 75 67 76 69 77 75 78 68 79 70 80 71 81
REMARK SMILES IDX 72 82 73 83 50 84 51 85 59 86 52 87 54 88 60 89 53 90 55 91
REMARK SMILES IDX 56 92 57 93 58 94
REMARK H PARENT 16 6 11 12 5 19 7 22 7 23 21 28 80 47 48 58
REMARK Flexibility Score: inf
ROOT
ATOM      1  C   UNL A   1      34.391  21.781  25.966  1.00  0.00     0.023 C 
ENDROOT
BRANCH   1   2
ATOM      2  C   UNL A   1      32.961  21.410  25.574  1.00  0.00     0.116 C 
BRANCH   2   3
ATOM      3  N   UNL A   1      31.955  22.079  26.376  1.00  0.00    -0.354 N 
ATOM      4  C   UNL A   1      31.279  23.247  26.162  1.00  0.00     0.242 C 
ATOM      5  O   UNL A   1      30.495  23.634  27.035  1.00  0.00    -0.273 OA
ATOM      6  H   UNL A   1      31.721  21.616  27.212  1.00  0.00     0.163 HD
BRANCH   4   7
ATOM      7  C   UNL A   1      31.525  24.099  24.897  1.00  0.00     0.168 C 
ATOM      8  C   UNL A   1      30.907  23.420  23.673  1.00  0.00     0.041 C 
BRANCH   7   9
ATOM      9  N   UNL A   1      31.020  25.462  25.059  1.00  0.00    -0.343 N 
ATOM     10  C   UNL A   1      31.320  26.645  24.470  1.00  0.00     0.243 C 
ATOM     11  O   UNL A   1      30.538  27.576  24.712  1.00  0.00    -0.273 OA
ATOM     12  H   UNL A   1      30.313  25.536  25.741  1.00  0.00     0.164 HD
BRANCH  10  13
ATOM     13  C   UNL A   1      32.425  26.832  23.403  1.00  0.00     0.175 C 
BRANCH  13  14
ATOM     14  C   UNL A   1      33.176  28.174  23.638  1.00  0.00     0.015 C 
ATOM     15  C   UNL A   1      34.048  28.107  24.894  1.00  0.00     0.010 C 
ATOM     16  C   UNL A   1      34.065  28.630  22.483  1.00  0.00     0.010 C 
ENDBRANCH  13  14
BRANCH  13  17
ATOM     17  N   UNL A   1      31.979  26.637  22.031  1.00  0.00    -0.326 N 
ATOM     18  C   UNL A   1      32.590  25.716  21.231  1.00  0.00     0.312 C 
ATOM     19  H   UNL A   1      31.232  27.173  21.679  1.00  0.00     0.166 HD
ATOM     20  N   UNL A   1      32.072  25.688  19.983  1.00  0.00    -0.352 N 
ATOM     21  O   UNL A   1      33.494  24.973  21.575  1.00  0.00    -0.249 OA
ATOM     22  H   UNL A   1      31.343  26.302  19.738  1.00  0.00     0.161 HD
ATOM     23  H   UNL A   1      32.424  25.053  19.318  1.00  0.00     0.161 HD
ENDBRANCH  13  17
ENDBRANCH  10  13
ENDBRANCH   7   9
ENDBRANCH   4   7
ENDBRANCH   2   3
ENDBRANCH   1   2
BRANCH   1  24
ATOM     24  C   UNL A   1      35.457  21.388  24.954  1.00  0.00     0.023 C 
BRANCH  24  25
ATOM     25  C   UNL A   1      36.854  21.872  25.295  1.00  0.00     0.116 C 
BRANCH  25  26
ATOM     26  N   UNL A   1      37.825  20.788  25.402  1.00  0.00    -0.352 N 
ATOM     27  C   UNL A   1      39.084  20.827  25.950  1.00  0.00     0.251 C 
ATOM     28  H   UNL A   1      37.541  19.918  25.037  1.00  0.00     0.163 HD
ATOM     29  O   UNL A   1      39.839  19.865  25.868  1.00  0.00    -0.269 OA
BRANCH  27  30
ATOM     30  C   UNL A   1      39.516  22.076  26.600  1.00  0.00     0.039 A 
ATOM     31  C   UNL A   1      40.527  22.024  27.559  1.00  0.00     0.014 A 
ATOM     32  C   UNL A   1      39.008  23.300  26.153  1.00  0.00     0.014 A 
ATOM     33  C   UNL A   1      41.099  23.212  28.007  1.00  0.00     0.010 A 
ATOM     34  C   UNL A   1      39.640  24.475  26.533  1.00  0.00     0.010 A 
ATOM     35  C   UNL A   1      40.696  24.441  27.456  1.00  0.00    -0.014 A 
BRANCH  35  36
ATOM     36  C   UNL A   1      41.400  25.703  27.794  1.00  0.00     0.031 A 
ATOM     37  C   UNL A   1      40.682  26.787  28.544  1.00  0.00     0.074 A 
ATOM     38  C   UNL A   1      42.650  25.906  27.332  1.00  0.00     0.049 A 
ATOM     39  N   UNL A   1      41.108  27.978  28.873  1.00  0.00    -0.248 NA
ATOM     40  C   UNL A   1      39.295  26.511  28.954  1.00  0.00     0.031 C 
ATOM     41  C   UNL A   1      43.417  24.960  26.515  1.00  0.00     0.029 A 
ATOM     42  N   UNL A   1      43.486  26.987  27.456  1.00  0.00    -0.354 N 
ATOM     43  C   UNL A   1      40.036  28.604  29.497  1.00  0.00     0.074 A 
ATOM     44  C   UNL A   1      38.928  27.676  29.469  1.00  0.00     0.031 C 
ATOM     45  C   UNL A   1      44.608  25.500  26.216  1.00  0.00     0.029 A 
ATOM     46  C   UNL A   1      44.680  26.841  26.787  1.00  0.00     0.049 A 
ATOM     47  H   UNL A   1      43.253  27.791  27.974  1.00  0.00     0.167 HD
ATOM     48  C   UNL A   1      39.989  29.829  30.069  1.00  0.00     0.034 A 
ATOM     49  C   UNL A   1      45.709  27.697  26.637  1.00  0.00     0.034 A 
ATOM     50  C   UNL A   1      41.105  30.733  30.125  1.00  0.00     0.049 A 
ATOM     51  C   UNL A   1      45.638  29.045  27.303  1.00  0.00     0.074 A 
ATOM     52  C   UNL A   1      41.189  31.955  30.767  1.00  0.00     0.029 A 
ATOM     53  N   UNL A   1      42.325  30.523  29.501  1.00  0.00    -0.354 N 
ATOM     54  N   UNL A   1      44.680  29.548  28.044  1.00  0.00    -0.248 NA
ATOM     55  C   UNL A   1      46.800  29.930  27.139  1.00  0.00     0.031 C 
ATOM     56  C   UNL A   1      42.450  32.498  30.505  1.00  0.00     0.029 A 
ATOM     57  C   UNL A   1      43.162  31.602  29.723  1.00  0.00     0.049 A 
ATOM     58  H   UNL A   1      42.561  29.723  28.977  1.00  0.00     0.167 HD
ATOM     59  C   UNL A   1      45.133  30.797  28.455  1.00  0.00     0.074 A 
ATOM     60  C   UNL A   1      46.464  30.959  27.905  1.00  0.00     0.031 C 
ATOM     61  C   UNL A   1      44.499  31.732  29.204  1.00  0.00     0.034 A 
BRANCH  48  62
ATOM     62  C   UNL A   1      38.699  30.246  30.724  1.00  0.00     0.023 A 
ATOM     63  C   UNL A   1      38.501  29.987  32.096  1.00  0.00     0.012 A 
ATOM     64  C   UNL A   1      37.713  30.946  30.003  1.00  0.00     0.148 A 
ATOM     65  C   UNL A   1      37.328  30.391  32.733  1.00  0.00     0.002 A 
ATOM     66  C   UNL A   1      36.567  31.386  30.655  1.00  0.00     0.091 A 
ATOM     67  F   UNL A   1      37.910  31.162  28.695  1.00  0.00    -0.205 F 
ATOM     68  C   UNL A   1      36.368  31.099  32.016  1.00  0.00     0.022 A 
BRANCH  66  69
ATOM     69  S   UNL A   1      35.307  32.375  29.843  1.00  0.00     0.127 S 
ATOM     70  O   UNL A   1      34.364  32.605  30.936  1.00  0.00    -0.237 OA
ATOM     71  O   UNL A   1      36.064  33.558  29.432  1.00  0.00    -0.237 OA
ATOM     72  O   UNL A   1      34.804  31.563  28.744  1.00  0.00    -0.744 OA
ENDBRANCH  66  69
ENDBRANCH  48  62
BRANCH  49  73
ATOM     73  C   UNL A   1      46.916  27.287  25.864  1.00  0.00     0.023 A 
ATOM     74  C   UNL A   1      47.883  26.463  26.474  1.00  0.00     0.012 A 
ATOM     75  C   UNL A   1      47.100  27.687  24.527  1.00  0.00     0.148 A 
ATOM     76  C   UNL A   1      49.026  26.073  25.776  1.00  0.00     0.002 A 
ATOM     77  C   UNL A   1      48.214  27.247  23.819  1.00  0.00     0.091 A 
ATOM     78  F   UNL A   1      46.176  28.481  23.968  1.00  0.00    -0.205 F 
ATOM     79  C   UNL A   1      49.187  26.456  24.447  1.00  0.00     0.022 A 
BRANCH  77  80
ATOM     80  S   UNL A   1      48.433  27.579  22.068  1.00  0.00     0.127 S 
ATOM     81  O   UNL A   1      49.628  28.418  22.069  1.00  0.00    -0.237 OA
ATOM     82  O   UNL A   1      48.625  26.233  21.527  1.00  0.00    -0.237 OA
ATOM     83  O   UNL A   1      47.203  28.228  21.633  1.00  0.00    -0.744 OA
ENDBRANCH  77  80
ENDBRANCH  49  73
BRANCH  61  84
ATOM     84  C   UNL A   1      45.237  33.014  29.490  1.00  0.00     0.023 A 
ATOM     85  C   UNL A   1      46.042  33.113  30.643  1.00  0.00     0.012 A 
ATOM     86  C   UNL A   1      45.195  34.088  28.580  1.00  0.00     0.148 A 
ATOM     87  C   UNL A   1      46.768  34.274  30.901  1.00  0.00     0.002 A 
ATOM     88  C   UNL A   1      45.962  35.222  28.819  1.00  0.00     0.091 A 
ATOM     89  F   UNL A   1      44.412  33.978  27.498  1.00  0.00    -0.205 F 
ATOM     90  C   UNL A   1      46.738  35.323  29.984  1.00  0.00     0.022 A 
BRANCH  88  91
ATOM     91  S   UNL A   1      46.063  36.583  27.651  1.00  0.00     0.127 S 
ATOM     92  O   UNL A   1      44.687  37.080  27.654  1.00  0.00    -0.237 OA
ATOM     93  O   UNL A   1      47.034  37.469  28.292  1.00  0.00    -0.237 OA
ATOM     94  O   UNL A   1      46.510  36.002  26.391  1.00  0.00    -0.744 OA
ENDBRANCH  88  91
ENDBRANCH  61  84
ENDBRANCH  35  36
ENDBRANCH  27  30
ENDBRANCH  25  26
ENDBRANCH  24  25
ENDBRANCH   1  24
TORSDOF 18
ENDMDL
MODEL 2
REMARK VINA RESULT:     -11.4      0.659      7.651
REMARK SMILES CC(C)[C@H](NC(N)=O)C(=O)N[C@H](C)C(=O)NCCCCNC(=O)c1ccc(-c2c3nc(c(-c4cccc(S(=O)(=O)[O-])c4F)c4ccc([nH]4)c(-c4cccc(S(=O)(=O)[O-])c4F)c4nc(c(-c5cccc(S(=O)(=O)[O-])c5F)c5ccc2[nH]5)C=C4)C=C3)cc1
REMARK SMILES IDX 18 1 17 2 16 3 14 4 15 5 12 7 13 8 11 9 9 10 10 11 4 13 2 14
REMARK SMILES IDX 1 15 3 16 5 17 6 18 7 20 8 21 19 24 20 25 21 26 22 27 23 29
REMARK SMILES IDX 24 30 25 31 86 32 26 33 85 34 27 35 28 36 29 37 79 38 30 39
REMARK SMILES IDX 84 40 78 41 80 42 31 43 83 44 77 45 76 46 32 48 64 49 44 50
REMARK SMILES IDX 63 51 45 52 48 53 62 54 81 55 46 56 47 57 61 59 82 60 49 61
REMARK SMILES IDX 33 62 34 63 42 64 35 65 37 66 43 67 36 68 38 69 39 70 40 71
REMARK SMILES IDX 41 72 65 73 66 74 74 75 67 76 69 77 75 78 68 79 70 80 71 81
REMARK SMILES IDX 72 82 73 83 50 84 51 85 59 86 52 87 54 88 60 89 53 90 55 91
REMARK SMILES IDX 56 92 57 93 58 94
REMARK H PARENT 16 6 11 12 5 19 7 22 7 23 21 28 80 47 48 58
REMARK Flexibility Score: inf
ROOT
ATOM      1  C   UNL A   1      34.404  21.307  26.176  1.00  0.00     0.023 C 
ENDROOT
BRANCH   1   2
ATOM      2  C   UNL A   1      32.965  21.260  25.664  1.00  0.00     0.116 C 
BRANCH   2   3
ATOM      3  N   UNL A   1      32.047  22.046  26.465  1.00  0.00    -0.354 N 
ATOM      4  C   UNL A   1      31.356  23.187  26.165  1.00  0.00     0.242 C 
ATOM      5  O   UNL A   1      30.665  23.698  27.052  1.00  0.00    -0.273 OA
ATOM      6  H   UNL A   1      31.896  21.702  27.375  1.00  0.00     0.163 HD
BRANCH   4   7
ATOM      7  C   UNL A   1      31.476  23.858  24.779  1.00  0.00     0.168 C 
ATOM      8  C   UNL A   1      31.469  22.799  23.675  1.00  0.00     0.041 C 
BRANCH   7   9
ATOM      9  N   UNL A   1      30.422  24.850  24.568  1.00  0.00    -0.343 N 
ATOM     10  C   UNL A   1      30.361  26.016  23.880  1.00  0.00     0.243 C 
ATOM     11  O   UNL A   1      29.227  26.501  23.751  1.00  0.00    -0.273 OA
ATOM     12  H   UNL A   1      29.579  24.624  25.024  1.00  0.00     0.164 HD
BRANCH  10  13
ATOM     13  C   UNL A   1      31.552  26.640  23.115  1.00  0.00     0.175 C 
BRANCH  13  14
ATOM     14  C   UNL A   1      31.750  28.122  23.545  1.00  0.00     0.015 C 
ATOM     15  C   UNL A   1      33.234  28.497  23.569  1.00  0.00     0.010 C 
ATOM     16  C   UNL A   1      31.028  29.150  22.678  1.00  0.00     0.010 C 
ENDBRANCH  13  14
BRANCH  13  17
ATOM     17  N   UNL A   1      31.513  26.444  21.673  1.00  0.00    -0.326 N 
ATOM     18  C   UNL A   1      32.431  25.642  21.060  1.00  0.00     0.312 C 
ATOM     19  H   UNL A   1      30.819  26.892  21.137  1.00  0.00     0.166 HD
ATOM     20  N   UNL A   1      32.268  25.597  19.719  1.00  0.00    -0.352 N 
ATOM     21  O   UNL A   1      33.305  25.009  21.628  1.00  0.00    -0.249 OA
ATOM     22  H   UNL A   1      31.552  26.121  19.292  1.00  0.00     0.161 HD
ATOM     23  H   UNL A   1      32.864  25.040  19.169  1.00  0.00     0.161 HD
ENDBRANCH  13  17
ENDBRANCH  10  13
ENDBRANCH   7   9
ENDBRANCH   4   7
ENDBRANCH   2   3
ENDBRANCH   1   2
BRANCH   1  24
ATOM     24  C   UNL A   1      35.472  21.220  25.096  1.00  0.00     0.023 C 
BRANCH  24  25
ATOM     25  C   UNL A   1      36.805  21.835  25.482  1.00  0.00     0.116 C 
BRANCH  25  26
ATOM     26  N   UNL A   1      37.888  20.858  25.545  1.00  0.00    -0.352 N 
ATOM     27  C   UNL A   1      39.170  21.039  26.006  1.00  0.00     0.251 C 
ATOM     28  H   UNL A   1      37.673  19.955  25.217  1.00  0.00     0.163 HD
ATOM     29  O   UNL A   1      40.013  20.158  25.892  1.00  0.00    -0.269 OA
BRANCH  27  30
ATOM     30  C   UNL A   1      39.511  22.344  26.601  1.00  0.00     0.039 A 
ATOM     31  C   UNL A   1      40.508  22.400  27.574  1.00  0.00     0.014 A 
ATOM     32  C   UNL A   1      38.935  23.509  26.088  1.00  0.00     0.014 A 
ATOM     33  C   UNL A   1      40.997  23.643  27.972  1.00  0.00     0.010 A 
ATOM     34  C   UNL A   1      39.485  24.739  26.420  1.00  0.00     0.010 A 
ATOM     35  C   UNL A   1      40.527  24.816  27.357  1.00  0.00    -0.014 A 
BRANCH  35  36
ATOM     36  C   UNL A   1      41.144  26.135  27.644  1.00  0.00     0.031 A 
ATOM     37  C   UNL A   1      42.553  26.417  27.210  1.00  0.00     0.074 A 
ATOM     38  C   UNL A   1      40.466  27.034  28.387  1.00  0.00     0.049 A 
ATOM     39  N   UNL A   1      43.281  27.481  27.425  1.00  0.00    -0.248 NA
ATOM     40  C   UNL A   1      43.248  25.355  26.462  1.00  0.00     0.031 C 
ATOM     41  C   UNL A   1      39.123  26.835  28.941  1.00  0.00     0.029 A 
ATOM     42  N   UNL A   1      40.825  28.281  28.829  1.00  0.00    -0.354 N 
ATOM     43  C   UNL A   1      44.525  27.206  26.870  1.00  0.00     0.074 A 
ATOM     44  C   UNL A   1      44.466  25.862  26.340  1.00  0.00     0.031 C 
ATOM     45  C   UNL A   1      38.772  27.923  29.645  1.00  0.00     0.029 A 
ATOM     46  C   UNL A   1      39.873  28.880  29.623  1.00  0.00     0.049 A 
ATOM     47  H   UNL A   1      41.682  28.708  28.602  1.00  0.00     0.167 HD
ATOM     48  C   UNL A   1      45.608  28.012  26.782  1.00  0.00     0.034 A 
ATOM     49  C   UNL A   1      39.892  30.060  30.273  1.00  0.00     0.034 A 
ATOM     50  C   UNL A   1      45.647  29.360  27.279  1.00  0.00     0.049 A 
ATOM     51  C   UNL A   1      41.101  30.946  30.138  1.00  0.00     0.074 A 
ATOM     52  C   UNL A   1      46.661  30.292  27.152  1.00  0.00     0.029 A 
ATOM     53  N   UNL A   1      44.638  29.963  28.013  1.00  0.00    -0.354 N 
ATOM     54  N   UNL A   1      42.201  30.740  29.456  1.00  0.00    -0.248 NA
ATOM     55  C   UNL A   1      41.060  32.237  30.838  1.00  0.00     0.031 C 
ATOM     56  C   UNL A   1      46.277  31.449  27.837  1.00  0.00     0.029 A 
ATOM     57  C   UNL A   1      45.012  31.248  28.367  1.00  0.00     0.049 A 
ATOM     58  H   UNL A   1      43.781  29.539  28.249  1.00  0.00     0.167 HD
ATOM     59  C   UNL A   1      42.973  31.885  29.622  1.00  0.00     0.074 A 
ATOM     60  C   UNL A   1      42.199  32.792  30.446  1.00  0.00     0.031 C 
ATOM     61  C   UNL A   1      44.215  32.154  29.152  1.00  0.00     0.034 A 
BRANCH  48  62
ATOM     62  C   UNL A   1      46.825  27.474  26.080  1.00  0.00     0.023 A 
ATOM     63  C   UNL A   1      47.700  26.609  26.769  1.00  0.00     0.012 A 
ATOM     64  C   UNL A   1      47.072  27.771  24.725  1.00  0.00     0.148 A 
ATOM     65  C   UNL A   1      48.818  26.072  26.131  1.00  0.00     0.002 A 
ATOM     66  C   UNL A   1      48.162  27.196  24.083  1.00  0.00     0.091 A 
ATOM     67  F   UNL A   1      46.242  28.614  24.095  1.00  0.00    -0.205 F 
ATOM     68  C   UNL A   1      49.042  26.357  24.787  1.00  0.00     0.022 A 
BRANCH  66  69
ATOM     69  S   UNL A   1      48.493  27.434  22.334  1.00  0.00     0.127 S 
ATOM     70  O   UNL A   1      49.671  28.300  22.373  1.00  0.00    -0.237 OA
ATOM     71  O   UNL A   1      48.756  26.068  21.883  1.00  0.00    -0.237 OA
ATOM     72  O   UNL A   1      47.292  28.039  21.775  1.00  0.00    -0.744 OA
ENDBRANCH  66  69
ENDBRANCH  48  62
BRANCH  49  73
ATOM     73  C   UNL A   1      38.708  30.494  31.068  1.00  0.00     0.023 A 
ATOM     74  C   UNL A   1      38.658  30.210  32.447  1.00  0.00     0.012 A 
ATOM     75  C   UNL A   1      37.647  31.205  30.475  1.00  0.00     0.148 A 
ATOM     76  C   UNL A   1      37.557  30.596  33.213  1.00  0.00     0.002 A 
ATOM     77  C   UNL A   1      36.580  31.636  31.255  1.00  0.00     0.091 A 
ATOM     78  F   UNL A   1      37.707  31.455  29.159  1.00  0.00    -0.205 F 
ATOM     79  C   UNL A   1      36.524  31.317  32.620  1.00  0.00     0.022 A 
BRANCH  77  80
ATOM     80  S   UNL A   1      35.275  32.685  30.605  1.00  0.00     0.127 S 
ATOM     81  O   UNL A   1      35.999  33.919  30.312  1.00  0.00    -0.237 OA
ATOM     82  O   UNL A   1      34.840  31.931  29.427  1.00  0.00    -0.237 OA
ATOM     83  O   UNL A   1      34.276  32.771  31.661  1.00  0.00    -0.744 OA
ENDBRANCH  77  80
ENDBRANCH  49  73
BRANCH  61  84
ATOM     84  C   UNL A   1      44.817  33.490  29.500  1.00  0.00     0.023 A 
ATOM     85  C   UNL A   1      45.611  33.618  30.657  1.00  0.00     0.012 A 
ATOM     86  C   UNL A   1      44.662  34.597  28.641  1.00  0.00     0.148 A 
ATOM     87  C   UNL A   1      46.215  34.835  30.971  1.00  0.00     0.002 A 
ATOM     88  C   UNL A   1      45.308  35.791  28.935  1.00  0.00     0.091 A 
ATOM     89  F   UNL A   1      43.891  34.458  27.554  1.00  0.00    -0.205 F 
ATOM     90  C   UNL A   1      46.073  35.917  30.105  1.00  0.00     0.022 A 
BRANCH  88  91
ATOM     91  S   UNL A   1      45.265  37.209  27.833  1.00  0.00     0.127 S 
ATOM     92  O   UNL A   1      43.883  37.664  27.988  1.00  0.00    -0.237 OA
ATOM     93  O   UNL A   1      46.269  38.092  28.425  1.00  0.00    -0.237 OA
ATOM     94  O   UNL A   1      45.606  36.703  26.510  1.00  0.00    -0.744 OA
ENDBRANCH  88  91
ENDBRANCH  61  84
ENDBRANCH  35  36
ENDBRANCH  27  30
ENDBRANCH  25  26
ENDBRANCH  24  25
ENDBRANCH   1  24
TORSDOF 18
ENDMDL
MODEL 3
REMARK VINA RESULT:     -11.3      1.383      8.062
REMARK SMILES CC(C)[C@H](NC(N)=O)C(=O)N[C@H](C)C(=O)NCCCCNC(=O)c1ccc(-c2c3nc(c(-c4cccc(S(=O)(=O)[O-])c4F)c4ccc([nH]4)c(-c4cccc(S(=O)(=O)[O-])c4F)c4nc(c(-c5cccc(S(=O)(=O)[O-])c5F)c5ccc2[nH]5)C=C4)C=C3)cc1
REMARK SMILES IDX 18 1 17 2 16 3 14 4 15 5 12 7 13 8 11 9 9 10 10 11 4 13 2 14
REMARK SMILES IDX 1 15 3 16 5 17 6 18 7 20 8 21 19 24 20 25 21 26 22 27 23 29
REMARK SMILES IDX 24 30 25 31 86 32 26 33 85 34 27 35 28 36 29 37 79 38 30 39
REMARK SMILES IDX 84 40 78 41 80 42 31 43 83 44 77 45 76 46 32 48 64 49 44 50
REMARK SMILES IDX 63 51 45 52 48 53 62 54 81 55 46 56 47 57 61 59 82 60 49 61
REMARK SMILES IDX 33 62 34 63 42 64 35 65 37 66 43 67 36 68 38 69 39 70 40 71
REMARK SMILES IDX 41 72 65 73 66 74 74 75 67 76 69 77 75 78 68 79 70 80 71 81
REMARK SMILES IDX 72 82 73 83 50 84 51 85 59 86 52 87 54 88 60 89 53 90 55 91
REMARK SMILES IDX 56 92 57 93 58 94
REMARK H PARENT 16 6 11 12 5 19 7 22 7 23 21 28 80 47 48 58
REMARK Flexibility Score: inf
ROOT
ATOM      1  C   UNL A   1      35.423  22.410  26.130  1.00  0.00     0.023 C 
ENDROOT
BRANCH   1   2
ATOM      2  C   UNL A   1      35.651  23.823  25.592  1.00  0.00     0.116 C 
BRANCH   2   3
ATOM      3  N   UNL A   1      35.378  23.946  24.173  1.00  0.00    -0.354 N 
ATOM      4  C   UNL A   1      34.425  24.666  23.510  1.00  0.00     0.242 C 
ATOM      5  O   UNL A   1      34.369  24.563  22.280  1.00  0.00    -0.273 OA
ATOM      6  H   UNL A   1      35.978  23.425  23.592  1.00  0.00     0.163 HD
BRANCH   4   7
ATOM      7  C   UNL A   1      33.404  25.541  24.270  1.00  0.00     0.168 C 
ATOM      8  C   UNL A   1      33.765  27.021  24.129  1.00  0.00     0.041 C 
BRANCH   7   9
ATOM      9  N   UNL A   1      32.035  25.284  23.822  1.00  0.00    -0.343 N 
ATOM     10  C   UNL A   1      31.147  24.289  24.058  1.00  0.00     0.243 C 
ATOM     11  O   UNL A   1      29.989  24.503  23.670  1.00  0.00    -0.273 OA
ATOM     12  H   UNL A   1      31.687  25.982  23.221  1.00  0.00     0.164 HD
BRANCH  10  13
ATOM     13  C   UNL A   1      31.445  23.040  24.922  1.00  0.00     0.175 C 
BRANCH  13  14
ATOM     14  C   UNL A   1      32.293  22.017  24.113  1.00  0.00     0.015 C 
ATOM     15  C   UNL A   1      32.351  20.662  24.823  1.00  0.00     0.010 C 
ATOM     16  C   UNL A   1      31.818  21.768  22.683  1.00  0.00     0.010 C 
ENDBRANCH  13  14
BRANCH  13  17
ATOM     17  N   UNL A   1      30.278  22.460  25.568  1.00  0.00    -0.326 N 
ATOM     18  C   UNL A   1      29.899  22.874  26.811  1.00  0.00     0.312 C 
ATOM     19  H   UNL A   1      29.758  21.764  25.104  1.00  0.00     0.166 HD
ATOM     20  N   UNL A   1      28.816  22.210  27.272  1.00  0.00    -0.352 N 
ATOM     21  O   UNL A   1      30.443  23.753  27.457  1.00  0.00    -0.249 OA
ATOM     22  H   UNL A   1      28.401  21.505  26.725  1.00  0.00     0.161 HD
ATOM     23  H   UNL A   1      28.441  22.431  28.155  1.00  0.00     0.161 HD
ENDBRANCH  13  17
ENDBRANCH  10  13
ENDBRANCH   7   9
ENDBRANCH   4   7
ENDBRANCH   2   3
ENDBRANCH   1   2
BRANCH   1  24
ATOM     24  C   UNL A   1      36.387  21.359  25.602  1.00  0.00     0.023 C 
BRANCH  24  25
ATOM     25  C   UNL A   1      37.795  21.869  25.351  1.00  0.00     0.116 C 
BRANCH  25  26
ATOM     26  N   UNL A   1      38.827  20.919  25.753  1.00  0.00    -0.352 N 
ATOM     27  C   UNL A   1      39.968  21.162  26.478  1.00  0.00     0.251 C 
ATOM     28  H   UNL A   1      38.689  19.986  25.468  1.00  0.00     0.163 HD
ATOM     29  O   UNL A   1      40.809  20.286  26.645  1.00  0.00    -0.269 OA
BRANCH  27  30
ATOM     30  C   UNL A   1      40.170  22.520  27.013  1.00  0.00     0.039 A 
ATOM     31  C   UNL A   1      41.103  22.712  28.032  1.00  0.00     0.014 A 
ATOM     32  C   UNL A   1      39.533  23.605  26.404  1.00  0.00     0.014 A 
ATOM     33  C   UNL A   1      41.467  24.010  28.381  1.00  0.00     0.010 A 
ATOM     34  C   UNL A   1      39.964  24.892  26.691  1.00  0.00     0.010 A 
ATOM     35  C   UNL A   1      40.941  25.106  27.675  1.00  0.00    -0.014 A 
BRANCH  35  36
ATOM     36  C   UNL A   1      41.433  26.484  27.916  1.00  0.00     0.031 A 
ATOM     37  C   UNL A   1      42.852  26.846  27.583  1.00  0.00     0.074 A 
ATOM     38  C   UNL A   1      40.630  27.375  28.533  1.00  0.00     0.049 A 
ATOM     39  N   UNL A   1      43.479  27.975  27.779  1.00  0.00    -0.248 NA
ATOM     40  C   UNL A   1      43.685  25.795  26.974  1.00  0.00     0.031 C 
ATOM     41  C   UNL A   1      39.261  27.109  28.986  1.00  0.00     0.029 A 
ATOM     42  N   UNL A   1      40.857  28.673  28.912  1.00  0.00    -0.354 N 
ATOM     43  C   UNL A   1      44.784  27.762  27.352  1.00  0.00     0.074 A 
ATOM     44  C   UNL A   1      44.869  26.385  26.918  1.00  0.00     0.031 C 
ATOM     45  C   UNL A   1      38.771  28.210  29.577  1.00  0.00     0.029 A 
ATOM     46  C   UNL A   1      39.798  29.247  29.578  1.00  0.00     0.049 A 
ATOM     47  H   UNL A   1      41.698  29.149  28.726  1.00  0.00     0.167 HD
ATOM     48  C   UNL A   1      45.810  28.643  27.297  1.00  0.00     0.034 A 
ATOM     49  C   UNL A   1      39.674  30.465  30.139  1.00  0.00     0.034 A 
ATOM     50  C   UNL A   1      45.707  30.020  27.696  1.00  0.00     0.049 A 
ATOM     51  C   UNL A   1      40.823  31.431  30.043  1.00  0.00     0.074 A 
ATOM     52  C   UNL A   1      46.659  31.018  27.587  1.00  0.00     0.029 A 
ATOM     53  N   UNL A   1      44.597  30.589  28.298  1.00  0.00    -0.354 N 
ATOM     54  N   UNL A   1      41.991  31.267  29.471  1.00  0.00    -0.248 NA
ATOM     55  C   UNL A   1      40.627  32.759  30.641  1.00  0.00     0.031 C 
ATOM     56  C   UNL A   1      46.133  32.184  28.152  1.00  0.00     0.029 A 
ATOM     57  C   UNL A   1      44.844  31.920  28.587  1.00  0.00     0.049 A 
ATOM     58  H   UNL A   1      43.754  30.117  28.491  1.00  0.00     0.167 HD
ATOM     59  C   UNL A   1      42.661  32.478  29.618  1.00  0.00     0.074 A 
ATOM     60  C   UNL A   1      41.754  33.374  30.306  1.00  0.00     0.031 C 
ATOM     61  C   UNL A   1      43.917  32.811  29.235  1.00  0.00     0.034 A 
BRANCH  48  62
ATOM     62  C   UNL A   1      47.120  28.156  26.740  1.00  0.00     0.023 A 
ATOM     63  C   UNL A   1      48.168  27.816  27.621  1.00  0.00     0.012 A 
ATOM     64  C   UNL A   1      47.297  27.974  25.354  1.00  0.00     0.148 A 
ATOM     65  C   UNL A   1      49.380  27.334  27.131  1.00  0.00     0.002 A 
ATOM     66  C   UNL A   1      48.492  27.450  24.876  1.00  0.00     0.091 A 
ATOM     67  F   UNL A   1      46.298  28.325  24.532  1.00  0.00    -0.205 F 
ATOM     68  C   UNL A   1      49.538  27.140  25.762  1.00  0.00     0.022 A 
BRANCH  66  69
ATOM     69  S   UNL A   1      48.765  27.086  23.139  1.00  0.00     0.127 S 
ATOM     70  O   UNL A   1      48.116  25.782  23.006  1.00  0.00    -0.237 OA
ATOM     71  O   UNL A   1      48.063  28.187  22.481  1.00  0.00    -0.237 OA
ATOM     72  O   UNL A   1      50.209  27.086  22.951  1.00  0.00    -0.744 OA
ENDBRANCH  66  69
ENDBRANCH  48  62
BRANCH  49  73
ATOM     73  C   UNL A   1      38.396  30.857  30.799  1.00  0.00     0.023 A 
ATOM     74  C   UNL A   1      38.214  30.591  32.171  1.00  0.00     0.012 A 
ATOM     75  C   UNL A   1      37.373  31.511  30.086  1.00  0.00     0.148 A 
ATOM     76  C   UNL A   1      37.024  30.938  32.811  1.00  0.00     0.002 A 
ATOM     77  C   UNL A   1      36.213  31.905  30.743  1.00  0.00     0.091 A 
ATOM     78  F   UNL A   1      37.559  31.745  28.779  1.00  0.00    -0.205 F 
ATOM     79  C   UNL A   1      36.028  31.604  32.100  1.00  0.00     0.022 A 
BRANCH  77  80
ATOM     80  S   UNL A   1      34.939  32.885  29.941  1.00  0.00     0.127 S 
ATOM     81  O   UNL A   1      34.412  31.944  28.956  1.00  0.00    -0.237 OA
ATOM     82  O   UNL A   1      34.037  33.179  31.056  1.00  0.00    -0.237 OA
ATOM     83  O   UNL A   1      35.622  34.052  29.401  1.00  0.00    -0.744 OA
ENDBRANCH  77  80
ENDBRANCH  49  73
BRANCH  61  84
ATOM     84  C   UNL A   1      44.389  34.210  29.534  1.00  0.00     0.023 A 
ATOM     85  C   UNL A   1      45.123  34.462  30.710  1.00  0.00     0.012 A 
ATOM     86  C   UNL A   1      44.173  35.256  28.615  1.00  0.00     0.148 A 
ATOM     87  C   UNL A   1      45.607  35.741  30.982  1.00  0.00     0.002 A 
ATOM     88  C   UNL A   1      44.702  36.515  28.869  1.00  0.00     0.091 A 
ATOM     89  F   UNL A   1      43.459  34.998  27.510  1.00  0.00    -0.205 F 
ATOM     90  C   UNL A   1      45.407  36.764  30.057  1.00  0.00     0.022 A 
BRANCH  88  91
ATOM     91  S   UNL A   1      44.580  37.869  27.694  1.00  0.00     0.127 S 
ATOM     92  O   UNL A   1      44.720  39.034  28.567  1.00  0.00    -0.237 OA
ATOM     93  O   UNL A   1      45.724  37.622  26.817  1.00  0.00    -0.237 OA
ATOM     94  O   UNL A   1      43.280  37.729  27.051  1.00  0.00    -0.744 OA
ENDBRANCH  88  91
ENDBRANCH  61  84
ENDBRANCH  35  36
ENDBRANCH  27  30
ENDBRANCH  25  26
ENDBRANCH  24  25
ENDBRANCH   1  24
TORSDOF 18
ENDMDL
