MODEL 1
REMARK VINA RESULT:     -10.7      0.000      0.000
REMARK SMILES C=CCN(CC(=O)NCCCCNC(=O)c1ccc(-c2c3nc(c(-c4cccc(S(=O)(=O)[O-])c4F)c4ccc([nH]4)c(-c4cccc(S(=O)(=O)[O-])c4F)c4nc(c(-c5cccc(S(=O)(=O)[O-])c5F)c5ccc2[nH]5)C=C4)C=C3)cc1)C(=O)/C=C/c1ccc(OC)cc1
REMARK SMILES IDX 9 1 8 2 6 3 7 4 5 6 4 7 3 8 2 9 1 10 79 11 80 12 81 13 82 14
REMARK SMILES IDX 83 15 84 16 90 17 85 18 89 19 86 20 87 21 88 22 10 23 11 24
REMARK SMILES IDX 12 25 13 26 14 27 15 29 16 30 17 31 78 32 18 33 77 34 19 35
REMARK SMILES IDX 20 36 21 37 71 38 22 39 76 40 70 41 72 42 23 43 75 44 69 45
REMARK SMILES IDX 68 46 24 48 56 49 36 50 55 51 37 52 40 53 54 54 73 55 38 56
REMARK SMILES IDX 39 57 53 59 74 60 41 61 25 62 26 63 34 64 27 65 29 66 35 67
REMARK SMILES IDX 28 68 30 69 31 70 32 71 33 72 57 73 58 74 66 75 59 76 61 77
REMARK SMILES IDX 67 78 60 79 62 80 63 81 64 82 65 83 42 84 43 85 51 86 44 87
REMARK SMILES IDX 46 88 52 89 45 90 47 91 48 92 49 93 50 94
REMARK H PARENT 8 5 13 28 72 47 40 58
REMARK Flexibility Score: inf
ROOT
ATOM      1  C   UNL A   1      35.652  21.158  25.118  1.00  0.00     0.116 C 
ENDROOT
BRANCH   1   2
ATOM      2  N   UNL A   1      35.389  21.562  26.480  1.00  0.00    -0.355 N 
ATOM      3  C   UNL A   1      34.400  22.374  26.951  1.00  0.00     0.239 C 
ATOM      4  O   UNL A   1      34.130  22.309  28.154  1.00  0.00    -0.273 OA
ATOM      5  H   UNL A   1      36.007  21.205  27.157  1.00  0.00     0.163 HD
BRANCH   3   6
ATOM      6  C   UNL A   1      33.541  23.226  26.004  1.00  0.00     0.220 C 
BRANCH   6   7
ATOM      7  N   UNL A   1      32.118  22.869  25.918  1.00  0.00    -0.326 N 
BRANCH   7   8
ATOM      8  C   UNL A   1      31.774  21.649  25.190  1.00  0.00     0.147 C 
BRANCH   8   9
ATOM      9  C   UNL A   1      32.304  21.673  23.789  1.00  0.00    -0.014 C 
ATOM     10  C   UNL A   1      31.875  22.548  22.868  1.00  0.00     0.006 C 
ENDBRANCH   8   9
ENDBRANCH   7   8
BRANCH   7  11
ATOM     11  C   UNL A   1      31.073  23.616  26.447  1.00  0.00     0.247 C 
ATOM     12  O   UNL A   1      30.519  23.312  27.506  1.00  0.00    -0.270 OA
BRANCH  11  13
ATOM     13  C   UNL A   1      30.472  24.751  25.694  1.00  0.00     0.072 C 
ATOM     14  C   UNL A   1      31.097  25.617  24.884  1.00  0.00     0.014 C 
BRANCH  14  15
ATOM     15  C   UNL A   1      30.389  26.737  24.259  1.00  0.00    -0.025 A 
ATOM     16  C   UNL A   1      31.016  27.971  24.070  1.00  0.00     0.012 A 
ATOM     17  C   UNL A   1      29.056  26.584  23.870  1.00  0.00     0.012 A 
ATOM     18  C   UNL A   1      30.303  29.044  23.522  1.00  0.00     0.047 A 
ATOM     19  C   UNL A   1      28.344  27.659  23.323  1.00  0.00     0.047 A 
ATOM     20  C   UNL A   1      28.963  28.898  23.156  1.00  0.00     0.118 A 
BRANCH  20  21
ATOM     21  O   UNL A   1      28.375  30.031  22.665  1.00  0.00    -0.497 OA
ATOM     22  C   UNL A   1      28.958  30.607  21.504  1.00  0.00     0.278 C 
ENDBRANCH  20  21
ENDBRANCH  14  15
ENDBRANCH  11  13
ENDBRANCH   7  11
ENDBRANCH   6   7
ENDBRANCH   3   6
ENDBRANCH   1   2
BRANCH   1  23
ATOM     23  C   UNL A   1      37.111  21.332  24.708  1.00  0.00     0.023 C 
BRANCH  23  24
ATOM     24  C   UNL A   1      38.010  20.124  24.976  1.00  0.00     0.023 C 
BRANCH  24  25
ATOM     25  C   UNL A   1      39.166  20.361  25.941  1.00  0.00     0.116 C 
BRANCH  25  26
ATOM     26  N   UNL A   1      40.158  19.295  25.936  1.00  0.00    -0.352 N 
ATOM     27  C   UNL A   1      41.516  19.387  26.123  1.00  0.00     0.251 C 
ATOM     28  H   UNL A   1      39.809  18.388  25.778  1.00  0.00     0.163 HD
ATOM     29  O   UNL A   1      42.222  18.389  26.006  1.00  0.00    -0.269 OA
BRANCH  27  30
ATOM     30  C   UNL A   1      42.123  20.701  26.422  1.00  0.00     0.039 A 
ATOM     31  C   UNL A   1      42.451  21.548  25.360  1.00  0.00     0.014 A 
ATOM     32  C   UNL A   1      42.329  21.111  27.741  1.00  0.00     0.014 A 
ATOM     33  C   UNL A   1      42.922  22.836  25.625  1.00  0.00     0.010 A 
ATOM     34  C   UNL A   1      42.731  22.417  28.002  1.00  0.00     0.010 A 
ATOM     35  C   UNL A   1      43.029  23.294  26.947  1.00  0.00    -0.014 A 
BRANCH  35  36
ATOM     36  C   UNL A   1      43.431  24.690  27.252  1.00  0.00     0.031 A 
ATOM     37  C   UNL A   1      42.438  25.655  27.839  1.00  0.00     0.074 A 
ATOM     38  C   UNL A   1      44.664  25.116  26.911  1.00  0.00     0.049 A 
ATOM     39  N   UNL A   1      42.584  26.925  28.110  1.00  0.00    -0.248 NA
ATOM     40  C   UNL A   1      41.093  25.131  28.132  1.00  0.00     0.031 C 
ATOM     41  C   UNL A   1      45.691  24.300  26.259  1.00  0.00     0.029 A 
ATOM     42  N   UNL A   1      45.253  26.349  27.038  1.00  0.00    -0.354 N 
ATOM     43  C   UNL A   1      41.348  27.361  28.571  1.00  0.00     0.074 A 
ATOM     44  C   UNL A   1      40.452  26.227  28.510  1.00  0.00     0.031 C 
ATOM     45  C   UNL A   1      46.782  25.053  26.046  1.00  0.00     0.029 A 
ATOM     46  C   UNL A   1      46.527  26.409  26.520  1.00  0.00     0.049 A 
ATOM     47  H   UNL A   1      44.806  27.119  27.458  1.00  0.00     0.167 HD
ATOM     48  C   UNL A   1      40.997  28.585  29.033  1.00  0.00     0.034 A 
ATOM     49  C   UNL A   1      47.390  27.440  26.436  1.00  0.00     0.034 A 
ATOM     50  C   UNL A   1      41.904  29.696  29.138  1.00  0.00     0.049 A 
ATOM     51  C   UNL A   1      46.992  28.776  27.002  1.00  0.00     0.074 A 
ATOM     52  C   UNL A   1      41.669  30.948  29.678  1.00  0.00     0.029 A 
ATOM     53  N   UNL A   1      43.216  29.691  28.695  1.00  0.00    -0.354 N 
ATOM     54  N   UNL A   1      45.870  29.123  27.585  1.00  0.00    -0.248 NA
ATOM     55  C   UNL A   1      47.990  29.852  26.934  1.00  0.00     0.031 C 
ATOM     56  C   UNL A   1      42.838  31.706  29.547  1.00  0.00     0.029 A 
ATOM     57  C   UNL A   1      43.806  30.919  28.944  1.00  0.00     0.049 A 
ATOM     58  H   UNL A   1      43.665  28.927  28.266  1.00  0.00     0.167 HD
ATOM     59  C   UNL A   1      46.040  30.443  27.985  1.00  0.00     0.074 A 
ATOM     60  C   UNL A   1      47.382  30.827  27.597  1.00  0.00     0.031 C 
ATOM     61  C   UNL A   1      45.161  31.268  28.605  1.00  0.00     0.034 A 
BRANCH  48  62
ATOM     62  C   UNL A   1      39.584  28.769  29.521  1.00  0.00     0.023 A 
ATOM     63  C   UNL A   1      39.251  28.378  30.836  1.00  0.00     0.012 A 
ATOM     64  C   UNL A   1      38.603  29.373  28.712  1.00  0.00     0.148 A 
ATOM     65  C   UNL A   1      37.959  28.554  31.324  1.00  0.00     0.002 A 
ATOM     66  C   UNL A   1      37.326  29.585  29.221  1.00  0.00     0.091 A 
ATOM     67  F   UNL A   1      38.931  29.718  27.458  1.00  0.00    -0.205 F 
ATOM     68  C   UNL A   1      37.000  29.166  30.521  1.00  0.00     0.022 A 
BRANCH  66  69
ATOM     69  S   UNL A   1      36.044  30.435  28.294  1.00  0.00     0.127 S 
ATOM     70  O   UNL A   1      35.022  30.634  29.322  1.00  0.00    -0.237 OA
ATOM     71  O   UNL A   1      36.727  31.657  27.870  1.00  0.00    -0.237 OA
ATOM     72  O   UNL A   1      35.674  29.538  27.208  1.00  0.00    -0.744 OA
ENDBRANCH  66  69
ENDBRANCH  48  62
BRANCH  49  73
ATOM     73  C   UNL A   1      48.748  27.228  25.859  1.00  0.00     0.023 A 
ATOM     74  C   UNL A   1      49.781  26.751  26.691  1.00  0.00     0.012 A 
ATOM     75  C   UNL A   1      49.017  27.463  24.498  1.00  0.00     0.148 A 
ATOM     76  C   UNL A   1      51.064  26.542  26.185  1.00  0.00     0.002 A 
ATOM     77  C   UNL A   1      50.284  27.201  23.988  1.00  0.00     0.091 A 
ATOM     78  F   UNL A   1      48.025  27.928  23.724  1.00  0.00    -0.205 F 
ATOM     79  C   UNL A   1      51.313  26.757  24.832  1.00  0.00     0.022 A 
BRANCH  77  80
ATOM     80  S   UNL A   1      50.659  27.325  22.235  1.00  0.00     0.127 S 
ATOM     81  O   UNL A   1      49.588  26.528  21.643  1.00  0.00    -0.237 OA
ATOM     82  O   UNL A   1      50.556  28.767  22.003  1.00  0.00    -0.237 OA
ATOM     83  O   UNL A   1      52.007  26.790  22.086  1.00  0.00    -0.744 OA
ENDBRANCH  77  80
ENDBRANCH  49  73
BRANCH  61  84
ATOM     84  C   UNL A   1      45.624  32.662  28.936  1.00  0.00     0.023 A 
ATOM     85  C   UNL A   1      46.323  32.899  30.136  1.00  0.00     0.012 A 
ATOM     86  C   UNL A   1      45.437  33.719  28.024  1.00  0.00     0.148 A 
ATOM     87  C   UNL A   1      46.803  34.174  30.436  1.00  0.00     0.002 A 
ATOM     88  C   UNL A   1      45.960  34.975  28.307  1.00  0.00     0.091 A 
ATOM     89  F   UNL A   1      44.752  33.478  26.896  1.00  0.00    -0.205 F 
ATOM     90  C   UNL A   1      46.633  35.207  29.517  1.00  0.00     0.022 A 
BRANCH  88  91
ATOM     91  S   UNL A   1      45.870  36.339  27.141  1.00  0.00     0.127 S 
ATOM     92  O   UNL A   1      44.432  36.429  26.897  1.00  0.00    -0.237 OA
ATOM     93  O   UNL A   1      46.428  37.448  27.915  1.00  0.00    -0.237 OA
ATOM     94  O   UNL A   1      46.676  35.939  25.996  1.00  0.00    -0.744 OA
ENDBRANCH  88  91
ENDBRANCH  61  84
ENDBRANCH  35  36
ENDBRANCH  27  30
ENDBRANCH  25  26
ENDBRANCH  24  25
ENDBRANCH  23  24
ENDBRANCH   1  23
TORSDOF 21
ENDMDL
MODEL 2
REMARK VINA RESULT:     -10.1      1.961      7.872
REMARK SMILES C=CCN(CC(=O)NCCCCNC(=O)c1ccc(-c2c3nc(c(-c4cccc(S(=O)(=O)[O-])c4F)c4ccc([nH]4)c(-c4cccc(S(=O)(=O)[O-])c4F)c4nc(c(-c5cccc(S(=O)(=O)[O-])c5F)c5ccc2[nH]5)C=C4)C=C3)cc1)C(=O)/C=C/c1ccc(OC)cc1
REMARK SMILES IDX 9 1 8 2 6 3 7 4 5 6 4 7 3 8 2 9 1 10 79 11 80 12 81 13 82 14
REMARK SMILES IDX 83 15 84 16 90 17 85 18 89 19 86 20 87 21 88 22 10 23 11 24
REMARK SMILES IDX 12 25 13 26 14 27 15 29 16 30 17 31 78 32 18 33 77 34 19 35
REMARK SMILES IDX 20 36 21 37 71 38 22 39 76 40 70 41 72 42 23 43 75 44 69 45
REMARK SMILES IDX 68 46 24 48 56 49 36 50 55 51 37 52 40 53 54 54 73 55 38 56
REMARK SMILES IDX 39 57 53 59 74 60 41 61 25 62 26 63 34 64 27 65 29 66 35 67
REMARK SMILES IDX 28 68 30 69 31 70 32 71 33 72 57 73 58 74 66 75 59 76 61 77
REMARK SMILES IDX 67 78 60 79 62 80 63 81 64 82 65 83 42 84 43 85 51 86 44 87
REMARK SMILES IDX 46 88 52 89 45 90 47 91 48 92 49 93 50 94
REMARK H PARENT 8 5 13 28 72 47 40 58
REMARK Flexibility Score: inf
ROOT
ATOM      1  C   UNL A   1      34.526  22.492  23.761  1.00  0.00     0.116 C 
ENDROOT
BRANCH   1   2
ATOM      2  N   UNL A   1      34.028  22.395  25.114  1.00  0.00    -0.355 N 
ATOM      3  C   UNL A   1      33.222  23.263  25.790  1.00  0.00     0.239 C 
ATOM      4  O   UNL A   1      32.627  22.837  26.784  1.00  0.00    -0.273 OA
ATOM      5  H   UNL A   1      34.310  21.596  25.616  1.00  0.00     0.163 HD
BRANCH   3   6
ATOM      6  C   UNL A   1      32.933  24.673  25.253  1.00  0.00     0.220 C 
BRANCH   6   7
ATOM      7  N   UNL A   1      31.579  24.906  24.731  1.00  0.00    -0.326 N 
BRANCH   7   8
ATOM      8  C   UNL A   1      31.236  24.286  23.452  1.00  0.00     0.147 C 
BRANCH   8   9
ATOM      9  C   UNL A   1      32.194  24.682  22.371  1.00  0.00    -0.014 C 
ATOM     10  C   UNL A   1      32.250  25.926  21.873  1.00  0.00     0.006 C 
ENDBRANCH   8   9
ENDBRANCH   7   8
BRANCH   7  11
ATOM     11  C   UNL A   1      30.611  25.693  25.342  1.00  0.00     0.247 C 
ATOM     12  O   UNL A   1      30.036  25.343  26.375  1.00  0.00    -0.270 OA
BRANCH  11  13
ATOM     13  C   UNL A   1      30.115  26.945  24.706  1.00  0.00     0.072 C 
ATOM     14  C   UNL A   1      29.356  27.059  23.607  1.00  0.00     0.014 C 
BRANCH  14  15
ATOM     15  C   UNL A   1      28.999  28.365  23.049  1.00  0.00    -0.025 A 
ATOM     16  C   UNL A   1      29.935  29.132  22.353  1.00  0.00     0.012 A 
ATOM     17  C   UNL A   1      27.709  28.870  23.237  1.00  0.00     0.012 A 
ATOM     18  C   UNL A   1      29.590  30.402  21.877  1.00  0.00     0.047 A 
ATOM     19  C   UNL A   1      27.365  30.142  22.760  1.00  0.00     0.047 A 
ATOM     20  C   UNL A   1      28.308  30.918  22.086  1.00  0.00     0.118 A 
BRANCH  20  21
ATOM     21  O   UNL A   1      28.110  32.181  21.599  1.00  0.00    -0.497 OA
ATOM     22  C   UNL A   1      27.899  32.304  20.199  1.00  0.00     0.278 C 
ENDBRANCH  20  21
ENDBRANCH  14  15
ENDBRANCH  11  13
ENDBRANCH   7  11
ENDBRANCH   6   7
ENDBRANCH   3   6
ENDBRANCH   1   2
BRANCH   1  23
ATOM     23  C   UNL A   1      36.039  22.666  23.687  1.00  0.00     0.023 C 
BRANCH  23  24
ATOM     24  C   UNL A   1      36.855  21.570  24.374  1.00  0.00     0.023 C 
BRANCH  24  25
ATOM     25  C   UNL A   1      37.793  22.038  25.480  1.00  0.00     0.116 C 
BRANCH  25  26
ATOM     26  N   UNL A   1      38.819  21.065  25.826  1.00  0.00    -0.352 N 
ATOM     27  C   UNL A   1      39.998  21.265  26.503  1.00  0.00     0.251 C 
ATOM     28  H   UNL A   1      38.644  20.139  25.537  1.00  0.00     0.163 HD
ATOM     29  O   UNL A   1      40.794  20.340  26.640  1.00  0.00    -0.269 OA
BRANCH  27  30
ATOM     30  C   UNL A   1      40.318  22.611  27.024  1.00  0.00     0.039 A 
ATOM     31  C   UNL A   1      41.285  22.732  28.025  1.00  0.00     0.014 A 
ATOM     32  C   UNL A   1      39.697  23.748  26.501  1.00  0.00     0.014 A 
ATOM     33  C   UNL A   1      41.681  24.002  28.452  1.00  0.00     0.010 A 
ATOM     34  C   UNL A   1      40.142  25.011  26.878  1.00  0.00     0.010 A 
ATOM     35  C   UNL A   1      41.140  25.151  27.855  1.00  0.00    -0.014 A 
BRANCH  35  36
ATOM     36  C   UNL A   1      41.616  26.509  28.221  1.00  0.00     0.031 A 
ATOM     37  C   UNL A   1      43.075  26.857  28.114  1.00  0.00     0.074 A 
ATOM     38  C   UNL A   1      40.747  27.400  28.741  1.00  0.00     0.049 A 
ATOM     39  N   UNL A   1      43.685  27.964  28.447  1.00  0.00    -0.248 NA
ATOM     40  C   UNL A   1      43.972  25.812  27.590  1.00  0.00     0.031 C 
ATOM     41  C   UNL A   1      39.321  27.154  28.974  1.00  0.00     0.029 A 
ATOM     42  N   UNL A   1      40.940  28.680  29.195  1.00  0.00    -0.354 N 
ATOM     43  C   UNL A   1      45.035  27.740  28.209  1.00  0.00     0.074 A 
ATOM     44  C   UNL A   1      45.161  26.379  27.734  1.00  0.00     0.031 C 
ATOM     45  C   UNL A   1      38.771  28.248  29.524  1.00  0.00     0.029 A 
ATOM     46  C   UNL A   1      39.804  29.262  29.708  1.00  0.00     0.049 A 
ATOM     47  H   UNL A   1      41.811  29.139  29.158  1.00  0.00     0.167 HD
ATOM     48  C   UNL A   1      46.075  28.598  28.342  1.00  0.00     0.034 A 
ATOM     49  C   UNL A   1      39.616  30.475  30.265  1.00  0.00     0.034 A 
ATOM     50  C   UNL A   1      45.940  29.966  28.767  1.00  0.00     0.049 A 
ATOM     51  C   UNL A   1      40.778  31.427  30.355  1.00  0.00     0.074 A 
ATOM     52  C   UNL A   1      46.918  30.942  28.846  1.00  0.00     0.029 A 
ATOM     53  N   UNL A   1      44.756  30.552  29.185  1.00  0.00    -0.354 N 
ATOM     54  N   UNL A   1      42.020  31.251  29.969  1.00  0.00    -0.248 NA
ATOM     55  C   UNL A   1      40.508  32.756  30.920  1.00  0.00     0.031 C 
ATOM     56  C   UNL A   1      46.327  32.115  29.326  1.00  0.00     0.029 A 
ATOM     57  C   UNL A   1      44.977  31.875  29.528  1.00  0.00     0.049 A 
ATOM     58  H   UNL A   1      43.886  30.095  29.231  1.00  0.00     0.167 HD
ATOM     59  C   UNL A   1      42.668  32.457  30.211  1.00  0.00     0.074 A 
ATOM     60  C   UNL A   1      41.677  33.362  30.757  1.00  0.00     0.031 C 
ATOM     61  C   UNL A   1      43.969  32.781  30.014  1.00  0.00     0.034 A 
BRANCH  48  62
ATOM     62  C   UNL A   1      47.445  28.102  27.962  1.00  0.00     0.023 A 
ATOM     63  C   UNL A   1      48.249  27.478  28.939  1.00  0.00     0.012 A 
ATOM     64  C   UNL A   1      47.916  28.198  26.639  1.00  0.00     0.148 A 
ATOM     65  C   UNL A   1      49.512  26.989  28.614  1.00  0.00     0.002 A 
ATOM     66  C   UNL A   1      49.160  27.670  26.312  1.00  0.00     0.091 A 
ATOM     67  F   UNL A   1      47.148  28.813  25.728  1.00  0.00    -0.205 F 
ATOM     68  C   UNL A   1      49.964  27.076  27.300  1.00  0.00     0.022 A 
BRANCH  66  69
ATOM     69  S   UNL A   1      49.798  27.662  24.633  1.00  0.00     0.127 S 
ATOM     70  O   UNL A   1      50.622  28.870  24.625  1.00  0.00    -0.237 OA
ATOM     71  O   UNL A   1      50.553  26.409  24.594  1.00  0.00    -0.237 OA
ATOM     72  O   UNL A   1      48.632  27.694  23.762  1.00  0.00    -0.744 OA
ENDBRANCH  66  69
ENDBRANCH  48  62
BRANCH  49  73
ATOM     73  C   UNL A   1      38.254  30.887  30.710  1.00  0.00     0.023 A 
ATOM     74  C   UNL A   1      37.839  30.582  32.021  1.00  0.00     0.012 A 
ATOM     75  C   UNL A   1      37.385  31.598  29.862  1.00  0.00     0.148 A 
ATOM     76  C   UNL A   1      36.570  30.951  32.470  1.00  0.00     0.002 A 
ATOM     77  C   UNL A   1      36.143  32.010  30.333  1.00  0.00     0.091 A 
ATOM     78  F   UNL A   1      37.794  31.869  28.613  1.00  0.00    -0.205 F 
ATOM     79  C   UNL A   1      35.726  31.674  31.630  1.00  0.00     0.022 A 
BRANCH  77  80
ATOM     80  S   UNL A   1      35.047  33.055  29.366  1.00  0.00     0.127 S 
ATOM     81  O   UNL A   1      34.600  32.136  28.322  1.00  0.00    -0.237 OA
ATOM     82  O   UNL A   1      34.024  33.414  30.350  1.00  0.00    -0.237 OA
ATOM     83  O   UNL A   1      35.867  34.174  28.920  1.00  0.00    -0.744 OA
ENDBRANCH  77  80
ENDBRANCH  49  73
BRANCH  61  84
ATOM     84  C   UNL A   1      44.400  34.183  30.356  1.00  0.00     0.023 A 
ATOM     85  C   UNL A   1      44.955  34.454  31.622  1.00  0.00     0.012 A 
ATOM     86  C   UNL A   1      44.331  35.212  29.397  1.00  0.00     0.148 A 
ATOM     87  C   UNL A   1      45.407  35.735  31.939  1.00  0.00     0.002 A 
ATOM     88  C   UNL A   1      44.826  36.473  29.702  1.00  0.00     0.091 A 
ATOM     89  F   UNL A   1      43.781  34.939  28.204  1.00  0.00    -0.205 F 
ATOM     90  C   UNL A   1      45.354  36.740  30.976  1.00  0.00     0.022 A 
BRANCH  88  91
ATOM     91  S   UNL A   1      44.884  37.801  28.494  1.00  0.00     0.127 S 
ATOM     92  O   UNL A   1      45.944  37.344  27.597  1.00  0.00    -0.237 OA
ATOM     93  O   UNL A   1      43.539  37.760  27.919  1.00  0.00    -0.237 OA
ATOM     94  O   UNL A   1      45.180  39.014  29.246  1.00  0.00    -0.744 OA
ENDBRANCH  88  91
ENDBRANCH  61  84
ENDBRANCH  35  36
ENDBRANCH  27  30
ENDBRANCH  25  26
ENDBRANCH  24  25
ENDBRANCH  23  24
ENDBRANCH   1  23
TORSDOF 21
ENDMDL
MODEL 3
REMARK VINA RESULT:      -9.7      3.252      4.325
REMARK SMILES C=CCN(CC(=O)NCCCCNC(=O)c1ccc(-c2c3nc(c(-c4cccc(S(=O)(=O)[O-])c4F)c4ccc([nH]4)c(-c4cccc(S(=O)(=O)[O-])c4F)c4nc(c(-c5cccc(S(=O)(=O)[O-])c5F)c5ccc2[nH]5)C=C4)C=C3)cc1)C(=O)/C=C/c1ccc(OC)cc1
REMARK SMILES IDX 9 1 8 2 6 3 7 4 5 6 4 7 3 8 2 9 1 10 79 11 80 12 81 13 82 14
REMARK SMILES IDX 83 15 84 16 90 17 85 18 89 19 86 20 87 21 88 22 10 23 11 24
REMARK SMILES IDX 12 25 13 26 14 27 15 29 16 30 17 31 78 32 18 33 77 34 19 35
REMARK SMILES IDX 20 36 21 37 71 38 22 39 76 40 70 41 72 42 23 43 75 44 69 45
REMARK SMILES IDX 68 46 24 48 56 49 36 50 55 51 37 52 40 53 54 54 73 55 38 56
REMARK SMILES IDX 39 57 53 59 74 60 41 61 25 62 26 63 34 64 27 65 29 66 35 67
REMARK SMILES IDX 28 68 30 69 31 70 32 71 33 72 57 73 58 74 66 75 59 76 61 77
REMARK SMILES IDX 67 78 60 79 62 80 63 81 64 82 65 83 42 84 43 85 51 86 44 87
REMARK SMILES IDX 46 88 52 89 45 90 47 91 48 92 49 93 50 94
REMARK H PARENT 8 5 13 28 72 47 40 58
REMARK Flexibility Score: inf
ROOT
ATOM      1  C   UNL A   1      35.013  22.972  23.215  1.00  0.00     0.116 C 
ENDROOT
BRANCH   1   2
ATOM      2  N   UNL A   1      34.054  22.810  24.283  1.00  0.00    -0.355 N 
ATOM      3  C   UNL A   1      33.500  23.765  25.083  1.00  0.00     0.239 C 
ATOM      4  O   UNL A   1      32.456  23.481  25.678  1.00  0.00    -0.273 OA
ATOM      5  H   UNL A   1      33.761  21.886  24.457  1.00  0.00     0.163 HD
BRANCH   3   6
ATOM      6  C   UNL A   1      34.058  25.197  25.128  1.00  0.00     0.220 C 
BRANCH   6   7
ATOM      7  N   UNL A   1      33.186  26.251  24.593  1.00  0.00    -0.326 N 
BRANCH   7   8
ATOM      8  C   UNL A   1      33.354  26.613  23.186  1.00  0.00     0.147 C 
BRANCH   8   9
ATOM      9  C   UNL A   1      32.668  25.638  22.279  1.00  0.00    -0.014 C 
ATOM     10  C   UNL A   1      32.533  25.846  20.961  1.00  0.00     0.006 C 
ENDBRANCH   8   9
ENDBRANCH   7   8
BRANCH   7  11
ATOM     11  C   UNL A   1      32.236  26.952  25.326  1.00  0.00     0.247 C 
ATOM     12  O   UNL A   1      31.919  26.625  26.472  1.00  0.00    -0.270 OA
BRANCH  11  13
ATOM     13  C   UNL A   1      31.448  28.059  24.717  1.00  0.00     0.072 C 
ATOM     14  C   UNL A   1      30.268  27.971  24.086  1.00  0.00     0.014 C 
BRANCH  14  15
ATOM     15  C   UNL A   1      29.636  29.139  23.468  1.00  0.00    -0.025 A 
ATOM     16  C   UNL A   1      29.855  30.425  23.967  1.00  0.00     0.012 A 
ATOM     17  C   UNL A   1      28.776  28.967  22.380  1.00  0.00     0.012 A 
ATOM     18  C   UNL A   1      29.197  31.521  23.397  1.00  0.00     0.047 A 
ATOM     19  C   UNL A   1      28.117  30.065  21.811  1.00  0.00     0.047 A 
ATOM     20  C   UNL A   1      28.317  31.347  22.325  1.00  0.00     0.118 A 
BRANCH  20  21
ATOM     21  O   UNL A   1      27.716  32.493  21.884  1.00  0.00    -0.497 OA
ATOM     22  C   UNL A   1      27.751  32.741  20.485  1.00  0.00     0.278 C 
ENDBRANCH  20  21
ENDBRANCH  14  15
ENDBRANCH  11  13
ENDBRANCH   7  11
ENDBRANCH   6   7
ENDBRANCH   3   6
ENDBRANCH   1   2
BRANCH   1  23
ATOM     23  C   UNL A   1      36.451  23.086  23.710  1.00  0.00     0.023 C 
BRANCH  23  24
ATOM     24  C   UNL A   1      36.741  22.384  25.037  1.00  0.00     0.023 C 
BRANCH  24  25
ATOM     25  C   UNL A   1      37.850  22.999  25.884  1.00  0.00     0.116 C 
BRANCH  25  26
ATOM     26  N   UNL A   1      39.117  22.289  25.790  1.00  0.00    -0.352 N 
ATOM     27  C   UNL A   1      40.373  22.726  26.136  1.00  0.00     0.251 C 
ATOM     28  H   UNL A   1      39.068  21.373  25.431  1.00  0.00     0.163 HD
ATOM     29  O   UNL A   1      41.353  22.021  25.914  1.00  0.00    -0.269 OA
BRANCH  27  30
ATOM     30  C   UNL A   1      40.537  24.067  26.735  1.00  0.00     0.039 A 
ATOM     31  C   UNL A   1      40.706  24.170  28.118  1.00  0.00     0.014 A 
ATOM     32  C   UNL A   1      40.563  25.212  25.934  1.00  0.00     0.014 A 
ATOM     33  C   UNL A   1      40.973  25.416  28.691  1.00  0.00     0.010 A 
ATOM     34  C   UNL A   1      40.897  26.439  26.497  1.00  0.00     0.010 A 
ATOM     35  C   UNL A   1      41.108  26.554  27.880  1.00  0.00    -0.014 A 
BRANCH  35  36
ATOM     36  C   UNL A   1      41.489  27.870  28.452  1.00  0.00     0.031 A 
ATOM     37  C   UNL A   1      40.432  28.821  28.940  1.00  0.00     0.074 A 
ATOM     38  C   UNL A   1      42.784  28.248  28.444  1.00  0.00     0.049 A 
ATOM     39  N   UNL A   1      40.566  30.033  29.409  1.00  0.00    -0.248 NA
ATOM     40  C   UNL A   1      39.035  28.358  28.865  1.00  0.00     0.031 C 
ATOM     41  C   UNL A   1      43.895  27.450  27.920  1.00  0.00     0.029 A 
ATOM     42  N   UNL A   1      43.380  29.411  28.861  1.00  0.00    -0.354 N 
ATOM     43  C   UNL A   1      39.277  30.493  29.649  1.00  0.00     0.074 A 
ATOM     44  C   UNL A   1      38.371  29.441  29.244  1.00  0.00     0.031 C 
ATOM     45  C   UNL A   1      45.036  28.146  28.050  1.00  0.00     0.029 A 
ATOM     46  C   UNL A   1      44.738  29.447  28.641  1.00  0.00     0.049 A 
ATOM     47  H   UNL A   1      42.883  30.151  29.278  1.00  0.00     0.167 HD
ATOM     48  C   UNL A   1      38.883  31.671  30.189  1.00  0.00     0.034 A 
ATOM     49  C   UNL A   1      45.640  30.418  28.885  1.00  0.00     0.034 A 
ATOM     50  C   UNL A   1      39.789  32.695  30.638  1.00  0.00     0.049 A 
ATOM     51  C   UNL A   1      45.181  31.697  29.531  1.00  0.00     0.074 A 
ATOM     52  C   UNL A   1      39.492  33.883  31.281  1.00  0.00     0.029 A 
ATOM     53  N   UNL A   1      41.165  32.654  30.488  1.00  0.00    -0.354 N 
ATOM     54  N   UNL A   1      43.973  32.045  29.903  1.00  0.00    -0.248 NA
ATOM     55  C   UNL A   1      46.213  32.700  29.826  1.00  0.00     0.031 C 
ATOM     56  C   UNL A   1      40.691  34.568  31.508  1.00  0.00     0.029 A 
ATOM     57  C   UNL A   1      41.735  33.797  31.023  1.00  0.00     0.049 A 
ATOM     58  H   UNL A   1      41.666  31.920  30.065  1.00  0.00     0.167 HD
ATOM     59  C   UNL A   1      44.105  33.290  30.508  1.00  0.00     0.074 A 
ATOM     60  C   UNL A   1      45.513  33.625  30.471  1.00  0.00     0.031 C 
ATOM     61  C   UNL A   1      43.145  34.090  31.032  1.00  0.00     0.034 A 
BRANCH  48  62
ATOM     62  C   UNL A   1      37.406  31.891  30.386  1.00  0.00     0.023 A 
ATOM     63  C   UNL A   1      36.829  31.622  31.645  1.00  0.00     0.012 A 
ATOM     64  C   UNL A   1      36.601  32.409  29.355  1.00  0.00     0.148 A 
ATOM     65  C   UNL A   1      35.470  31.835  31.865  1.00  0.00     0.002 A 
ATOM     66  C   UNL A   1      35.253  32.660  29.593  1.00  0.00     0.091 A 
ATOM     67  F   UNL A   1      37.161  32.638  28.157  1.00  0.00    -0.205 F 
ATOM     68  C   UNL A   1      34.685  32.363  30.843  1.00  0.00     0.022 A 
BRANCH  66  69
ATOM     69  S   UNL A   1      34.176  33.410  28.368  1.00  0.00     0.127 S 
ATOM     70  O   UNL A   1      33.656  32.233  27.673  1.00  0.00    -0.237 OA
ATOM     71  O   UNL A   1      33.196  34.107  29.203  1.00  0.00    -0.237 OA
ATOM     72  O   UNL A   1      35.024  34.284  27.570  1.00  0.00    -0.744 OA
ENDBRANCH  66  69
ENDBRANCH  48  62
BRANCH  49  73
ATOM     73  C   UNL A   1      47.082  30.185  28.588  1.00  0.00     0.023 A 
ATOM     74  C   UNL A   1      47.617  30.652  27.371  1.00  0.00     0.012 A 
ATOM     75  C   UNL A   1      47.929  29.537  29.506  1.00  0.00     0.148 A 
ATOM     76  C   UNL A   1      48.962  30.450  27.060  1.00  0.00     0.002 A 
ATOM     77  C   UNL A   1      49.281  29.386  29.214  1.00  0.00     0.091 A 
ATOM     78  F   UNL A   1      47.399  29.089  30.654  1.00  0.00    -0.205 F 
ATOM     79  C   UNL A   1      49.796  29.827  27.985  1.00  0.00     0.022 A 
BRANCH  77  80
ATOM     80  S   UNL A   1      50.451  28.714  30.398  1.00  0.00     0.127 S 
ATOM     81  O   UNL A   1      49.997  27.331  30.517  1.00  0.00    -0.237 OA
ATOM     82  O   UNL A   1      51.725  28.887  29.699  1.00  0.00    -0.237 OA
ATOM     83  O   UNL A   1      50.311  29.534  31.595  1.00  0.00    -0.744 OA
ENDBRANCH  77  80
ENDBRANCH  49  73
BRANCH  61  84
ATOM     84  C   UNL A   1      43.579  35.396  31.643  1.00  0.00     0.023 A 
ATOM     85  C   UNL A   1      43.903  35.453  33.013  1.00  0.00     0.012 A 
ATOM     86  C   UNL A   1      43.743  36.545  30.845  1.00  0.00     0.148 A 
ATOM     87  C   UNL A   1      44.356  36.642  33.585  1.00  0.00     0.002 A 
ATOM     88  C   UNL A   1      44.240  37.712  31.411  1.00  0.00     0.091 A 
ATOM     89  F   UNL A   1      43.411  36.476  29.548  1.00  0.00    -0.205 F 
ATOM     90  C   UNL A   1      44.536  37.766  32.783  1.00  0.00     0.022 A 
BRANCH  88  91
ATOM     91  S   UNL A   1      44.593  39.179  30.436  1.00  0.00     0.127 S 
ATOM     92  O   UNL A   1      43.260  39.559  29.974  1.00  0.00    -0.237 OA
ATOM     93  O   UNL A   1      45.174  40.083  31.430  1.00  0.00    -0.237 OA
ATOM     94  O   UNL A   1      45.520  38.754  29.395  1.00  0.00    -0.744 OA
ENDBRANCH  88  91
ENDBRANCH  61  84
ENDBRANCH  35  36
ENDBRANCH  27  30
ENDBRANCH  25  26
ENDBRANCH  24  25
ENDBRANCH  23  24
ENDBRANCH   1  23
TORSDOF 21
ENDMDL
