MODEL 1
REMARK VINA RESULT:     -11.5      0.000      0.000
REMARK SMILES CC1(C)[C@H](C(=O)Nc2ccccc2C(N)=O)[C@@H]1C(=O)NCCCCNC(=O)c1ccc(-c2c3nc(c(-c4cccc(S(=O)(=O)[O-])c4F)c4ccc([nH]4)c(-c4cccc(S(=O)(=O)[O-])c4F)c4nc(c(-c5cccc(S(=O)(=O)[O-])c5F)c5ccc2[nH]5)C=C4)C=C3)cc1
REMARK SMILES IDX 22 1 21 2 20 3 18 4 19 5 17 7 1 8 2 9 3 10 4 11 5 12 6 13
REMARK SMILES IDX 7 14 8 16 9 17 13 18 10 19 12 20 11 21 14 22 15 23 16 24
REMARK SMILES IDX 23 27 24 28 25 29 26 30 27 32 28 33 29 34 90 35 30 36 89 37
REMARK SMILES IDX 31 38 32 39 33 40 83 41 34 42 88 43 82 44 84 45 35 46 87 47
REMARK SMILES IDX 81 48 80 49 36 51 68 52 48 53 67 54 49 55 52 56 66 57 85 58
REMARK SMILES IDX 50 59 51 60 65 62 86 63 53 64 37 65 38 66 46 67 39 68 41 69
REMARK SMILES IDX 47 70 40 71 42 72 43 73 44 74 45 75 69 76 70 77 78 78 71 79
REMARK SMILES IDX 73 80 79 81 72 82 74 83 75 84 76 85 77 86 54 87 55 88 63 89
REMARK SMILES IDX 56 90 58 91 64 92 57 93 59 94 60 95 61 96 62 97
REMARK H PARENT 20 6 7 15 15 25 15 26 25 31 84 50 52 61
REMARK Flexibility Score: inf
ROOT
ATOM      1  C   UNL A   1      31.737  28.017  26.457  1.00  0.00     0.023 C 
ENDROOT
BRANCH   1   2
ATOM      2  C   UNL A   1      30.971  27.046  25.570  1.00  0.00     0.116 C 
BRANCH   2   3
ATOM      3  N   UNL A   1      31.758  26.612  24.441  1.00  0.00    -0.356 N 
ATOM      4  C   UNL A   1      31.969  25.341  23.994  1.00  0.00     0.224 C 
ATOM      5  O   UNL A   1      32.855  25.146  23.169  1.00  0.00    -0.275 OA
ATOM      6  H   UNL A   1      32.199  27.325  23.927  1.00  0.00     0.163 HD
BRANCH   4   7
ATOM      7  C   UNL A   1      31.185  24.197  24.553  1.00  0.00     0.098 C 
ATOM      8  C   UNL A   1      30.745  23.003  26.855  1.00  0.00     0.013 C 
ATOM      9  C   UNL A   1      31.733  23.474  25.795  1.00  0.00    -0.011 C 
ATOM     10  C   UNL A   1      32.953  24.082  26.433  1.00  0.00     0.013 C 
ATOM     11  C   UNL A   1      31.582  22.727  24.486  1.00  0.00     0.098 C 
BRANCH  11  12
ATOM     12  C   UNL A   1      32.339  22.218  23.315  1.00  0.00     0.228 C 
ATOM     13  O   UNL A   1      31.662  21.952  22.316  1.00  0.00    -0.274 OA
ATOM     14  N   UNL A   1      33.690  22.159  23.148  1.00  0.00    -0.325 N 
ATOM     15  H   UNL A   1      33.970  22.013  22.215  1.00  0.00     0.169 HD
BRANCH  14  16
ATOM     16  C   UNL A   1      34.746  22.265  24.042  1.00  0.00     0.053 A 
ATOM     17  C   UNL A   1      35.633  23.320  23.778  1.00  0.00     0.027 A 
ATOM     18  C   UNL A   1      34.973  21.404  25.124  1.00  0.00     0.063 A 
ATOM     19  C   UNL A   1      36.651  23.622  24.674  1.00  0.00     0.002 A 
ATOM     20  C   UNL A   1      36.018  21.708  26.013  1.00  0.00     0.016 A 
ATOM     21  C   UNL A   1      36.826  22.834  25.806  1.00  0.00     0.001 A 
BRANCH  18  22
ATOM     22  C   UNL A   1      34.187  20.143  25.286  1.00  0.00     0.250 C 
ATOM     23  N   UNL A   1      33.346  20.046  26.360  1.00  0.00    -0.366 N 
ATOM     24  O   UNL A   1      34.266  19.207  24.500  1.00  0.00    -0.269 OA
ATOM     25  H   UNL A   1      33.275  20.792  26.998  1.00  0.00     0.159 HD
ATOM     26  H   UNL A   1      32.812  19.230  26.494  1.00  0.00     0.159 HD
ENDBRANCH  18  22
ENDBRANCH  14  16
ENDBRANCH  11  12
ENDBRANCH   4   7
ENDBRANCH   2   3
ENDBRANCH   1   2
BRANCH   1  27
ATOM     27  C   UNL A   1      33.235  27.731  26.577  1.00  0.00     0.023 C 
BRANCH  27  28
ATOM     28  C   UNL A   1      34.157  28.845  26.096  1.00  0.00     0.116 C 
BRANCH  28  29
ATOM     29  N   UNL A   1      33.855  30.132  26.702  1.00  0.00    -0.352 N 
ATOM     30  C   UNL A   1      34.517  30.801  27.702  1.00  0.00     0.251 C 
ATOM     31  H   UNL A   1      33.059  30.590  26.344  1.00  0.00     0.163 HD
ATOM     32  O   UNL A   1      34.014  31.800  28.209  1.00  0.00    -0.269 OA
BRANCH  30  33
ATOM     33  C   UNL A   1      35.828  30.308  28.178  1.00  0.00     0.039 A 
ATOM     34  C   UNL A   1      35.888  29.594  29.377  1.00  0.00     0.014 A 
ATOM     35  C   UNL A   1      36.995  30.557  27.451  1.00  0.00     0.014 A 
ATOM     36  C   UNL A   1      37.113  29.096  29.823  1.00  0.00     0.010 A 
ATOM     37  C   UNL A   1      38.195  29.977  27.846  1.00  0.00     0.010 A 
ATOM     38  C   UNL A   1      38.276  29.266  29.053  1.00  0.00    -0.014 A 
BRANCH  38  39
ATOM     39  C   UNL A   1      39.590  28.756  29.521  1.00  0.00     0.031 A 
ATOM     40  C   UNL A   1      40.309  29.452  30.648  1.00  0.00     0.074 A 
ATOM     41  C   UNL A   1      40.163  27.702  28.905  1.00  0.00     0.049 A 
ATOM     42  N   UNL A   1      41.467  29.171  31.187  1.00  0.00    -0.248 NA
ATOM     43  C   UNL A   1      39.656  30.640  31.226  1.00  0.00     0.031 C 
ATOM     44  C   UNL A   1      39.608  26.988  27.754  1.00  0.00     0.029 A 
ATOM     45  N   UNL A   1      41.348  27.057  29.154  1.00  0.00    -0.354 N 
ATOM     46  C   UNL A   1      41.696  30.162  32.134  1.00  0.00     0.074 A 
ATOM     47  C   UNL A   1      40.582  31.080  32.064  1.00  0.00     0.031 C 
ATOM     48  C   UNL A   1      40.444  25.996  27.405  1.00  0.00     0.029 A 
ATOM     49  C   UNL A   1      41.606  26.020  28.289  1.00  0.00     0.049 A 
ATOM     50  H   UNL A   1      41.959  27.314  29.883  1.00  0.00     0.167 HD
ATOM     51  C   UNL A   1      42.720  30.280  33.012  1.00  0.00     0.034 A 
ATOM     52  C   UNL A   1      42.659  25.182  28.217  1.00  0.00     0.034 A 
ATOM     53  C   UNL A   1      43.804  29.342  33.110  1.00  0.00     0.049 A 
ATOM     54  C   UNL A   1      43.761  25.305  29.234  1.00  0.00     0.074 A 
ATOM     55  C   UNL A   1      44.850  29.327  34.015  1.00  0.00     0.029 A 
ATOM     56  N   UNL A   1      43.984  28.254  32.271  1.00  0.00    -0.354 N 
ATOM     57  N   UNL A   1      43.887  26.164  30.216  1.00  0.00    -0.248 NA
ATOM     58  C   UNL A   1      44.845  24.315  29.161  1.00  0.00     0.031 C 
ATOM     59  C   UNL A   1      45.680  28.247  33.705  1.00  0.00     0.029 A 
ATOM     60  C   UNL A   1      45.126  27.561  32.636  1.00  0.00     0.049 A 
ATOM     61  H   UNL A   1      43.388  28.009  31.528  1.00  0.00     0.167 HD
ATOM     62  C   UNL A   1      45.033  25.787  30.908  1.00  0.00     0.074 A 
ATOM     63  C   UNL A   1      45.557  24.615  30.238  1.00  0.00     0.031 C 
ATOM     64  C   UNL A   1      45.603  26.362  31.995  1.00  0.00     0.034 A 
BRANCH  51  65
ATOM     65  C   UNL A   1      42.692  31.448  33.966  1.00  0.00     0.023 A 
ATOM     66  C   UNL A   1      43.310  32.664  33.605  1.00  0.00     0.012 A 
ATOM     67  C   UNL A   1      42.014  31.360  35.197  1.00  0.00     0.148 A 
ATOM     68  C   UNL A   1      43.293  33.756  34.471  1.00  0.00     0.002 A 
ATOM     69  C   UNL A   1      41.955  32.469  36.032  1.00  0.00     0.091 A 
ATOM     70  F   UNL A   1      41.450  30.191  35.534  1.00  0.00    -0.205 F 
ATOM     71  C   UNL A   1      42.606  33.663  35.678  1.00  0.00     0.022 A 
BRANCH  69  72
ATOM     72  S   UNL A   1      41.026  32.477  37.569  1.00  0.00     0.127 S 
ATOM     73  O   UNL A   1      39.784  31.818  37.167  1.00  0.00    -0.237 OA
ATOM     74  O   UNL A   1      41.883  31.680  38.448  1.00  0.00    -0.237 OA
ATOM     75  O   UNL A   1      40.893  33.875  37.953  1.00  0.00    -0.744 OA
ENDBRANCH  69  72
ENDBRANCH  51  65
BRANCH  52  76
ATOM     76  C   UNL A   1      42.688  24.103  27.188  1.00  0.00     0.023 A 
ATOM     77  C   UNL A   1      43.372  24.316  25.974  1.00  0.00     0.012 A 
ATOM     78  C   UNL A   1      42.050  22.867  27.407  1.00  0.00     0.148 A 
ATOM     79  C   UNL A   1      43.386  23.335  24.983  1.00  0.00     0.002 A 
ATOM     80  C   UNL A   1      42.116  21.872  26.439  1.00  0.00     0.091 A 
ATOM     81  F   UNL A   1      41.399  22.686  28.565  1.00  0.00    -0.205 F 
ATOM     82  C   UNL A   1      42.766  22.111  25.218  1.00  0.00     0.022 A 
BRANCH  80  83
ATOM     83  S   UNL A   1      41.457  20.223  26.705  1.00  0.00     0.127 S 
ATOM     84  O   UNL A   1      40.035  20.497  26.898  1.00  0.00    -0.237 OA
ATOM     85  O   UNL A   1      41.793  19.558  25.446  1.00  0.00    -0.237 OA
ATOM     86  O   UNL A   1      42.161  19.700  27.867  1.00  0.00    -0.744 OA
ENDBRANCH  80  83
ENDBRANCH  52  76
BRANCH  64  87
ATOM     87  C   UNL A   1      46.820  25.696  32.583  1.00  0.00     0.023 A 
ATOM     88  C   UNL A   1      48.111  26.058  32.150  1.00  0.00     0.012 A 
ATOM     89  C   UNL A   1      46.679  24.749  33.618  1.00  0.00     0.148 A 
ATOM     90  C   UNL A   1      49.239  25.456  32.706  1.00  0.00     0.002 A 
ATOM     91  C   UNL A   1      47.808  24.195  34.205  1.00  0.00     0.091 A 
ATOM     92  F   UNL A   1      45.442  24.403  34.003  1.00  0.00    -0.205 F 
ATOM     93  C   UNL A   1      49.088  24.534  33.740  1.00  0.00     0.022 A 
BRANCH  91  94
ATOM     94  S   UNL A   1      47.709  23.082  35.611  1.00  0.00     0.127 S 
ATOM     95  O   UNL A   1      46.681  23.726  36.428  1.00  0.00    -0.237 OA
ATOM     96  O   UNL A   1      47.294  21.827  34.985  1.00  0.00    -0.237 OA
ATOM     97  O   UNL A   1      49.044  23.052  36.193  1.00  0.00    -0.744 OA
ENDBRANCH  91  94
ENDBRANCH  64  87
ENDBRANCH  38  39
ENDBRANCH  30  33
ENDBRANCH  28  29
ENDBRANCH  27  28
ENDBRANCH   1  27
TORSDOF 17
ENDMDL
MODEL 2
REMARK VINA RESULT:     -11.4      1.329      1.574
REMARK SMILES CC1(C)[C@H](C(=O)Nc2ccccc2C(N)=O)[C@@H]1C(=O)NCCCCNC(=O)c1ccc(-c2c3nc(c(-c4cccc(S(=O)(=O)[O-])c4F)c4ccc([nH]4)c(-c4cccc(S(=O)(=O)[O-])c4F)c4nc(c(-c5cccc(S(=O)(=O)[O-])c5F)c5ccc2[nH]5)C=C4)C=C3)cc1
REMARK SMILES IDX 22 1 21 2 20 3 18 4 19 5 17 7 1 8 2 9 3 10 4 11 5 12 6 13
REMARK SMILES IDX 7 14 8 16 9 17 13 18 10 19 12 20 11 21 14 22 15 23 16 24
REMARK SMILES IDX 23 27 24 28 25 29 26 30 27 32 28 33 29 34 90 35 30 36 89 37
REMARK SMILES IDX 31 38 32 39 33 40 83 41 34 42 88 43 82 44 84 45 35 46 87 47
REMARK SMILES IDX 81 48 80 49 36 51 68 52 48 53 67 54 49 55 52 56 66 57 85 58
REMARK SMILES IDX 50 59 51 60 65 62 86 63 53 64 37 65 38 66 46 67 39 68 41 69
REMARK SMILES IDX 47 70 40 71 42 72 43 73 44 74 45 75 69 76 70 77 78 78 71 79
REMARK SMILES IDX 73 80 79 81 72 82 74 83 75 84 76 85 77 86 54 87 55 88 63 89
REMARK SMILES IDX 56 90 58 91 64 92 57 93 59 94 60 95 61 96 62 97
REMARK H PARENT 20 6 7 15 15 25 15 26 25 31 84 50 52 61
REMARK Flexibility Score: inf
ROOT
ATOM      1  C   UNL A   1      31.714  27.963  26.595  1.00  0.00     0.023 C 
ENDROOT
BRANCH   1   2
ATOM      2  C   UNL A   1      30.933  27.055  25.656  1.00  0.00     0.116 C 
BRANCH   2   3
ATOM      3  N   UNL A   1      31.729  26.636  24.528  1.00  0.00    -0.356 N 
ATOM      4  C   UNL A   1      31.935  25.372  24.060  1.00  0.00     0.224 C 
ATOM      5  O   UNL A   1      32.829  25.185  23.241  1.00  0.00    -0.275 OA
ATOM      6  H   UNL A   1      32.180  27.355  24.030  1.00  0.00     0.163 HD
BRANCH   4   7
ATOM      7  C   UNL A   1      31.138  24.224  24.590  1.00  0.00     0.098 C 
ATOM      8  C   UNL A   1      30.676  22.984  26.863  1.00  0.00     0.013 C 
ATOM      9  C   UNL A   1      31.674  23.469  25.818  1.00  0.00    -0.011 C 
ATOM     10  C   UNL A   1      32.896  24.050  26.475  1.00  0.00     0.013 C 
ATOM     11  C   UNL A   1      31.521  22.752  24.493  1.00  0.00     0.098 C 
BRANCH  11  12
ATOM     12  C   UNL A   1      32.278  22.261  23.314  1.00  0.00     0.228 C 
ATOM     13  O   UNL A   1      31.603  22.016  22.309  1.00  0.00    -0.274 OA
ATOM     14  N   UNL A   1      33.630  22.200  23.149  1.00  0.00    -0.325 N 
ATOM     15  H   UNL A   1      33.911  22.069  22.215  1.00  0.00     0.169 HD
BRANCH  14  16
ATOM     16  C   UNL A   1      34.684  22.286  24.047  1.00  0.00     0.053 A 
ATOM     17  C   UNL A   1      35.590  23.327  23.789  1.00  0.00     0.027 A 
ATOM     18  C   UNL A   1      34.893  21.417  25.128  1.00  0.00     0.063 A 
ATOM     19  C   UNL A   1      36.609  23.609  24.690  1.00  0.00     0.002 A 
ATOM     20  C   UNL A   1      35.940  21.702  26.021  1.00  0.00     0.016 A 
ATOM     21  C   UNL A   1      36.767  22.814  25.820  1.00  0.00     0.001 A 
BRANCH  18  22
ATOM     22  C   UNL A   1      34.086  20.170  25.283  1.00  0.00     0.250 C 
ATOM     23  N   UNL A   1      33.340  20.026  26.420  1.00  0.00    -0.366 N 
ATOM     24  O   UNL A   1      34.066  19.282  24.439  1.00  0.00    -0.269 OA
ATOM     25  H   UNL A   1      33.347  20.733  27.105  1.00  0.00     0.159 HD
ATOM     26  H   UNL A   1      32.794  19.218  26.552  1.00  0.00     0.159 HD
ENDBRANCH  18  22
ENDBRANCH  14  16
ENDBRANCH  11  12
ENDBRANCH   4   7
ENDBRANCH   2   3
ENDBRANCH   1   2
BRANCH   1  27
ATOM     27  C   UNL A   1      33.214  27.675  26.666  1.00  0.00     0.023 C 
BRANCH  27  28
ATOM     28  C   UNL A   1      34.122  28.781  26.140  1.00  0.00     0.116 C 
BRANCH  28  29
ATOM     29  N   UNL A   1      33.826  30.081  26.722  1.00  0.00    -0.352 N 
ATOM     30  C   UNL A   1      34.502  30.772  27.697  1.00  0.00     0.251 C 
ATOM     31  H   UNL A   1      33.025  30.530  26.365  1.00  0.00     0.163 HD
ATOM     32  O   UNL A   1      34.004  31.781  28.189  1.00  0.00    -0.269 OA
BRANCH  30  33
ATOM     33  C   UNL A   1      35.819  30.291  28.165  1.00  0.00     0.039 A 
ATOM     34  C   UNL A   1      35.905  29.643  29.399  1.00  0.00     0.014 A 
ATOM     35  C   UNL A   1      36.969  30.488  27.395  1.00  0.00     0.014 A 
ATOM     36  C   UNL A   1      37.136  29.156  29.840  1.00  0.00     0.010 A 
ATOM     37  C   UNL A   1      38.174  29.916  27.790  1.00  0.00     0.010 A 
ATOM     38  C   UNL A   1      38.280  29.271  29.031  1.00  0.00    -0.014 A 
BRANCH  38  39
ATOM     39  C   UNL A   1      39.600  28.773  29.492  1.00  0.00     0.031 A 
ATOM     40  C   UNL A   1      40.324  29.480  30.609  1.00  0.00     0.074 A 
ATOM     41  C   UNL A   1      40.176  27.719  28.878  1.00  0.00     0.049 A 
ATOM     42  N   UNL A   1      41.488  29.210  31.141  1.00  0.00    -0.248 NA
ATOM     43  C   UNL A   1      39.668  30.668  31.185  1.00  0.00     0.031 C 
ATOM     44  C   UNL A   1      39.617  26.994  27.735  1.00  0.00     0.029 A 
ATOM     45  N   UNL A   1      41.367  27.084  29.121  1.00  0.00    -0.354 N 
ATOM     46  C   UNL A   1      41.717  30.209  32.080  1.00  0.00     0.074 A 
ATOM     47  C   UNL A   1      40.598  31.118  32.013  1.00  0.00     0.031 C 
ATOM     48  C   UNL A   1      40.457  26.006  27.387  1.00  0.00     0.029 A 
ATOM     49  C   UNL A   1      41.625  26.042  28.261  1.00  0.00     0.049 A 
ATOM     50  H   UNL A   1      41.982  27.349  29.844  1.00  0.00     0.167 HD
ATOM     51  C   UNL A   1      42.748  30.339  32.949  1.00  0.00     0.034 A 
ATOM     52  C   UNL A   1      42.683  25.211  28.186  1.00  0.00     0.034 A 
ATOM     53  C   UNL A   1      43.838  29.408  33.045  1.00  0.00     0.049 A 
ATOM     54  C   UNL A   1      43.792  25.347  29.194  1.00  0.00     0.074 A 
ATOM     55  C   UNL A   1      44.892  29.406  33.942  1.00  0.00     0.029 A 
ATOM     56  N   UNL A   1      44.020  28.316  32.211  1.00  0.00    -0.354 N 
ATOM     57  N   UNL A   1      43.920  26.214  30.169  1.00  0.00    -0.248 NA
ATOM     58  C   UNL A   1      44.882  24.364  29.118  1.00  0.00     0.031 C 
ATOM     59  C   UNL A   1      45.727  28.329  33.631  1.00  0.00     0.029 A 
ATOM     60  C   UNL A   1      45.169  27.633  32.570  1.00  0.00     0.049 A 
ATOM     61  H   UNL A   1      43.419  28.063  31.474  1.00  0.00     0.167 HD
ATOM     62  C   UNL A   1      45.074  25.848  30.855  1.00  0.00     0.074 A 
ATOM     63  C   UNL A   1      45.600  24.675  30.188  1.00  0.00     0.031 C 
ATOM     64  C   UNL A   1      45.649  26.434  31.934  1.00  0.00     0.034 A 
BRANCH  51  65
ATOM     65  C   UNL A   1      42.720  31.513  33.896  1.00  0.00     0.023 A 
ATOM     66  C   UNL A   1      43.205  32.768  33.473  1.00  0.00     0.012 A 
ATOM     67  C   UNL A   1      42.169  31.387  35.186  1.00  0.00     0.148 A 
ATOM     68  C   UNL A   1      43.185  33.865  34.331  1.00  0.00     0.002 A 
ATOM     69  C   UNL A   1      42.103  32.499  36.018  1.00  0.00     0.091 A 
ATOM     70  F   UNL A   1      41.730  30.183  35.580  1.00  0.00    -0.205 F 
ATOM     71  C   UNL A   1      42.624  33.734  35.598  1.00  0.00     0.022 A 
BRANCH  69  72
ATOM     72  S   UNL A   1      41.325  32.454  37.635  1.00  0.00     0.127 S 
ATOM     73  O   UNL A   1      39.982  31.979  37.304  1.00  0.00    -0.237 OA
ATOM     74  O   UNL A   1      42.156  31.483  38.348  1.00  0.00    -0.237 OA
ATOM     75  O   UNL A   1      41.395  33.812  38.155  1.00  0.00    -0.744 OA
ENDBRANCH  69  72
ENDBRANCH  51  65
BRANCH  52  76
ATOM     76  C   UNL A   1      42.711  24.126  27.163  1.00  0.00     0.023 A 
ATOM     77  C   UNL A   1      43.406  24.327  25.954  1.00  0.00     0.012 A 
ATOM     78  C   UNL A   1      42.062  22.896  27.385  1.00  0.00     0.148 A 
ATOM     79  C   UNL A   1      43.420  23.340  24.968  1.00  0.00     0.002 A 
ATOM     80  C   UNL A   1      42.127  21.896  26.423  1.00  0.00     0.091 A 
ATOM     81  F   UNL A   1      41.401  22.727  28.539  1.00  0.00    -0.205 F 
ATOM     82  C   UNL A   1      42.788  22.122  25.206  1.00  0.00     0.022 A 
BRANCH  80  83
ATOM     83  S   UNL A   1      41.453  20.253  26.694  1.00  0.00     0.127 S 
ATOM     84  O   UNL A   1      41.799  19.580  25.444  1.00  0.00    -0.237 OA
ATOM     85  O   UNL A   1      42.209  19.807  27.864  1.00  0.00    -0.237 OA
ATOM     86  O   UNL A   1      40.031  20.445  26.934  1.00  0.00    -0.744 OA
ENDBRANCH  80  83
ENDBRANCH  52  76
BRANCH  64  87
ATOM     87  C   UNL A   1      46.875  25.780  32.516  1.00  0.00     0.023 A 
ATOM     88  C   UNL A   1      46.766  24.920  33.627  1.00  0.00     0.012 A 
ATOM     89  C   UNL A   1      48.135  25.973  31.913  1.00  0.00     0.148 A 
ATOM     90  C   UNL A   1      47.898  24.300  34.155  1.00  0.00     0.002 A 
ATOM     91  C   UNL A   1      49.247  25.308  32.410  1.00  0.00     0.091 A 
ATOM     92  F   UNL A   1      48.221  26.809  30.868  1.00  0.00    -0.205 F 
ATOM     93  C   UNL A   1      49.135  24.484  33.540  1.00  0.00     0.022 A 
BRANCH  91  94
ATOM     94  S   UNL A   1      50.855  25.404  31.617  1.00  0.00     0.127 S 
ATOM     95  O   UNL A   1      51.256  26.777  31.923  1.00  0.00    -0.237 OA
ATOM     96  O   UNL A   1      51.613  24.374  32.326  1.00  0.00    -0.237 OA
ATOM     97  O   UNL A   1      50.625  25.120  30.207  1.00  0.00    -0.744 OA
ENDBRANCH  91  94
ENDBRANCH  64  87
ENDBRANCH  38  39
ENDBRANCH  30  33
ENDBRANCH  28  29
ENDBRANCH  27  28
ENDBRANCH   1  27
TORSDOF 17
ENDMDL
MODEL 3
REMARK VINA RESULT:     -11.4      2.116      2.866
REMARK SMILES CC1(C)[C@H](C(=O)Nc2ccccc2C(N)=O)[C@@H]1C(=O)NCCCCNC(=O)c1ccc(-c2c3nc(c(-c4cccc(S(=O)(=O)[O-])c4F)c4ccc([nH]4)c(-c4cccc(S(=O)(=O)[O-])c4F)c4nc(c(-c5cccc(S(=O)(=O)[O-])c5F)c5ccc2[nH]5)C=C4)C=C3)cc1
REMARK SMILES IDX 22 1 21 2 20 3 18 4 19 5 17 7 1 8 2 9 3 10 4 11 5 12 6 13
REMARK SMILES IDX 7 14 8 16 9 17 13 18 10 19 12 20 11 21 14 22 15 23 16 24
REMARK SMILES IDX 23 27 24 28 25 29 26 30 27 32 28 33 29 34 90 35 30 36 89 37
REMARK SMILES IDX 31 38 32 39 33 40 83 41 34 42 88 43 82 44 84 45 35 46 87 47
REMARK SMILES IDX 81 48 80 49 36 51 68 52 48 53 67 54 49 55 52 56 66 57 85 58
REMARK SMILES IDX 50 59 51 60 65 62 86 63 53 64 37 65 38 66 46 67 39 68 41 69
REMARK SMILES IDX 47 70 40 71 42 72 43 73 44 74 45 75 69 76 70 77 78 78 71 79
REMARK SMILES IDX 73 80 79 81 72 82 74 83 75 84 76 85 77 86 54 87 55 88 63 89
REMARK SMILES IDX 56 90 58 91 64 92 57 93 59 94 60 95 61 96 62 97
REMARK H PARENT 20 6 7 15 15 25 15 26 25 31 84 50 52 61
REMARK Flexibility Score: inf
ROOT
ATOM      1  C   UNL A   1      32.041  28.959  23.735  1.00  0.00     0.023 C 
ENDROOT
BRANCH   1   2
ATOM      2  C   UNL A   1      33.482  28.495  23.573  1.00  0.00     0.116 C 
BRANCH   2   3
ATOM      3  N   UNL A   1      33.594  27.401  22.640  1.00  0.00    -0.356 N 
ATOM      4  C   UNL A   1      33.173  26.113  22.792  1.00  0.00     0.224 C 
ATOM      5  O   UNL A   1      33.565  25.267  21.995  1.00  0.00    -0.275 OA
ATOM      6  H   UNL A   1      34.029  27.611  21.783  1.00  0.00     0.163 HD
BRANCH   4   7
ATOM      7  C   UNL A   1      32.310  25.725  23.949  1.00  0.00     0.098 C 
ATOM      8  C   UNL A   1      32.346  25.767  26.579  1.00  0.00     0.013 C 
ATOM      9  C   UNL A   1      32.994  25.333  25.270  1.00  0.00    -0.011 C 
ATOM     10  C   UNL A   1      34.486  25.517  25.326  1.00  0.00     0.013 C 
ATOM     11  C   UNL A   1      32.160  24.318  24.516  1.00  0.00     0.098 C 
BRANCH  11  12
ATOM     12  C   UNL A   1      32.249  23.142  23.614  1.00  0.00     0.228 C 
ATOM     13  O   UNL A   1      31.252  22.929  22.915  1.00  0.00    -0.274 OA
ATOM     14  N   UNL A   1      33.339  22.372  23.343  1.00  0.00    -0.325 N 
ATOM     15  H   UNL A   1      33.237  21.803  22.545  1.00  0.00     0.169 HD
BRANCH  14  16
ATOM     16  C   UNL A   1      34.566  22.235  23.976  1.00  0.00     0.053 A 
ATOM     17  C   UNL A   1      35.631  22.888  23.337  1.00  0.00     0.027 A 
ATOM     18  C   UNL A   1      34.788  21.497  25.147  1.00  0.00     0.063 A 
ATOM     19  C   UNL A   1      36.881  22.948  23.941  1.00  0.00     0.002 A 
ATOM     20  C   UNL A   1      36.063  21.548  25.737  1.00  0.00     0.016 A 
ATOM     21  C   UNL A   1      37.090  22.302  25.154  1.00  0.00     0.001 A 
BRANCH  18  22
ATOM     22  C   UNL A   1      33.731  20.604  25.710  1.00  0.00     0.250 C 
ATOM     23  N   UNL A   1      33.462  20.694  27.048  1.00  0.00    -0.366 N 
ATOM     24  O   UNL A   1      33.103  19.806  25.026  1.00  0.00    -0.269 OA
ATOM     25  H   UNL A   1      33.960  21.332  27.608  1.00  0.00     0.159 HD
ATOM     26  H   UNL A   1      32.768  20.123  27.450  1.00  0.00     0.159 HD
ENDBRANCH  18  22
ENDBRANCH  14  16
ENDBRANCH  11  12
ENDBRANCH   4   7
ENDBRANCH   2   3
ENDBRANCH   1   2
BRANCH   1  27
ATOM     27  C   UNL A   1      31.600  29.192  25.180  1.00  0.00     0.023 C 
BRANCH  27  28
ATOM     28  C   UNL A   1      32.649  29.812  26.096  1.00  0.00     0.116 C 
BRANCH  28  29
ATOM     29  N   UNL A   1      32.439  31.234  26.316  1.00  0.00    -0.352 N 
ATOM     30  C   UNL A   1      33.097  32.090  27.165  1.00  0.00     0.251 C 
ATOM     31  H   UNL A   1      31.721  31.641  25.780  1.00  0.00     0.163 HD
ATOM     32  O   UNL A   1      32.665  33.225  27.346  1.00  0.00    -0.269 OA
BRANCH  30  33
ATOM     33  C   UNL A   1      34.315  31.638  27.872  1.00  0.00     0.039 A 
ATOM     34  C   UNL A   1      34.390  30.316  28.315  1.00  0.00     0.014 A 
ATOM     35  C   UNL A   1      35.376  32.518  28.105  1.00  0.00     0.014 A 
ATOM     36  C   UNL A   1      35.546  29.868  28.956  1.00  0.00     0.010 A 
ATOM     37  C   UNL A   1      36.562  32.043  28.655  1.00  0.00     0.010 A 
ATOM     38  C   UNL A   1      36.650  30.721  29.116  1.00  0.00    -0.014 A 
BRANCH  38  39
ATOM     39  C   UNL A   1      37.881  30.264  29.809  1.00  0.00     0.031 A 
ATOM     40  C   UNL A   1      38.192  30.762  31.198  1.00  0.00     0.074 A 
ATOM     41  C   UNL A   1      38.746  29.443  29.179  1.00  0.00     0.049 A 
ATOM     42  N   UNL A   1      39.220  30.494  31.960  1.00  0.00    -0.248 NA
ATOM     43  C   UNL A   1      37.238  31.712  31.797  1.00  0.00     0.031 C 
ATOM     44  C   UNL A   1      38.602  28.951  27.808  1.00  0.00     0.029 A 
ATOM     45  N   UNL A   1      39.928  28.891  29.606  1.00  0.00    -0.354 N 
ATOM     46  C   UNL A   1      39.055  31.265  33.105  1.00  0.00     0.074 A 
ATOM     47  C   UNL A   1      37.856  32.049  32.918  1.00  0.00     0.031 C 
ATOM     48  C   UNL A   1      39.646  28.159  27.512  1.00  0.00     0.029 A 
ATOM     49  C   UNL A   1      40.547  28.109  28.659  1.00  0.00     0.049 A 
ATOM     50  H   UNL A   1      40.299  29.042  30.505  1.00  0.00     0.167 HD
ATOM     51  C   UNL A   1      39.810  31.293  34.229  1.00  0.00     0.034 A 
ATOM     52  C   UNL A   1      41.708  27.427  28.711  1.00  0.00     0.034 A 
ATOM     53  C   UNL A   1      40.977  30.479  34.431  1.00  0.00     0.049 A 
ATOM     54  C   UNL A   1      42.504  27.437  29.988  1.00  0.00     0.074 A 
ATOM     55  C   UNL A   1      41.768  30.374  35.561  1.00  0.00     0.029 A 
ATOM     56  N   UNL A   1      41.524  29.634  33.479  1.00  0.00    -0.354 N 
ATOM     57  N   UNL A   1      42.254  28.062  31.113  1.00  0.00    -0.248 NA
ATOM     58  C   UNL A   1      43.720  26.612  30.018  1.00  0.00     0.031 C 
ATOM     59  C   UNL A   1      42.812  29.488  35.282  1.00  0.00     0.029 A 
ATOM     60  C   UNL A   1      42.644  29.004  33.994  1.00  0.00     0.049 A 
ATOM     61  H   UNL A   1      41.168  29.500  32.572  1.00  0.00     0.167 HD
ATOM     62  C   UNL A   1      43.250  27.665  31.999  1.00  0.00     0.074 A 
ATOM     63  C   UNL A   1      44.099  26.737  31.282  1.00  0.00     0.031 C 
ATOM     64  C   UNL A   1      43.446  28.039  33.287  1.00  0.00     0.034 A 
BRANCH  51  65
ATOM     65  C   UNL A   1      39.370  32.207  35.345  1.00  0.00     0.023 A 
ATOM     66  C   UNL A   1      38.485  31.729  36.334  1.00  0.00     0.012 A 
ATOM     67  C   UNL A   1      39.867  33.520  35.442  1.00  0.00     0.148 A 
ATOM     68  C   UNL A   1      38.068  32.556  37.376  1.00  0.00     0.002 A 
ATOM     69  C   UNL A   1      39.489  34.323  36.513  1.00  0.00     0.091 A 
ATOM     70  F   UNL A   1      40.691  33.965  34.482  1.00  0.00    -0.205 F 
ATOM     71  C   UNL A   1      38.579  33.848  37.472  1.00  0.00     0.022 A 
BRANCH  69  72
ATOM     72  S   UNL A   1      40.155  35.970  36.772  1.00  0.00     0.127 S 
ATOM     73  O   UNL A   1      41.583  35.693  36.917  1.00  0.00    -0.237 OA
ATOM     74  O   UNL A   1      39.788  36.647  35.528  1.00  0.00    -0.237 OA
ATOM     75  O   UNL A   1      39.497  36.488  37.963  1.00  0.00    -0.744 OA
ENDBRANCH  69  72
ENDBRANCH  51  65
BRANCH  52  76
ATOM     76  C   UNL A   1      42.153  26.617  27.541  1.00  0.00     0.023 A 
ATOM     77  C   UNL A   1      42.897  27.229  26.512  1.00  0.00     0.012 A 
ATOM     78  C   UNL A   1      41.852  25.245  27.446  1.00  0.00     0.148 A 
ATOM     79  C   UNL A   1      43.297  26.501  25.392  1.00  0.00     0.002 A 
ATOM     80  C   UNL A   1      42.302  24.511  26.355  1.00  0.00     0.091 A 
ATOM     81  F   UNL A   1      41.139  24.682  28.431  1.00  0.00    -0.205 F 
ATOM     82  C   UNL A   1      43.007  25.141  25.317  1.00  0.00     0.022 A 
BRANCH  80  83
ATOM     83  S   UNL A   1      42.088  22.732  26.234  1.00  0.00     0.127 S 
ATOM     84  O   UNL A   1      42.717  22.442  24.948  1.00  0.00    -0.237 OA
ATOM     85  O   UNL A   1      42.828  22.260  27.404  1.00  0.00    -0.237 OA
ATOM     86  O   UNL A   1      40.651  22.503  26.299  1.00  0.00    -0.744 OA
ENDBRANCH  80  83
ENDBRANCH  52  76
BRANCH  64  87
ATOM     87  C   UNL A   1      44.581  27.393  34.039  1.00  0.00     0.023 A 
ATOM     88  C   UNL A   1      45.877  27.943  33.985  1.00  0.00     0.012 A 
ATOM     89  C   UNL A   1      44.342  26.268  34.854  1.00  0.00     0.148 A 
ATOM     90  C   UNL A   1      46.925  27.357  34.694  1.00  0.00     0.002 A 
ATOM     91  C   UNL A   1      45.378  25.724  35.602  1.00  0.00     0.091 A 
ATOM     92  F   UNL A   1      43.107  25.748  34.878  1.00  0.00    -0.205 F 
ATOM     93  C   UNL A   1      46.673  26.256  35.511  1.00  0.00     0.022 A 
BRANCH  91  94
ATOM     94  S   UNL A   1      45.120  24.375  36.758  1.00  0.00     0.127 S 
ATOM     95  O   UNL A   1      44.021  24.890  37.574  1.00  0.00    -0.237 OA
ATOM     96  O   UNL A   1      44.756  23.271  35.870  1.00  0.00    -0.237 OA
ATOM     97  O   UNL A   1      46.386  24.196  37.454  1.00  0.00    -0.744 OA
ENDBRANCH  91  94
ENDBRANCH  64  87
ENDBRANCH  38  39
ENDBRANCH  30  33
ENDBRANCH  28  29
ENDBRANCH  27  28
ENDBRANCH   1  27
TORSDOF 17
ENDMDL
