MODEL 1
REMARK VINA RESULT:     -11.3      0.000      0.000
REMARK SMILES CC[C@](C)(NC(=O)N[C@@H]1C=CS(=O)(=O)C1)C(=O)NCCCCNC(=O)c1ccc(-c2c3nc(c(-c4cccc(S(=O)(=O)[O-])c4F)c4ccc([nH]4)c(-c4cccc(S(=O)(=O)[O-])c4F)c4nc(c(-c5cccc(S(=O)(=O)[O-])c5F)c5ccc2[nH]5)C=C4)C=C3)cc1
REMARK SMILES IDX 21 1 20 2 19 3 18 4 16 5 17 6 3 8 4 9 2 10 1 11 5 12 6 13
REMARK SMILES IDX 7 15 8 16 9 18 10 19 15 20 11 21 12 22 13 23 14 24 22 25
REMARK SMILES IDX 23 26 24 27 25 29 26 30 27 31 88 32 28 33 87 34 29 35 30 36
REMARK SMILES IDX 31 37 81 38 32 39 86 40 80 41 82 42 33 43 85 44 79 45 78 46
REMARK SMILES IDX 34 48 66 49 46 50 65 51 47 52 50 53 64 54 83 55 48 56 49 57
REMARK SMILES IDX 63 59 84 60 51 61 35 62 36 63 44 64 37 65 39 66 45 67 38 68
REMARK SMILES IDX 40 69 41 70 42 71 43 72 67 73 68 74 76 75 69 76 71 77 77 78
REMARK SMILES IDX 70 79 72 80 73 81 74 82 75 83 52 84 53 85 61 86 54 87 56 88
REMARK SMILES IDX 62 89 55 90 57 91 58 92 59 93 60 94
REMARK H PARENT 18 7 5 14 8 17 23 28 82 47 50 58
REMARK Flexibility Score: inf
ROOT
ATOM      1  C   UNL A   1      32.803  27.479  26.163  1.00  0.00     0.023 C 
ENDROOT
BRANCH   1   2
ATOM      2  C   UNL A   1      33.084  26.548  24.995  1.00  0.00     0.023 C 
BRANCH   2   3
ATOM      3  C   UNL A   1      33.906  25.299  25.300  1.00  0.00     0.116 C 
BRANCH   3   4
ATOM      4  N   UNL A   1      34.302  24.479  24.165  1.00  0.00    -0.354 N 
ATOM      5  C   UNL A   1      35.081  23.348  24.119  1.00  0.00     0.245 C 
ATOM      6  O   UNL A   1      34.872  22.566  23.185  1.00  0.00    -0.272 OA
ATOM      7  H   UNL A   1      33.958  24.782  23.294  1.00  0.00     0.163 HD
BRANCH   5   8
ATOM      8  C   UNL A   1      36.015  22.977  25.287  1.00  0.00     0.117 C 
ATOM      9  C   UNL A   1      36.928  24.076  25.848  1.00  0.00     0.045 C 
BRANCH   8  10
ATOM     10  C   UNL A   1      36.967  21.878  24.675  1.00  0.00     0.035 C 
ATOM     11  C   UNL A   1      38.257  21.669  25.484  1.00  0.00     0.007 C 
ENDBRANCH   8  10
BRANCH   8  12
ATOM     12  N   UNL A   1      35.209  22.465  26.407  1.00  0.00    -0.324 N 
ATOM     13  C   UNL A   1      34.363  21.462  26.615  1.00  0.00     0.316 C 
ATOM     14  H   UNL A   1      35.329  23.011  27.218  1.00  0.00     0.166 HD
ATOM     15  O   UNL A   1      33.800  21.481  27.720  1.00  0.00    -0.249 OA
ATOM     16  N   UNL A   1      34.128  20.368  25.904  1.00  0.00    -0.331 N 
ATOM     17  H   UNL A   1      33.934  19.666  26.567  1.00  0.00     0.166 HD
BRANCH  16  18
ATOM     18  C   UNL A   1      34.021  19.697  24.591  1.00  0.00     0.123 C 
ATOM     19  C   UNL A   1      32.684  19.414  24.024  1.00  0.00     0.011 C 
ATOM     20  C   UNL A   1      34.834  18.405  24.494  1.00  0.00     0.170 C 
ATOM     21  C   UNL A   1      32.348  18.122  23.891  1.00  0.00     0.104 C 
ATOM     22  S   UNL A   1      33.624  17.093  24.429  1.00  0.00     0.173 S 
ATOM     23  O   UNL A   1      33.982  16.168  23.378  1.00  0.00    -0.224 OA
ATOM     24  O   UNL A   1      33.366  16.629  25.778  1.00  0.00    -0.224 OA
ENDBRANCH  16  18
ENDBRANCH   8  12
ENDBRANCH   5   8
ENDBRANCH   3   4
ENDBRANCH   2   3
ENDBRANCH   1   2
BRANCH   1  25
ATOM     25  C   UNL A   1      34.024  28.197  26.716  1.00  0.00     0.116 C 
BRANCH  25  26
ATOM     26  N   UNL A   1      33.781  29.607  26.976  1.00  0.00    -0.352 N 
ATOM     27  C   UNL A   1      34.526  30.508  27.691  1.00  0.00     0.251 C 
ATOM     28  H   UNL A   1      32.956  29.970  26.579  1.00  0.00     0.163 HD
ATOM     29  O   UNL A   1      34.076  31.629  27.911  1.00  0.00    -0.269 OA
BRANCH  27  30
ATOM     30  C   UNL A   1      35.850  30.119  28.213  1.00  0.00     0.039 A 
ATOM     31  C   UNL A   1      35.933  29.613  29.511  1.00  0.00     0.014 A 
ATOM     32  C   UNL A   1      36.999  30.244  27.428  1.00  0.00     0.014 A 
ATOM     33  C   UNL A   1      37.164  29.181  30.003  1.00  0.00     0.010 A 
ATOM     34  C   UNL A   1      38.206  29.728  27.886  1.00  0.00     0.010 A 
ATOM     35  C   UNL A   1      38.303  29.204  29.183  1.00  0.00    -0.014 A 
BRANCH  35  36
ATOM     36  C   UNL A   1      39.608  28.687  29.666  1.00  0.00     0.031 A 
ATOM     37  C   UNL A   1      40.352  29.412  30.753  1.00  0.00     0.074 A 
ATOM     38  C   UNL A   1      40.158  27.612  29.068  1.00  0.00     0.049 A 
ATOM     39  N   UNL A   1      41.525  29.147  31.266  1.00  0.00    -0.248 NA
ATOM     40  C   UNL A   1      39.707  30.609  31.321  1.00  0.00     0.031 C 
ATOM     41  C   UNL A   1      39.568  26.874  27.948  1.00  0.00     0.029 A 
ATOM     42  N   UNL A   1      41.347  26.971  29.299  1.00  0.00    -0.354 N 
ATOM     43  C   UNL A   1      41.774  30.155  32.188  1.00  0.00     0.074 A 
ATOM     44  C   UNL A   1      40.649  31.062  32.136  1.00  0.00     0.031 C 
ATOM     45  C   UNL A   1      40.397  25.880  27.593  1.00  0.00     0.029 A 
ATOM     46  C   UNL A   1      41.589  25.930  28.434  1.00  0.00     0.049 A 
ATOM     47  H   UNL A   1      41.970  27.232  30.016  1.00  0.00     0.167 HD
ATOM     48  C   UNL A   1      42.828  30.299  33.025  1.00  0.00     0.034 A 
ATOM     49  C   UNL A   1      42.656  25.114  28.323  1.00  0.00     0.034 A 
ATOM     50  C   UNL A   1      43.928  29.375  33.096  1.00  0.00     0.049 A 
ATOM     51  C   UNL A   1      43.800  25.274  29.285  1.00  0.00     0.074 A 
ATOM     52  C   UNL A   1      45.003  29.385  33.966  1.00  0.00     0.029 A 
ATOM     53  N   UNL A   1      44.097  28.282  32.261  1.00  0.00    -0.354 N 
ATOM     54  N   UNL A   1      43.946  26.145  30.254  1.00  0.00    -0.248 NA
ATOM     55  C   UNL A   1      44.908  24.317  29.165  1.00  0.00     0.031 C 
ATOM     56  C   UNL A   1      45.841  28.314  33.636  1.00  0.00     0.029 A 
ATOM     57  C   UNL A   1      45.267  27.615  32.586  1.00  0.00     0.049 A 
ATOM     58  H   UNL A   1      43.478  28.018  31.543  1.00  0.00     0.167 HD
ATOM     59  C   UNL A   1      45.143  25.819  30.882  1.00  0.00     0.074 A 
ATOM     60  C   UNL A   1      45.671  24.658  30.194  1.00  0.00     0.031 C 
ATOM     61  C   UNL A   1      45.757  26.433  31.924  1.00  0.00     0.034 A 
BRANCH  48  62
ATOM     62  C   UNL A   1      42.819  31.477  33.966  1.00  0.00     0.023 A 
ATOM     63  C   UNL A   1      43.362  32.708  33.547  1.00  0.00     0.012 A 
ATOM     64  C   UNL A   1      42.229  31.381  35.241  1.00  0.00     0.148 A 
ATOM     65  C   UNL A   1      43.356  33.815  34.396  1.00  0.00     0.002 A 
ATOM     66  C   UNL A   1      42.183  32.501  36.063  1.00  0.00     0.091 A 
ATOM     67  F   UNL A   1      41.736  30.197  35.631  1.00  0.00    -0.205 F 
ATOM     68  C   UNL A   1      42.758  33.714  35.649  1.00  0.00     0.022 A 
BRANCH  66  69
ATOM     69  S   UNL A   1      41.364  32.498  37.662  1.00  0.00     0.127 S 
ATOM     70  O   UNL A   1      41.414  33.915  38.022  1.00  0.00    -0.237 OA
ATOM     71  O   UNL A   1      40.030  32.002  37.323  1.00  0.00    -0.237 OA
ATOM     72  O   UNL A   1      42.145  31.610  38.512  1.00  0.00    -0.744 OA
ENDBRANCH  66  69
ENDBRANCH  48  62
BRANCH  49  73
ATOM     73  C   UNL A   1      42.663  24.040  27.290  1.00  0.00     0.023 A 
ATOM     74  C   UNL A   1      43.226  24.295  26.025  1.00  0.00     0.012 A 
ATOM     75  C   UNL A   1      42.147  22.759  27.568  1.00  0.00     0.148 A 
ATOM     76  C   UNL A   1      43.244  23.304  25.043  1.00  0.00     0.002 A 
ATOM     77  C   UNL A   1      42.221  21.759  26.605  1.00  0.00     0.091 A 
ATOM     78  F   UNL A   1      41.609  22.539  28.775  1.00  0.00    -0.205 F 
ATOM     79  C   UNL A   1      42.752  22.035  25.335  1.00  0.00     0.022 A 
BRANCH  77  80
ATOM     80  S   UNL A   1      41.738  20.063  26.941  1.00  0.00     0.127 S 
ATOM     81  O   UNL A   1      40.442  20.244  27.590  1.00  0.00    -0.237 OA
ATOM     82  O   UNL A   1      41.680  19.494  25.594  1.00  0.00    -0.237 OA
ATOM     83  O   UNL A   1      42.793  19.511  27.779  1.00  0.00    -0.744 OA
ENDBRANCH  77  80
ENDBRANCH  49  73
BRANCH  61  84
ATOM     84  C   UNL A   1      47.051  25.843  32.418  1.00  0.00     0.023 A 
ATOM     85  C   UNL A   1      47.053  24.988  33.539  1.00  0.00     0.012 A 
ATOM     86  C   UNL A   1      48.255  26.078  31.725  1.00  0.00     0.148 A 
ATOM     87  C   UNL A   1      48.241  24.406  33.982  1.00  0.00     0.002 A 
ATOM     88  C   UNL A   1      49.423  25.452  32.141  1.00  0.00     0.091 A 
ATOM     89  F   UNL A   1      48.233  26.907  30.671  1.00  0.00    -0.205 F 
ATOM     90  C   UNL A   1      49.421  24.627  33.277  1.00  0.00     0.022 A 
BRANCH  88  91
ATOM     91  S   UNL A   1      50.969  25.598  31.237  1.00  0.00     0.127 S 
ATOM     92  O   UNL A   1      50.559  25.220  29.885  1.00  0.00    -0.237 OA
ATOM     93  O   UNL A   1      51.290  27.016  31.403  1.00  0.00    -0.237 OA
ATOM     94  O   UNL A   1      51.902  24.687  31.884  1.00  0.00    -0.744 OA
ENDBRANCH  88  91
ENDBRANCH  61  84
ENDBRANCH  35  36
ENDBRANCH  27  30
ENDBRANCH  25  26
ENDBRANCH   1  25
TORSDOF 17
ENDMDL
MODEL 2
REMARK VINA RESULT:     -11.3      5.174      8.558
REMARK SMILES CC[C@](C)(NC(=O)N[C@@H]1C=CS(=O)(=O)C1)C(=O)NCCCCNC(=O)c1ccc(-c2c3nc(c(-c4cccc(S(=O)(=O)[O-])c4F)c4ccc([nH]4)c(-c4cccc(S(=O)(=O)[O-])c4F)c4nc(c(-c5cccc(S(=O)(=O)[O-])c5F)c5ccc2[nH]5)C=C4)C=C3)cc1
REMARK SMILES IDX 21 1 20 2 19 3 18 4 16 5 17 6 3 8 4 9 2 10 1 11 5 12 6 13
REMARK SMILES IDX 7 15 8 16 9 18 10 19 15 20 11 21 12 22 13 23 14 24 22 25
REMARK SMILES IDX 23 26 24 27 25 29 26 30 27 31 88 32 28 33 87 34 29 35 30 36
REMARK SMILES IDX 31 37 81 38 32 39 86 40 80 41 82 42 33 43 85 44 79 45 78 46
REMARK SMILES IDX 34 48 66 49 46 50 65 51 47 52 50 53 64 54 83 55 48 56 49 57
REMARK SMILES IDX 63 59 84 60 51 61 35 62 36 63 44 64 37 65 39 66 45 67 38 68
REMARK SMILES IDX 40 69 41 70 42 71 43 72 67 73 68 74 76 75 69 76 71 77 77 78
REMARK SMILES IDX 70 79 72 80 73 81 74 82 75 83 52 84 53 85 61 86 54 87 56 88
REMARK SMILES IDX 62 89 55 90 57 91 58 92 59 93 60 94
REMARK H PARENT 18 7 5 14 8 17 23 28 82 47 50 58
REMARK Flexibility Score: inf
ROOT
ATOM      1  C   UNL A   1      37.947  19.983  24.670  1.00  0.00     0.023 C 
ENDROOT
BRANCH   1   2
ATOM      2  C   UNL A   1      36.486  20.221  25.014  1.00  0.00     0.023 C 
BRANCH   2   3
ATOM      3  C   UNL A   1      36.105  21.642  25.421  1.00  0.00     0.116 C 
BRANCH   3   4
ATOM      4  N   UNL A   1      35.451  21.803  26.711  1.00  0.00    -0.354 N 
ATOM      5  C   UNL A   1      34.197  22.277  27.015  1.00  0.00     0.245 C 
ATOM      6  O   UNL A   1      33.684  21.864  28.061  1.00  0.00    -0.272 OA
ATOM      7  H   UNL A   1      35.991  21.530  27.487  1.00  0.00     0.163 HD
BRANCH   5   8
ATOM      8  C   UNL A   1      33.392  23.110  25.998  1.00  0.00     0.117 C 
ATOM      9  C   UNL A   1      33.273  22.568  24.567  1.00  0.00     0.045 C 
BRANCH   8  10
ATOM     10  C   UNL A   1      34.199  24.462  25.895  1.00  0.00     0.035 C 
ATOM     11  C   UNL A   1      34.691  24.771  24.472  1.00  0.00     0.007 C 
ENDBRANCH   8  10
BRANCH   8  12
ATOM     12  N   UNL A   1      32.025  23.306  26.506  1.00  0.00    -0.324 N 
ATOM     13  C   UNL A   1      31.048  24.193  26.347  1.00  0.00     0.316 C 
ATOM     14  H   UNL A   1      31.765  22.590  27.129  1.00  0.00     0.166 HD
ATOM     15  O   UNL A   1      30.072  24.026  27.094  1.00  0.00    -0.249 OA
ATOM     16  N   UNL A   1      30.877  25.135  25.430  1.00  0.00    -0.331 N 
ATOM     17  H   UNL A   1      29.904  25.171  25.277  1.00  0.00     0.166 HD
BRANCH  16  18
ATOM     18  C   UNL A   1      31.448  26.155  24.525  1.00  0.00     0.123 C 
ATOM     19  C   UNL A   1      31.541  27.560  24.978  1.00  0.00     0.011 C 
ATOM     20  C   UNL A   1      30.806  26.171  23.137  1.00  0.00     0.170 C 
ATOM     21  C   UNL A   1      30.788  28.455  24.322  1.00  0.00     0.104 C 
ATOM     22  S   UNL A   1      29.882  27.697  23.064  1.00  0.00     0.173 S 
ATOM     23  O   UNL A   1      30.149  28.354  21.805  1.00  0.00    -0.224 OA
ATOM     24  O   UNL A   1      28.524  27.441  23.501  1.00  0.00    -0.224 OA
ENDBRANCH  16  18
ENDBRANCH   8  12
ENDBRANCH   5   8
ENDBRANCH   3   4
ENDBRANCH   2   3
ENDBRANCH   1   2
BRANCH   1  25
ATOM     25  C   UNL A   1      38.928  20.310  25.783  1.00  0.00     0.116 C 
BRANCH  25  26
ATOM     26  N   UNL A   1      39.965  19.302  25.939  1.00  0.00    -0.352 N 
ATOM     27  C   UNL A   1      41.305  19.452  26.185  1.00  0.00     0.251 C 
ATOM     28  H   UNL A   1      39.658  18.370  25.854  1.00  0.00     0.163 HD
ATOM     29  O   UNL A   1      42.043  18.472  26.143  1.00  0.00    -0.269 OA
BRANCH  27  30
ATOM     30  C   UNL A   1      41.855  20.791  26.471  1.00  0.00     0.039 A 
ATOM     31  C   UNL A   1      42.124  21.645  25.399  1.00  0.00     0.014 A 
ATOM     32  C   UNL A   1      42.098  21.205  27.783  1.00  0.00     0.014 A 
ATOM     33  C   UNL A   1      42.585  22.937  25.649  1.00  0.00     0.010 A 
ATOM     34  C   UNL A   1      42.471  22.520  28.032  1.00  0.00     0.010 A 
ATOM     35  C   UNL A   1      42.731  23.395  26.968  1.00  0.00    -0.014 A 
BRANCH  35  36
ATOM     36  C   UNL A   1      43.157  24.787  27.254  1.00  0.00     0.031 A 
ATOM     37  C   UNL A   1      42.200  25.754  27.894  1.00  0.00     0.074 A 
ATOM     38  C   UNL A   1      44.379  25.201  26.863  1.00  0.00     0.049 A 
ATOM     39  N   UNL A   1      42.370  27.021  28.170  1.00  0.00    -0.248 NA
ATOM     40  C   UNL A   1      40.865  25.240  28.246  1.00  0.00     0.031 C 
ATOM     41  C   UNL A   1      45.365  24.376  26.161  1.00  0.00     0.029 A 
ATOM     42  N   UNL A   1      44.988  26.424  26.976  1.00  0.00    -0.354 N 
ATOM     43  C   UNL A   1      41.162  27.462  28.694  1.00  0.00     0.074 A 
ATOM     44  C   UNL A   1      40.252  26.339  28.660  1.00  0.00     0.031 C 
ATOM     45  C   UNL A   1      46.457  25.117  25.908  1.00  0.00     0.029 A 
ATOM     46  C   UNL A   1      46.235  26.473  26.399  1.00  0.00     0.049 A 
ATOM     47  H   UNL A   1      44.571  27.194  27.426  1.00  0.00     0.167 HD
ATOM     48  C   UNL A   1      40.846  28.682  29.187  1.00  0.00     0.034 A 
ATOM     49  C   UNL A   1      47.099  27.499  26.269  1.00  0.00     0.034 A 
ATOM     50  C   UNL A   1      41.766  29.786  29.250  1.00  0.00     0.049 A 
ATOM     51  C   UNL A   1      46.738  28.836  26.855  1.00  0.00     0.074 A 
ATOM     52  C   UNL A   1      41.570  31.037  29.805  1.00  0.00     0.029 A 
ATOM     53  N   UNL A   1      43.051  29.774  28.732  1.00  0.00    -0.354 N 
ATOM     54  N   UNL A   1      45.644  29.192  27.484  1.00  0.00    -0.248 NA
ATOM     55  C   UNL A   1      47.742  29.903  26.745  1.00  0.00     0.031 C 
ATOM     56  C   UNL A   1      42.728  31.794  29.596  1.00  0.00     0.029 A 
ATOM     57  C   UNL A   1      43.658  31.000  28.944  1.00  0.00     0.049 A 
ATOM     58  H   UNL A   1      43.471  29.007  28.280  1.00  0.00     0.167 HD
ATOM     59  C   UNL A   1      45.842  30.510  27.878  1.00  0.00     0.074 A 
ATOM     60  C   UNL A   1      47.170  30.882  27.432  1.00  0.00     0.031 C 
ATOM     61  C   UNL A   1      44.998  31.342  28.536  1.00  0.00     0.034 A 
BRANCH  48  62
ATOM     62  C   UNL A   1      39.457  28.873  29.742  1.00  0.00     0.023 A 
ATOM     63  C   UNL A   1      39.168  28.455  31.057  1.00  0.00     0.012 A 
ATOM     64  C   UNL A   1      38.454  29.510  28.984  1.00  0.00     0.148 A 
ATOM     65  C   UNL A   1      37.893  28.630  31.596  1.00  0.00     0.002 A 
ATOM     66  C   UNL A   1      37.201  29.724  29.544  1.00  0.00     0.091 A 
ATOM     67  F   UNL A   1      38.740  29.882  27.729  1.00  0.00    -0.205 F 
ATOM     68  C   UNL A   1      36.914  29.273  30.844  1.00  0.00     0.022 A 
BRANCH  66  69
ATOM     69  S   UNL A   1      35.896  30.615  28.690  1.00  0.00     0.127 S 
ATOM     70  O   UNL A   1      35.233  29.536  27.958  1.00  0.00    -0.237 OA
ATOM     71  O   UNL A   1      35.120  31.164  29.802  1.00  0.00    -0.237 OA
ATOM     72  O   UNL A   1      36.563  31.612  27.864  1.00  0.00    -0.744 OA
ENDBRANCH  66  69
ENDBRANCH  48  62
BRANCH  49  73
ATOM     73  C   UNL A   1      48.413  27.282  25.600  1.00  0.00     0.023 A 
ATOM     74  C   UNL A   1      49.515  26.845  26.358  1.00  0.00     0.012 A 
ATOM     75  C   UNL A   1      48.564  27.472  24.213  1.00  0.00     0.148 A 
ATOM     76  C   UNL A   1      50.755  26.635  25.754  1.00  0.00     0.002 A 
ATOM     77  C   UNL A   1      49.787  27.205  23.607  1.00  0.00     0.091 A 
ATOM     78  F   UNL A   1      47.504  27.896  23.510  1.00  0.00    -0.205 F 
ATOM     79  C   UNL A   1      50.888  26.804  24.378  1.00  0.00     0.022 A 
BRANCH  77  80
ATOM     80  S   UNL A   1      50.010  27.264  21.826  1.00  0.00     0.127 S 
ATOM     81  O   UNL A   1      49.744  28.671  21.538  1.00  0.00    -0.237 OA
ATOM     82  O   UNL A   1      51.409  26.859  21.686  1.00  0.00    -0.237 OA
ATOM     83  O   UNL A   1      49.054  26.314  21.276  1.00  0.00    -0.744 OA
ENDBRANCH  77  80
ENDBRANCH  49  73
BRANCH  61  84
ATOM     84  C   UNL A   1      45.491  32.728  28.856  1.00  0.00     0.023 A 
ATOM     85  C   UNL A   1      46.225  32.961  30.037  1.00  0.00     0.012 A 
ATOM     86  C   UNL A   1      45.289  33.786  27.947  1.00  0.00     0.148 A 
ATOM     87  C   UNL A   1      46.719  34.233  30.323  1.00  0.00     0.002 A 
ATOM     88  C   UNL A   1      45.831  35.037  28.215  1.00  0.00     0.091 A 
ATOM     89  F   UNL A   1      44.574  33.547  26.838  1.00  0.00    -0.205 F 
ATOM     90  C   UNL A   1      46.533  35.266  29.408  1.00  0.00     0.022 A 
BRANCH  88  91
ATOM     91  S   UNL A   1      45.728  36.400  27.049  1.00  0.00     0.127 S 
ATOM     92  O   UNL A   1      46.551  37.415  27.705  1.00  0.00    -0.237 OA
ATOM     93  O   UNL A   1      46.319  35.821  25.843  1.00  0.00    -0.237 OA
ATOM     94  O   UNL A   1      44.313  36.724  26.933  1.00  0.00    -0.744 OA
ENDBRANCH  88  91
ENDBRANCH  61  84
ENDBRANCH  35  36
ENDBRANCH  27  30
ENDBRANCH  25  26
ENDBRANCH   1  25
TORSDOF 17
ENDMDL
MODEL 3
REMARK VINA RESULT:     -11.3      4.054      9.198
REMARK SMILES CC[C@](C)(NC(=O)N[C@@H]1C=CS(=O)(=O)C1)C(=O)NCCCCNC(=O)c1ccc(-c2c3nc(c(-c4cccc(S(=O)(=O)[O-])c4F)c4ccc([nH]4)c(-c4cccc(S(=O)(=O)[O-])c4F)c4nc(c(-c5cccc(S(=O)(=O)[O-])c5F)c5ccc2[nH]5)C=C4)C=C3)cc1
REMARK SMILES IDX 21 1 20 2 19 3 18 4 16 5 17 6 3 8 4 9 2 10 1 11 5 12 6 13
REMARK SMILES IDX 7 15 8 16 9 18 10 19 15 20 11 21 12 22 13 23 14 24 22 25
REMARK SMILES IDX 23 26 24 27 25 29 26 30 27 31 88 32 28 33 87 34 29 35 30 36
REMARK SMILES IDX 31 37 81 38 32 39 86 40 80 41 82 42 33 43 85 44 79 45 78 46
REMARK SMILES IDX 34 48 66 49 46 50 65 51 47 52 50 53 64 54 83 55 48 56 49 57
REMARK SMILES IDX 63 59 84 60 51 61 35 62 36 63 44 64 37 65 39 66 45 67 38 68
REMARK SMILES IDX 40 69 41 70 42 71 43 72 67 73 68 74 76 75 69 76 71 77 77 78
REMARK SMILES IDX 70 79 72 80 73 81 74 82 75 83 52 84 53 85 61 86 54 87 56 88
REMARK SMILES IDX 62 89 55 90 57 91 58 92 59 93 60 94
REMARK H PARENT 18 7 5 14 8 17 23 28 82 47 50 58
REMARK Flexibility Score: inf
ROOT
ATOM      1  C   UNL A   1      31.423  31.741  27.062  1.00  0.00     0.023 C 
ENDROOT
BRANCH   1   2
ATOM      2  C   UNL A   1      31.404  30.944  25.769  1.00  0.00     0.023 C 
BRANCH   2   3
ATOM      3  C   UNL A   1      32.335  29.736  25.699  1.00  0.00     0.116 C 
BRANCH   3   4
ATOM      4  N   UNL A   1      33.276  29.695  24.590  1.00  0.00    -0.354 N 
ATOM      5  C   UNL A   1      33.459  28.740  23.619  1.00  0.00     0.245 C 
ATOM      6  O   UNL A   1      33.923  29.124  22.540  1.00  0.00    -0.272 OA
ATOM      7  H   UNL A   1      33.875  30.473  24.524  1.00  0.00     0.163 HD
BRANCH   5   8
ATOM      8  C   UNL A   1      32.914  27.309  23.797  1.00  0.00     0.117 C 
ATOM      9  C   UNL A   1      31.473  27.152  24.302  1.00  0.00     0.045 C 
BRANCH   8  10
ATOM     10  C   UNL A   1      33.845  26.686  24.908  1.00  0.00     0.035 C 
ATOM     11  C   UNL A   1      33.077  26.217  26.154  1.00  0.00     0.007 C 
ENDBRANCH   8  10
BRANCH   8  12
ATOM     12  N   UNL A   1      33.007  26.592  22.515  1.00  0.00    -0.324 N 
ATOM     13  C   UNL A   1      33.124  25.330  22.115  1.00  0.00     0.316 C 
ATOM     14  H   UNL A   1      32.976  27.212  21.751  1.00  0.00     0.166 HD
ATOM     15  O   UNL A   1      33.298  25.189  20.895  1.00  0.00    -0.249 OA
ATOM     16  N   UNL A   1      32.940  24.195  22.774  1.00  0.00    -0.331 N 
ATOM     17  H   UNL A   1      32.560  23.572  22.112  1.00  0.00     0.166 HD
BRANCH  16  18
ATOM     18  C   UNL A   1      33.031  23.416  24.028  1.00  0.00     0.123 C 
ATOM     19  C   UNL A   1      34.232  22.593  24.288  1.00  0.00     0.011 C 
ATOM     20  C   UNL A   1      31.813  22.530  24.290  1.00  0.00     0.170 C 
ATOM     21  C   UNL A   1      34.053  21.265  24.336  1.00  0.00     0.104 C 
ATOM     22  S   UNL A   1      32.396  20.856  24.081  1.00  0.00     0.173 S 
ATOM     23  O   UNL A   1      31.919  20.046  25.178  1.00  0.00    -0.224 OA
ATOM     24  O   UNL A   1      32.180  20.454  22.705  1.00  0.00    -0.224 OA
ENDBRANCH  16  18
ENDBRANCH   8  12
ENDBRANCH   5   8
ENDBRANCH   3   4
ENDBRANCH   2   3
ENDBRANCH   1   2
BRANCH   1  25
ATOM     25  C   UNL A   1      32.723  32.477  27.342  1.00  0.00     0.116 C 
BRANCH  25  26
ATOM     26  N   UNL A   1      32.526  33.890  27.621  1.00  0.00    -0.352 N 
ATOM     27  C   UNL A   1      33.148  34.699  28.535  1.00  0.00     0.251 C 
ATOM     28  H   UNL A   1      31.840  34.334  27.070  1.00  0.00     0.163 HD
ATOM     29  O   UNL A   1      32.738  35.843  28.713  1.00  0.00    -0.269 OA
BRANCH  27  30
ATOM     30  C   UNL A   1      34.288  34.184  29.318  1.00  0.00     0.039 A 
ATOM     31  C   UNL A   1      34.031  33.300  30.368  1.00  0.00     0.014 A 
ATOM     32  C   UNL A   1      35.599  34.561  29.017  1.00  0.00     0.014 A 
ATOM     33  C   UNL A   1      35.097  32.752  31.081  1.00  0.00     0.010 A 
ATOM     34  C   UNL A   1      36.661  33.945  29.668  1.00  0.00     0.010 A 
ATOM     35  C   UNL A   1      36.420  33.045  30.716  1.00  0.00    -0.014 A 
BRANCH  35  36
ATOM     36  C   UNL A   1      37.567  32.420  31.420  1.00  0.00     0.031 A 
ATOM     37  C   UNL A   1      38.311  31.278  30.786  1.00  0.00     0.074 A 
ATOM     38  C   UNL A   1      37.884  32.829  32.664  1.00  0.00     0.049 A 
ATOM     39  N   UNL A   1      39.299  30.570  31.268  1.00  0.00    -0.248 NA
ATOM     40  C   UNL A   1      37.871  30.855  29.445  1.00  0.00     0.031 C 
ATOM     41  C   UNL A   1      37.184  33.874  33.415  1.00  0.00     0.029 A 
ATOM     42  N   UNL A   1      38.859  32.398  33.526  1.00  0.00    -0.354 N 
ATOM     43  C   UNL A   1      39.577  29.602  30.311  1.00  0.00     0.074 A 
ATOM     44  C   UNL A   1      38.626  29.786  29.237  1.00  0.00     0.031 C 
ATOM     45  C   UNL A   1      37.753  34.003  34.624  1.00  0.00     0.029 A 
ATOM     46  C   UNL A   1      38.835  33.031  34.746  1.00  0.00     0.049 A 
ATOM     47  H   UNL A   1      39.514  31.700  33.294  1.00  0.00     0.167 HD
ATOM     48  C   UNL A   1      40.553  28.664  30.311  1.00  0.00     0.034 A 
ATOM     49  C   UNL A   1      39.591  32.843  35.846  1.00  0.00     0.034 A 
ATOM     50  C   UNL A   1      41.517  28.509  31.366  1.00  0.00     0.049 A 
ATOM     51  C   UNL A   1      40.691  31.817  35.808  1.00  0.00     0.074 A 
ATOM     52  C   UNL A   1      42.596  27.645  31.424  1.00  0.00     0.029 A 
ATOM     53  N   UNL A   1      41.514  29.227  32.552  1.00  0.00    -0.354 N 
ATOM     54  N   UNL A   1      41.034  31.013  34.831  1.00  0.00    -0.248 NA
ATOM     55  C   UNL A   1      41.529  31.698  37.008  1.00  0.00     0.031 C 
ATOM     56  C   UNL A   1      43.228  27.819  32.660  1.00  0.00     0.029 A 
ATOM     57  C   UNL A   1      42.566  28.818  33.355  1.00  0.00     0.049 A 
ATOM     58  H   UNL A   1      40.861  29.924  32.788  1.00  0.00     0.167 HD
ATOM     59  C   UNL A   1      42.150  30.318  35.284  1.00  0.00     0.074 A 
ATOM     60  C   UNL A   1      42.435  30.812  36.616  1.00  0.00     0.031 C 
ATOM     61  C   UNL A   1      42.866  29.351  34.660  1.00  0.00     0.034 A 
BRANCH  48  62
ATOM     62  C   UNL A   1      40.655  27.762  29.107  1.00  0.00     0.023 A 
ATOM     63  C   UNL A   1      39.835  26.620  29.020  1.00  0.00     0.012 A 
ATOM     64  C   UNL A   1      41.524  28.071  28.042  1.00  0.00     0.148 A 
ATOM     65  C   UNL A   1      39.904  25.775  27.911  1.00  0.00     0.002 A 
ATOM     66  C   UNL A   1      41.553  27.252  26.919  1.00  0.00     0.091 A 
ATOM     67  F   UNL A   1      42.312  29.150  28.150  1.00  0.00    -0.205 F 
ATOM     68  C   UNL A   1      40.755  26.097  26.858  1.00  0.00     0.022 A 
BRANCH  66  69
ATOM     69  S   UNL A   1      42.553  27.623  25.474  1.00  0.00     0.127 S 
ATOM     70  O   UNL A   1      43.891  27.722  26.058  1.00  0.00    -0.237 OA
ATOM     71  O   UNL A   1      42.338  26.440  24.640  1.00  0.00    -0.237 OA
ATOM     72  O   UNL A   1      42.020  28.861  24.922  1.00  0.00    -0.744 OA
ENDBRANCH  66  69
ENDBRANCH  48  62
BRANCH  49  73
ATOM     73  C   UNL A   1      39.365  33.684  37.055  1.00  0.00     0.023 A 
ATOM     74  C   UNL A   1      39.820  35.015  37.071  1.00  0.00     0.012 A 
ATOM     75  C   UNL A   1      38.670  33.181  38.173  1.00  0.00     0.148 A 
ATOM     76  C   UNL A   1      39.620  35.822  38.192  1.00  0.00     0.002 A 
ATOM     77  C   UNL A   1      38.423  34.007  39.263  1.00  0.00     0.091 A 
ATOM     78  F   UNL A   1      38.252  31.908  38.140  1.00  0.00    -0.205 F 
ATOM     79  C   UNL A   1      38.912  35.322  39.282  1.00  0.00     0.022 A 
BRANCH  77  80
ATOM     80  S   UNL A   1      37.404  33.490  40.648  1.00  0.00     0.127 S 
ATOM     81  O   UNL A   1      36.216  32.977  39.971  1.00  0.00    -0.237 OA
ATOM     82  O   UNL A   1      38.246  32.471  41.276  1.00  0.00    -0.237 OA
ATOM     83  O   UNL A   1      37.204  34.683  41.458  1.00  0.00    -0.744 OA
ENDBRANCH  77  80
ENDBRANCH  49  73
BRANCH  61  84
ATOM     84  C   UNL A   1      44.055  28.783  35.387  1.00  0.00     0.023 A 
ATOM     85  C   UNL A   1      45.337  29.332  35.180  1.00  0.00     0.012 A 
ATOM     86  C   UNL A   1      43.889  27.753  36.334  1.00  0.00     0.148 A 
ATOM     87  C   UNL A   1      46.439  28.838  35.877  1.00  0.00     0.002 A 
ATOM     88  C   UNL A   1      44.983  27.304  37.063  1.00  0.00     0.091 A 
ATOM     89  F   UNL A   1      42.665  27.233  36.505  1.00  0.00    -0.205 F 
ATOM     90  C   UNL A   1      46.261  27.835  36.827  1.00  0.00     0.022 A 
BRANCH  88  91
ATOM     91  S   UNL A   1      44.832  26.086  38.375  1.00  0.00     0.127 S 
ATOM     92  O   UNL A   1      44.326  24.924  37.645  1.00  0.00    -0.237 OA
ATOM     93  O   UNL A   1      46.213  25.960  38.840  1.00  0.00    -0.237 OA
ATOM     94  O   UNL A   1      43.915  26.657  39.352  1.00  0.00    -0.744 OA
ENDBRANCH  88  91
ENDBRANCH  61  84
ENDBRANCH  35  36
ENDBRANCH  27  30
ENDBRANCH  25  26
ENDBRANCH   1  25
TORSDOF 17
ENDMDL
