MODEL 1
REMARK VINA RESULT:      -9.5      0.000      0.000
REMARK SMILES CC(C)c1ccc2c(c1)c(SC(C)(C)C)c(CC(C)(C)C(=O)NCCCCNC(=O)c1ccc(-c3c4nc(c(-c5cccc(S(=O)(=O)[O-])c5F)c5ccc([nH]5)c(-c5cccc(S(=O)(=O)[O-])c5F)c5nc(c(-c6cccc(S(=O)(=O)[O-])c6F)c6ccc3[nH]6)C=C5)C=C4)cc1)n2Cc1ccc(Cl)cc1
REMARK SMILES IDX 25 1 24 2 23 3 21 4 22 5 18 7 19 8 20 9 17 10 16 11 4 12
REMARK SMILES IDX 5 13 9 14 6 15 8 16 7 17 10 18 94 19 2 20 1 21 3 22 11 23
REMARK SMILES IDX 12 24 13 25 14 26 15 27 95 28 96 29 97 30 102 31 98 32
REMARK SMILES IDX 101 33 99 34 100 35 26 36 27 37 28 38 29 39 30 41 31 42
REMARK SMILES IDX 32 43 93 44 33 45 92 46 34 47 35 48 36 49 86 50 37 51 91 52
REMARK SMILES IDX 85 53 87 54 38 55 90 56 84 57 83 58 39 60 71 61 51 62 70 63
REMARK SMILES IDX 52 64 55 65 69 66 88 67 53 68 54 69 68 71 89 72 56 73 40 74
REMARK SMILES IDX 41 75 49 76 42 77 44 78 50 79 43 80 45 81 46 82 47 83 48 84
REMARK SMILES IDX 72 85 73 86 81 87 74 88 76 89 82 90 75 91 77 92 78 93 79 94
REMARK SMILES IDX 80 95 57 96 58 97 66 98 59 99 61 100 67 101 60 102 62 103
REMARK SMILES IDX 63 104 64 105 65 106
REMARK H PARENT 23 6 28 40 87 59 55 70
REMARK Flexibility Score: inf
ROOT
ATOM      1  C   UNL A   1      43.353  25.294  25.121  1.00  0.00     0.023 C 
ENDROOT
BRANCH   1   2
ATOM      2  C   UNL A   1      44.651  25.861  25.629  1.00  0.00     0.116 C 
BRANCH   2   3
ATOM      3  N   UNL A   1      44.983  27.147  25.026  1.00  0.00    -0.356 N 
ATOM      4  C   UNL A   1      46.226  27.730  24.914  1.00  0.00     0.226 C 
ATOM      5  O   UNL A   1      46.394  28.540  24.010  1.00  0.00    -0.275 OA
ATOM      6  H   UNL A   1      44.228  27.660  24.656  1.00  0.00     0.163 HD
BRANCH   4   7
ATOM      7  C   UNL A   1      47.356  27.133  25.754  1.00  0.00     0.049 C 
ATOM      8  C   UNL A   1      47.764  28.468  26.443  1.00  0.00     0.022 C 
ATOM      9  C   UNL A   1      48.275  26.335  24.768  1.00  0.00     0.022 C 
BRANCH   7  10
ATOM     10  C   UNL A   1      47.071  26.036  26.819  1.00  0.00     0.071 C 
BRANCH  10  11
ATOM     11  C   UNL A   1      47.696  26.201  28.131  1.00  0.00     0.034 A 
ATOM     12  C   UNL A   1      50.164  27.736  31.751  1.00  0.00    -0.045 A 
ATOM     13  C   UNL A   1      48.874  28.098  32.152  1.00  0.00     0.006 A 
ATOM     14  C   UNL A   1      50.293  27.000  30.551  1.00  0.00     0.015 A 
ATOM     15  C   UNL A   1      47.740  27.782  31.391  1.00  0.00     0.027 A 
ATOM     16  C   UNL A   1      49.169  26.649  29.754  1.00  0.00     0.014 A 
ATOM     17  C   UNL A   1      47.907  27.091  30.180  1.00  0.00     0.050 A 
ATOM     18  C   UNL A   1      49.004  25.937  28.505  1.00  0.00     0.037 A 
ATOM     19  N   UNL A   1      46.987  26.728  29.206  1.00  0.00    -0.339 N 
BRANCH  12  20
ATOM     20  C   UNL A   1      51.409  28.201  32.510  1.00  0.00     0.013 C 
ATOM     21  C   UNL A   1      51.148  28.742  33.927  1.00  0.00     0.012 C 
ATOM     22  C   UNL A   1      52.488  27.114  32.609  1.00  0.00     0.012 C 
ENDBRANCH  12  20
BRANCH  18  23
ATOM     23  S   UNL A   1      50.392  25.183  27.659  1.00  0.00    -0.118 SA
BRANCH  23  24
ATOM     24  C   UNL A   1      51.620  26.254  26.701  1.00  0.00     0.012 C 
ATOM     25  C   UNL A   1      51.864  25.654  25.312  1.00  0.00     0.023 C 
ATOM     26  C   UNL A   1      51.524  27.793  26.544  1.00  0.00     0.023 C 
ATOM     27  C   UNL A   1      52.912  26.137  27.560  1.00  0.00     0.023 C 
ENDBRANCH  23  24
ENDBRANCH  18  23
BRANCH  19  28
ATOM     28  C   UNL A   1      45.507  26.711  29.409  1.00  0.00     0.158 C 
BRANCH  28  29
ATOM     29  C   UNL A   1      44.923  25.774  30.458  1.00  0.00    -0.028 A 
ATOM     30  C   UNL A   1      44.558  26.240  31.739  1.00  0.00     0.007 A 
ATOM     31  C   UNL A   1      44.743  24.405  30.198  1.00  0.00     0.007 A 
ATOM     32  C   UNL A   1      44.261  25.354  32.782  1.00  0.00     0.021 A 
ATOM     33  C   UNL A   1      44.375  23.521  31.225  1.00  0.00     0.021 A 
ATOM     34  C   UNL A   1      44.201  23.991  32.525  1.00  0.00     0.041 A 
ATOM     35  Cl  UNL A   1      43.960  22.888  33.823  1.00  0.00    -0.084 Cl
ENDBRANCH  28  29
ENDBRANCH  19  28
ENDBRANCH  10  11
ENDBRANCH   7  10
ENDBRANCH   4   7
ENDBRANCH   2   3
ENDBRANCH   1   2
BRANCH   1  36
ATOM     36  C   UNL A   1      43.528  23.864  24.639  1.00  0.00     0.023 C 
BRANCH  36  37
ATOM     37  C   UNL A   1      43.451  22.823  25.769  1.00  0.00     0.116 C 
BRANCH  37  38
ATOM     38  N   UNL A   1      42.145  22.204  25.901  1.00  0.00    -0.352 N 
ATOM     39  C   UNL A   1      40.942  22.646  26.374  1.00  0.00     0.251 C 
ATOM     40  H   UNL A   1      42.122  21.273  25.583  1.00  0.00     0.163 HD
ATOM     41  O   UNL A   1      39.985  21.882  26.235  1.00  0.00    -0.269 OA
BRANCH  39  42
ATOM     42  C   UNL A   1      40.758  23.927  27.101  1.00  0.00     0.039 A 
ATOM     43  C   UNL A   1      39.831  24.909  26.756  1.00  0.00     0.014 A 
ATOM     44  C   UNL A   1      41.654  24.183  28.151  1.00  0.00     0.014 A 
ATOM     45  C   UNL A   1      39.898  26.167  27.316  1.00  0.00     0.010 A 
ATOM     46  C   UNL A   1      41.692  25.428  28.761  1.00  0.00     0.010 A 
ATOM     47  C   UNL A   1      40.855  26.431  28.291  1.00  0.00    -0.014 A 
BRANCH  47  48
ATOM     48  C   UNL A   1      40.827  27.760  28.872  1.00  0.00     0.031 A 
ATOM     49  C   UNL A   1      41.814  28.680  28.248  1.00  0.00     0.074 A 
ATOM     50  C   UNL A   1      39.978  28.110  29.857  1.00  0.00     0.049 A 
ATOM     51  N   UNL A   1      42.900  29.141  28.775  1.00  0.00    -0.248 NA
ATOM     52  C   UNL A   1      41.684  28.954  26.807  1.00  0.00     0.031 C 
ATOM     53  C   UNL A   1      38.828  27.346  30.352  1.00  0.00     0.029 A 
ATOM     54  N   UNL A   1      39.884  29.284  30.540  1.00  0.00    -0.354 N 
ATOM     55  C   UNL A   1      43.447  29.980  27.808  1.00  0.00     0.074 A 
ATOM     56  C   UNL A   1      42.780  29.679  26.570  1.00  0.00     0.031 C 
ATOM     57  C   UNL A   1      38.010  28.175  31.038  1.00  0.00     0.029 A 
ATOM     58  C   UNL A   1      38.652  29.470  31.163  1.00  0.00     0.049 A 
ATOM     59  H   UNL A   1      40.617  29.938  30.588  1.00  0.00     0.167 HD
ATOM     60  C   UNL A   1      44.181  31.068  28.163  1.00  0.00     0.034 A 
ATOM     61  C   UNL A   1      38.187  30.641  31.664  1.00  0.00     0.034 A 
ATOM     62  C   UNL A   1      44.571  31.020  29.543  1.00  0.00     0.049 A 
ATOM     63  C   UNL A   1      39.376  31.468  31.971  1.00  0.00     0.074 A 
ATOM     64  C   UNL A   1      45.497  30.344  30.305  1.00  0.00     0.029 A 
ATOM     65  N   UNL A   1      43.608  31.503  30.388  1.00  0.00    -0.354 N 
ATOM     66  N   UNL A   1      40.256  31.151  32.879  1.00  0.00    -0.248 NA
ATOM     67  C   UNL A   1      39.778  32.517  31.041  1.00  0.00     0.031 C 
ATOM     68  C   UNL A   1      44.943  30.270  31.617  1.00  0.00     0.029 A 
ATOM     69  C   UNL A   1      43.722  30.942  31.629  1.00  0.00     0.049 A 
ATOM     70  H   UNL A   1      42.924  32.164  30.136  1.00  0.00     0.167 HD
ATOM     71  C   UNL A   1      41.447  31.619  32.359  1.00  0.00     0.074 A 
ATOM     72  C   UNL A   1      41.073  32.604  31.353  1.00  0.00     0.031 C 
ATOM     73  C   UNL A   1      42.607  30.931  32.547  1.00  0.00     0.034 A 
BRANCH  60  74
ATOM     74  C   UNL A   1      44.117  32.385  27.426  1.00  0.00     0.023 A 
ATOM     75  C   UNL A   1      44.996  32.596  26.344  1.00  0.00     0.012 A 
ATOM     76  C   UNL A   1      43.435  33.516  27.935  1.00  0.00     0.148 A 
ATOM     77  C   UNL A   1      45.166  33.869  25.782  1.00  0.00     0.002 A 
ATOM     78  C   UNL A   1      43.548  34.760  27.325  1.00  0.00     0.091 A 
ATOM     79  F   UNL A   1      42.786  33.425  29.100  1.00  0.00    -0.205 F 
ATOM     80  C   UNL A   1      44.425  34.946  26.257  1.00  0.00     0.022 A 
BRANCH  78  81
ATOM     81  S   UNL A   1      42.590  36.170  27.891  1.00  0.00     0.127 S 
ATOM     82  O   UNL A   1      41.253  35.584  28.010  1.00  0.00    -0.237 OA
ATOM     83  O   UNL A   1      43.244  36.476  29.167  1.00  0.00    -0.237 OA
ATOM     84  O   UNL A   1      42.756  37.189  26.875  1.00  0.00    -0.744 OA
ENDBRANCH  78  81
ENDBRANCH  60  74
BRANCH  61  85
ATOM     85  C   UNL A   1      36.827  31.240  31.619  1.00  0.00     0.023 A 
ATOM     86  C   UNL A   1      36.288  31.770  32.814  1.00  0.00     0.012 A 
ATOM     87  C   UNL A   1      36.218  31.606  30.401  1.00  0.00     0.148 A 
ATOM     88  C   UNL A   1      35.259  32.716  32.789  1.00  0.00     0.002 A 
ATOM     89  C   UNL A   1      35.186  32.541  30.381  1.00  0.00     0.091 A 
ATOM     90  F   UNL A   1      36.710  31.120  29.254  1.00  0.00    -0.205 F 
ATOM     91  C   UNL A   1      34.723  33.119  31.570  1.00  0.00     0.022 A 
BRANCH  89  92
ATOM     92  S   UNL A   1      34.448  33.113  28.844  1.00  0.00     0.127 S 
ATOM     93  O   UNL A   1      35.593  33.719  28.164  1.00  0.00    -0.237 OA
ATOM     94  O   UNL A   1      33.975  31.865  28.253  1.00  0.00    -0.237 OA
ATOM     95  O   UNL A   1      33.415  34.064  29.235  1.00  0.00    -0.744 OA
ENDBRANCH  89  92
ENDBRANCH  61  85
BRANCH  73  96
ATOM     96  C   UNL A   1      42.665  29.974  33.699  1.00  0.00     0.023 A 
ATOM     97  C   UNL A   1      42.276  28.623  33.602  1.00  0.00     0.012 A 
ATOM     98  C   UNL A   1      43.249  30.441  34.886  1.00  0.00     0.148 A 
ATOM     99  C   UNL A   1      42.468  27.756  34.681  1.00  0.00     0.002 A 
ATOM    100  C   UNL A   1      43.469  29.569  35.941  1.00  0.00     0.091 A 
ATOM    101  F   UNL A   1      43.606  31.733  34.945  1.00  0.00    -0.205 F 
ATOM    102  C   UNL A   1      43.076  28.225  35.846  1.00  0.00     0.022 A 
BRANCH 100 103
ATOM    103  S   UNL A   1      44.326  30.092  37.425  1.00  0.00     0.127 S 
ATOM    104  O   UNL A   1      43.336  30.959  38.061  1.00  0.00    -0.237 OA
ATOM    105  O   UNL A   1      44.559  28.820  38.111  1.00  0.00    -0.237 OA
ATOM    106  O   UNL A   1      45.542  30.762  36.979  1.00  0.00    -0.744 OA
ENDBRANCH 100 103
ENDBRANCH  73  96
ENDBRANCH  47  48
ENDBRANCH  39  42
ENDBRANCH  37  38
ENDBRANCH  36  37
ENDBRANCH   1  36
TORSDOF 21
ENDMDL
MODEL 2
REMARK VINA RESULT:      -9.4      1.923      2.203
REMARK SMILES CC(C)c1ccc2c(c1)c(SC(C)(C)C)c(CC(C)(C)C(=O)NCCCCNC(=O)c1ccc(-c3c4nc(c(-c5cccc(S(=O)(=O)[O-])c5F)c5ccc([nH]5)c(-c5cccc(S(=O)(=O)[O-])c5F)c5nc(c(-c6cccc(S(=O)(=O)[O-])c6F)c6ccc3[nH]6)C=C5)C=C4)cc1)n2Cc1ccc(Cl)cc1
REMARK SMILES IDX 25 1 24 2 23 3 21 4 22 5 18 7 19 8 20 9 17 10 16 11 4 12
REMARK SMILES IDX 5 13 9 14 6 15 8 16 7 17 10 18 94 19 2 20 1 21 3 22 11 23
REMARK SMILES IDX 12 24 13 25 14 26 15 27 95 28 96 29 97 30 102 31 98 32
REMARK SMILES IDX 101 33 99 34 100 35 26 36 27 37 28 38 29 39 30 41 31 42
REMARK SMILES IDX 32 43 93 44 33 45 92 46 34 47 35 48 36 49 86 50 37 51 91 52
REMARK SMILES IDX 85 53 87 54 38 55 90 56 84 57 83 58 39 60 71 61 51 62 70 63
REMARK SMILES IDX 52 64 55 65 69 66 88 67 53 68 54 69 68 71 89 72 56 73 40 74
REMARK SMILES IDX 41 75 49 76 42 77 44 78 50 79 43 80 45 81 46 82 47 83 48 84
REMARK SMILES IDX 72 85 73 86 81 87 74 88 76 89 82 90 75 91 77 92 78 93 79 94
REMARK SMILES IDX 80 95 57 96 58 97 66 98 59 99 61 100 67 101 60 102 62 103
REMARK SMILES IDX 63 104 64 105 65 106
REMARK H PARENT 23 6 28 40 87 59 55 70
REMARK Flexibility Score: inf
ROOT
ATOM      1  C   UNL A   1      43.513  25.667  25.390  1.00  0.00     0.023 C 
ENDROOT
BRANCH   1   2
ATOM      2  C   UNL A   1      44.988  25.966  25.415  1.00  0.00     0.116 C 
BRANCH   2   3
ATOM      3  N   UNL A   1      45.320  27.235  24.778  1.00  0.00    -0.356 N 
ATOM      4  C   UNL A   1      46.573  27.741  24.509  1.00  0.00     0.226 C 
ATOM      5  O   UNL A   1      46.675  28.548  23.593  1.00  0.00    -0.275 OA
ATOM      6  H   UNL A   1      44.558  27.797  24.507  1.00  0.00     0.163 HD
BRANCH   4   7
ATOM      7  C   UNL A   1      47.761  27.067  25.198  1.00  0.00     0.049 C 
ATOM      8  C   UNL A   1      48.401  28.382  25.732  1.00  0.00     0.022 C 
ATOM      9  C   UNL A   1      48.428  26.134  24.131  1.00  0.00     0.022 C 
BRANCH   7  10
ATOM     10  C   UNL A   1      47.547  26.055  26.360  1.00  0.00     0.071 C 
BRANCH  10  11
ATOM     11  C   UNL A   1      48.131  26.395  27.657  1.00  0.00     0.034 A 
ATOM     12  C   UNL A   1      50.536  28.366  31.103  1.00  0.00    -0.045 A 
ATOM     13  C   UNL A   1      49.252  28.840  31.387  1.00  0.00     0.006 A 
ATOM     14  C   UNL A   1      50.673  27.448  30.037  1.00  0.00     0.015 A 
ATOM     15  C   UNL A   1      48.132  28.459  30.635  1.00  0.00     0.027 A 
ATOM     16  C   UNL A   1      49.563  27.026  29.254  1.00  0.00     0.014 A 
ATOM     17  C   UNL A   1      48.310  27.582  29.552  1.00  0.00     0.050 A 
ATOM     18  C   UNL A   1      49.410  26.137  28.123  1.00  0.00     0.037 A 
ATOM     19  N   UNL A   1      47.409  27.112  28.606  1.00  0.00    -0.339 N 
BRANCH  12  20
ATOM     20  C   UNL A   1      51.774  28.890  31.836  1.00  0.00     0.013 C 
ATOM     21  C   UNL A   1      51.485  29.821  33.027  1.00  0.00     0.012 C 
ATOM     22  C   UNL A   1      52.697  27.766  32.327  1.00  0.00     0.012 C 
ENDBRANCH  12  20
BRANCH  18  23
ATOM     23  S   UNL A   1      50.790  25.202  27.464  1.00  0.00    -0.118 SA
BRANCH  23  24
ATOM     24  C   UNL A   1      52.232  26.094  26.628  1.00  0.00     0.012 C 
ATOM     25  C   UNL A   1      51.923  27.591  26.513  1.00  0.00     0.023 C 
ATOM     26  C   UNL A   1      53.721  25.946  27.028  1.00  0.00     0.023 C 
ATOM     27  C   UNL A   1      52.252  25.449  25.213  1.00  0.00     0.023 C 
ENDBRANCH  23  24
ENDBRANCH  18  23
BRANCH  19  28
ATOM     28  C   UNL A   1      45.924  27.189  28.744  1.00  0.00     0.158 C 
BRANCH  28  29
ATOM     29  C   UNL A   1      45.228  26.236  29.708  1.00  0.00    -0.028 A 
ATOM     30  C   UNL A   1      44.804  26.661  30.985  1.00  0.00     0.007 A 
ATOM     31  C   UNL A   1      44.999  24.892  29.369  1.00  0.00     0.007 A 
ATOM     32  C   UNL A   1      44.398  25.744  31.962  1.00  0.00     0.021 A 
ATOM     33  C   UNL A   1      44.521  23.981  30.327  1.00  0.00     0.021 A 
ATOM     34  C   UNL A   1      44.288  24.400  31.635  1.00  0.00     0.041 A 
ATOM     35  Cl  UNL A   1      43.909  23.252  32.859  1.00  0.00    -0.084 Cl
ENDBRANCH  28  29
ENDBRANCH  19  28
ENDBRANCH  10  11
ENDBRANCH   7  10
ENDBRANCH   4   7
ENDBRANCH   2   3
ENDBRANCH   1   2
BRANCH   1  36
ATOM     36  C   UNL A   1      43.246  24.261  24.879  1.00  0.00     0.023 C 
BRANCH  36  37
ATOM     37  C   UNL A   1      43.278  23.191  25.984  1.00  0.00     0.116 C 
BRANCH  37  38
ATOM     38  N   UNL A   1      41.976  22.626  26.283  1.00  0.00    -0.352 N 
ATOM     39  C   UNL A   1      40.814  23.154  26.770  1.00  0.00     0.251 C 
ATOM     40  H   UNL A   1      41.918  21.661  26.098  1.00  0.00     0.163 HD
ATOM     41  O   UNL A   1      39.839  22.400  26.800  1.00  0.00    -0.269 OA
BRANCH  39  42
ATOM     42  C   UNL A   1      40.697  24.525  27.327  1.00  0.00     0.039 A 
ATOM     43  C   UNL A   1      39.979  25.563  26.736  1.00  0.00     0.014 A 
ATOM     44  C   UNL A   1      41.447  24.795  28.484  1.00  0.00     0.014 A 
ATOM     45  C   UNL A   1      40.131  26.861  27.175  1.00  0.00     0.010 A 
ATOM     46  C   UNL A   1      41.561  26.090  28.967  1.00  0.00     0.010 A 
ATOM     47  C   UNL A   1      40.953  27.123  28.267  1.00  0.00    -0.014 A 
BRANCH  47  48
ATOM     48  C   UNL A   1      41.018  28.506  28.702  1.00  0.00     0.031 A 
ATOM     49  C   UNL A   1      42.254  29.193  28.244  1.00  0.00     0.074 A 
ATOM     50  C   UNL A   1      40.045  29.091  29.426  1.00  0.00     0.049 A 
ATOM     51  N   UNL A   1      43.261  29.561  28.966  1.00  0.00    -0.248 NA
ATOM     52  C   UNL A   1      42.485  29.300  26.794  1.00  0.00     0.031 C 
ATOM     53  C   UNL A   1      38.706  28.563  29.706  1.00  0.00     0.029 A 
ATOM     54  N   UNL A   1      40.000  30.343  29.958  1.00  0.00    -0.354 N 
ATOM     55  C   UNL A   1      44.134  30.188  28.081  1.00  0.00     0.074 A 
ATOM     56  C   UNL A   1      43.710  29.829  26.754  1.00  0.00     0.031 C 
ATOM     57  C   UNL A   1      37.907  29.577  30.105  1.00  0.00     0.029 A 
ATOM     58  C   UNL A   1      38.710  30.776  30.257  1.00  0.00     0.049 A 
ATOM     59  H   UNL A   1      40.802  30.890  30.116  1.00  0.00     0.167 HD
ATOM     60  C   UNL A   1      44.942  31.199  28.497  1.00  0.00     0.034 A 
ATOM     61  C   UNL A   1      38.346  32.054  30.528  1.00  0.00     0.034 A 
ATOM     62  C   UNL A   1      45.011  31.271  29.928  1.00  0.00     0.049 A 
ATOM     63  C   UNL A   1      39.559  32.739  31.027  1.00  0.00     0.074 A 
ATOM     64  C   UNL A   1      45.626  30.573  30.943  1.00  0.00     0.029 A 
ATOM     65  N   UNL A   1      43.981  31.985  30.478  1.00  0.00    -0.354 N 
ATOM     66  N   UNL A   1      40.158  32.419  32.140  1.00  0.00    -0.248 NA
ATOM     67  C   UNL A   1      40.320  33.597  30.126  1.00  0.00     0.031 C 
ATOM     68  C   UNL A   1      44.798  30.743  32.092  1.00  0.00     0.029 A 
ATOM     69  C   UNL A   1      43.730  31.574  31.757  1.00  0.00     0.049 A 
ATOM     70  H   UNL A   1      43.486  32.698  30.014  1.00  0.00     0.167 HD
ATOM     71  C   UNL A   1      41.493  32.647  31.872  1.00  0.00     0.074 A 
ATOM     72  C   UNL A   1      41.513  33.541  30.722  1.00  0.00     0.031 C 
ATOM     73  C   UNL A   1      42.456  31.834  32.387  1.00  0.00     0.034 A 
BRANCH  60  74
ATOM     74  C   UNL A   1      45.256  32.408  27.649  1.00  0.00     0.023 A 
ATOM     75  C   UNL A   1      44.216  32.999  26.903  1.00  0.00     0.012 A 
ATOM     76  C   UNL A   1      46.579  32.803  27.337  1.00  0.00     0.148 A 
ATOM     77  C   UNL A   1      44.481  33.954  25.913  1.00  0.00     0.002 A 
ATOM     78  C   UNL A   1      46.832  33.807  26.409  1.00  0.00     0.091 A 
ATOM     79  F   UNL A   1      47.608  32.108  27.832  1.00  0.00    -0.205 F 
ATOM     80  C   UNL A   1      45.787  34.375  25.682  1.00  0.00     0.022 A 
BRANCH  78  81
ATOM     81  S   UNL A   1      48.500  34.397  26.100  1.00  0.00     0.127 S 
ATOM     82  O   UNL A   1      48.244  35.554  25.239  1.00  0.00    -0.237 OA
ATOM     83  O   UNL A   1      48.952  34.725  27.455  1.00  0.00    -0.237 OA
ATOM     84  O   UNL A   1      49.200  33.285  25.488  1.00  0.00    -0.744 OA
ENDBRANCH  78  81
ENDBRANCH  60  74
BRANCH  61  85
ATOM     85  C   UNL A   1      37.145  32.825  30.114  1.00  0.00     0.023 A 
ATOM     86  C   UNL A   1      36.600  32.580  28.832  1.00  0.00     0.012 A 
ATOM     87  C   UNL A   1      36.345  33.511  31.050  1.00  0.00     0.148 A 
ATOM     88  C   UNL A   1      35.273  32.904  28.533  1.00  0.00     0.002 A 
ATOM     89  C   UNL A   1      35.027  33.841  30.745  1.00  0.00     0.091 A 
ATOM     90  F   UNL A   1      36.835  33.754  32.273  1.00  0.00    -0.205 F 
ATOM     91  C   UNL A   1      34.479  33.514  29.499  1.00  0.00     0.022 A 
BRANCH  89  92
ATOM     92  S   UNL A   1      33.939  34.625  31.944  1.00  0.00     0.127 S 
ATOM     93  O   UNL A   1      32.841  35.094  31.098  1.00  0.00    -0.237 OA
ATOM     94  O   UNL A   1      33.602  33.510  32.822  1.00  0.00    -0.237 OA
ATOM     95  O   UNL A   1      34.725  35.695  32.545  1.00  0.00    -0.744 OA
ENDBRANCH  89  92
ENDBRANCH  61  85
BRANCH  73  96
ATOM     96  C   UNL A   1      42.107  31.030  33.602  1.00  0.00     0.023 A 
ATOM     97  C   UNL A   1      41.532  29.745  33.541  1.00  0.00     0.012 A 
ATOM     98  C   UNL A   1      42.486  31.558  34.846  1.00  0.00     0.148 A 
ATOM     99  C   UNL A   1      41.341  29.002  34.709  1.00  0.00     0.002 A 
ATOM    100  C   UNL A   1      42.327  30.804  35.998  1.00  0.00     0.091 A 
ATOM    101  F   UNL A   1      43.029  32.785  34.869  1.00  0.00    -0.205 F 
ATOM    102  C   UNL A   1      41.751  29.525  35.936  1.00  0.00     0.022 A 
BRANCH 100 103
ATOM    103  S   UNL A   1      42.915  31.385  37.588  1.00  0.00     0.127 S 
ATOM    104  O   UNL A   1      41.666  31.679  38.287  1.00  0.00    -0.237 OA
ATOM    105  O   UNL A   1      43.642  30.219  38.092  1.00  0.00    -0.237 OA
ATOM    106  O   UNL A   1      43.759  32.542  37.311  1.00  0.00    -0.744 OA
ENDBRANCH 100 103
ENDBRANCH  73  96
ENDBRANCH  47  48
ENDBRANCH  39  42
ENDBRANCH  37  38
ENDBRANCH  36  37
ENDBRANCH   1  36
TORSDOF 21
ENDMDL
MODEL 3
REMARK VINA RESULT:      -9.3      6.345     13.082
REMARK SMILES CC(C)c1ccc2c(c1)c(SC(C)(C)C)c(CC(C)(C)C(=O)NCCCCNC(=O)c1ccc(-c3c4nc(c(-c5cccc(S(=O)(=O)[O-])c5F)c5ccc([nH]5)c(-c5cccc(S(=O)(=O)[O-])c5F)c5nc(c(-c6cccc(S(=O)(=O)[O-])c6F)c6ccc3[nH]6)C=C5)C=C4)cc1)n2Cc1ccc(Cl)cc1
REMARK SMILES IDX 25 1 24 2 23 3 21 4 22 5 18 7 19 8 20 9 17 10 16 11 4 12
REMARK SMILES IDX 5 13 9 14 6 15 8 16 7 17 10 18 94 19 2 20 1 21 3 22 11 23
REMARK SMILES IDX 12 24 13 25 14 26 15 27 95 28 96 29 97 30 102 31 98 32
REMARK SMILES IDX 101 33 99 34 100 35 26 36 27 37 28 38 29 39 30 41 31 42
REMARK SMILES IDX 32 43 93 44 33 45 92 46 34 47 35 48 36 49 86 50 37 51 91 52
REMARK SMILES IDX 85 53 87 54 38 55 90 56 84 57 83 58 39 60 71 61 51 62 70 63
REMARK SMILES IDX 52 64 55 65 69 66 88 67 53 68 54 69 68 71 89 72 56 73 40 74
REMARK SMILES IDX 41 75 49 76 42 77 44 78 50 79 43 80 45 81 46 82 47 83 48 84
REMARK SMILES IDX 72 85 73 86 81 87 74 88 76 89 82 90 75 91 77 92 78 93 79 94
REMARK SMILES IDX 80 95 57 96 58 97 66 98 59 99 61 100 67 101 60 102 62 103
REMARK SMILES IDX 63 104 64 105 65 106
REMARK H PARENT 23 6 28 40 87 59 55 70
REMARK Flexibility Score: inf
ROOT
ATOM      1  C   UNL A   1      45.126  41.917  29.679  1.00  0.00     0.023 C 
ENDROOT
BRANCH   1   2
ATOM      2  C   UNL A   1      45.736  42.138  28.320  1.00  0.00     0.116 C 
BRANCH   2   3
ATOM      3  N   UNL A   1      47.100  42.648  28.386  1.00  0.00    -0.356 N 
ATOM      4  C   UNL A   1      47.713  43.528  27.521  1.00  0.00     0.226 C 
ATOM      5  O   UNL A   1      48.647  44.193  27.955  1.00  0.00    -0.275 OA
ATOM      6  H   UNL A   1      47.648  42.327  29.138  1.00  0.00     0.163 HD
BRANCH   4   7
ATOM      7  C   UNL A   1      47.021  43.789  26.182  1.00  0.00     0.049 C 
ATOM      8  C   UNL A   1      48.277  44.366  25.465  1.00  0.00     0.022 C 
ATOM      9  C   UNL A   1      45.729  44.616  26.498  1.00  0.00     0.022 C 
BRANCH   7  10
ATOM     10  C   UNL A   1      46.410  42.622  25.355  1.00  0.00     0.071 C 
BRANCH  10  11
ATOM     11  C   UNL A   1      45.401  42.970  24.355  1.00  0.00     0.034 A 
ATOM     12  C   UNL A   1      42.725  43.127  20.565  1.00  0.00    -0.045 A 
ATOM     13  C   UNL A   1      41.840  42.542  21.476  1.00  0.00     0.006 A 
ATOM     14  C   UNL A   1      43.985  43.544  21.053  1.00  0.00     0.015 A 
ATOM     15  C   UNL A   1      42.181  42.335  22.820  1.00  0.00     0.027 A 
ATOM     16  C   UNL A   1      44.368  43.363  22.411  1.00  0.00     0.014 A 
ATOM     17  C   UNL A   1      43.458  42.717  23.262  1.00  0.00     0.050 A 
ATOM     18  C   UNL A   1      45.564  43.664  23.167  1.00  0.00     0.037 A 
ATOM     19  N   UNL A   1      44.079  42.559  24.493  1.00  0.00    -0.339 N 
BRANCH  12  20
ATOM     20  C   UNL A   1      42.404  43.225  19.072  1.00  0.00     0.013 C 
ATOM     21  C   UNL A   1      41.021  43.812  18.736  1.00  0.00     0.012 C 
ATOM     22  C   UNL A   1      43.458  44.017  18.286  1.00  0.00     0.012 C 
ENDBRANCH  12  20
BRANCH  18  23
ATOM     23  S   UNL A   1      46.951  44.529  22.433  1.00  0.00    -0.118 SA
BRANCH  23  24
ATOM     24  C   UNL A   1      48.091  43.639  21.215  1.00  0.00     0.012 C 
ATOM     25  C   UNL A   1      49.551  44.005  21.504  1.00  0.00     0.023 C 
ATOM     26  C   UNL A   1      48.036  42.126  20.889  1.00  0.00     0.023 C 
ATOM     27  C   UNL A   1      47.658  44.240  19.847  1.00  0.00     0.023 C 
ENDBRANCH  23  24
ENDBRANCH  18  23
BRANCH  19  28
ATOM     28  C   UNL A   1      43.364  42.224  25.761  1.00  0.00     0.158 C 
BRANCH  28  29
ATOM     29  C   UNL A   1      43.070  40.762  26.071  1.00  0.00    -0.028 A 
ATOM     30  C   UNL A   1      41.747  40.287  26.192  1.00  0.00     0.007 A 
ATOM     31  C   UNL A   1      44.106  39.833  26.269  1.00  0.00     0.007 A 
ATOM     32  C   UNL A   1      41.471  39.020  26.719  1.00  0.00     0.021 A 
ATOM     33  C   UNL A   1      43.829  38.535  26.729  1.00  0.00     0.021 A 
ATOM     34  C   UNL A   1      42.518  38.159  27.015  1.00  0.00     0.041 A 
ATOM     35  Cl  UNL A   1      42.194  36.650  27.777  1.00  0.00    -0.084 Cl
ENDBRANCH  28  29
ENDBRANCH  19  28
ENDBRANCH  10  11
ENDBRANCH   7  10
ENDBRANCH   4   7
ENDBRANCH   2   3
ENDBRANCH   1   2
BRANCH   1  36
ATOM     36  C   UNL A   1      43.815  41.156  29.577  1.00  0.00     0.023 C 
BRANCH  36  37
ATOM     37  C   UNL A   1      43.860  39.768  30.238  1.00  0.00     0.116 C 
BRANCH  37  38
ATOM     38  N   UNL A   1      44.971  39.598  31.156  1.00  0.00    -0.352 N 
ATOM     39  C   UNL A   1      45.382  38.564  31.949  1.00  0.00     0.251 C 
ATOM     40  H   UNL A   1      45.548  40.393  31.221  1.00  0.00     0.163 HD
ATOM     41  O   UNL A   1      46.456  38.716  32.534  1.00  0.00    -0.269 OA
BRANCH  39  42
ATOM     42  C   UNL A   1      44.577  37.342  32.199  1.00  0.00     0.039 A 
ATOM     43  C   UNL A   1      44.589  36.206  31.392  1.00  0.00     0.014 A 
ATOM     44  C   UNL A   1      43.681  37.395  33.279  1.00  0.00     0.014 A 
ATOM     45  C   UNL A   1      43.631  35.226  31.544  1.00  0.00     0.010 A 
ATOM     46  C   UNL A   1      42.749  36.386  33.475  1.00  0.00     0.010 A 
ATOM     47  C   UNL A   1      42.692  35.340  32.563  1.00  0.00    -0.014 A 
BRANCH  47  48
ATOM     48  C   UNL A   1      41.752  34.242  32.693  1.00  0.00     0.031 A 
ATOM     49  C   UNL A   1      40.617  34.342  31.737  1.00  0.00     0.074 A 
ATOM     50  C   UNL A   1      41.916  33.240  33.576  1.00  0.00     0.049 A 
ATOM     51  N   UNL A   1      39.385  34.621  32.009  1.00  0.00    -0.248 NA
ATOM     52  C   UNL A   1      40.927  34.334  30.298  1.00  0.00     0.031 C 
ATOM     53  C   UNL A   1      43.111  32.944  34.373  1.00  0.00     0.029 A 
ATOM     54  N   UNL A   1      41.093  32.192  33.857  1.00  0.00    -0.354 N 
ATOM     55  C   UNL A   1      38.719  34.555  30.787  1.00  0.00     0.074 A 
ATOM     56  C   UNL A   1      39.728  34.573  29.762  1.00  0.00     0.031 C 
ATOM     57  C   UNL A   1      43.039  31.670  34.820  1.00  0.00     0.029 A 
ATOM     58  C   UNL A   1      41.739  31.125  34.478  1.00  0.00     0.049 A 
ATOM     59  H   UNL A   1      40.133  32.189  33.640  1.00  0.00     0.167 HD
ATOM     60  C   UNL A   1      37.414  34.178  30.723  1.00  0.00     0.034 A 
ATOM     61  C   UNL A   1      41.243  29.871  34.616  1.00  0.00     0.034 A 
ATOM     62  C   UNL A   1      36.788  34.204  32.014  1.00  0.00     0.049 A 
ATOM     63  C   UNL A   1      39.770  29.993  34.555  1.00  0.00     0.074 A 
ATOM     64  C   UNL A   1      36.306  35.160  32.879  1.00  0.00     0.029 A 
ATOM     65  N   UNL A   1      36.994  33.057  32.731  1.00  0.00    -0.354 N 
ATOM     66  N   UNL A   1      39.064  30.629  35.448  1.00  0.00    -0.248 NA
ATOM     67  C   UNL A   1      39.075  29.673  33.313  1.00  0.00     0.031 C 
ATOM     68  C   UNL A   1      36.420  34.597  34.185  1.00  0.00     0.029 A 
ATOM     69  C   UNL A   1      36.923  33.303  34.074  1.00  0.00     0.049 A 
ATOM     70  H   UNL A   1      37.171  32.174  32.334  1.00  0.00     0.167 HD
ATOM     71  C   UNL A   1      38.024  31.171  34.720  1.00  0.00     0.074 A 
ATOM     72  C   UNL A   1      37.970  30.402  33.484  1.00  0.00     0.031 C 
ATOM     73  C   UNL A   1      37.524  32.400  35.029  1.00  0.00     0.034 A 
BRANCH  60  74
ATOM     74  C   UNL A   1      36.856  33.320  29.613  1.00  0.00     0.023 A 
ATOM     75  C   UNL A   1      35.718  33.774  28.916  1.00  0.00     0.012 A 
ATOM     76  C   UNL A   1      37.230  31.967  29.428  1.00  0.00     0.148 A 
ATOM     77  C   UNL A   1      35.004  32.927  28.057  1.00  0.00     0.002 A 
ATOM     78  C   UNL A   1      36.566  31.154  28.517  1.00  0.00     0.091 A 
ATOM     79  F   UNL A   1      38.139  31.418  30.240  1.00  0.00    -0.205 F 
ATOM     80  C   UNL A   1      35.441  31.624  27.840  1.00  0.00     0.022 A 
BRANCH  78  81
ATOM     81  S   UNL A   1      37.113  29.475  28.189  1.00  0.00     0.127 S 
ATOM     82  O   UNL A   1      37.224  28.936  29.546  1.00  0.00    -0.237 OA
ATOM     83  O   UNL A   1      35.991  28.948  27.407  1.00  0.00    -0.237 OA
ATOM     84  O   UNL A   1      38.350  29.605  27.447  1.00  0.00    -0.744 OA
ENDBRANCH  78  81
ENDBRANCH  60  74
BRANCH  61  85
ATOM     85  C   UNL A   1      41.910  28.549  34.485  1.00  0.00     0.023 A 
ATOM     86  C   UNL A   1      42.770  28.338  33.384  1.00  0.00     0.012 A 
ATOM     87  C   UNL A   1      41.992  27.651  35.569  1.00  0.00     0.148 A 
ATOM     88  C   UNL A   1      43.752  27.342  33.410  1.00  0.00     0.002 A 
ATOM     89  C   UNL A   1      42.965  26.653  35.586  1.00  0.00     0.091 A 
ATOM     90  F   UNL A   1      41.191  27.829  36.627  1.00  0.00    -0.205 F 
ATOM     91  C   UNL A   1      43.864  26.514  34.521  1.00  0.00     0.022 A 
BRANCH  89  92
ATOM     92  S   UNL A   1      43.174  25.550  36.991  1.00  0.00     0.127 S 
ATOM     93  O   UNL A   1      44.279  24.698  36.548  1.00  0.00    -0.237 OA
ATOM     94  O   UNL A   1      43.511  26.483  38.061  1.00  0.00    -0.237 OA
ATOM     95  O   UNL A   1      41.903  24.851  37.132  1.00  0.00    -0.744 OA
ENDBRANCH  89  92
ENDBRANCH  61  85
BRANCH  73  96
ATOM     96  C   UNL A   1      37.759  32.914  36.417  1.00  0.00     0.023 A 
ATOM     97  C   UNL A   1      37.129  32.378  37.557  1.00  0.00     0.012 A 
ATOM     98  C   UNL A   1      38.745  33.900  36.572  1.00  0.00     0.148 A 
ATOM     99  C   UNL A   1      37.483  32.825  38.833  1.00  0.00     0.002 A 
ATOM    100  C   UNL A   1      39.117  34.315  37.840  1.00  0.00     0.091 A 
ATOM    101  F   UNL A   1      39.324  34.390  35.465  1.00  0.00    -0.205 F 
ATOM    102  C   UNL A   1      38.486  33.783  38.976  1.00  0.00     0.022 A 
BRANCH 100 103
ATOM    103  S   UNL A   1      40.460  35.476  38.090  1.00  0.00     0.127 S 
ATOM    104  O   UNL A   1      41.270  35.268  36.891  1.00  0.00    -0.237 OA
ATOM    105  O   UNL A   1      39.755  36.757  38.140  1.00  0.00    -0.237 OA
ATOM    106  O   UNL A   1      41.100  35.095  39.344  1.00  0.00    -0.744 OA
ENDBRANCH 100 103
ENDBRANCH  73  96
ENDBRANCH  47  48
ENDBRANCH  39  42
ENDBRANCH  37  38
ENDBRANCH  36  37
ENDBRANCH   1  36
TORSDOF 21
ENDMDL
