MODEL 1
REMARK VINA RESULT:     -12.1      0.000      0.000
REMARK SMILES O=C(NCCCCNC(=O)c1ccc(C[NH2+][C@@H]2CCCc3sccc32)nc1)c1ccc(-c2c3nc(c(-c4cccc(S(=O)(=O)[O-])c4F)c4ccc([nH]4)c(-c4cccc(S(=O)(=O)[O-])c4F)c4nc(c(-c5cccc(S(=O)(=O)[O-])c5F)c5ccc2[nH]5)C=C4)C=C3)cc1
REMARK SMILES IDX 5 1 4 2 3 3 1 4 2 5 28 7 29 8 90 9 30 10 89 11 31 12 32 13
REMARK SMILES IDX 33 14 83 15 34 16 88 17 82 18 84 19 35 20 87 21 81 22 80 23
REMARK SMILES IDX 36 25 68 26 48 27 67 28 49 29 52 30 66 31 85 32 50 33 51 34
REMARK SMILES IDX 65 36 86 37 53 38 37 39 38 40 46 41 39 42 41 43 47 44 40 45
REMARK SMILES IDX 42 46 43 47 44 48 45 49 69 50 70 51 78 52 71 53 73 54 79 55
REMARK SMILES IDX 72 56 74 57 75 58 76 59 77 60 54 61 55 62 63 63 56 64 58 65
REMARK SMILES IDX 64 66 57 67 59 68 60 69 61 70 62 71 6 72 7 73 8 74 9 75
REMARK SMILES IDX 10 77 11 78 12 79 27 80 13 81 26 82 14 83 15 84 16 85 17 88
REMARK SMILES IDX 18 89 25 90 19 91 21 92 24 93 20 94 22 95 23 96
REMARK H PARENT 3 6 84 24 52 35 8 76 16 86 16 87
REMARK Flexibility Score: inf
ROOT
ATOM      1  C   UNL A   1      37.994  19.895  24.937  1.00  0.00     0.023 C 
ENDROOT
BRANCH   1   2
ATOM      2  C   UNL A   1      39.092  20.243  25.935  1.00  0.00     0.116 C 
BRANCH   2   3
ATOM      3  N   UNL A   1      40.199  19.302  25.896  1.00  0.00    -0.352 N 
ATOM      4  O   UNL A   1      42.345  18.640  25.764  1.00  0.00    -0.269 OA
ATOM      5  C   UNL A   1      41.548  19.541  26.003  1.00  0.00     0.251 C 
ATOM      6  H   UNL A   1      39.946  18.358  25.774  1.00  0.00     0.163 HD
BRANCH   5   7
ATOM      7  C   UNL A   1      42.024  20.889  26.376  1.00  0.00     0.039 A 
ATOM      8  C   UNL A   1      42.260  21.216  27.715  1.00  0.00     0.014 A 
ATOM      9  C   UNL A   1      42.234  21.837  25.373  1.00  0.00     0.014 A 
ATOM     10  C   UNL A   1      42.569  22.526  28.065  1.00  0.00     0.010 A 
ATOM     11  C   UNL A   1      42.625  23.131  25.720  1.00  0.00     0.010 A 
ATOM     12  C   UNL A   1      42.765  23.494  27.069  1.00  0.00    -0.014 A 
BRANCH  12  13
ATOM     13  C   UNL A   1      43.184  24.870  27.438  1.00  0.00     0.031 A 
ATOM     14  C   UNL A   1      42.221  25.822  28.086  1.00  0.00     0.074 A 
ATOM     15  C   UNL A   1      44.428  25.276  27.120  1.00  0.00     0.049 A 
ATOM     16  N   UNL A   1      42.388  27.084  28.388  1.00  0.00    -0.248 NA
ATOM     17  C   UNL A   1      40.893  25.293  28.433  1.00  0.00     0.031 C 
ATOM     18  C   UNL A   1      45.436  24.448  26.454  1.00  0.00     0.029 A 
ATOM     19  N   UNL A   1      45.043  26.491  27.276  1.00  0.00    -0.354 N 
ATOM     20  C   UNL A   1      41.176  27.515  28.910  1.00  0.00     0.074 A 
ATOM     21  C   UNL A   1      40.280  26.378  28.884  1.00  0.00     0.031 C 
ATOM     22  C   UNL A   1      46.536  25.183  26.241  1.00  0.00     0.029 A 
ATOM     23  C   UNL A   1      46.289  26.546  26.699  1.00  0.00     0.049 A 
ATOM     24  H   UNL A   1      44.634  27.248  27.754  1.00  0.00     0.167 HD
ATOM     25  C   UNL A   1      40.844  28.745  29.372  1.00  0.00     0.034 A 
ATOM     26  C   UNL A   1      47.127  27.584  26.513  1.00  0.00     0.034 A 
ATOM     27  C   UNL A   1      41.750  29.863  29.408  1.00  0.00     0.049 A 
ATOM     28  C   UNL A   1      46.740  28.936  27.032  1.00  0.00     0.074 A 
ATOM     29  C   UNL A   1      41.537  31.125  29.931  1.00  0.00     0.029 A 
ATOM     30  N   UNL A   1      43.032  29.860  28.878  1.00  0.00    -0.354 N 
ATOM     31  N   UNL A   1      45.639  29.296  27.645  1.00  0.00    -0.248 NA
ATOM     32  C   UNL A   1      47.719  30.020  26.867  1.00  0.00     0.031 C 
ATOM     33  C   UNL A   1      42.674  31.900  29.680  1.00  0.00     0.029 A 
ATOM     34  C   UNL A   1      43.614  31.106  29.041  1.00  0.00     0.049 A 
ATOM     35  H   UNL A   1      43.464  29.087  28.449  1.00  0.00     0.167 HD
ATOM     36  C   UNL A   1      45.802  30.637  27.969  1.00  0.00     0.074 A 
ATOM     37  C   UNL A   1      47.114  31.024  27.490  1.00  0.00     0.031 C 
ATOM     38  C   UNL A   1      44.940  31.468  28.603  1.00  0.00     0.034 A 
BRANCH  25  39
ATOM     39  C   UNL A   1      39.438  28.946  29.881  1.00  0.00     0.023 A 
ATOM     40  C   UNL A   1      39.082  28.488  31.166  1.00  0.00     0.012 A 
ATOM     41  C   UNL A   1      38.479  29.622  29.101  1.00  0.00     0.148 A 
ATOM     42  C   UNL A   1      37.783  28.654  31.646  1.00  0.00     0.002 A 
ATOM     43  C   UNL A   1      37.200  29.826  29.606  1.00  0.00     0.091 A 
ATOM     44  F   UNL A   1      38.826  30.035  27.875  1.00  0.00    -0.205 F 
ATOM     45  C   UNL A   1      36.846  29.330  30.870  1.00  0.00     0.022 A 
BRANCH  43  46
ATOM     46  S   UNL A   1      35.951  30.758  28.711  1.00  0.00     0.127 S 
ATOM     47  O   UNL A   1      36.768  31.744  28.005  1.00  0.00    -0.237 OA
ATOM     48  O   UNL A   1      35.357  29.734  27.850  1.00  0.00    -0.237 OA
ATOM     49  O   UNL A   1      35.051  31.292  29.723  1.00  0.00    -0.744 OA
ENDBRANCH  43  46
ENDBRANCH  25  39
BRANCH  26  50
ATOM     50  C   UNL A   1      48.417  27.350  25.809  1.00  0.00     0.023 A 
ATOM     51  C   UNL A   1      49.518  26.842  26.521  1.00  0.00     0.012 A 
ATOM     52  C   UNL A   1      48.521  27.537  24.415  1.00  0.00     0.148 A 
ATOM     53  C   UNL A   1      50.708  26.535  25.860  1.00  0.00     0.002 A 
ATOM     54  C   UNL A   1      49.687  27.174  23.754  1.00  0.00     0.091 A 
ATOM     55  F   UNL A   1      47.457  28.025  23.760  1.00  0.00    -0.205 F 
ATOM     56  C   UNL A   1      50.787  26.688  24.477  1.00  0.00     0.022 A 
BRANCH  54  57
ATOM     57  S   UNL A   1      49.832  27.197  21.965  1.00  0.00     0.127 S 
ATOM     58  O   UNL A   1      49.645  28.615  21.667  1.00  0.00    -0.237 OA
ATOM     59  O   UNL A   1      51.195  26.700  21.770  1.00  0.00    -0.237 OA
ATOM     60  O   UNL A   1      48.789  26.308  21.470  1.00  0.00    -0.744 OA
ENDBRANCH  54  57
ENDBRANCH  26  50
BRANCH  38  61
ATOM     61  C   UNL A   1      45.391  32.879  28.875  1.00  0.00     0.023 A 
ATOM     62  C   UNL A   1      46.159  33.168  30.019  1.00  0.00     0.012 A 
ATOM     63  C   UNL A   1      45.148  33.893  27.926  1.00  0.00     0.148 A 
ATOM     64  C   UNL A   1      46.666  34.451  30.223  1.00  0.00     0.002 A 
ATOM     65  C   UNL A   1      45.700  35.154  28.110  1.00  0.00     0.091 A 
ATOM     66  F   UNL A   1      44.398  33.597  26.854  1.00  0.00    -0.205 F 
ATOM     67  C   UNL A   1      46.451  35.438  29.262  1.00  0.00     0.022 A 
BRANCH  65  68
ATOM     68  S   UNL A   1      45.563  36.456  26.880  1.00  0.00     0.127 S 
ATOM     69  O   UNL A   1      46.289  35.875  25.751  1.00  0.00    -0.237 OA
ATOM     70  O   UNL A   1      44.116  36.551  26.691  1.00  0.00    -0.237 OA
ATOM     71  O   UNL A   1      46.179  37.637  27.470  1.00  0.00    -0.744 OA
ENDBRANCH  65  68
ENDBRANCH  38  61
ENDBRANCH  12  13
ENDBRANCH   5   7
ENDBRANCH   2   3
ENDBRANCH   1   2
BRANCH   1  72
ATOM     72  C   UNL A   1      37.023  21.033  24.626  1.00  0.00     0.023 C 
BRANCH  72  73
ATOM     73  C   UNL A   1      35.698  20.970  25.377  1.00  0.00     0.116 C 
BRANCH  73  74
ATOM     74  N   UNL A   1      34.900  19.813  25.001  1.00  0.00    -0.352 N 
ATOM     75  C   UNL A   1      33.572  19.766  24.660  1.00  0.00     0.252 C 
ATOM     76  H   UNL A   1      35.375  18.951  24.991  1.00  0.00     0.163 HD
ATOM     77  O   UNL A   1      32.993  18.693  24.522  1.00  0.00    -0.269 OA
BRANCH  75  78
ATOM     78  C   UNL A   1      32.834  21.020  24.476  1.00  0.00     0.058 A 
ATOM     79  C   UNL A   1      32.216  21.676  25.540  1.00  0.00     0.017 A 
ATOM     80  C   UNL A   1      32.739  21.563  23.208  1.00  0.00     0.125 A 
ATOM     81  C   UNL A   1      31.473  22.822  25.282  1.00  0.00     0.030 A 
ATOM     82  N   UNL A   1      32.015  22.672  22.932  1.00  0.00    -0.255 NA
ATOM     83  C   UNL A   1      31.384  23.284  23.969  1.00  0.00     0.094 A 
BRANCH  83  84
ATOM     84  C   UNL A   1      30.608  24.550  23.663  1.00  0.00     0.318 C 
BRANCH  84  85
ATOM     85  N   UNL A   1      29.901  25.035  24.845  1.00  0.00    -0.335 N 
ATOM     86  H   UNL A   1      30.413  24.736  25.675  1.00  0.00     0.347 HD
ATOM     87  H   UNL A   1      28.958  24.647  24.814  1.00  0.00     0.347 HD
BRANCH  85  88
ATOM     88  C   UNL A   1      29.770  26.483  24.880  1.00  0.00     0.215 C 
ATOM     89  C   UNL A   1      29.346  26.938  23.467  1.00  0.00     0.071 C 
ATOM     90  C   UNL A   1      31.078  27.125  25.286  1.00  0.00     0.023 A 
ATOM     91  C   UNL A   1      29.436  28.463  23.329  1.00  0.00     0.012 C 
ATOM     92  C   UNL A   1      31.545  28.266  24.654  1.00  0.00     0.014 A 
ATOM     93  C   UNL A   1      31.974  26.726  26.332  1.00  0.00     0.022 A 
ATOM     94  C   UNL A   1      30.878  28.957  23.503  1.00  0.00     0.047 C 
ATOM     95  S   UNL A   1      33.028  28.818  25.282  1.00  0.00    -0.148 S 
ATOM     96  C   UNL A   1      33.075  27.550  26.427  1.00  0.00     0.065 A 
ENDBRANCH  85  88
ENDBRANCH  84  85
ENDBRANCH  83  84
ENDBRANCH  75  78
ENDBRANCH  73  74
ENDBRANCH  72  73
ENDBRANCH   1  72
TORSDOF 17
ENDMDL
MODEL 2
REMARK VINA RESULT:     -12.0      4.782      8.440
REMARK SMILES O=C(NCCCCNC(=O)c1ccc(C[NH2+][C@@H]2CCCc3sccc32)nc1)c1ccc(-c2c3nc(c(-c4cccc(S(=O)(=O)[O-])c4F)c4ccc([nH]4)c(-c4cccc(S(=O)(=O)[O-])c4F)c4nc(c(-c5cccc(S(=O)(=O)[O-])c5F)c5ccc2[nH]5)C=C4)C=C3)cc1
REMARK SMILES IDX 5 1 4 2 3 3 1 4 2 5 28 7 29 8 90 9 30 10 89 11 31 12 32 13
REMARK SMILES IDX 33 14 83 15 34 16 88 17 82 18 84 19 35 20 87 21 81 22 80 23
REMARK SMILES IDX 36 25 68 26 48 27 67 28 49 29 52 30 66 31 85 32 50 33 51 34
REMARK SMILES IDX 65 36 86 37 53 38 37 39 38 40 46 41 39 42 41 43 47 44 40 45
REMARK SMILES IDX 42 46 43 47 44 48 45 49 69 50 70 51 78 52 71 53 73 54 79 55
REMARK SMILES IDX 72 56 74 57 75 58 76 59 77 60 54 61 55 62 63 63 56 64 58 65
REMARK SMILES IDX 64 66 57 67 59 68 60 69 61 70 62 71 6 72 7 73 8 74 9 75
REMARK SMILES IDX 10 77 11 78 12 79 27 80 13 81 26 82 14 83 15 84 16 85 17 88
REMARK SMILES IDX 18 89 25 90 19 91 21 92 24 93 20 94 22 95 23 96
REMARK H PARENT 3 6 84 24 52 35 8 76 16 86 16 87
REMARK Flexibility Score: inf
ROOT
ATOM      1  C   UNL A   1      33.470  28.241  25.495  1.00  0.00     0.023 C 
ENDROOT
BRANCH   1   2
ATOM      2  C   UNL A   1      33.699  28.652  26.944  1.00  0.00     0.116 C 
BRANCH   2   3
ATOM      3  N   UNL A   1      33.706  30.095  27.120  1.00  0.00    -0.352 N 
ATOM      4  O   UNL A   1      34.358  32.069  27.979  1.00  0.00    -0.269 OA
ATOM      5  C   UNL A   1      34.614  30.886  27.781  1.00  0.00     0.251 C 
ATOM      6  H   UNL A   1      32.952  30.573  26.706  1.00  0.00     0.163 HD
BRANCH   5   7
ATOM      7  C   UNL A   1      35.877  30.296  28.272  1.00  0.00     0.039 A 
ATOM      8  C   UNL A   1      35.939  29.690  29.531  1.00  0.00     0.014 A 
ATOM      9  C   UNL A   1      37.013  30.354  27.463  1.00  0.00     0.014 A 
ATOM     10  C   UNL A   1      37.163  29.268  30.038  1.00  0.00     0.010 A 
ATOM     11  C   UNL A   1      38.225  29.855  27.942  1.00  0.00     0.010 A 
ATOM     12  C   UNL A   1      38.317  29.337  29.244  1.00  0.00    -0.014 A 
BRANCH  12  13
ATOM     13  C   UNL A   1      39.605  28.802  29.751  1.00  0.00     0.031 A 
ATOM     14  C   UNL A   1      40.345  29.495  30.859  1.00  0.00     0.074 A 
ATOM     15  C   UNL A   1      40.137  27.717  29.155  1.00  0.00     0.049 A 
ATOM     16  N   UNL A   1      41.523  29.222  31.359  1.00  0.00    -0.248 NA
ATOM     17  C   UNL A   1      39.682  30.651  31.480  1.00  0.00     0.031 C 
ATOM     18  C   UNL A   1      39.525  26.986  28.044  1.00  0.00     0.029 A 
ATOM     19  N   UNL A   1      41.325  27.067  29.371  1.00  0.00    -0.354 N 
ATOM     20  C   UNL A   1      41.767  30.199  32.315  1.00  0.00     0.074 A 
ATOM     21  C   UNL A   1      40.613  31.073  32.326  1.00  0.00     0.031 C 
ATOM     22  C   UNL A   1      40.348  26.000  27.662  1.00  0.00     0.029 A 
ATOM     23  C   UNL A   1      41.568  26.069  28.459  1.00  0.00     0.049 A 
ATOM     24  H   UNL A   1      41.940  27.292  30.105  1.00  0.00     0.167 HD
ATOM     25  C   UNL A   1      42.852  30.349  33.113  1.00  0.00     0.034 A 
ATOM     26  C   UNL A   1      42.667  25.319  28.248  1.00  0.00     0.034 A 
ATOM     27  C   UNL A   1      43.985  29.462  33.104  1.00  0.00     0.049 A 
ATOM     28  C   UNL A   1      43.857  25.501  29.143  1.00  0.00     0.074 A 
ATOM     29  C   UNL A   1      45.096  29.480  33.928  1.00  0.00     0.029 A 
ATOM     30  N   UNL A   1      44.165  28.415  32.212  1.00  0.00    -0.354 N 
ATOM     31  N   UNL A   1      44.018  26.345  30.133  1.00  0.00    -0.248 NA
ATOM     32  C   UNL A   1      45.003  24.610  28.918  1.00  0.00     0.031 C 
ATOM     33  C   UNL A   1      45.968  28.470  33.507  1.00  0.00     0.029 A 
ATOM     34  C   UNL A   1      45.380  27.794  32.450  1.00  0.00     0.049 A 
ATOM     35  H   UNL A   1      43.524  28.153  31.513  1.00  0.00     0.167 HD
ATOM     36  C   UNL A   1      45.268  26.067  30.672  1.00  0.00     0.074 A 
ATOM     37  C   UNL A   1      45.819  24.970  29.902  1.00  0.00     0.031 C 
ATOM     38  C   UNL A   1      45.898  26.671  31.708  1.00  0.00     0.034 A 
BRANCH  25  39
ATOM     39  C   UNL A   1      42.863  31.517  34.067  1.00  0.00     0.023 A 
ATOM     40  C   UNL A   1      43.464  32.734  33.686  1.00  0.00     0.012 A 
ATOM     41  C   UNL A   1      42.245  31.421  35.330  1.00  0.00     0.148 A 
ATOM     42  C   UNL A   1      43.493  33.818  34.562  1.00  0.00     0.002 A 
ATOM     43  C   UNL A   1      42.236  32.522  36.179  1.00  0.00     0.091 A 
ATOM     44  F   UNL A   1      41.694  30.253  35.687  1.00  0.00    -0.205 F 
ATOM     45  C   UNL A   1      42.873  33.715  35.804  1.00  0.00     0.022 A 
BRANCH  43  46
ATOM     46  S   UNL A   1      41.389  32.506  37.764  1.00  0.00     0.127 S 
ATOM     47  O   UNL A   1      42.216  31.575  38.531  1.00  0.00    -0.237 OA
ATOM     48  O   UNL A   1      41.497  33.903  38.187  1.00  0.00    -0.237 OA
ATOM     49  O   UNL A   1      40.031  32.063  37.485  1.00  0.00    -0.744 OA
ENDBRANCH  43  46
ENDBRANCH  25  39
BRANCH  26  50
ATOM     50  C   UNL A   1      42.659  24.323  27.143  1.00  0.00     0.023 A 
ATOM     51  C   UNL A   1      43.352  24.599  25.951  1.00  0.00     0.012 A 
ATOM     52  C   UNL A   1      42.049  23.063  27.313  1.00  0.00     0.148 A 
ATOM     53  C   UNL A   1      43.428  23.642  24.938  1.00  0.00     0.002 A 
ATOM     54  C   UNL A   1      42.179  22.094  26.326  1.00  0.00     0.091 A 
ATOM     55  F   UNL A   1      41.394  22.825  28.458  1.00  0.00    -0.205 F 
ATOM     56  C   UNL A   1      42.855  22.387  25.132  1.00  0.00     0.022 A 
BRANCH  54  57
ATOM     57  S   UNL A   1      41.604  20.408  26.546  1.00  0.00     0.127 S 
ATOM     58  O   UNL A   1      42.145  19.750  25.359  1.00  0.00    -0.237 OA
ATOM     59  O   UNL A   1      42.249  20.035  27.806  1.00  0.00    -0.237 OA
ATOM     60  O   UNL A   1      40.151  20.488  26.612  1.00  0.00    -0.744 OA
ENDBRANCH  54  57
ENDBRANCH  26  50
BRANCH  38  61
ATOM     61  C   UNL A   1      47.243  26.136  32.124  1.00  0.00     0.023 A 
ATOM     62  C   UNL A   1      47.342  25.218  33.187  1.00  0.00     0.012 A 
ATOM     63  C   UNL A   1      48.394  26.461  31.377  1.00  0.00     0.148 A 
ATOM     64  C   UNL A   1      48.570  24.641  33.509  1.00  0.00     0.002 A 
ATOM     65  C   UNL A   1      49.602  25.843  31.671  1.00  0.00     0.091 A 
ATOM     66  F   UNL A   1      48.277  27.353  30.382  1.00  0.00    -0.205 F 
ATOM     67  C   UNL A   1      49.695  24.941  32.743  1.00  0.00     0.022 A 
BRANCH  65  68
ATOM     68  S   UNL A   1      51.078  26.088  30.677  1.00  0.00     0.127 S 
ATOM     69  O   UNL A   1      52.067  25.300  31.413  1.00  0.00    -0.237 OA
ATOM     70  O   UNL A   1      50.680  25.519  29.390  1.00  0.00    -0.237 OA
ATOM     71  O   UNL A   1      51.321  27.524  30.658  1.00  0.00    -0.744 OA
ENDBRANCH  65  68
ENDBRANCH  38  61
ENDBRANCH  12  13
ENDBRANCH   5   7
ENDBRANCH   2   3
ENDBRANCH   1   2
BRANCH   1  72
ATOM     72  C   UNL A   1      32.849  29.321  24.611  1.00  0.00     0.023 C 
BRANCH  72  73
ATOM     73  C   UNL A   1      31.362  29.567  24.845  1.00  0.00     0.116 C 
BRANCH  73  74
ATOM     74  N   UNL A   1      30.647  29.862  23.612  1.00  0.00    -0.352 N 
ATOM     75  C   UNL A   1      30.258  28.995  22.623  1.00  0.00     0.252 C 
ATOM     76  H   UNL A   1      30.413  30.807  23.469  1.00  0.00     0.163 HD
ATOM     77  O   UNL A   1      29.803  29.410  21.562  1.00  0.00    -0.269 OA
BRANCH  75  78
ATOM     78  C   UNL A   1      30.407  27.552  22.835  1.00  0.00     0.058 A 
ATOM     79  C   UNL A   1      29.581  26.844  23.707  1.00  0.00     0.017 A 
ATOM     80  C   UNL A   1      31.403  26.873  22.157  1.00  0.00     0.125 A 
ATOM     81  C   UNL A   1      29.823  25.491  23.913  1.00  0.00     0.030 A 
ATOM     82  N   UNL A   1      31.663  25.559  22.348  1.00  0.00    -0.255 NA
ATOM     83  C   UNL A   1      30.877  24.885  23.230  1.00  0.00     0.094 A 
BRANCH  83  84
ATOM     84  C   UNL A   1      31.144  23.404  23.410  1.00  0.00     0.318 C 
BRANCH  84  85
ATOM     85  N   UNL A   1      32.233  22.953  22.549  1.00  0.00    -0.335 N 
ATOM     86  H   UNL A   1      32.858  23.741  22.379  1.00  0.00     0.347 HD
ATOM     87  H   UNL A   1      31.814  22.603  21.688  1.00  0.00     0.347 HD
BRANCH  85  88
ATOM     88  C   UNL A   1      33.007  21.866  23.125  1.00  0.00     0.215 C 
ATOM     89  C   UNL A   1      32.054  21.054  24.028  1.00  0.00     0.071 C 
ATOM     90  C   UNL A   1      34.175  22.408  23.920  1.00  0.00     0.023 A 
ATOM     91  C   UNL A   1      32.829  20.047  24.885  1.00  0.00     0.012 C 
ATOM     92  C   UNL A   1      34.525  21.864  25.145  1.00  0.00     0.014 A 
ATOM     93  C   UNL A   1      35.076  23.464  23.562  1.00  0.00     0.022 A 
ATOM     94  C   UNL A   1      33.797  20.754  25.843  1.00  0.00     0.047 C 
ATOM     95  S   UNL A   1      35.875  22.623  25.852  1.00  0.00    -0.148 S 
ATOM     96  C   UNL A   1      36.034  23.690  24.527  1.00  0.00     0.065 A 
ENDBRANCH  85  88
ENDBRANCH  84  85
ENDBRANCH  83  84
ENDBRANCH  75  78
ENDBRANCH  73  74
ENDBRANCH  72  73
ENDBRANCH   1  72
TORSDOF 17
ENDMDL
MODEL 3
REMARK VINA RESULT:     -12.0      6.249     11.562
REMARK SMILES O=C(NCCCCNC(=O)c1ccc(C[NH2+][C@@H]2CCCc3sccc32)nc1)c1ccc(-c2c3nc(c(-c4cccc(S(=O)(=O)[O-])c4F)c4ccc([nH]4)c(-c4cccc(S(=O)(=O)[O-])c4F)c4nc(c(-c5cccc(S(=O)(=O)[O-])c5F)c5ccc2[nH]5)C=C4)C=C3)cc1
REMARK SMILES IDX 5 1 4 2 3 3 1 4 2 5 28 7 29 8 90 9 30 10 89 11 31 12 32 13
REMARK SMILES IDX 33 14 83 15 34 16 88 17 82 18 84 19 35 20 87 21 81 22 80 23
REMARK SMILES IDX 36 25 68 26 48 27 67 28 49 29 52 30 66 31 85 32 50 33 51 34
REMARK SMILES IDX 65 36 86 37 53 38 37 39 38 40 46 41 39 42 41 43 47 44 40 45
REMARK SMILES IDX 42 46 43 47 44 48 45 49 69 50 70 51 78 52 71 53 73 54 79 55
REMARK SMILES IDX 72 56 74 57 75 58 76 59 77 60 54 61 55 62 63 63 56 64 58 65
REMARK SMILES IDX 64 66 57 67 59 68 60 69 61 70 62 71 6 72 7 73 8 74 9 75
REMARK SMILES IDX 10 77 11 78 12 79 27 80 13 81 26 82 14 83 15 84 16 85 17 88
REMARK SMILES IDX 18 89 25 90 19 91 21 92 24 93 20 94 22 95 23 96
REMARK H PARENT 3 6 84 24 52 35 8 76 16 86 16 87
REMARK Flexibility Score: inf
ROOT
ATOM      1  C   UNL A   1      31.669  31.660  26.863  1.00  0.00     0.023 C 
ENDROOT
BRANCH   1   2
ATOM      2  C   UNL A   1      32.924  32.478  27.144  1.00  0.00     0.116 C 
BRANCH   2   3
ATOM      3  N   UNL A   1      32.620  33.820  27.611  1.00  0.00    -0.352 N 
ATOM      4  O   UNL A   1      32.681  35.588  29.002  1.00  0.00    -0.269 OA
ATOM      5  C   UNL A   1      33.192  34.535  28.636  1.00  0.00     0.251 C 
ATOM      6  H   UNL A   1      31.901  34.283  27.124  1.00  0.00     0.163 HD
BRANCH   5   7
ATOM      7  C   UNL A   1      34.401  34.012  29.306  1.00  0.00     0.039 A 
ATOM      8  C   UNL A   1      35.675  34.415  28.894  1.00  0.00     0.014 A 
ATOM      9  C   UNL A   1      34.256  33.105  30.357  1.00  0.00     0.014 A 
ATOM     10  C   UNL A   1      36.803  33.808  29.436  1.00  0.00     0.010 A 
ATOM     11  C   UNL A   1      35.392  32.557  30.956  1.00  0.00     0.010 A 
ATOM     12  C   UNL A   1      36.673  32.881  30.480  1.00  0.00    -0.014 A 
BRANCH  12  13
ATOM     13  C   UNL A   1      37.880  32.302  31.120  1.00  0.00     0.031 A 
ATOM     14  C   UNL A   1      38.607  31.147  30.493  1.00  0.00     0.074 A 
ATOM     15  C   UNL A   1      38.280  32.788  32.311  1.00  0.00     0.049 A 
ATOM     16  N   UNL A   1      39.618  30.460  30.959  1.00  0.00    -0.248 NA
ATOM     17  C   UNL A   1      38.131  30.697  29.176  1.00  0.00     0.031 C 
ATOM     18  C   UNL A   1      37.627  33.882  33.032  1.00  0.00     0.029 A 
ATOM     19  N   UNL A   1      39.299  32.401  33.142  1.00  0.00    -0.354 N 
ATOM     20  C   UNL A   1      39.867  29.466  30.022  1.00  0.00     0.074 A 
ATOM     21  C   UNL A   1      38.901  29.639  28.959  1.00  0.00     0.031 C 
ATOM     22  C   UNL A   1      38.248  34.068  34.204  1.00  0.00     0.029 A 
ATOM     23  C   UNL A   1      39.301  33.067  34.343  1.00  0.00     0.049 A 
ATOM     24  H   UNL A   1      39.963  31.715  32.902  1.00  0.00     0.167 HD
ATOM     25  C   UNL A   1      40.819  28.500  30.046  1.00  0.00     0.034 A 
ATOM     26  C   UNL A   1      40.033  32.871  35.457  1.00  0.00     0.034 A 
ATOM     27  C   UNL A   1      41.785  28.350  31.101  1.00  0.00     0.049 A 
ATOM     28  C   UNL A   1      41.080  31.798  35.462  1.00  0.00     0.074 A 
ATOM     29  C   UNL A   1      42.839  27.458  31.180  1.00  0.00     0.029 A 
ATOM     30  N   UNL A   1      41.801  29.092  32.273  1.00  0.00    -0.354 N 
ATOM     31  N   UNL A   1      41.392  30.951  34.511  1.00  0.00    -0.248 NA
ATOM     32  C   UNL A   1      41.900  31.671  36.674  1.00  0.00     0.031 C 
ATOM     33  C   UNL A   1      43.467  27.632  32.418  1.00  0.00     0.029 A 
ATOM     34  C   UNL A   1      42.832  28.663  33.091  1.00  0.00     0.049 A 
ATOM     35  H   UNL A   1      41.171  29.817  32.490  1.00  0.00     0.167 HD
ATOM     36  C   UNL A   1      42.464  30.212  34.995  1.00  0.00     0.074 A 
ATOM     37  C   UNL A   1      42.754  30.717  36.322  1.00  0.00     0.031 C 
ATOM     38  C   UNL A   1      43.142  29.205  34.392  1.00  0.00     0.034 A 
BRANCH  25  39
ATOM     39  C   UNL A   1      40.862  27.532  28.890  1.00  0.00     0.023 A 
ATOM     40  C   UNL A   1      39.941  26.466  28.828  1.00  0.00     0.012 A 
ATOM     41  C   UNL A   1      41.793  27.698  27.845  1.00  0.00     0.148 A 
ATOM     42  C   UNL A   1      39.977  25.555  27.773  1.00  0.00     0.002 A 
ATOM     43  C   UNL A   1      41.791  26.814  26.772  1.00  0.00     0.091 A 
ATOM     44  F   UNL A   1      42.674  28.704  27.926  1.00  0.00    -0.205 F 
ATOM     45  C   UNL A   1      40.895  25.733  26.742  1.00  0.00     0.022 A 
BRANCH  43  46
ATOM     46  S   UNL A   1      42.883  27.014  25.360  1.00  0.00     0.127 S 
ATOM     47  O   UNL A   1      44.183  27.167  26.011  1.00  0.00    -0.237 OA
ATOM     48  O   UNL A   1      42.706  25.748  24.649  1.00  0.00    -0.237 OA
ATOM     49  O   UNL A   1      42.395  28.183  24.642  1.00  0.00    -0.744 OA
ENDBRANCH  43  46
ENDBRANCH  25  39
BRANCH  26  50
ATOM     50  C   UNL A   1      39.787  33.736  36.642  1.00  0.00     0.023 A 
ATOM     51  C   UNL A   1      40.082  35.110  36.575  1.00  0.00     0.012 A 
ATOM     52  C   UNL A   1      39.168  33.217  37.797  1.00  0.00     0.148 A 
ATOM     53  C   UNL A   1      39.777  35.951  37.646  1.00  0.00     0.002 A 
ATOM     54  C   UNL A   1      38.813  34.070  38.834  1.00  0.00     0.091 A 
ATOM     55  F   UNL A   1      38.898  31.904  37.836  1.00  0.00    -0.205 F 
ATOM     56  C   UNL A   1      39.131  35.434  38.767  1.00  0.00     0.022 A 
BRANCH  54  57
ATOM     57  S   UNL A   1      37.851  33.524  40.249  1.00  0.00     0.127 S 
ATOM     58  O   UNL A   1      38.704  32.475  40.803  1.00  0.00    -0.237 OA
ATOM     59  O   UNL A   1      37.779  34.748  41.049  1.00  0.00    -0.237 OA
ATOM     60  O   UNL A   1      36.573  33.076  39.713  1.00  0.00    -0.744 OA
ENDBRANCH  54  57
ENDBRANCH  26  50
BRANCH  38  61
ATOM     61  C   UNL A   1      44.309  28.600  35.127  1.00  0.00     0.023 A 
ATOM     62  C   UNL A   1      45.601  29.135  34.966  1.00  0.00     0.012 A 
ATOM     63  C   UNL A   1      44.094  27.573  36.069  1.00  0.00     0.148 A 
ATOM     64  C   UNL A   1      46.666  28.646  35.722  1.00  0.00     0.002 A 
ATOM     65  C   UNL A   1      45.149  27.128  36.853  1.00  0.00     0.091 A 
ATOM     66  F   UNL A   1      42.857  27.068  36.190  1.00  0.00    -0.205 F 
ATOM     67  C   UNL A   1      46.438  27.656  36.675  1.00  0.00     0.022 A 
BRANCH  65  68
ATOM     68  S   UNL A   1      44.930  25.932  38.176  1.00  0.00     0.127 S 
ATOM     69  O   UNL A   1      46.313  25.557  38.471  1.00  0.00    -0.237 OA
ATOM     70  O   UNL A   1      44.281  26.734  39.213  1.00  0.00    -0.237 OA
ATOM     71  O   UNL A   1      44.104  24.865  37.625  1.00  0.00    -0.744 OA
ENDBRANCH  65  68
ENDBRANCH  38  61
ENDBRANCH  12  13
ENDBRANCH   5   7
ENDBRANCH   2   3
ENDBRANCH   1   2
BRANCH   1  72
ATOM     72  C   UNL A   1      31.894  30.153  26.754  1.00  0.00     0.023 C 
BRANCH  72  73
ATOM     73  C   UNL A   1      32.071  29.630  25.333  1.00  0.00     0.116 C 
BRANCH  73  74
ATOM     74  N   UNL A   1      30.995  30.051  24.448  1.00  0.00    -0.352 N 
ATOM     75  C   UNL A   1      30.323  29.311  23.509  1.00  0.00     0.252 C 
ATOM     76  H   UNL A   1      30.715  30.990  24.533  1.00  0.00     0.163 HD
ATOM     77  O   UNL A   1      29.547  29.843  22.722  1.00  0.00    -0.269 OA
BRANCH  75  78
ATOM     78  C   UNL A   1      30.552  27.864  23.438  1.00  0.00     0.058 A 
ATOM     79  C   UNL A   1      31.429  27.299  22.514  1.00  0.00     0.017 A 
ATOM     80  C   UNL A   1      29.870  27.034  24.308  1.00  0.00     0.125 A 
ATOM     81  C   UNL A   1      31.544  25.915  22.455  1.00  0.00     0.030 A 
ATOM     82  N   UNL A   1      29.959  25.684  24.264  1.00  0.00    -0.255 NA
ATOM     83  C   UNL A   1      30.787  25.140  23.333  1.00  0.00     0.094 A 
BRANCH  83  84
ATOM     84  C   UNL A   1      30.918  23.630  23.314  1.00  0.00     0.318 C 
BRANCH  84  85
ATOM     85  N   UNL A   1      31.865  23.168  24.325  1.00  0.00    -0.335 N 
ATOM     86  H   UNL A   1      31.344  22.905  25.161  1.00  0.00     0.347 HD
ATOM     87  H   UNL A   1      32.516  23.932  24.502  1.00  0.00     0.347 HD
BRANCH  85  88
ATOM     88  C   UNL A   1      32.651  22.023  23.892  1.00  0.00     0.215 C 
ATOM     89  C   UNL A   1      32.260  20.833  24.795  1.00  0.00     0.071 C 
ATOM     90  C   UNL A   1      34.130  22.322  24.001  1.00  0.00     0.023 A 
ATOM     91  C   UNL A   1      33.217  19.652  24.595  1.00  0.00     0.012 C 
ATOM     92  C   UNL A   1      35.020  21.378  24.487  1.00  0.00     0.014 A 
ATOM     93  C   UNL A   1      34.823  23.517  23.616  1.00  0.00     0.022 A 
ATOM     94  C   UNL A   1      34.651  20.018  24.999  1.00  0.00     0.047 C 
ATOM     95  S   UNL A   1      36.631  21.928  24.508  1.00  0.00    -0.148 S 
ATOM     96  C   UNL A   1      36.178  23.439  23.851  1.00  0.00     0.065 A 
ENDBRANCH  85  88
ENDBRANCH  84  85
ENDBRANCH  83  84
ENDBRANCH  75  78
ENDBRANCH  73  74
ENDBRANCH  72  73
ENDBRANCH   1  72
TORSDOF 17
ENDMDL
