MODEL 1
REMARK VINA RESULT:     -12.7      0.000      0.000
REMARK SMILES C[C@@H](C(=O)NCCCCNC(=O)c1ccc(-c2c3nc(c(-c4cccc(S(=O)(=O)[O-])c4F)c4ccc([nH]4)c(-c4cccc(S(=O)(=O)[O-])c4F)c4nc(c(-c5cccc(S(=O)(=O)[O-])c5F)c5ccc2[nH]5)C=C4)C=C3)cc1)c1ccc2c3cc(Cl)ccc3n(C(=O)c3ccc(Cl)cc3)c2c1
REMARK SMILES IDX 7 1 6 2 5 3 3 4 4 5 2 7 1 8 76 9 77 10 98 11 78 12 97 13
REMARK SMILES IDX 79 14 87 15 80 16 86 17 81 18 85 19 82 20 84 21 83 22 88 23
REMARK SMILES IDX 89 24 90 25 91 26 96 27 92 28 95 29 93 30 94 31 8 32 9 33
REMARK SMILES IDX 10 34 11 35 12 37 13 38 14 39 75 40 15 41 74 42 16 43 17 44
REMARK SMILES IDX 18 45 68 46 19 47 73 48 67 49 69 50 20 51 72 52 66 53 65 54
REMARK SMILES IDX 21 56 53 57 33 58 52 59 34 60 37 61 51 62 70 63 35 64 36 65
REMARK SMILES IDX 50 67 71 68 38 69 22 70 23 71 31 72 24 73 26 74 32 75 25 76
REMARK SMILES IDX 27 77 28 78 29 79 30 80 54 81 55 82 63 83 56 84 58 85 64 86
REMARK SMILES IDX 57 87 59 88 60 89 61 90 62 91 39 92 40 93 48 94 41 95 43 96
REMARK SMILES IDX 49 97 42 98 44 99 45 100 46 101 47 102
REMARK H PARENT 5 6 10 36 69 55 37 66
REMARK Flexibility Score: inf
ROOT
ATOM      1  C   UNL A   1      35.251  22.200  24.282  1.00  0.00     0.023 C 
ENDROOT
BRANCH   1   2
ATOM      2  C   UNL A   1      34.406  23.302  24.924  1.00  0.00     0.116 C 
BRANCH   2   3
ATOM      3  N   UNL A   1      34.094  22.983  26.300  1.00  0.00    -0.356 N 
ATOM      4  C   UNL A   1      32.887  22.770  26.900  1.00  0.00     0.227 C 
ATOM      5  O   UNL A   1      32.907  22.584  28.117  1.00  0.00    -0.274 OA
ATOM      6  H   UNL A   1      34.874  22.911  26.896  1.00  0.00     0.163 HD
BRANCH   4   7
ATOM      7  C   UNL A   1      31.614  22.702  26.042  1.00  0.00     0.105 C 
ATOM      8  C   UNL A   1      31.608  21.581  25.000  1.00  0.00     0.023 C 
BRANCH   7   9
ATOM      9  C   UNL A   1      31.296  23.986  25.284  1.00  0.00    -0.034 A 
ATOM     10  C   UNL A   1      30.707  23.966  24.018  1.00  0.00     0.005 A 
ATOM     11  C   UNL A   1      31.480  25.211  25.941  1.00  0.00     0.032 A 
ATOM     12  C   UNL A   1      30.270  25.145  23.416  1.00  0.00     0.011 A 
ATOM     13  C   UNL A   1      31.074  26.406  25.319  1.00  0.00     0.057 A 
ATOM     14  C   UNL A   1      30.434  26.375  24.086  1.00  0.00     0.008 A 
ATOM     15  N   UNL A   1      31.154  27.742  25.750  1.00  0.00    -0.276 N 
ATOM     16  C   UNL A   1      30.090  27.707  23.752  1.00  0.00     0.009 A 
ATOM     17  C   UNL A   1      30.632  28.554  24.730  1.00  0.00     0.057 A 
ATOM     18  C   UNL A   1      29.411  28.246  22.640  1.00  0.00     0.031 A 
ATOM     19  C   UNL A   1      30.642  29.947  24.520  1.00  0.00     0.029 A 
ATOM     20  C   UNL A   1      29.368  29.624  22.473  1.00  0.00     0.041 A 
ATOM     21  C   UNL A   1      30.001  30.463  23.381  1.00  0.00     0.023 A 
ATOM     22  Cl  UNL A   1      28.561  30.283  21.102  1.00  0.00    -0.084 Cl
BRANCH  15  23
ATOM     23  C   UNL A   1      31.735  28.111  26.996  1.00  0.00     0.262 C 
ATOM     24  O   UNL A   1      31.194  27.643  28.001  1.00  0.00    -0.268 OA
BRANCH  23  25
ATOM     25  C   UNL A   1      32.875  29.031  27.292  1.00  0.00     0.040 A 
ATOM     26  C   UNL A   1      32.559  30.404  27.406  1.00  0.00     0.015 A 
ATOM     27  C   UNL A   1      34.220  28.658  27.306  1.00  0.00     0.015 A 
ATOM     28  C   UNL A   1      33.551  31.376  27.541  1.00  0.00     0.021 A 
ATOM     29  C   UNL A   1      35.219  29.634  27.474  1.00  0.00     0.021 A 
ATOM     30  C   UNL A   1      34.882  30.984  27.581  1.00  0.00     0.041 A 
ATOM     31  Cl  UNL A   1      36.113  32.176  27.731  1.00  0.00    -0.084 Cl
ENDBRANCH  23  25
ENDBRANCH  15  23
ENDBRANCH   7   9
ENDBRANCH   4   7
ENDBRANCH   2   3
ENDBRANCH   1   2
BRANCH   1  32
ATOM     32  C   UNL A   1      36.638  22.651  23.826  1.00  0.00     0.023 C 
BRANCH  32  33
ATOM     33  C   UNL A   1      37.568  23.072  24.951  1.00  0.00     0.116 C 
BRANCH  33  34
ATOM     34  N   UNL A   1      38.131  21.935  25.659  1.00  0.00    -0.352 N 
ATOM     35  C   UNL A   1      39.261  21.886  26.440  1.00  0.00     0.251 C 
ATOM     36  H   UNL A   1      37.638  21.087  25.568  1.00  0.00     0.163 HD
ATOM     37  O   UNL A   1      39.687  20.810  26.837  1.00  0.00    -0.269 OA
BRANCH  35  38
ATOM     38  C   UNL A   1      39.961  23.144  26.774  1.00  0.00     0.039 A 
ATOM     39  C   UNL A   1      40.971  23.119  27.738  1.00  0.00     0.014 A 
ATOM     40  C   UNL A   1      39.628  24.339  26.130  1.00  0.00     0.014 A 
ATOM     41  C   UNL A   1      41.667  24.291  28.035  1.00  0.00     0.010 A 
ATOM     42  C   UNL A   1      40.386  25.481  26.359  1.00  0.00     0.010 A 
ATOM     43  C   UNL A   1      41.389  25.478  27.337  1.00  0.00    -0.014 A 
BRANCH  43  44
ATOM     44  C   UNL A   1      42.104  26.739  27.654  1.00  0.00     0.031 A 
ATOM     45  C   UNL A   1      43.530  26.924  27.209  1.00  0.00     0.074 A 
ATOM     46  C   UNL A   1      41.496  27.690  28.390  1.00  0.00     0.049 A 
ATOM     47  N   UNL A   1      44.326  27.945  27.391  1.00  0.00    -0.248 NA
ATOM     48  C   UNL A   1      44.157  25.801  26.489  1.00  0.00     0.031 C 
ATOM     49  C   UNL A   1      40.144  27.598  28.944  1.00  0.00     0.029 A 
ATOM     50  N   UNL A   1      41.944  28.917  28.810  1.00  0.00    -0.354 N 
ATOM     51  C   UNL A   1      45.552  27.572  26.852  1.00  0.00     0.074 A 
ATOM     52  C   UNL A   1      45.409  26.216  26.374  1.00  0.00     0.031 C 
ATOM     53  C   UNL A   1      39.864  28.729  29.610  1.00  0.00     0.029 A 
ATOM     54  C   UNL A   1      41.024  29.613  29.557  1.00  0.00     0.049 A 
ATOM     55  H   UNL A   1      42.840  29.265  28.596  1.00  0.00     0.167 HD
ATOM     56  C   UNL A   1      46.688  28.300  26.738  1.00  0.00     0.034 A 
ATOM     57  C   UNL A   1      41.107  30.830  30.130  1.00  0.00     0.034 A 
ATOM     58  C   UNL A   1      46.811  29.664  27.175  1.00  0.00     0.049 A 
ATOM     59  C   UNL A   1      42.363  31.639  29.948  1.00  0.00     0.074 A 
ATOM     60  C   UNL A   1      47.883  30.524  27.022  1.00  0.00     0.029 A 
ATOM     61  N   UNL A   1      45.832  30.362  27.865  1.00  0.00    -0.354 N 
ATOM     62  N   UNL A   1      43.458  31.330  29.297  1.00  0.00    -0.248 NA
ATOM     63  C   UNL A   1      42.377  32.982  30.543  1.00  0.00     0.031 C 
ATOM     64  C   UNL A   1      47.566  31.732  27.652  1.00  0.00     0.029 A 
ATOM     65  C   UNL A   1      46.277  31.640  28.155  1.00  0.00     0.049 A 
ATOM     66  H   UNL A   1      44.949  30.003  28.111  1.00  0.00     0.167 HD
ATOM     67  C   UNL A   1      44.270  32.456  29.360  1.00  0.00     0.074 A 
ATOM     68  C   UNL A   1      43.534  33.458  30.104  1.00  0.00     0.031 C 
ATOM     69  C   UNL A   1      45.513  32.644  28.849  1.00  0.00     0.034 A 
BRANCH  56  70
ATOM     70  C   UNL A   1      47.877  27.641  26.086  1.00  0.00     0.023 A 
ATOM     71  C   UNL A   1      48.135  27.847  24.714  1.00  0.00     0.012 A 
ATOM     72  C   UNL A   1      48.759  26.841  26.840  1.00  0.00     0.148 A 
ATOM     73  C   UNL A   1      49.219  27.228  24.093  1.00  0.00     0.002 A 
ATOM     74  C   UNL A   1      49.866  26.270  26.224  1.00  0.00     0.091 A 
ATOM     75  F   UNL A   1      48.488  26.636  28.136  1.00  0.00    -0.205 F 
ATOM     76  C   UNL A   1      50.089  26.448  24.849  1.00  0.00     0.022 A 
BRANCH  74  77
ATOM     77  S   UNL A   1      51.094  25.323  27.131  1.00  0.00     0.127 S 
ATOM     78  O   UNL A   1      51.654  26.339  28.020  1.00  0.00    -0.237 OA
ATOM     79  O   UNL A   1      50.270  24.314  27.800  1.00  0.00    -0.237 OA
ATOM     80  O   UNL A   1      52.009  24.791  26.132  1.00  0.00    -0.744 OA
ENDBRANCH  74  77
ENDBRANCH  56  70
BRANCH  57  81
ATOM     81  C   UNL A   1      39.932  31.396  30.851  1.00  0.00     0.023 A 
ATOM     82  C   UNL A   1      38.935  32.073  30.120  1.00  0.00     0.012 A 
ATOM     83  C   UNL A   1      39.781  31.249  32.243  1.00  0.00     0.148 A 
ATOM     84  C   UNL A   1      37.830  32.626  30.766  1.00  0.00     0.002 A 
ATOM     85  C   UNL A   1      38.651  31.755  32.873  1.00  0.00     0.091 A 
ATOM     86  F   UNL A   1      40.742  30.604  32.919  1.00  0.00    -0.205 F 
ATOM     87  C   UNL A   1      37.683  32.460  32.140  1.00  0.00     0.022 A 
BRANCH  85  88
ATOM     88  S   UNL A   1      38.313  31.485  34.616  1.00  0.00     0.127 S 
ATOM     89  O   UNL A   1      39.461  32.132  35.247  1.00  0.00    -0.237 OA
ATOM     90  O   UNL A   1      37.041  32.188  34.786  1.00  0.00    -0.237 OA
ATOM     91  O   UNL A   1      38.233  30.042  34.785  1.00  0.00    -0.744 OA
ENDBRANCH  85  88
ENDBRANCH  57  81
BRANCH  69  92
ATOM     92  C   UNL A   1      46.138  34.006  29.014  1.00  0.00     0.023 A 
ATOM     93  C   UNL A   1      47.042  34.254  30.064  1.00  0.00     0.012 A 
ATOM     94  C   UNL A   1      45.870  35.025  28.077  1.00  0.00     0.148 A 
ATOM     95  C   UNL A   1      47.637  35.508  30.205  1.00  0.00     0.002 A 
ATOM     96  C   UNL A   1      46.510  36.252  28.191  1.00  0.00     0.091 A 
ATOM     97  F   UNL A   1      44.991  34.778  27.095  1.00  0.00    -0.205 F 
ATOM     98  C   UNL A   1      47.380  36.502  29.263  1.00  0.00     0.022 A 
BRANCH  96  99
ATOM     99  S   UNL A   1      46.319  37.550  26.964  1.00  0.00     0.127 S 
ATOM    100  O   UNL A   1      46.920  36.935  25.782  1.00  0.00    -0.237 OA
ATOM    101  O   UNL A   1      44.865  37.704  26.899  1.00  0.00    -0.237 OA
ATOM    102  O   UNL A   1      47.023  38.710  27.494  1.00  0.00    -0.744 OA
ENDBRANCH  96  99
ENDBRANCH  69  92
ENDBRANCH  43  44
ENDBRANCH  35  38
ENDBRANCH  33  34
ENDBRANCH  32  33
ENDBRANCH   1  32
TORSDOF 17
ENDMDL
MODEL 2
REMARK VINA RESULT:     -12.6      5.317     12.322
REMARK SMILES C[C@@H](C(=O)NCCCCNC(=O)c1ccc(-c2c3nc(c(-c4cccc(S(=O)(=O)[O-])c4F)c4ccc([nH]4)c(-c4cccc(S(=O)(=O)[O-])c4F)c4nc(c(-c5cccc(S(=O)(=O)[O-])c5F)c5ccc2[nH]5)C=C4)C=C3)cc1)c1ccc2c3cc(Cl)ccc3n(C(=O)c3ccc(Cl)cc3)c2c1
REMARK SMILES IDX 7 1 6 2 5 3 3 4 4 5 2 7 1 8 76 9 77 10 98 11 78 12 97 13
REMARK SMILES IDX 79 14 87 15 80 16 86 17 81 18 85 19 82 20 84 21 83 22 88 23
REMARK SMILES IDX 89 24 90 25 91 26 96 27 92 28 95 29 93 30 94 31 8 32 9 33
REMARK SMILES IDX 10 34 11 35 12 37 13 38 14 39 75 40 15 41 74 42 16 43 17 44
REMARK SMILES IDX 18 45 68 46 19 47 73 48 67 49 69 50 20 51 72 52 66 53 65 54
REMARK SMILES IDX 21 56 53 57 33 58 52 59 34 60 37 61 51 62 70 63 35 64 36 65
REMARK SMILES IDX 50 67 71 68 38 69 22 70 23 71 31 72 24 73 26 74 32 75 25 76
REMARK SMILES IDX 27 77 28 78 29 79 30 80 54 81 55 82 63 83 56 84 58 85 64 86
REMARK SMILES IDX 57 87 59 88 60 89 61 90 62 91 39 92 40 93 48 94 41 95 43 96
REMARK SMILES IDX 49 97 42 98 44 99 45 100 46 101 47 102
REMARK H PARENT 5 6 10 36 69 55 37 66
REMARK Flexibility Score: inf
ROOT
ATOM      1  C   UNL A   1      35.630  33.077  30.581  1.00  0.00     0.023 C 
ENDROOT
BRANCH   1   2
ATOM      2  C   UNL A   1      37.112  33.179  30.947  1.00  0.00     0.116 C 
BRANCH   2   3
ATOM      3  N   UNL A   1      37.811  34.066  30.044  1.00  0.00    -0.356 N 
ATOM      4  C   UNL A   1      39.115  34.469  30.042  1.00  0.00     0.227 C 
ATOM      5  O   UNL A   1      39.430  35.297  29.186  1.00  0.00    -0.274 OA
ATOM      6  H   UNL A   1      37.260  34.439  29.318  1.00  0.00     0.163 HD
BRANCH   4   7
ATOM      7  C   UNL A   1      40.107  33.835  31.029  1.00  0.00     0.105 C 
ATOM      8  C   UNL A   1      40.037  34.399  32.451  1.00  0.00     0.023 C 
BRANCH   7   9
ATOM      9  C   UNL A   1      41.568  33.935  30.606  1.00  0.00    -0.034 A 
ATOM     10  C   UNL A   1      42.249  35.153  30.593  1.00  0.00     0.005 A 
ATOM     11  C   UNL A   1      42.271  32.748  30.356  1.00  0.00     0.032 A 
ATOM     12  C   UNL A   1      43.624  35.200  30.368  1.00  0.00     0.011 A 
ATOM     13  C   UNL A   1      43.653  32.796  30.092  1.00  0.00     0.057 A 
ATOM     14  C   UNL A   1      44.336  34.005  30.140  1.00  0.00     0.008 A 
ATOM     15  N   UNL A   1      44.572  31.772  29.806  1.00  0.00    -0.276 N 
ATOM     16  C   UNL A   1      45.704  33.730  29.901  1.00  0.00     0.009 A 
ATOM     17  C   UNL A   1      45.825  32.367  29.590  1.00  0.00     0.057 A 
ATOM     18  C   UNL A   1      46.835  34.572  29.863  1.00  0.00     0.031 A 
ATOM     19  C   UNL A   1      47.042  31.873  29.080  1.00  0.00     0.029 A 
ATOM     20  C   UNL A   1      48.048  34.061  29.422  1.00  0.00     0.041 A 
ATOM     21  C   UNL A   1      48.145  32.740  29.005  1.00  0.00     0.023 A 
ATOM     22  Cl  UNL A   1      49.423  35.095  29.350  1.00  0.00    -0.084 Cl
BRANCH  15  23
ATOM     23  C   UNL A   1      44.190  30.403  29.713  1.00  0.00     0.262 C 
ATOM     24  O   UNL A   1      44.349  29.731  30.735  1.00  0.00    -0.268 OA
BRANCH  23  25
ATOM     25  C   UNL A   1      43.673  29.624  28.548  1.00  0.00     0.040 A 
ATOM     26  C   UNL A   1      44.496  28.573  28.082  1.00  0.00     0.015 A 
ATOM     27  C   UNL A   1      42.538  29.954  27.805  1.00  0.00     0.015 A 
ATOM     28  C   UNL A   1      44.193  27.865  26.919  1.00  0.00     0.021 A 
ATOM     29  C   UNL A   1      42.215  29.220  26.649  1.00  0.00     0.021 A 
ATOM     30  C   UNL A   1      43.046  28.188  26.208  1.00  0.00     0.041 A 
ATOM     31  Cl  UNL A   1      42.672  27.332  24.764  1.00  0.00    -0.084 Cl
ENDBRANCH  23  25
ENDBRANCH  15  23
ENDBRANCH   7   9
ENDBRANCH   4   7
ENDBRANCH   2   3
ENDBRANCH   1   2
BRANCH   1  32
ATOM     32  C   UNL A   1      35.229  33.875  29.340  1.00  0.00     0.023 C 
BRANCH  32  33
ATOM     33  C   UNL A   1      35.529  33.186  28.020  1.00  0.00     0.116 C 
BRANCH  33  34
ATOM     34  N   UNL A   1      34.531  32.187  27.677  1.00  0.00    -0.352 N 
ATOM     35  C   UNL A   1      34.659  30.819  27.660  1.00  0.00     0.251 C 
ATOM     36  H   UNL A   1      33.645  32.536  27.424  1.00  0.00     0.163 HD
ATOM     37  O   UNL A   1      33.767  30.125  27.193  1.00  0.00    -0.269 OA
BRANCH  35  38
ATOM     38  C   UNL A   1      35.893  30.204  28.193  1.00  0.00     0.039 A 
ATOM     39  C   UNL A   1      37.044  30.210  27.404  1.00  0.00     0.014 A 
ATOM     40  C   UNL A   1      35.912  29.634  29.470  1.00  0.00     0.014 A 
ATOM     41  C   UNL A   1      38.227  29.668  27.910  1.00  0.00     0.010 A 
ATOM     42  C   UNL A   1      37.112  29.182  30.005  1.00  0.00     0.010 A 
ATOM     43  C   UNL A   1      38.273  29.162  29.220  1.00  0.00    -0.014 A 
BRANCH  43  44
ATOM     44  C   UNL A   1      39.515  28.563  29.767  1.00  0.00     0.031 A 
ATOM     45  C   UNL A   1      40.141  29.140  31.009  1.00  0.00     0.074 A 
ATOM     46  C   UNL A   1      40.111  27.543  29.120  1.00  0.00     0.049 A 
ATOM     47  N   UNL A   1      41.224  28.764  31.638  1.00  0.00    -0.248 NA
ATOM     48  C   UNL A   1      39.481  30.313  31.608  1.00  0.00     0.031 C 
ATOM     49  C   UNL A   1      39.644  26.946  27.867  1.00  0.00     0.029 A 
ATOM     50  N   UNL A   1      41.249  26.838  29.420  1.00  0.00    -0.354 N 
ATOM     51  C   UNL A   1      41.399  29.676  32.672  1.00  0.00     0.074 A 
ATOM     52  C   UNL A   1      40.335  30.649  32.562  1.00  0.00     0.031 C 
ATOM     53  C   UNL A   1      40.474  25.950  27.519  1.00  0.00     0.029 A 
ATOM     54  C   UNL A   1      41.546  25.856  28.505  1.00  0.00     0.049 A 
ATOM     55  H   UNL A   1      41.800  27.018  30.216  1.00  0.00     0.167 HD
ATOM     56  C   UNL A   1      42.341  29.690  33.644  1.00  0.00     0.034 A 
ATOM     57  C   UNL A   1      42.568  24.978  28.468  1.00  0.00     0.034 A 
ATOM     58  C   UNL A   1      43.370  28.695  33.775  1.00  0.00     0.049 A 
ATOM     59  C   UNL A   1      43.575  24.983  29.586  1.00  0.00     0.074 A 
ATOM     60  C   UNL A   1      44.314  28.560  34.775  1.00  0.00     0.029 A 
ATOM     61  N   UNL A   1      43.597  27.672  32.868  1.00  0.00    -0.354 N 
ATOM     62  N   UNL A   1      43.633  25.756  30.643  1.00  0.00    -0.248 NA
ATOM     63  C   UNL A   1      44.634  23.965  29.528  1.00  0.00     0.031 C 
ATOM     64  C   UNL A   1      45.138  27.475  34.454  1.00  0.00     0.029 A 
ATOM     65  C   UNL A   1      44.674  26.906  33.278  1.00  0.00     0.049 A 
ATOM     66  H   UNL A   1      43.069  27.512  32.052  1.00  0.00     0.167 HD
ATOM     67  C   UNL A   1      44.700  25.286  31.401  1.00  0.00     0.074 A 
ATOM     68  C   UNL A   1      45.252  24.155  30.685  1.00  0.00     0.031 C 
ATOM     69  C   UNL A   1      45.179  25.750  32.582  1.00  0.00     0.034 A 
BRANCH  56  70
ATOM     70  C   UNL A   1      42.280  30.803  34.660  1.00  0.00     0.023 A 
ATOM     71  C   UNL A   1      41.574  30.618  35.868  1.00  0.00     0.012 A 
ATOM     72  C   UNL A   1      42.946  32.023  34.433  1.00  0.00     0.148 A 
ATOM     73  C   UNL A   1      41.490  31.644  36.808  1.00  0.00     0.002 A 
ATOM     74  C   UNL A   1      42.903  33.021  35.398  1.00  0.00     0.091 A 
ATOM     75  F   UNL A   1      43.593  32.192  33.271  1.00  0.00    -0.205 F 
ATOM     76  C   UNL A   1      42.162  32.841  36.578  1.00  0.00     0.022 A 
BRANCH  74  77
ATOM     77  S   UNL A   1      43.808  34.564  35.234  1.00  0.00     0.127 S 
ATOM     78  O   UNL A   1      45.170  34.084  35.003  1.00  0.00    -0.237 OA
ATOM     79  O   UNL A   1      43.169  35.172  34.066  1.00  0.00    -0.237 OA
ATOM     80  O   UNL A   1      43.601  35.285  36.481  1.00  0.00    -0.744 OA
ENDBRANCH  74  77
ENDBRANCH  56  70
BRANCH  57  81
ATOM     81  C   UNL A   1      42.637  23.959  27.382  1.00  0.00     0.023 A 
ATOM     82  C   UNL A   1      43.344  24.258  26.200  1.00  0.00     0.012 A 
ATOM     83  C   UNL A   1      42.032  22.695  27.519  1.00  0.00     0.148 A 
ATOM     84  C   UNL A   1      43.416  23.332  25.160  1.00  0.00     0.002 A 
ATOM     85  C   UNL A   1      42.155  21.757  26.501  1.00  0.00     0.091 A 
ATOM     86  F   UNL A   1      41.363  22.433  28.650  1.00  0.00    -0.205 F 
ATOM     87  C   UNL A   1      42.830  22.079  25.314  1.00  0.00     0.022 A 
BRANCH  85  88
ATOM     88  S   UNL A   1      41.539  20.077  26.656  1.00  0.00     0.127 S 
ATOM     89  O   UNL A   1      40.104  20.298  26.819  1.00  0.00    -0.237 OA
ATOM     90  O   UNL A   1      41.930  19.497  25.371  1.00  0.00    -0.237 OA
ATOM     91  O   UNL A   1      42.223  19.509  27.808  1.00  0.00    -0.744 OA
ENDBRANCH  85  88
ENDBRANCH  57  81
BRANCH  69  92
ATOM     92  C   UNL A   1      46.320  24.998  33.218  1.00  0.00     0.023 A 
ATOM     93  C   UNL A   1      47.644  25.456  33.078  1.00  0.00     0.012 A 
ATOM     94  C   UNL A   1      46.063  23.862  34.013  1.00  0.00     0.148 A 
ATOM     95  C   UNL A   1      48.699  24.772  33.683  1.00  0.00     0.002 A 
ATOM     96  C   UNL A   1      47.111  23.220  34.659  1.00  0.00     0.091 A 
ATOM     97  F   UNL A   1      44.799  23.428  34.119  1.00  0.00    -0.205 F 
ATOM     98  C   UNL A   1      48.431  23.663  34.481  1.00  0.00     0.022 A 
BRANCH  96  99
ATOM     99  S   UNL A   1      46.845  21.850  35.790  1.00  0.00     0.127 S 
ATOM    100  O   UNL A   1      48.191  21.631  36.317  1.00  0.00    -0.237 OA
ATOM    101  O   UNL A   1      45.899  22.421  36.751  1.00  0.00    -0.237 OA
ATOM    102  O   UNL A   1      46.302  20.765  34.985  1.00  0.00    -0.744 OA
ENDBRANCH  96  99
ENDBRANCH  69  92
ENDBRANCH  43  44
ENDBRANCH  35  38
ENDBRANCH  33  34
ENDBRANCH  32  33
ENDBRANCH   1  32
TORSDOF 17
ENDMDL
MODEL 3
REMARK VINA RESULT:     -12.3      5.753     11.380
REMARK SMILES C[C@@H](C(=O)NCCCCNC(=O)c1ccc(-c2c3nc(c(-c4cccc(S(=O)(=O)[O-])c4F)c4ccc([nH]4)c(-c4cccc(S(=O)(=O)[O-])c4F)c4nc(c(-c5cccc(S(=O)(=O)[O-])c5F)c5ccc2[nH]5)C=C4)C=C3)cc1)c1ccc2c3cc(Cl)ccc3n(C(=O)c3ccc(Cl)cc3)c2c1
REMARK SMILES IDX 7 1 6 2 5 3 3 4 4 5 2 7 1 8 76 9 77 10 98 11 78 12 97 13
REMARK SMILES IDX 79 14 87 15 80 16 86 17 81 18 85 19 82 20 84 21 83 22 88 23
REMARK SMILES IDX 89 24 90 25 91 26 96 27 92 28 95 29 93 30 94 31 8 32 9 33
REMARK SMILES IDX 10 34 11 35 12 37 13 38 14 39 75 40 15 41 74 42 16 43 17 44
REMARK SMILES IDX 18 45 68 46 19 47 73 48 67 49 69 50 20 51 72 52 66 53 65 54
REMARK SMILES IDX 21 56 53 57 33 58 52 59 34 60 37 61 51 62 70 63 35 64 36 65
REMARK SMILES IDX 50 67 71 68 38 69 22 70 23 71 31 72 24 73 26 74 32 75 25 76
REMARK SMILES IDX 27 77 28 78 29 79 30 80 54 81 55 82 63 83 56 84 58 85 64 86
REMARK SMILES IDX 57 87 59 88 60 89 61 90 62 91 39 92 40 93 48 94 41 95 43 96
REMARK SMILES IDX 49 97 42 98 44 99 45 100 46 101 47 102
REMARK H PARENT 5 6 10 36 69 55 37 66
REMARK Flexibility Score: inf
ROOT
ATOM      1  C   UNL A   1      33.854  34.556  28.049  1.00  0.00     0.023 C 
ENDROOT
BRANCH   1   2
ATOM      2  C   UNL A   1      33.105  33.278  27.667  1.00  0.00     0.116 C 
BRANCH   2   3
ATOM      3  N   UNL A   1      33.882  32.103  27.994  1.00  0.00    -0.356 N 
ATOM      4  C   UNL A   1      33.815  30.837  27.489  1.00  0.00     0.227 C 
ATOM      5  O   UNL A   1      34.557  30.001  28.006  1.00  0.00    -0.274 OA
ATOM      6  H   UNL A   1      34.565  32.237  28.690  1.00  0.00     0.163 HD
BRANCH   4   7
ATOM      7  C   UNL A   1      32.897  30.545  26.291  1.00  0.00     0.105 C 
ATOM      8  C   UNL A   1      31.421  30.874  26.527  1.00  0.00     0.023 C 
BRANCH   7   9
ATOM      9  C   UNL A   1      32.936  29.101  25.804  1.00  0.00    -0.034 A 
ATOM     10  C   UNL A   1      34.017  28.261  26.078  1.00  0.00     0.005 A 
ATOM     11  C   UNL A   1      31.793  28.576  25.184  1.00  0.00     0.032 A 
ATOM     12  C   UNL A   1      33.960  26.902  25.772  1.00  0.00     0.011 A 
ATOM     13  C   UNL A   1      31.748  27.212  24.841  1.00  0.00     0.057 A 
ATOM     14  C   UNL A   1      32.803  26.369  25.170  1.00  0.00     0.008 A 
ATOM     15  N   UNL A   1      30.744  26.453  24.214  1.00  0.00    -0.276 N 
ATOM     16  C   UNL A   1      32.443  25.061  24.762  1.00  0.00     0.009 A 
ATOM     17  C   UNL A   1      31.221  25.140  24.078  1.00  0.00     0.057 A 
ATOM     18  C   UNL A   1      33.119  23.828  24.874  1.00  0.00     0.031 A 
ATOM     19  C   UNL A   1      30.749  24.022  23.361  1.00  0.00     0.029 A 
ATOM     20  C   UNL A   1      32.612  22.714  24.219  1.00  0.00     0.041 A 
ATOM     21  C   UNL A   1      31.463  22.815  23.447  1.00  0.00     0.023 A 
ATOM     22  Cl  UNL A   1      33.451  21.214  24.333  1.00  0.00    -0.084 Cl
BRANCH  15  23
ATOM     23  C   UNL A   1      29.515  27.022  23.775  1.00  0.00     0.262 C 
ATOM     24  O   UNL A   1      28.507  26.336  23.966  1.00  0.00    -0.268 OA
BRANCH  23  25
ATOM     25  C   UNL A   1      29.249  28.307  23.062  1.00  0.00     0.040 A 
ATOM     26  C   UNL A   1      27.930  28.808  23.144  1.00  0.00     0.015 A 
ATOM     27  C   UNL A   1      30.148  28.949  22.208  1.00  0.00     0.015 A 
ATOM     28  C   UNL A   1      27.521  29.921  22.408  1.00  0.00     0.021 A 
ATOM     29  C   UNL A   1      29.745  30.091  21.491  1.00  0.00     0.021 A 
ATOM     30  C   UNL A   1      28.435  30.564  21.587  1.00  0.00     0.041 A 
ATOM     31  Cl  UNL A   1      27.937  31.927  20.663  1.00  0.00    -0.084 Cl
ENDBRANCH  23  25
ENDBRANCH  15  23
ENDBRANCH   7   9
ENDBRANCH   4   7
ENDBRANCH   2   3
ENDBRANCH   1   2
BRANCH   1  32
ATOM     32  C   UNL A   1      33.834  34.878  29.544  1.00  0.00     0.023 C 
BRANCH  32  33
ATOM     33  C   UNL A   1      33.407  36.296  29.881  1.00  0.00     0.116 C 
BRANCH  33  34
ATOM     34  N   UNL A   1      32.450  36.341  30.974  1.00  0.00    -0.352 N 
ATOM     35  C   UNL A   1      32.517  35.718  32.197  1.00  0.00     0.251 C 
ATOM     36  H   UNL A   1      31.648  36.890  30.818  1.00  0.00     0.163 HD
ATOM     37  O   UNL A   1      31.550  35.730  32.945  1.00  0.00    -0.269 OA
BRANCH  35  38
ATOM     38  C   UNL A   1      33.762  35.020  32.584  1.00  0.00     0.039 A 
ATOM     39  C   UNL A   1      33.693  33.680  32.965  1.00  0.00     0.014 A 
ATOM     40  C   UNL A   1      34.991  35.687  32.558  1.00  0.00     0.014 A 
ATOM     41  C   UNL A   1      34.865  32.998  33.295  1.00  0.00     0.010 A 
ATOM     42  C   UNL A   1      36.164  34.980  32.794  1.00  0.00     0.010 A 
ATOM     43  C   UNL A   1      36.111  33.640  33.198  1.00  0.00    -0.014 A 
BRANCH  43  44
ATOM     44  C   UNL A   1      37.366  32.937  33.565  1.00  0.00     0.031 A 
ATOM     45  C   UNL A   1      38.149  33.383  34.771  1.00  0.00     0.074 A 
ATOM     46  C   UNL A   1      37.831  31.942  32.786  1.00  0.00     0.049 A 
ATOM     47  N   UNL A   1      39.267  32.906  35.252  1.00  0.00    -0.248 NA
ATOM     48  C   UNL A   1      37.623  34.539  35.520  1.00  0.00     0.031 C 
ATOM     49  C   UNL A   1      37.204  31.469  31.551  1.00  0.00     0.029 A 
ATOM     50  N   UNL A   1      38.951  31.159  32.911  1.00  0.00    -0.354 N 
ATOM     51  C   UNL A   1      39.600  33.725  36.324  1.00  0.00     0.074 A 
ATOM     52  C   UNL A   1      38.589  34.755  36.399  1.00  0.00     0.031 C 
ATOM     53  C   UNL A   1      37.934  30.462  31.045  1.00  0.00     0.029 A 
ATOM     54  C   UNL A   1      39.095  30.238  31.901  1.00  0.00     0.049 A 
ATOM     55  H   UNL A   1      39.590  31.249  33.654  1.00  0.00     0.167 HD
ATOM     56  C   UNL A   1      40.636  33.615  37.189  1.00  0.00     0.034 A 
ATOM     57  C   UNL A   1      40.054  29.315  31.692  1.00  0.00     0.034 A 
ATOM     58  C   UNL A   1      41.613  32.562  37.137  1.00  0.00     0.049 A 
ATOM     59  C   UNL A   1      41.169  29.181  32.693  1.00  0.00     0.074 A 
ATOM     60  C   UNL A   1      42.646  32.302  38.018  1.00  0.00     0.029 A 
ATOM     61  N   UNL A   1      41.686  31.603  36.139  1.00  0.00    -0.354 N 
ATOM     62  N   UNL A   1      41.381  29.866  33.791  1.00  0.00    -0.248 NA
ATOM     63  C   UNL A   1      42.155  28.120  32.449  1.00  0.00     0.031 C 
ATOM     64  C   UNL A   1      43.367  31.205  37.533  1.00  0.00     0.029 A 
ATOM     65  C   UNL A   1      42.753  30.753  36.375  1.00  0.00     0.049 A 
ATOM     66  H   UNL A   1      41.068  31.534  35.375  1.00  0.00     0.167 HD
ATOM     67  C   UNL A   1      42.490  29.285  34.395  1.00  0.00     0.074 A 
ATOM     68  C   UNL A   1      42.899  28.187  33.544  1.00  0.00     0.031 C 
ATOM     69  C   UNL A   1      43.115  29.631  35.548  1.00  0.00     0.034 A 
BRANCH  56  70
ATOM     70  C   UNL A   1      40.745  34.647  38.284  1.00  0.00     0.023 A 
ATOM     71  C   UNL A   1      41.583  35.769  38.116  1.00  0.00     0.012 A 
ATOM     72  C   UNL A   1      39.993  34.520  39.468  1.00  0.00     0.148 A 
ATOM     73  C   UNL A   1      41.709  36.721  39.127  1.00  0.00     0.002 A 
ATOM     74  C   UNL A   1      40.084  35.500  40.449  1.00  0.00     0.091 A 
ATOM     75  F   UNL A   1      39.219  33.437  39.623  1.00  0.00    -0.205 F 
ATOM     76  C   UNL A   1      40.953  36.591  40.289  1.00  0.00     0.022 A 
BRANCH  74  77
ATOM     77  S   UNL A   1      39.084  35.469  41.941  1.00  0.00     0.127 S 
ATOM     78  O   UNL A   1      39.589  34.272  42.610  1.00  0.00    -0.237 OA
ATOM     79  O   UNL A   1      39.455  36.731  42.585  1.00  0.00    -0.237 OA
ATOM     80  O   UNL A   1      37.700  35.402  41.495  1.00  0.00    -0.744 OA
ENDBRANCH  74  77
ENDBRANCH  56  70
BRANCH  57  81
ATOM     81  C   UNL A   1      39.951  28.382  30.534  1.00  0.00     0.023 A 
ATOM     82  C   UNL A   1      39.071  27.284  30.610  1.00  0.00     0.012 A 
ATOM     83  C   UNL A   1      40.694  28.585  29.356  1.00  0.00     0.148 A 
ATOM     84  C   UNL A   1      38.961  26.384  29.550  1.00  0.00     0.002 A 
ATOM     85  C   UNL A   1      40.540  27.716  28.283  1.00  0.00     0.091 A 
ATOM     86  F   UNL A   1      41.527  29.634  29.306  1.00  0.00    -0.205 F 
ATOM     87  C   UNL A   1      39.688  26.605  28.384  1.00  0.00     0.022 A 
BRANCH  85  88
ATOM     88  S   UNL A   1      41.339  27.986  26.697  1.00  0.00     0.127 S 
ATOM     89  O   UNL A   1      40.962  26.780  25.964  1.00  0.00    -0.237 OA
ATOM     90  O   UNL A   1      40.688  29.213  26.240  1.00  0.00    -0.237 OA
ATOM     91  O   UNL A   1      42.758  28.127  26.989  1.00  0.00    -0.744 OA
ENDBRANCH  85  88
ENDBRANCH  57  81
BRANCH  69  92
ATOM     92  C   UNL A   1      44.269  28.775  36.003  1.00  0.00     0.023 A 
ATOM     93  C   UNL A   1      45.586  29.089  35.617  1.00  0.00     0.012 A 
ATOM     94  C   UNL A   1      44.044  27.688  36.871  1.00  0.00     0.148 A 
ATOM     95  C   UNL A   1      46.658  28.309  36.053  1.00  0.00     0.002 A 
ATOM     96  C   UNL A   1      45.121  26.951  37.347  1.00  0.00     0.091 A 
ATOM     97  F   UNL A   1      42.782  27.391  37.212  1.00  0.00    -0.205 F 
ATOM     98  C   UNL A   1      46.426  27.249  36.926  1.00  0.00     0.022 A 
BRANCH  96  99
ATOM     99  S   UNL A   1      44.924  25.638  38.557  1.00  0.00     0.127 S 
ATOM    100  O   UNL A   1      44.116  24.669  37.819  1.00  0.00    -0.237 OA
ATOM    101  O   UNL A   1      46.307  25.224  38.795  1.00  0.00    -0.237 OA
ATOM    102  O   UNL A   1      44.273  26.249  39.708  1.00  0.00    -0.744 OA
ENDBRANCH  96  99
ENDBRANCH  69  92
ENDBRANCH  43  44
ENDBRANCH  35  38
ENDBRANCH  33  34
ENDBRANCH  32  33
ENDBRANCH   1  32
TORSDOF 17
ENDMDL
