MODEL 1
REMARK VINA RESULT:     -11.4      0.000      0.000
REMARK SMILES C[C@@H](C(=O)NCCCCNC(=O)c1ccc(-c2c3nc(c(-c4cccc(S(=O)(=O)[O-])c4F)c4ccc([nH]4)c(-c4cccc(S(=O)(=O)[O-])c4F)c4nc(c(-c5cccc(S(=O)(=O)[O-])c5F)c5ccc2[nH]5)C=C4)C=C3)cc1)c1ccc(C[C@H]2CCCC2=O)cc1
REMARK SMILES IDX 7 1 6 2 5 3 3 4 4 5 2 7 1 8 76 9 77 10 88 11 78 12 87 13
REMARK SMILES IDX 79 14 80 15 81 16 82 17 85 18 83 19 84 20 86 21 8 22 9 23
REMARK SMILES IDX 10 24 11 25 12 27 13 28 14 29 75 30 15 31 74 32 16 33 17 34
REMARK SMILES IDX 18 35 68 36 19 37 73 38 67 39 69 40 20 41 72 42 66 43 65 44
REMARK SMILES IDX 21 46 53 47 33 48 52 49 34 50 37 51 51 52 70 53 35 54 36 55
REMARK SMILES IDX 50 57 71 58 38 59 22 60 23 61 31 62 24 63 26 64 32 65 25 66
REMARK SMILES IDX 27 67 28 68 29 69 30 70 54 71 55 72 63 73 56 74 58 75 64 76
REMARK SMILES IDX 57 77 59 78 60 79 61 80 62 81 39 82 40 83 48 84 41 85 43 86
REMARK SMILES IDX 49 87 42 88 44 89 45 90 46 91 47 92
REMARK H PARENT 5 6 10 26 69 45 37 56
REMARK Flexibility Score: inf
ROOT
ATOM      1  C   UNL A   1      35.319  22.123  26.325  1.00  0.00     0.023 C 
ENDROOT
BRANCH   1   2
ATOM      2  C   UNL A   1      35.035  21.292  25.073  1.00  0.00     0.116 C 
BRANCH   2   3
ATOM      3  N   UNL A   1      34.040  20.269  25.317  1.00  0.00    -0.356 N 
ATOM      4  C   UNL A   1      32.713  20.222  25.001  1.00  0.00     0.227 C 
ATOM      5  O   UNL A   1      32.111  19.198  25.330  1.00  0.00    -0.274 OA
ATOM      6  H   UNL A   1      34.377  19.474  25.791  1.00  0.00     0.163 HD
BRANCH   4   7
ATOM      7  C   UNL A   1      32.056  21.387  24.238  1.00  0.00     0.105 C 
ATOM      8  C   UNL A   1      32.385  21.372  22.742  1.00  0.00     0.023 C 
BRANCH   7   9
ATOM      9  C   UNL A   1      32.424  22.771  24.773  1.00  0.00    -0.036 A 
ATOM     10  C   UNL A   1      32.001  23.166  26.049  1.00  0.00     0.005 A 
ATOM     11  C   UNL A   1      33.096  23.707  23.972  1.00  0.00     0.005 A 
ATOM     12  C   UNL A   1      32.224  24.469  26.501  1.00  0.00     0.004 A 
ATOM     13  C   UNL A   1      33.322  25.007  24.423  1.00  0.00     0.004 A 
ATOM     14  C   UNL A   1      32.864  25.408  25.681  1.00  0.00    -0.047 A 
BRANCH  14  15
ATOM     15  C   UNL A   1      33.019  26.843  26.122  1.00  0.00     0.047 C 
BRANCH  15  16
ATOM     16  C   UNL A   1      31.716  27.640  26.267  1.00  0.00     0.060 C 
ATOM     17  C   UNL A   1      31.659  28.668  27.402  1.00  0.00     0.012 C 
ATOM     18  C   UNL A   1      31.426  28.496  25.056  1.00  0.00     0.136 C 
ATOM     19  C   UNL A   1      31.998  30.017  26.776  1.00  0.00     0.009 C 
ATOM     20  C   UNL A   1      31.413  29.968  25.372  1.00  0.00     0.076 C 
ATOM     21  O   UNL A   1      31.194  28.044  23.940  1.00  0.00    -0.299 OA
ENDBRANCH  15  16
ENDBRANCH  14  15
ENDBRANCH   7   9
ENDBRANCH   4   7
ENDBRANCH   2   3
ENDBRANCH   1   2
BRANCH   1  22
ATOM     22  C   UNL A   1      36.185  23.366  26.100  1.00  0.00     0.023 C 
BRANCH  22  23
ATOM     23  C   UNL A   1      37.379  23.179  25.171  1.00  0.00     0.116 C 
BRANCH  23  24
ATOM     24  N   UNL A   1      38.421  22.339  25.744  1.00  0.00    -0.352 N 
ATOM     25  C   UNL A   1      39.508  22.701  26.503  1.00  0.00     0.251 C 
ATOM     26  H   UNL A   1      38.335  21.376  25.560  1.00  0.00     0.163 HD
ATOM     27  O   UNL A   1      40.354  21.863  26.801  1.00  0.00    -0.269 OA
BRANCH  25  28
ATOM     28  C   UNL A   1      39.673  24.108  26.929  1.00  0.00     0.039 A 
ATOM     29  C   UNL A   1      39.331  24.458  28.238  1.00  0.00     0.014 A 
ATOM     30  C   UNL A   1      40.194  25.067  26.056  1.00  0.00     0.014 A 
ATOM     31  C   UNL A   1      39.596  25.750  28.700  1.00  0.00     0.010 A 
ATOM     32  C   UNL A   1      40.512  26.336  26.536  1.00  0.00     0.010 A 
ATOM     33  C   UNL A   1      40.234  26.684  27.866  1.00  0.00    -0.014 A 
BRANCH  33  34
ATOM     34  C   UNL A   1      40.686  28.000  28.388  1.00  0.00     0.031 A 
ATOM     35  C   UNL A   1      42.148  28.287  28.589  1.00  0.00     0.074 A 
ATOM     36  C   UNL A   1      39.762  28.897  28.790  1.00  0.00     0.049 A 
ATOM     37  N   UNL A   1      42.714  29.350  29.100  1.00  0.00    -0.248 NA
ATOM     38  C   UNL A   1      43.098  27.238  28.184  1.00  0.00     0.031 C 
ATOM     39  C   UNL A   1      38.312  28.700  28.732  1.00  0.00     0.029 A 
ATOM     40  N   UNL A   1      39.903  30.137  29.363  1.00  0.00    -0.354 N 
ATOM     41  C   UNL A   1      44.078  29.087  29.113  1.00  0.00     0.074 A 
ATOM     42  C   UNL A   1      44.256  27.756  28.574  1.00  0.00     0.031 C 
ATOM     43  C   UNL A   1      37.698  29.771  29.258  1.00  0.00     0.029 A 
ATOM     44  C   UNL A   1      38.707  30.720  29.716  1.00  0.00     0.049 A 
ATOM     45  H   UNL A   1      40.776  30.567  29.508  1.00  0.00     0.167 HD
ATOM     46  C   UNL A   1      45.090  29.892  29.513  1.00  0.00     0.034 A 
ATOM     47  C   UNL A   1      38.451  31.881  30.351  1.00  0.00     0.034 A 
ATOM     48  C   UNL A   1      44.914  31.233  30.000  1.00  0.00     0.049 A 
ATOM     49  C   UNL A   1      39.598  32.768  30.748  1.00  0.00     0.074 A 
ATOM     50  C   UNL A   1      45.886  32.167  30.315  1.00  0.00     0.029 A 
ATOM     51  N   UNL A   1      43.690  31.830  30.260  1.00  0.00    -0.354 N 
ATOM     52  N   UNL A   1      40.884  32.584  30.568  1.00  0.00    -0.248 NA
ATOM     53  C   UNL A   1      39.261  34.038  31.409  1.00  0.00     0.031 C 
ATOM     54  C   UNL A   1      45.251  33.320  30.786  1.00  0.00     0.029 A 
ATOM     55  C   UNL A   1      43.883  33.110  30.750  1.00  0.00     0.049 A 
ATOM     56  H   UNL A   1      42.814  31.405  30.116  1.00  0.00     0.167 HD
ATOM     57  C   UNL A   1      41.505  33.722  31.069  1.00  0.00     0.074 A 
ATOM     58  C   UNL A   1      40.455  34.605  31.530  1.00  0.00     0.031 C 
ATOM     59  C   UNL A   1      42.829  34.001  31.160  1.00  0.00     0.034 A 
BRANCH  46  60
ATOM     60  C   UNL A   1      46.499  29.375  29.385  1.00  0.00     0.023 A 
ATOM     61  C   UNL A   1      47.074  28.666  30.459  1.00  0.00     0.012 A 
ATOM     62  C   UNL A   1      47.209  29.498  28.175  1.00  0.00     0.148 A 
ATOM     63  C   UNL A   1      48.343  28.102  30.337  1.00  0.00     0.002 A 
ATOM     64  C   UNL A   1      48.458  28.900  28.049  1.00  0.00     0.091 A 
ATOM     65  F   UNL A   1      46.649  30.192  27.173  1.00  0.00    -0.205 F 
ATOM     66  C   UNL A   1      49.029  28.209  29.130  1.00  0.00     0.022 A 
BRANCH  64  67
ATOM     67  S   UNL A   1      49.393  28.915  26.515  1.00  0.00     0.127 S 
ATOM     68  O   UNL A   1      50.453  27.951  26.808  1.00  0.00    -0.237 OA
ATOM     69  O   UNL A   1      48.400  28.452  25.545  1.00  0.00    -0.237 OA
ATOM     70  O   UNL A   1      49.836  30.290  26.326  1.00  0.00    -0.744 OA
ENDBRANCH  64  67
ENDBRANCH  46  60
BRANCH  47  71
ATOM     71  C   UNL A   1      37.043  32.297  30.610  1.00  0.00     0.023 A 
ATOM     72  C   UNL A   1      36.485  32.093  31.886  1.00  0.00     0.012 A 
ATOM     73  C   UNL A   1      36.260  32.903  29.608  1.00  0.00     0.148 A 
ATOM     74  C   UNL A   1      35.163  32.452  32.150  1.00  0.00     0.002 A 
ATOM     75  C   UNL A   1      34.962  33.310  29.895  1.00  0.00     0.091 A 
ATOM     76  F   UNL A   1      36.798  33.072  28.392  1.00  0.00    -0.205 F 
ATOM     77  C   UNL A   1      34.405  33.069  31.159  1.00  0.00     0.022 A 
BRANCH  75  78
ATOM     78  S   UNL A   1      33.974  34.237  28.714  1.00  0.00     0.127 S 
ATOM     79  O   UNL A   1      34.861  35.348  28.385  1.00  0.00    -0.237 OA
ATOM     80  O   UNL A   1      33.782  33.262  27.639  1.00  0.00    -0.237 OA
ATOM     81  O   UNL A   1      32.750  34.580  29.428  1.00  0.00    -0.744 OA
ENDBRANCH  75  78
ENDBRANCH  47  71
BRANCH  59  82
ATOM     82  C   UNL A   1      43.223  35.319  31.772  1.00  0.00     0.023 A 
ATOM     83  C   UNL A   1      43.417  35.404  33.166  1.00  0.00     0.012 A 
ATOM     84  C   UNL A   1      43.471  36.448  30.967  1.00  0.00     0.148 A 
ATOM     85  C   UNL A   1      43.824  36.603  33.751  1.00  0.00     0.002 A 
ATOM     86  C   UNL A   1      43.921  37.625  31.553  1.00  0.00     0.091 A 
ATOM     87  F   UNL A   1      43.263  36.350  29.646  1.00  0.00    -0.205 F 
ATOM     88  C   UNL A   1      44.087  37.707  32.946  1.00  0.00     0.022 A 
BRANCH  86  89
ATOM     89  S   UNL A   1      44.371  39.071  30.587  1.00  0.00     0.127 S 
ATOM     90  O   UNL A   1      44.668  40.048  31.633  1.00  0.00    -0.237 OA
ATOM     91  O   UNL A   1      45.540  38.598  29.846  1.00  0.00    -0.237 OA
ATOM     92  O   UNL A   1      43.213  39.375  29.757  1.00  0.00    -0.744 OA
ENDBRANCH  86  89
ENDBRANCH  59  82
ENDBRANCH  33  34
ENDBRANCH  25  28
ENDBRANCH  23  24
ENDBRANCH  22  23
ENDBRANCH   1  22
TORSDOF 17
ENDMDL
MODEL 2
REMARK VINA RESULT:     -11.4      2.696      8.311
REMARK SMILES C[C@@H](C(=O)NCCCCNC(=O)c1ccc(-c2c3nc(c(-c4cccc(S(=O)(=O)[O-])c4F)c4ccc([nH]4)c(-c4cccc(S(=O)(=O)[O-])c4F)c4nc(c(-c5cccc(S(=O)(=O)[O-])c5F)c5ccc2[nH]5)C=C4)C=C3)cc1)c1ccc(C[C@H]2CCCC2=O)cc1
REMARK SMILES IDX 7 1 6 2 5 3 3 4 4 5 2 7 1 8 76 9 77 10 88 11 78 12 87 13
REMARK SMILES IDX 79 14 80 15 81 16 82 17 85 18 83 19 84 20 86 21 8 22 9 23
REMARK SMILES IDX 10 24 11 25 12 27 13 28 14 29 75 30 15 31 74 32 16 33 17 34
REMARK SMILES IDX 18 35 68 36 19 37 73 38 67 39 69 40 20 41 72 42 66 43 65 44
REMARK SMILES IDX 21 46 53 47 33 48 52 49 34 50 37 51 51 52 70 53 35 54 36 55
REMARK SMILES IDX 50 57 71 58 38 59 22 60 23 61 31 62 24 63 26 64 32 65 25 66
REMARK SMILES IDX 27 67 28 68 29 69 30 70 54 71 55 72 63 73 56 74 58 75 64 76
REMARK SMILES IDX 57 77 59 78 60 79 61 80 62 81 39 82 40 83 48 84 41 85 43 86
REMARK SMILES IDX 49 87 42 88 44 89 45 90 46 91 47 92
REMARK H PARENT 5 6 10 26 69 45 37 56
REMARK Flexibility Score: inf
ROOT
ATOM      1  C   UNL A   1      35.905  22.067  24.794  1.00  0.00     0.023 C 
ENDROOT
BRANCH   1   2
ATOM      2  C   UNL A   1      34.558  21.463  25.194  1.00  0.00     0.116 C 
BRANCH   2   3
ATOM      3  N   UNL A   1      33.472  21.986  24.393  1.00  0.00    -0.356 N 
ATOM      4  C   UNL A   1      32.644  23.052  24.601  1.00  0.00     0.227 C 
ATOM      5  O   UNL A   1      31.806  23.270  23.723  1.00  0.00    -0.274 OA
ATOM      6  H   UNL A   1      33.301  21.491  23.559  1.00  0.00     0.163 HD
BRANCH   4   7
ATOM      7  C   UNL A   1      32.812  23.931  25.853  1.00  0.00     0.105 C 
ATOM      8  C   UNL A   1      32.007  23.414  27.050  1.00  0.00     0.023 C 
BRANCH   7   9
ATOM      9  C   UNL A   1      32.429  25.396  25.644  1.00  0.00    -0.036 A 
ATOM     10  C   UNL A   1      31.221  25.887  26.159  1.00  0.00     0.005 A 
ATOM     11  C   UNL A   1      33.214  26.250  24.854  1.00  0.00     0.005 A 
ATOM     12  C   UNL A   1      30.802  27.188  25.873  1.00  0.00     0.004 A 
ATOM     13  C   UNL A   1      32.797  27.550  24.569  1.00  0.00     0.004 A 
ATOM     14  C   UNL A   1      31.574  28.022  25.053  1.00  0.00    -0.047 A 
BRANCH  14  15
ATOM     15  C   UNL A   1      31.079  29.391  24.657  1.00  0.00     0.047 C 
BRANCH  15  16
ATOM     16  C   UNL A   1      30.355  29.474  23.307  1.00  0.00     0.060 C 
ATOM     17  C   UNL A   1      29.751  28.172  22.769  1.00  0.00     0.012 C 
ATOM     18  C   UNL A   1      29.149  30.382  23.353  1.00  0.00     0.136 C 
ATOM     19  C   UNL A   1      28.276  28.192  23.158  1.00  0.00     0.009 C 
ATOM     20  C   UNL A   1      27.859  29.653  23.085  1.00  0.00     0.076 C 
ATOM     21  O   UNL A   1      29.212  31.590  23.556  1.00  0.00    -0.299 OA
ENDBRANCH  15  16
ENDBRANCH  14  15
ENDBRANCH   7   9
ENDBRANCH   4   7
ENDBRANCH   2   3
ENDBRANCH   1   2
BRANCH   1  22
ATOM     22  C   UNL A   1      37.058  21.067  24.676  1.00  0.00     0.023 C 
BRANCH  22  23
ATOM     23  C   UNL A   1      38.199  21.254  25.670  1.00  0.00     0.116 C 
BRANCH  23  24
ATOM     24  N   UNL A   1      39.059  20.084  25.777  1.00  0.00    -0.352 N 
ATOM     25  C   UNL A   1      40.393  20.013  26.102  1.00  0.00     0.251 C 
ATOM     26  H   UNL A   1      38.624  19.221  25.589  1.00  0.00     0.163 HD
ATOM     27  O   UNL A   1      40.986  18.941  26.026  1.00  0.00    -0.269 OA
BRANCH  25  28
ATOM     28  C   UNL A   1      41.116  21.237  26.509  1.00  0.00     0.039 A 
ATOM     29  C   UNL A   1      41.744  22.006  25.524  1.00  0.00     0.014 A 
ATOM     30  C   UNL A   1      41.145  21.646  27.845  1.00  0.00     0.014 A 
ATOM     31  C   UNL A   1      42.324  23.229  25.867  1.00  0.00     0.010 A 
ATOM     32  C   UNL A   1      41.672  22.893  28.174  1.00  0.00     0.010 A 
ATOM     33  C   UNL A   1      42.249  23.705  27.187  1.00  0.00    -0.014 A 
BRANCH  33  34
ATOM     34  C   UNL A   1      42.698  25.077  27.538  1.00  0.00     0.031 A 
ATOM     35  C   UNL A   1      41.738  26.075  28.123  1.00  0.00     0.074 A 
ATOM     36  C   UNL A   1      43.953  25.456  27.218  1.00  0.00     0.049 A 
ATOM     37  N   UNL A   1      41.940  27.333  28.420  1.00  0.00    -0.248 NA
ATOM     38  C   UNL A   1      40.367  25.609  28.389  1.00  0.00     0.031 C 
ATOM     39  C   UNL A   1      44.952  24.607  26.565  1.00  0.00     0.029 A 
ATOM     40  N   UNL A   1      44.591  26.664  27.364  1.00  0.00    -0.354 N 
ATOM     41  C   UNL A   1      40.720  27.819  28.873  1.00  0.00     0.074 A 
ATOM     42  C   UNL A   1      39.776  26.725  28.795  1.00  0.00     0.031 C 
ATOM     43  C   UNL A   1      46.069  25.321  26.355  1.00  0.00     0.029 A 
ATOM     44  C   UNL A   1      45.860  26.684  26.832  1.00  0.00     0.049 A 
ATOM     45  H   UNL A   1      44.180  27.440  27.807  1.00  0.00     0.167 HD
ATOM     46  C   UNL A   1      40.422  29.056  29.335  1.00  0.00     0.034 A 
ATOM     47  C   UNL A   1      46.751  27.689  26.726  1.00  0.00     0.034 A 
ATOM     48  C   UNL A   1      41.375  30.126  29.458  1.00  0.00     0.049 A 
ATOM     49  C   UNL A   1      46.401  29.041  27.283  1.00  0.00     0.074 A 
ATOM     50  C   UNL A   1      41.194  31.374  30.028  1.00  0.00     0.029 A 
ATOM     51  N   UNL A   1      42.680  30.084  28.994  1.00  0.00    -0.354 N 
ATOM     52  N   UNL A   1      45.304  29.424  27.890  1.00  0.00    -0.248 NA
ATOM     53  C   UNL A   1      47.422  30.094  27.170  1.00  0.00     0.031 C 
ATOM     54  C   UNL A   1      42.383  32.096  29.887  1.00  0.00     0.029 A 
ATOM     55  C   UNL A   1      43.309  31.292  29.245  1.00  0.00     0.049 A 
ATOM     56  H   UNL A   1      43.097  29.310  28.552  1.00  0.00     0.167 HD
ATOM     57  C   UNL A   1      45.511  30.749  28.252  1.00  0.00     0.074 A 
ATOM     58  C   UNL A   1      46.851  31.096  27.826  1.00  0.00     0.031 C 
ATOM     59  C   UNL A   1      44.659  31.611  28.862  1.00  0.00     0.034 A 
BRANCH  46  60
ATOM     60  C   UNL A   1      39.016  29.315  29.807  1.00  0.00     0.023 A 
ATOM     61  C   UNL A   1      38.668  29.011  31.139  1.00  0.00     0.012 A 
ATOM     62  C   UNL A   1      38.076  29.950  28.972  1.00  0.00     0.148 A 
ATOM     63  C   UNL A   1      37.399  29.319  31.628  1.00  0.00     0.002 A 
ATOM     64  C   UNL A   1      36.826  30.289  29.479  1.00  0.00     0.091 A 
ATOM     65  F   UNL A   1      38.423  30.214  27.704  1.00  0.00    -0.205 F 
ATOM     66  C   UNL A   1      36.484  29.967  30.803  1.00  0.00     0.022 A 
BRANCH  64  67
ATOM     67  S   UNL A   1      35.601  31.191  28.524  1.00  0.00     0.127 S 
ATOM     68  O   UNL A   1      34.674  31.624  29.569  1.00  0.00    -0.237 OA
ATOM     69  O   UNL A   1      36.400  32.266  27.936  1.00  0.00    -0.237 OA
ATOM     70  O   UNL A   1      35.057  30.240  27.564  1.00  0.00    -0.744 OA
ENDBRANCH  64  67
ENDBRANCH  46  60
BRANCH  47  71
ATOM     71  C   UNL A   1      48.085  27.445  26.106  1.00  0.00     0.023 A 
ATOM     72  C   UNL A   1      49.161  27.039  26.918  1.00  0.00     0.012 A 
ATOM     73  C   UNL A   1      48.291  27.597  24.721  1.00  0.00     0.148 A 
ATOM     74  C   UNL A   1      50.426  26.825  26.368  1.00  0.00     0.002 A 
ATOM     75  C   UNL A   1      49.539  27.326  24.172  1.00  0.00     0.091 A 
ATOM     76  F   UNL A   1      47.261  28.004  23.963  1.00  0.00    -0.205 F 
ATOM     77  C   UNL A   1      50.613  26.958  24.996  1.00  0.00     0.022 A 
BRANCH  75  78
ATOM     78  S   UNL A   1      49.820  27.341  22.397  1.00  0.00     0.127 S 
ATOM     79  O   UNL A   1      51.212  26.911  22.309  1.00  0.00    -0.237 OA
ATOM     80  O   UNL A   1      48.841  26.361  21.921  1.00  0.00    -0.237 OA
ATOM     81  O   UNL A   1      49.541  28.708  21.978  1.00  0.00    -0.744 OA
ENDBRANCH  75  78
ENDBRANCH  47  71
BRANCH  59  82
ATOM     82  C   UNL A   1      45.149  33.011  29.118  1.00  0.00     0.023 A 
ATOM     83  C   UNL A   1      45.835  33.296  30.316  1.00  0.00     0.012 A 
ATOM     84  C   UNL A   1      44.998  34.022  28.149  1.00  0.00     0.148 A 
ATOM     85  C   UNL A   1      46.337  34.575  30.558  1.00  0.00     0.002 A 
ATOM     86  C   UNL A   1      45.540  35.281  28.377  1.00  0.00     0.091 A 
ATOM     87  F   UNL A   1      44.326  33.735  27.025  1.00  0.00    -0.205 F 
ATOM     88  C   UNL A   1      46.200  35.562  29.586  1.00  0.00     0.022 A 
BRANCH  86  89
ATOM     89  S   UNL A   1      45.492  36.589  27.146  1.00  0.00     0.127 S 
ATOM     90  O   UNL A   1      46.154  35.951  26.009  1.00  0.00    -0.237 OA
ATOM     91  O   UNL A   1      44.055  36.801  26.974  1.00  0.00    -0.237 OA
ATOM     92  O   UNL A   1      46.203  37.716  27.732  1.00  0.00    -0.744 OA
ENDBRANCH  86  89
ENDBRANCH  59  82
ENDBRANCH  33  34
ENDBRANCH  25  28
ENDBRANCH  23  24
ENDBRANCH  22  23
ENDBRANCH   1  22
TORSDOF 17
ENDMDL
MODEL 3
REMARK VINA RESULT:     -11.4      5.217      8.677
REMARK SMILES C[C@@H](C(=O)NCCCCNC(=O)c1ccc(-c2c3nc(c(-c4cccc(S(=O)(=O)[O-])c4F)c4ccc([nH]4)c(-c4cccc(S(=O)(=O)[O-])c4F)c4nc(c(-c5cccc(S(=O)(=O)[O-])c5F)c5ccc2[nH]5)C=C4)C=C3)cc1)c1ccc(C[C@H]2CCCC2=O)cc1
REMARK SMILES IDX 7 1 6 2 5 3 3 4 4 5 2 7 1 8 76 9 77 10 88 11 78 12 87 13
REMARK SMILES IDX 79 14 80 15 81 16 82 17 85 18 83 19 84 20 86 21 8 22 9 23
REMARK SMILES IDX 10 24 11 25 12 27 13 28 14 29 75 30 15 31 74 32 16 33 17 34
REMARK SMILES IDX 18 35 68 36 19 37 73 38 67 39 69 40 20 41 72 42 66 43 65 44
REMARK SMILES IDX 21 46 53 47 33 48 52 49 34 50 37 51 51 52 70 53 35 54 36 55
REMARK SMILES IDX 50 57 71 58 38 59 22 60 23 61 31 62 24 63 26 64 32 65 25 66
REMARK SMILES IDX 27 67 28 68 29 69 30 70 54 71 55 72 63 73 56 74 58 75 64 76
REMARK SMILES IDX 57 77 59 78 60 79 61 80 62 81 39 82 40 83 48 84 41 85 43 86
REMARK SMILES IDX 49 87 42 88 44 89 45 90 46 91 47 92
REMARK H PARENT 5 6 10 26 69 45 37 56
REMARK Flexibility Score: inf
ROOT
ATOM      1  C   UNL A   1      30.452  31.299  24.970  1.00  0.00     0.023 C 
ENDROOT
BRANCH   1   2
ATOM      2  C   UNL A   1      30.520  29.883  24.395  1.00  0.00     0.116 C 
BRANCH   2   3
ATOM      3  N   UNL A   1      31.764  29.644  23.695  1.00  0.00    -0.356 N 
ATOM      4  C   UNL A   1      32.838  28.868  24.025  1.00  0.00     0.227 C 
ATOM      5  O   UNL A   1      33.766  28.848  23.213  1.00  0.00    -0.274 OA
ATOM      6  H   UNL A   1      31.851  30.121  22.838  1.00  0.00     0.163 HD
BRANCH   4   7
ATOM      7  C   UNL A   1      32.830  28.047  25.327  1.00  0.00     0.105 C 
ATOM      8  C   UNL A   1      33.811  28.589  26.372  1.00  0.00     0.023 C 
BRANCH   7   9
ATOM      9  C   UNL A   1      33.144  26.564  25.132  1.00  0.00    -0.036 A 
ATOM     10  C   UNL A   1      34.385  26.049  25.531  1.00  0.00     0.005 A 
ATOM     11  C   UNL A   1      32.250  25.711  24.465  1.00  0.00     0.005 A 
ATOM     12  C   UNL A   1      34.731  24.726  25.249  1.00  0.00     0.004 A 
ATOM     13  C   UNL A   1      32.594  24.389  24.185  1.00  0.00     0.004 A 
ATOM     14  C   UNL A   1      33.848  23.892  24.550  1.00  0.00    -0.047 A 
BRANCH  14  15
ATOM     15  C   UNL A   1      34.255  22.494  24.153  1.00  0.00     0.047 C 
BRANCH  15  16
ATOM     16  C   UNL A   1      33.983  21.401  25.195  1.00  0.00     0.060 C 
ATOM     17  C   UNL A   1      32.551  20.856  25.265  1.00  0.00     0.012 C 
ATOM     18  C   UNL A   1      34.782  20.144  24.936  1.00  0.00     0.136 C 
ATOM     19  C   UNL A   1      32.540  19.574  24.438  1.00  0.00     0.009 C 
ATOM     20  C   UNL A   1      33.913  18.950  24.642  1.00  0.00     0.076 C 
ATOM     21  O   UNL A   1      36.006  20.092  24.989  1.00  0.00    -0.299 OA
ENDBRANCH  15  16
ENDBRANCH  14  15
ENDBRANCH   7   9
ENDBRANCH   4   7
ENDBRANCH   2   3
ENDBRANCH   1   2
BRANCH   1  22
ATOM     22  C   UNL A   1      31.001  31.452  26.391  1.00  0.00     0.023 C 
BRANCH  22  23
ATOM     23  C   UNL A   1      32.344  32.165  26.507  1.00  0.00     0.116 C 
BRANCH  23  24
ATOM     24  N   UNL A   1      32.246  33.460  27.167  1.00  0.00    -0.352 N 
ATOM     25  C   UNL A   1      33.065  34.011  28.124  1.00  0.00     0.251 C 
ATOM     26  H   UNL A   1      31.486  34.019  26.889  1.00  0.00     0.163 HD
ATOM     27  O   UNL A   1      32.757  35.073  28.656  1.00  0.00    -0.269 OA
BRANCH  25  28
ATOM     28  C   UNL A   1      34.297  33.302  28.534  1.00  0.00     0.039 A 
ATOM     29  C   UNL A   1      35.525  33.955  28.395  1.00  0.00     0.014 A 
ATOM     30  C   UNL A   1      34.239  32.019  29.086  1.00  0.00     0.014 A 
ATOM     31  C   UNL A   1      36.686  33.357  28.892  1.00  0.00     0.010 A 
ATOM     32  C   UNL A   1      35.387  31.452  29.634  1.00  0.00     0.010 A 
ATOM     33  C   UNL A   1      36.618  32.122  29.559  1.00  0.00    -0.014 A 
BRANCH  33  34
ATOM     34  C   UNL A   1      37.804  31.553  30.250  1.00  0.00     0.031 A 
ATOM     35  C   UNL A   1      38.615  30.459  29.615  1.00  0.00     0.074 A 
ATOM     36  C   UNL A   1      38.078  31.950  31.511  1.00  0.00     0.049 A 
ATOM     37  N   UNL A   1      39.633  29.800  30.105  1.00  0.00    -0.248 NA
ATOM     38  C   UNL A   1      38.220  30.033  28.261  1.00  0.00     0.031 C 
ATOM     39  C   UNL A   1      37.311  32.939  32.272  1.00  0.00     0.029 A 
ATOM     40  N   UNL A   1      39.053  31.543  32.389  1.00  0.00    -0.354 N 
ATOM     41  C   UNL A   1      39.979  28.861  29.142  1.00  0.00     0.074 A 
ATOM     42  C   UNL A   1      39.051  29.022  28.043  1.00  0.00     0.031 C 
ATOM     43  C   UNL A   1      37.834  33.053  33.502  1.00  0.00     0.029 A 
ATOM     44  C   UNL A   1      38.955  32.128  33.631  1.00  0.00     0.049 A 
ATOM     45  H   UNL A   1      39.754  30.895  32.152  1.00  0.00     0.167 HD
ATOM     46  C   UNL A   1      40.993  27.964  29.162  1.00  0.00     0.034 A 
ATOM     47  C   UNL A   1      39.676  31.932  34.752  1.00  0.00     0.034 A 
ATOM     48  C   UNL A   1      41.944  27.841  30.232  1.00  0.00     0.049 A 
ATOM     49  C   UNL A   1      40.819  30.956  34.727  1.00  0.00     0.074 A 
ATOM     50  C   UNL A   1      43.077  27.046  30.288  1.00  0.00     0.029 A 
ATOM     51  N   UNL A   1      41.872  28.515  31.441  1.00  0.00    -0.354 N 
ATOM     52  N   UNL A   1      41.253  30.219  33.733  1.00  0.00    -0.248 NA
ATOM     53  C   UNL A   1      41.594  30.805  35.968  1.00  0.00     0.031 C 
ATOM     54  C   UNL A   1      43.676  27.223  31.539  1.00  0.00     0.029 A 
ATOM     55  C   UNL A   1      42.926  28.139  32.256  1.00  0.00     0.049 A 
ATOM     56  H   UNL A   1      41.173  29.165  31.683  1.00  0.00     0.167 HD
ATOM     57  C   UNL A   1      42.362  29.537  34.220  1.00  0.00     0.074 A 
ATOM     58  C   UNL A   1      42.555  29.972  35.587  1.00  0.00     0.031 C 
ATOM     59  C   UNL A   1      43.138  28.615  33.598  1.00  0.00     0.034 A 
BRANCH  46  60
ATOM     60  C   UNL A   1      41.177  27.077  27.959  1.00  0.00     0.023 A 
ATOM     61  C   UNL A   1      41.907  27.555  26.853  1.00  0.00     0.012 A 
ATOM     62  C   UNL A   1      40.720  25.744  27.965  1.00  0.00     0.148 A 
ATOM     63  C   UNL A   1      42.166  26.727  25.762  1.00  0.00     0.002 A 
ATOM     64  C   UNL A   1      41.015  24.913  26.890  1.00  0.00     0.091 A 
ATOM     65  F   UNL A   1      40.012  25.315  29.020  1.00  0.00    -0.205 F 
ATOM     66  C   UNL A   1      41.731  25.405  25.786  1.00  0.00     0.022 A 
BRANCH  64  67
ATOM     67  S   UNL A   1      40.566  23.174  26.853  1.00  0.00     0.127 S 
ATOM     68  O   UNL A   1      41.067  22.713  28.147  1.00  0.00    -0.237 OA
ATOM     69  O   UNL A   1      39.108  23.235  26.751  1.00  0.00    -0.237 OA
ATOM     70  O   UNL A   1      41.236  22.609  25.689  1.00  0.00    -0.744 OA
ENDBRANCH  64  67
ENDBRANCH  46  60
BRANCH  47  71
ATOM     71  C   UNL A   1      39.370  32.713  35.985  1.00  0.00     0.023 A 
ATOM     72  C   UNL A   1      39.885  34.016  36.123  1.00  0.00     0.012 A 
ATOM     73  C   UNL A   1      38.564  32.183  37.010  1.00  0.00     0.148 A 
ATOM     74  C   UNL A   1      39.633  34.762  37.275  1.00  0.00     0.002 A 
ATOM     75  C   UNL A   1      38.270  32.952  38.129  1.00  0.00     0.091 A 
ATOM     76  F   UNL A   1      38.097  30.933  36.873  1.00  0.00    -0.205 F 
ATOM     77  C   UNL A   1      38.818  34.235  38.273  1.00  0.00     0.022 A 
BRANCH  75  78
ATOM     78  S   UNL A   1      37.115  32.396  39.389  1.00  0.00     0.127 S 
ATOM     79  O   UNL A   1      37.117  33.522  40.317  1.00  0.00    -0.237 OA
ATOM     80  O   UNL A   1      35.879  32.229  38.623  1.00  0.00    -0.237 OA
ATOM     81  O   UNL A   1      37.674  31.147  39.893  1.00  0.00    -0.744 OA
ENDBRANCH  75  78
ENDBRANCH  47  71
BRANCH  59  82
ATOM     82  C   UNL A   1      44.276  28.019  34.382  1.00  0.00     0.023 A 
ATOM     83  C   UNL A   1      45.550  28.620  34.319  1.00  0.00     0.012 A 
ATOM     84  C   UNL A   1      44.072  26.916  35.234  1.00  0.00     0.148 A 
ATOM     85  C   UNL A   1      46.610  28.113  35.070  1.00  0.00     0.002 A 
ATOM     86  C   UNL A   1      45.122  26.444  36.013  1.00  0.00     0.091 A 
ATOM     87  F   UNL A   1      42.858  26.347  35.265  1.00  0.00    -0.205 F 
ATOM     88  C   UNL A   1      46.394  27.034  35.924  1.00  0.00     0.022 A 
BRANCH  86  89
ATOM     89  S   UNL A   1      44.915  25.119  37.208  1.00  0.00     0.127 S 
ATOM     90  O   UNL A   1      44.099  24.166  36.458  1.00  0.00    -0.237 OA
ATOM     91  O   UNL A   1      46.294  24.690  37.440  1.00  0.00    -0.237 OA
ATOM     92  O   UNL A   1      44.268  25.721  38.366  1.00  0.00    -0.744 OA
ENDBRANCH  86  89
ENDBRANCH  59  82
ENDBRANCH  33  34
ENDBRANCH  25  28
ENDBRANCH  23  24
ENDBRANCH  22  23
ENDBRANCH   1  22
TORSDOF 17
ENDMDL
