MODEL 1
REMARK VINA RESULT:     -12.3      0.000      0.000
REMARK SMILES C[C@@H]1OCC[C@@H]1C(=O)Nc1ccc(C(=O)NCCCCNC(=O)c2ccc(-c3c4nc(c(-c5cccc(S(=O)(=O)[O-])c5F)c5ccc([nH]5)c(-c5cccc(S(=O)(=O)[O-])c5F)c5nc(c(-c6cccc(S(=O)(=O)[O-])c6F)c6ccc3[nH]6)C=C5)C=C4)cc2)cc1F
REMARK SMILES IDX 19 1 18 2 17 3 16 4 14 5 15 6 13 8 10 9 11 10 88 11 12 12
REMARK SMILES IDX 87 13 89 14 9 15 7 16 8 17 6 19 1 20 2 21 3 22 4 23 5 24
REMARK SMILES IDX 20 25 21 26 22 27 23 29 24 30 25 31 86 32 26 33 85 34 27 35
REMARK SMILES IDX 28 36 29 37 79 38 30 39 84 40 78 41 80 42 31 43 83 44 77 45
REMARK SMILES IDX 76 46 32 48 64 49 44 50 63 51 45 52 48 53 62 54 81 55 46 56
REMARK SMILES IDX 47 57 61 59 82 60 49 61 33 62 34 63 42 64 35 65 37 66 43 67
REMARK SMILES IDX 36 68 38 69 39 70 40 71 41 72 65 73 66 74 74 75 67 76 69 77
REMARK SMILES IDX 75 78 68 79 70 80 71 81 72 82 73 83 50 84 51 85 59 86 52 87
REMARK SMILES IDX 54 88 60 89 53 90 55 91 56 92 57 93 58 94
REMARK H PARENT 16 7 9 18 21 28 80 47 48 58
REMARK Flexibility Score: inf
ROOT
ATOM      1  C   UNL A   1      32.135  31.416  26.946  1.00  0.00     0.023 C 
ENDROOT
BRANCH   1   2
ATOM      2  C   UNL A   1      32.657  29.993  26.764  1.00  0.00     0.023 C 
BRANCH   2   3
ATOM      3  C   UNL A   1      32.719  29.540  25.295  1.00  0.00     0.116 C 
BRANCH   3   4
ATOM      4  N   UNL A   1      31.478  29.826  24.584  1.00  0.00    -0.352 N 
ATOM      5  C   UNL A   1      30.635  29.068  23.801  1.00  0.00     0.251 C 
ATOM      6  O   UNL A   1      29.604  29.593  23.382  1.00  0.00    -0.269 OA
ATOM      7  H   UNL A   1      31.179  30.759  24.685  1.00  0.00     0.163 HD
BRANCH   5   8
ATOM      8  C   UNL A   1      30.887  27.639  23.454  1.00  0.00     0.042 A 
ATOM      9  C   UNL A   1      31.386  24.880  22.874  1.00  0.00     0.077 A 
ATOM     10  C   UNL A   1      30.289  25.272  23.659  1.00  0.00     0.030 A 
ATOM     11  C   UNL A   1      32.221  25.901  22.449  1.00  0.00     0.147 A 
ATOM     12  C   UNL A   1      30.059  26.631  23.969  1.00  0.00     0.016 A 
ATOM     13  C   UNL A   1      31.927  27.237  22.646  1.00  0.00     0.055 A 
ATOM     14  F   UNL A   1      33.407  25.709  21.882  1.00  0.00    -0.205 F 
BRANCH   9  15
ATOM     15  N   UNL A   1      31.506  23.507  22.562  1.00  0.00    -0.323 N 
ATOM     16  C   UNL A   1      32.121  22.428  23.137  1.00  0.00     0.230 C 
ATOM     17  O   UNL A   1      32.058  21.362  22.513  1.00  0.00    -0.274 OA
ATOM     18  H   UNL A   1      31.034  23.269  21.732  1.00  0.00     0.170 HD
BRANCH  16  19
ATOM     19  C   UNL A   1      32.821  22.486  24.477  1.00  0.00     0.110 C 
ATOM     20  C   UNL A   1      35.056  23.067  23.295  1.00  0.00     0.039 C 
ATOM     21  C   UNL A   1      34.170  23.221  24.524  1.00  0.00     0.127 C 
ATOM     22  O   UNL A   1      34.893  22.669  25.651  1.00  0.00    -0.378 OA
ATOM     23  C   UNL A   1      34.105  21.608  26.205  1.00  0.00     0.161 C 
ATOM     24  C   UNL A   1      33.207  21.145  25.078  1.00  0.00     0.044 C 
ENDBRANCH  16  19
ENDBRANCH   9  15
ENDBRANCH   5   8
ENDBRANCH   3   4
ENDBRANCH   2   3
ENDBRANCH   1   2
BRANCH   1  25
ATOM     25  C   UNL A   1      33.201  32.392  27.429  1.00  0.00     0.116 C 
BRANCH  25  26
ATOM     26  N   UNL A   1      32.698  33.743  27.642  1.00  0.00    -0.352 N 
ATOM     27  C   UNL A   1      33.146  34.661  28.571  1.00  0.00     0.251 C 
ATOM     28  H   UNL A   1      31.958  34.032  27.060  1.00  0.00     0.163 HD
ATOM     29  O   UNL A   1      32.581  35.726  28.730  1.00  0.00    -0.269 OA
BRANCH  27  30
ATOM     30  C   UNL A   1      34.312  34.289  29.406  1.00  0.00     0.039 A 
ATOM     31  C   UNL A   1      34.097  33.580  30.591  1.00  0.00     0.014 A 
ATOM     32  C   UNL A   1      35.608  34.563  28.965  1.00  0.00     0.014 A 
ATOM     33  C   UNL A   1      35.193  33.080  31.298  1.00  0.00     0.010 A 
ATOM     34  C   UNL A   1      36.691  34.003  29.631  1.00  0.00     0.010 A 
ATOM     35  C   UNL A   1      36.495  33.254  30.802  1.00  0.00    -0.014 A 
BRANCH  35  36
ATOM     36  C   UNL A   1      37.676  32.660  31.476  1.00  0.00     0.031 A 
ATOM     37  C   UNL A   1      38.399  31.506  30.837  1.00  0.00     0.074 A 
ATOM     38  C   UNL A   1      38.025  33.076  32.709  1.00  0.00     0.049 A 
ATOM     39  N   UNL A   1      39.362  30.768  31.322  1.00  0.00    -0.248 NA
ATOM     40  C   UNL A   1      37.954  31.109  29.491  1.00  0.00     0.031 C 
ATOM     41  C   UNL A   1      37.356  34.136  33.464  1.00  0.00     0.029 A 
ATOM     42  N   UNL A   1      39.010  32.635  33.557  1.00  0.00    -0.354 N 
ATOM     43  C   UNL A   1      39.609  29.794  30.363  1.00  0.00     0.074 A 
ATOM     44  C   UNL A   1      38.675  30.017  29.281  1.00  0.00     0.031 C 
ATOM     45  C   UNL A   1      37.950  34.265  34.662  1.00  0.00     0.029 A 
ATOM     46  C   UNL A   1      39.022  33.278  34.773  1.00  0.00     0.049 A 
ATOM     47  H   UNL A   1      39.648  31.924  33.318  1.00  0.00     0.167 HD
ATOM     48  C   UNL A   1      40.550  28.821  30.366  1.00  0.00     0.034 A 
ATOM     49  C   UNL A   1      39.800  33.091  35.856  1.00  0.00     0.034 A 
ATOM     50  C   UNL A   1      41.521  28.645  31.411  1.00  0.00     0.049 A 
ATOM     51  C   UNL A   1      40.876  32.040  35.814  1.00  0.00     0.074 A 
ATOM     52  C   UNL A   1      42.576  27.752  31.459  1.00  0.00     0.029 A 
ATOM     53  N   UNL A   1      41.560  29.377  32.588  1.00  0.00    -0.354 N 
ATOM     54  N   UNL A   1      41.189  31.220  34.839  1.00  0.00    -0.248 NA
ATOM     55  C   UNL A   1      41.726  31.906  37.006  1.00  0.00     0.031 C 
ATOM     56  C   UNL A   1      43.250  27.938  32.671  1.00  0.00     0.029 A 
ATOM     57  C   UNL A   1      42.619  28.954  33.372  1.00  0.00     0.049 A 
ATOM     58  H   UNL A   1      40.928  30.091  32.830  1.00  0.00     0.167 HD
ATOM     59  C   UNL A   1      42.280  30.487  35.290  1.00  0.00     0.074 A 
ATOM     60  C   UNL A   1      42.593  30.979  36.617  1.00  0.00     0.031 C 
ATOM     61  C   UNL A   1      42.949  29.484  34.671  1.00  0.00     0.034 A 
BRANCH  48  62
ATOM     62  C   UNL A   1      40.623  27.917  29.165  1.00  0.00     0.023 A 
ATOM     63  C   UNL A   1      39.725  26.836  29.061  1.00  0.00     0.012 A 
ATOM     64  C   UNL A   1      41.532  28.167  28.118  1.00  0.00     0.148 A 
ATOM     65  C   UNL A   1      39.749  25.997  27.948  1.00  0.00     0.002 A 
ATOM     66  C   UNL A   1      41.521  27.351  26.992  1.00  0.00     0.091 A 
ATOM     67  F   UNL A   1      42.395  29.184  28.247  1.00  0.00    -0.205 F 
ATOM     68  C   UNL A   1      40.638  26.261  26.910  1.00  0.00     0.022 A 
BRANCH  66  69
ATOM     69  S   UNL A   1      42.576  27.652  25.570  1.00  0.00     0.127 S 
ATOM     70  O   UNL A   1      42.023  28.901  25.050  1.00  0.00    -0.237 OA
ATOM     71  O   UNL A   1      43.897  27.778  26.185  1.00  0.00    -0.237 OA
ATOM     72  O   UNL A   1      42.420  26.490  24.705  1.00  0.00    -0.744 OA
ENDBRANCH  66  69
ENDBRANCH  48  62
BRANCH  49  73
ATOM     73  C   UNL A   1      39.638  33.982  37.039  1.00  0.00     0.023 A 
ATOM     74  C   UNL A   1      40.011  35.336  36.931  1.00  0.00     0.012 A 
ATOM     75  C   UNL A   1      39.057  33.522  38.237  1.00  0.00     0.148 A 
ATOM     76  C   UNL A   1      39.823  36.213  37.998  1.00  0.00     0.002 A 
ATOM     77  C   UNL A   1      38.823  34.413  39.278  1.00  0.00     0.091 A 
ATOM     78  F   UNL A   1      38.718  32.228  38.321  1.00  0.00    -0.205 F 
ATOM     79  C   UNL A   1      39.217  35.756  39.166  1.00  0.00     0.022 A 
BRANCH  77  80
ATOM     80  S   UNL A   1      37.930  33.951  40.767  1.00  0.00     0.127 S 
ATOM     81  O   UNL A   1      37.620  35.254  41.348  1.00  0.00    -0.237 OA
ATOM     82  O   UNL A   1      36.779  33.233  40.214  1.00  0.00    -0.237 OA
ATOM     83  O   UNL A   1      38.846  33.118  41.534  1.00  0.00    -0.744 OA
ENDBRANCH  77  80
ENDBRANCH  49  73
BRANCH  61  84
ATOM     84  C   UNL A   1      44.091  28.837  35.410  1.00  0.00     0.023 A 
ATOM     85  C   UNL A   1      45.374  29.413  35.337  1.00  0.00     0.012 A 
ATOM     86  C   UNL A   1      43.876  27.732  36.258  1.00  0.00     0.148 A 
ATOM     87  C   UNL A   1      46.431  28.888  36.080  1.00  0.00     0.002 A 
ATOM     88  C   UNL A   1      44.923  27.242  37.030  1.00  0.00     0.091 A 
ATOM     89  F   UNL A   1      42.651  27.185  36.298  1.00  0.00    -0.205 F 
ATOM     90  C   UNL A   1      46.202  27.813  36.936  1.00  0.00     0.022 A 
BRANCH  88  91
ATOM     91  S   UNL A   1      44.691  25.926  38.231  1.00  0.00     0.127 S 
ATOM     92  O   UNL A   1      46.063  25.468  38.440  1.00  0.00    -0.237 OA
ATOM     93  O   UNL A   1      44.106  26.638  39.369  1.00  0.00    -0.237 OA
ATOM     94  O   UNL A   1      43.795  24.966  37.599  1.00  0.00    -0.744 OA
ENDBRANCH  88  91
ENDBRANCH  61  84
ENDBRANCH  35  36
ENDBRANCH  27  30
ENDBRANCH  25  26
ENDBRANCH   1  25
TORSDOF 16
ENDMDL
MODEL 2
REMARK VINA RESULT:     -12.3      5.852      9.284
REMARK SMILES C[C@@H]1OCC[C@@H]1C(=O)Nc1ccc(C(=O)NCCCCNC(=O)c2ccc(-c3c4nc(c(-c5cccc(S(=O)(=O)[O-])c5F)c5ccc([nH]5)c(-c5cccc(S(=O)(=O)[O-])c5F)c5nc(c(-c6cccc(S(=O)(=O)[O-])c6F)c6ccc3[nH]6)C=C5)C=C4)cc2)cc1F
REMARK SMILES IDX 19 1 18 2 17 3 16 4 14 5 15 6 13 8 10 9 11 10 88 11 12 12
REMARK SMILES IDX 87 13 89 14 9 15 7 16 8 17 6 19 1 20 2 21 3 22 4 23 5 24
REMARK SMILES IDX 20 25 21 26 22 27 23 29 24 30 25 31 86 32 26 33 85 34 27 35
REMARK SMILES IDX 28 36 29 37 79 38 30 39 84 40 78 41 80 42 31 43 83 44 77 45
REMARK SMILES IDX 76 46 32 48 64 49 44 50 63 51 45 52 48 53 62 54 81 55 46 56
REMARK SMILES IDX 47 57 61 59 82 60 49 61 33 62 34 63 42 64 35 65 37 66 43 67
REMARK SMILES IDX 36 68 38 69 39 70 40 71 41 72 65 73 66 74 74 75 67 76 69 77
REMARK SMILES IDX 75 78 68 79 70 80 71 81 72 82 73 83 50 84 51 85 59 86 52 87
REMARK SMILES IDX 54 88 60 89 53 90 55 91 56 92 57 93 58 94
REMARK H PARENT 16 7 9 18 21 28 80 47 48 58
REMARK Flexibility Score: inf
ROOT
ATOM      1  C   UNL A   1      37.368  20.443  24.815  1.00  0.00     0.023 C 
ENDROOT
BRANCH   1   2
ATOM      2  C   UNL A   1      36.140  21.338  24.651  1.00  0.00     0.023 C 
BRANCH   2   3
ATOM      3  C   UNL A   1      35.170  21.282  25.843  1.00  0.00     0.116 C 
BRANCH   3   4
ATOM      4  N   UNL A   1      34.151  20.254  25.668  1.00  0.00    -0.352 N 
ATOM      5  C   UNL A   1      32.829  20.283  25.279  1.00  0.00     0.251 C 
ATOM      6  O   UNL A   1      32.234  19.211  25.164  1.00  0.00    -0.269 OA
ATOM      7  H   UNL A   1      34.475  19.346  25.871  1.00  0.00     0.163 HD
BRANCH   5   8
ATOM      8  C   UNL A   1      32.085  21.536  24.962  1.00  0.00     0.042 A 
ATOM      9  C   UNL A   1      30.733  23.982  24.336  1.00  0.00     0.077 A 
ATOM     10  C   UNL A   1      31.417  23.254  23.348  1.00  0.00     0.030 A 
ATOM     11  C   UNL A   1      30.800  23.467  25.620  1.00  0.00     0.147 A 
ATOM     12  C   UNL A   1      32.107  22.062  23.663  1.00  0.00     0.016 A 
ATOM     13  C   UNL A   1      31.368  22.239  25.904  1.00  0.00     0.055 A 
ATOM     14  F   UNL A   1      30.398  24.116  26.707  1.00  0.00    -0.205 F 
BRANCH   9  15
ATOM     15  N   UNL A   1      30.019  25.128  23.922  1.00  0.00    -0.323 N 
ATOM     16  C   UNL A   1      30.321  26.451  23.739  1.00  0.00     0.230 C 
ATOM     17  O   UNL A   1      29.382  27.190  23.423  1.00  0.00    -0.274 OA
ATOM     18  H   UNL A   1      29.077  24.929  23.716  1.00  0.00     0.170 HD
BRANCH  16  19
ATOM     19  C   UNL A   1      31.721  27.010  23.873  1.00  0.00     0.110 C 
ATOM     20  C   UNL A   1      31.385  27.262  26.433  1.00  0.00     0.039 C 
ATOM     21  C   UNL A   1      32.341  26.996  25.278  1.00  0.00     0.127 C 
ATOM     22  O   UNL A   1      33.338  28.047  25.291  1.00  0.00    -0.378 OA
ATOM     23  C   UNL A   1      33.279  28.728  24.032  1.00  0.00     0.161 C 
ATOM     24  C   UNL A   1      31.883  28.475  23.505  1.00  0.00     0.044 C 
ENDBRANCH  16  19
ENDBRANCH   9  15
ENDBRANCH   5   8
ENDBRANCH   3   4
ENDBRANCH   2   3
ENDBRANCH   1   2
BRANCH   1  25
ATOM     25  C   UNL A   1      38.529  21.136  25.518  1.00  0.00     0.116 C 
BRANCH  25  26
ATOM     26  N   UNL A   1      39.511  20.211  26.066  1.00  0.00    -0.352 N 
ATOM     27  C   UNL A   1      40.617  20.528  26.830  1.00  0.00     0.251 C 
ATOM     28  H   UNL A   1      39.372  19.256  25.870  1.00  0.00     0.163 HD
ATOM     29  O   UNL A   1      41.429  19.680  27.148  1.00  0.00    -0.269 OA
BRANCH  27  30
ATOM     30  C   UNL A   1      40.811  21.945  27.213  1.00  0.00     0.039 A 
ATOM     31  C   UNL A   1      41.652  22.249  28.287  1.00  0.00     0.014 A 
ATOM     32  C   UNL A   1      40.235  22.964  26.450  1.00  0.00     0.014 A 
ATOM     33  C   UNL A   1      41.974  23.582  28.551  1.00  0.00     0.010 A 
ATOM     34  C   UNL A   1      40.613  24.282  26.670  1.00  0.00     0.010 A 
ATOM     35  C   UNL A   1      41.488  24.605  27.720  1.00  0.00    -0.014 A 
BRANCH  35  36
ATOM     36  C   UNL A   1      41.880  26.023  27.912  1.00  0.00     0.031 A 
ATOM     37  C   UNL A   1      43.263  26.474  27.530  1.00  0.00     0.074 A 
ATOM     38  C   UNL A   1      41.041  26.872  28.536  1.00  0.00     0.049 A 
ATOM     39  N   UNL A   1      43.840  27.628  27.738  1.00  0.00    -0.248 NA
ATOM     40  C   UNL A   1      44.121  25.485  26.856  1.00  0.00     0.031 C 
ATOM     41  C   UNL A   1      39.702  26.535  29.021  1.00  0.00     0.029 A 
ATOM     42  N   UNL A   1      41.204  28.187  28.898  1.00  0.00    -0.354 N 
ATOM     43  C   UNL A   1      45.138  27.491  27.264  1.00  0.00     0.074 A 
ATOM     44  C   UNL A   1      45.274  26.134  26.784  1.00  0.00     0.031 C 
ATOM     45  C   UNL A   1      39.165  27.613  29.614  1.00  0.00     0.029 A 
ATOM     46  C   UNL A   1      40.129  28.709  29.579  1.00  0.00     0.049 A 
ATOM     47  H   UNL A   1      42.013  28.707  28.689  1.00  0.00     0.167 HD
ATOM     48  C   UNL A   1      46.120  28.421  27.202  1.00  0.00     0.034 A 
ATOM     49  C   UNL A   1      39.944  29.928  30.121  1.00  0.00     0.034 A 
ATOM     50  C   UNL A   1      45.961  29.787  27.618  1.00  0.00     0.049 A 
ATOM     51  C   UNL A   1      41.030  30.962  29.992  1.00  0.00     0.074 A 
ATOM     52  C   UNL A   1      46.864  30.829  27.505  1.00  0.00     0.029 A 
ATOM     53  N   UNL A   1      44.825  30.305  28.221  1.00  0.00    -0.354 N 
ATOM     54  N   UNL A   1      42.201  30.858  29.411  1.00  0.00    -0.248 NA
ATOM     55  C   UNL A   1      40.760  32.289  30.563  1.00  0.00     0.031 C 
ATOM     56  C   UNL A   1      46.276  31.977  28.047  1.00  0.00     0.029 A 
ATOM     57  C   UNL A   1      45.004  31.651  28.489  1.00  0.00     0.049 A 
ATOM     58  H   UNL A   1      44.011  29.792  28.427  1.00  0.00     0.167 HD
ATOM     59  C   UNL A   1      42.800  32.106  29.530  1.00  0.00     0.074 A 
ATOM     60  C   UNL A   1      41.850  32.961  30.213  1.00  0.00     0.031 C 
ATOM     61  C   UNL A   1      44.033  32.503  29.128  1.00  0.00     0.034 A 
BRANCH  48  62
ATOM     62  C   UNL A   1      47.434  28.009  26.596  1.00  0.00     0.023 A 
ATOM     63  C   UNL A   1      48.507  27.667  27.443  1.00  0.00     0.012 A 
ATOM     64  C   UNL A   1      47.592  27.903  25.200  1.00  0.00     0.148 A 
ATOM     65  C   UNL A   1      49.728  27.254  26.912  1.00  0.00     0.002 A 
ATOM     66  C   UNL A   1      48.799  27.450  24.680  1.00  0.00     0.091 A 
ATOM     67  F   UNL A   1      46.569  28.257  24.410  1.00  0.00    -0.205 F 
ATOM     68  C   UNL A   1      49.870  27.135  25.533  1.00  0.00     0.022 A 
BRANCH  66  69
ATOM     69  S   UNL A   1      49.058  27.193  22.921  1.00  0.00     0.127 S 
ATOM     70  O   UNL A   1      48.500  28.420  22.357  1.00  0.00    -0.237 OA
ATOM     71  O   UNL A   1      50.515  27.088  22.833  1.00  0.00    -0.237 OA
ATOM     72  O   UNL A   1      48.343  25.968  22.588  1.00  0.00    -0.744 OA
ENDBRANCH  66  69
ENDBRANCH  48  62
BRANCH  49  73
ATOM     73  C   UNL A   1      38.639  30.256  30.762  1.00  0.00     0.023 A 
ATOM     74  C   UNL A   1      38.427  29.889  32.105  1.00  0.00     0.012 A 
ATOM     75  C   UNL A   1      37.644  30.984  30.081  1.00  0.00     0.148 A 
ATOM     76  C   UNL A   1      37.241  30.228  32.756  1.00  0.00     0.002 A 
ATOM     77  C   UNL A   1      36.486  31.364  30.751  1.00  0.00     0.091 A 
ATOM     78  F   UNL A   1      37.864  31.314  28.801  1.00  0.00    -0.205 F 
ATOM     79  C   UNL A   1      36.277  30.976  32.084  1.00  0.00     0.022 A 
BRANCH  77  80
ATOM     80  S   UNL A   1      35.250  32.440  30.015  1.00  0.00     0.127 S 
ATOM     81  O   UNL A   1      34.729  31.604  28.936  1.00  0.00    -0.237 OA
ATOM     82  O   UNL A   1      34.329  32.646  31.134  1.00  0.00    -0.237 OA
ATOM     83  O   UNL A   1      35.966  33.637  29.596  1.00  0.00    -0.744 OA
ENDBRANCH  77  80
ENDBRANCH  49  73
BRANCH  61  84
ATOM     84  C   UNL A   1      44.442  33.925  29.411  1.00  0.00     0.023 A 
ATOM     85  C   UNL A   1      45.170  34.212  30.583  1.00  0.00     0.012 A 
ATOM     86  C   UNL A   1      44.205  34.950  28.475  1.00  0.00     0.148 A 
ATOM     87  C   UNL A   1      45.639  35.502  30.827  1.00  0.00     0.002 A 
ATOM     88  C   UNL A   1      44.713  36.223  28.704  1.00  0.00     0.091 A 
ATOM     89  F   UNL A   1      43.492  34.661  27.375  1.00  0.00    -0.205 F 
ATOM     90  C   UNL A   1      45.422  36.503  29.882  1.00  0.00     0.022 A 
BRANCH  88  91
ATOM     91  S   UNL A   1      44.567  37.544  27.494  1.00  0.00     0.127 S 
ATOM     92  O   UNL A   1      43.271  37.250  26.886  1.00  0.00    -0.237 OA
ATOM     93  O   UNL A   1      44.589  38.743  28.333  1.00  0.00    -0.237 OA
ATOM     94  O   UNL A   1      45.721  37.406  26.615  1.00  0.00    -0.744 OA
ENDBRANCH  88  91
ENDBRANCH  61  84
ENDBRANCH  35  36
ENDBRANCH  27  30
ENDBRANCH  25  26
ENDBRANCH   1  25
TORSDOF 16
ENDMDL
MODEL 3
REMARK VINA RESULT:     -12.2      4.237      5.831
REMARK SMILES C[C@@H]1OCC[C@@H]1C(=O)Nc1ccc(C(=O)NCCCCNC(=O)c2ccc(-c3c4nc(c(-c5cccc(S(=O)(=O)[O-])c5F)c5ccc([nH]5)c(-c5cccc(S(=O)(=O)[O-])c5F)c5nc(c(-c6cccc(S(=O)(=O)[O-])c6F)c6ccc3[nH]6)C=C5)C=C4)cc2)cc1F
REMARK SMILES IDX 19 1 18 2 17 3 16 4 14 5 15 6 13 8 10 9 11 10 88 11 12 12
REMARK SMILES IDX 87 13 89 14 9 15 7 16 8 17 6 19 1 20 2 21 3 22 4 23 5 24
REMARK SMILES IDX 20 25 21 26 22 27 23 29 24 30 25 31 86 32 26 33 85 34 27 35
REMARK SMILES IDX 28 36 29 37 79 38 30 39 84 40 78 41 80 42 31 43 83 44 77 45
REMARK SMILES IDX 76 46 32 48 64 49 44 50 63 51 45 52 48 53 62 54 81 55 46 56
REMARK SMILES IDX 47 57 61 59 82 60 49 61 33 62 34 63 42 64 35 65 37 66 43 67
REMARK SMILES IDX 36 68 38 69 39 70 40 71 41 72 65 73 66 74 74 75 67 76 69 77
REMARK SMILES IDX 75 78 68 79 70 80 71 81 72 82 73 83 50 84 51 85 59 86 52 87
REMARK SMILES IDX 54 88 60 89 53 90 55 91 56 92 57 93 58 94
REMARK H PARENT 16 7 9 18 21 28 80 47 48 58
REMARK Flexibility Score: inf
ROOT
ATOM      1  C   UNL A   1      32.772  27.884  26.087  1.00  0.00     0.023 C 
ENDROOT
BRANCH   1   2
ATOM      2  C   UNL A   1      31.738  26.982  26.758  1.00  0.00     0.023 C 
BRANCH   2   3
ATOM      3  C   UNL A   1      31.054  25.999  25.793  1.00  0.00     0.116 C 
BRANCH   3   4
ATOM      4  N   UNL A   1      30.178  25.068  26.495  1.00  0.00    -0.352 N 
ATOM      5  C   UNL A   1      30.289  23.740  26.847  1.00  0.00     0.251 C 
ATOM      6  O   UNL A   1      29.381  23.237  27.509  1.00  0.00    -0.269 OA
ATOM      7  H   UNL A   1      29.326  25.473  26.777  1.00  0.00     0.163 HD
BRANCH   5   8
ATOM      8  C   UNL A   1      31.459  22.884  26.495  1.00  0.00     0.042 A 
ATOM      9  C   UNL A   1      33.651  21.170  25.819  1.00  0.00     0.077 A 
ATOM     10  C   UNL A   1      32.588  21.379  24.925  1.00  0.00     0.030 A 
ATOM     11  C   UNL A   1      33.541  21.802  27.048  1.00  0.00     0.147 A 
ATOM     12  C   UNL A   1      31.492  22.202  25.270  1.00  0.00     0.016 A 
ATOM     13  C   UNL A   1      32.534  22.704  27.335  1.00  0.00     0.055 A 
ATOM     14  F   UNL A   1      34.334  21.559  28.086  1.00  0.00    -0.205 F 
BRANCH   9  15
ATOM     15  N   UNL A   1      34.734  20.381  25.370  1.00  0.00    -0.323 N 
ATOM     16  C   UNL A   1      36.085  20.563  25.244  1.00  0.00     0.230 C 
ATOM     17  O   UNL A   1      36.719  19.634  24.730  1.00  0.00    -0.274 OA
ATOM     18  H   UNL A   1      34.449  19.486  25.078  1.00  0.00     0.170 HD
BRANCH  16  19
ATOM     19  C   UNL A   1      36.806  21.803  25.726  1.00  0.00     0.110 C 
ATOM     20  C   UNL A   1      36.385  22.948  23.437  1.00  0.00     0.039 C 
ATOM     21  C   UNL A   1      36.553  23.100  24.943  1.00  0.00     0.127 C 
ATOM     22  O   UNL A   1      37.712  23.941  25.166  1.00  0.00    -0.378 OA
ATOM     23  C   UNL A   1      38.656  23.194  25.943  1.00  0.00     0.161 C 
ATOM     24  C   UNL A   1      38.324  21.740  25.689  1.00  0.00     0.044 C 
ENDBRANCH  16  19
ENDBRANCH   9  15
ENDBRANCH   5   8
ENDBRANCH   3   4
ENDBRANCH   2   3
ENDBRANCH   1   2
BRANCH   1  25
ATOM     25  C   UNL A   1      33.861  28.365  27.038  1.00  0.00     0.116 C 
BRANCH  25  26
ATOM     26  N   UNL A   1      33.694  29.749  27.459  1.00  0.00    -0.352 N 
ATOM     27  C   UNL A   1      34.619  30.537  28.117  1.00  0.00     0.251 C 
ATOM     28  H   UNL A   1      32.827  30.169  27.253  1.00  0.00     0.163 HD
ATOM     29  O   UNL A   1      34.332  31.650  28.513  1.00  0.00    -0.269 OA
BRANCH  27  30
ATOM     30  C   UNL A   1      35.961  29.964  28.369  1.00  0.00     0.039 A 
ATOM     31  C   UNL A   1      36.967  30.148  27.417  1.00  0.00     0.014 A 
ATOM     32  C   UNL A   1      36.237  29.330  29.583  1.00  0.00     0.014 A 
ATOM     33  C   UNL A   1      38.274  29.759  27.716  1.00  0.00     0.010 A 
ATOM     34  C   UNL A   1      37.550  29.010  29.905  1.00  0.00     0.010 A 
ATOM     35  C   UNL A   1      38.582  29.224  28.978  1.00  0.00    -0.014 A 
BRANCH  35  36
ATOM     36  C   UNL A   1      39.973  28.884  29.366  1.00  0.00     0.031 A 
ATOM     37  C   UNL A   1      40.653  27.695  28.745  1.00  0.00     0.074 A 
ATOM     38  C   UNL A   1      40.580  29.567  30.356  1.00  0.00     0.049 A 
ATOM     39  N   UNL A   1      41.805  27.156  29.043  1.00  0.00    -0.248 NA
ATOM     40  C   UNL A   1      39.922  26.999  27.673  1.00  0.00     0.031 C 
ATOM     41  C   UNL A   1      39.996  30.693  31.087  1.00  0.00     0.029 A 
ATOM     42  N   UNL A   1      41.809  29.393  30.941  1.00  0.00    -0.354 N 
ATOM     43  C   UNL A   1      41.920  26.036  28.229  1.00  0.00     0.074 A 
ATOM     44  C   UNL A   1      40.706  25.955  27.446  1.00  0.00     0.031 C 
ATOM     45  C   UNL A   1      40.868  31.110  32.020  1.00  0.00     0.029 A 
ATOM     46  C   UNL A   1      42.058  30.264  31.976  1.00  0.00     0.049 A 
ATOM     47  H   UNL A   1      42.453  28.708  30.648  1.00  0.00     0.167 HD
ATOM     48  C   UNL A   1      42.955  25.171  28.119  1.00  0.00     0.034 A 
ATOM     49  C   UNL A   1      43.118  30.367  32.800  1.00  0.00     0.034 A 
ATOM     50  C   UNL A   1      44.186  25.293  28.848  1.00  0.00     0.049 A 
ATOM     51  C   UNL A   1      44.281  29.428  32.621  1.00  0.00     0.074 A 
ATOM     52  C   UNL A   1      45.331  24.525  28.735  1.00  0.00     0.029 A 
ATOM     53  N   UNL A   1      44.438  26.246  29.824  1.00  0.00    -0.354 N 
ATOM     54  N   UNL A   1      44.432  28.461  31.748  1.00  0.00    -0.248 NA
ATOM     55  C   UNL A   1      45.431  29.610  33.518  1.00  0.00     0.031 C 
ATOM     56  C   UNL A   1      46.274  25.009  29.648  1.00  0.00     0.029 A 
ATOM     57  C   UNL A   1      45.719  26.084  30.324  1.00  0.00     0.049 A 
ATOM     58  H   UNL A   1      43.800  26.936  30.118  1.00  0.00     0.167 HD
ATOM     59  C   UNL A   1      45.697  27.933  31.975  1.00  0.00     0.074 A 
ATOM     60  C   UNL A   1      46.283  28.705  33.052  1.00  0.00     0.031 C 
ATOM     61  C   UNL A   1      46.308  26.889  31.363  1.00  0.00     0.034 A 
BRANCH  48  62
ATOM     62  C   UNL A   1      42.828  24.056  27.116  1.00  0.00     0.023 A 
ATOM     63  C   UNL A   1      43.299  24.253  25.803  1.00  0.00     0.012 A 
ATOM     64  C   UNL A   1      42.300  22.802  27.483  1.00  0.00     0.148 A 
ATOM     65  C   UNL A   1      43.221  23.230  24.859  1.00  0.00     0.002 A 
ATOM     66  C   UNL A   1      42.264  21.774  26.547  1.00  0.00     0.091 A 
ATOM     67  F   UNL A   1      41.834  22.643  28.729  1.00  0.00    -0.205 F 
ATOM     68  C   UNL A   1      42.714  21.989  25.234  1.00  0.00     0.022 A 
BRANCH  66  69
ATOM     69  S   UNL A   1      41.699  20.118  26.952  1.00  0.00     0.127 S 
ATOM     70  O   UNL A   1      41.597  19.508  25.628  1.00  0.00    -0.237 OA
ATOM     71  O   UNL A   1      42.795  19.608  27.776  1.00  0.00    -0.237 OA
ATOM     72  O   UNL A   1      40.438  20.289  27.662  1.00  0.00    -0.744 OA
ENDBRANCH  66  69
ENDBRANCH  48  62
BRANCH  49  73
ATOM     73  C   UNL A   1      43.157  31.458  33.814  1.00  0.00     0.023 A 
ATOM     74  C   UNL A   1      43.684  32.712  33.447  1.00  0.00     0.012 A 
ATOM     75  C   UNL A   1      42.618  31.288  35.104  1.00  0.00     0.148 A 
ATOM     76  C   UNL A   1      43.685  33.774  34.352  1.00  0.00     0.002 A 
ATOM     77  C   UNL A   1      42.575  32.365  35.982  1.00  0.00     0.091 A 
ATOM     78  F   UNL A   1      42.131  30.084  35.434  1.00  0.00    -0.205 F 
ATOM     79  C   UNL A   1      43.120  33.605  35.613  1.00  0.00     0.022 A 
BRANCH  77  80
ATOM     80  S   UNL A   1      41.748  32.283  37.575  1.00  0.00     0.127 S 
ATOM     81  O   UNL A   1      41.831  33.670  38.028  1.00  0.00    -0.237 OA
ATOM     82  O   UNL A   1      40.406  31.838  37.193  1.00  0.00    -0.237 OA
ATOM     83  O   UNL A   1      42.501  31.316  38.362  1.00  0.00    -0.744 OA
ENDBRANCH  77  80
ENDBRANCH  49  73
BRANCH  61  84
ATOM     84  C   UNL A   1      47.687  26.507  31.833  1.00  0.00     0.023 A 
ATOM     85  C   UNL A   1      47.825  25.607  32.909  1.00  0.00     0.012 A 
ATOM     86  C   UNL A   1      48.837  26.948  31.148  1.00  0.00     0.148 A 
ATOM     87  C   UNL A   1      49.086  25.167  33.308  1.00  0.00     0.002 A 
ATOM     88  C   UNL A   1      50.087  26.470  31.523  1.00  0.00     0.091 A 
ATOM     89  F   UNL A   1      48.687  27.820  30.140  1.00  0.00    -0.205 F 
ATOM     90  C   UNL A   1      50.214  25.587  32.607  1.00  0.00     0.022 A 
BRANCH  88  91
ATOM     91  S   UNL A   1      51.581  26.881  30.613  1.00  0.00     0.127 S 
ATOM     92  O   UNL A   1      52.603  26.168  31.377  1.00  0.00    -0.237 OA
ATOM     93  O   UNL A   1      51.307  26.319  29.289  1.00  0.00    -0.237 OA
ATOM     94  O   UNL A   1      51.674  28.335  30.639  1.00  0.00    -0.744 OA
ENDBRANCH  88  91
ENDBRANCH  61  84
ENDBRANCH  35  36
ENDBRANCH  27  30
ENDBRANCH  25  26
ENDBRANCH   1  25
TORSDOF 16
ENDMDL
