MODEL 1
REMARK VINA RESULT:     -11.9      0.000      0.000
REMARK SMILES CC1(C)CCC[C@@]1(CC(=O)NCCCCNC(=O)c1ccc(-c2c3nc(c(-c4cccc(S(=O)(=O)[O-])c4F)c4ccc([nH]4)c(-c4cccc(S(=O)(=O)[O-])c4F)c4nc(c(-c5cccc(S(=O)(=O)[O-])c5F)c5ccc2[nH]5)C=C4)C=C3)cc1)[NH+]1CCCCC1
REMARK SMILES IDX 14 1 13 2 12 3 11 4 9 5 10 6 8 8 7 9 1 10 2 11 3 12 4 13
REMARK SMILES IDX 5 14 6 15 82 16 83 17 87 18 84 20 86 21 85 22 15 23 16 24
REMARK SMILES IDX 17 25 18 27 19 28 20 29 81 30 21 31 80 32 22 33 23 34 24 35
REMARK SMILES IDX 74 36 25 37 79 38 73 39 75 40 26 41 78 42 72 43 71 44 27 46
REMARK SMILES IDX 59 47 39 48 58 49 40 50 43 51 57 52 76 53 41 54 42 55 56 57
REMARK SMILES IDX 77 58 44 59 28 60 29 61 37 62 30 63 32 64 38 65 31 66 33 67
REMARK SMILES IDX 34 68 35 69 36 70 60 71 61 72 69 73 62 74 64 75 70 76 63 77
REMARK SMILES IDX 65 78 66 79 67 80 68 81 45 82 46 83 54 84 47 85 49 86 55 87
REMARK SMILES IDX 48 88 50 89 51 90 52 91 53 92
REMARK H PARENT 11 7 82 19 16 26 75 45 43 56
REMARK Flexibility Score: inf
ROOT
ATOM      1  C   UNL A   1      31.750  29.592  24.899  1.00  0.00     0.023 C 
ENDROOT
BRANCH   1   2
ATOM      2  C   UNL A   1      32.459  28.953  23.720  1.00  0.00     0.023 C 
BRANCH   2   3
ATOM      3  C   UNL A   1      31.554  28.135  22.790  1.00  0.00     0.116 C 
BRANCH   3   4
ATOM      4  N   UNL A   1      32.357  27.318  21.906  1.00  0.00    -0.356 N 
ATOM      5  C   UNL A   1      32.648  25.989  21.914  1.00  0.00     0.226 C 
ATOM      6  O   UNL A   1      33.347  25.589  20.979  1.00  0.00    -0.275 OA
ATOM      7  H   UNL A   1      32.768  27.815  21.161  1.00  0.00     0.163 HD
BRANCH   5   8
ATOM      8  C   UNL A   1      32.035  25.018  22.936  1.00  0.00     0.169 C 
BRANCH   8   9
ATOM      9  C   UNL A   1      32.642  24.793  24.392  1.00  0.00     0.112 C 
ATOM     10  C   UNL A   1      30.649  23.771  25.823  1.00  0.00     0.018 C 
ATOM     11  C   UNL A   1      31.463  25.029  25.494  1.00  0.00     0.020 C 
ATOM     12  C   UNL A   1      30.429  26.128  25.106  1.00  0.00     0.018 C 
ATOM     13  C   UNL A   1      32.186  25.565  26.751  1.00  0.00     0.013 C 
ATOM     14  C   UNL A   1      33.337  26.395  26.225  1.00  0.00     0.007 C 
ATOM     15  C   UNL A   1      33.572  25.959  24.784  1.00  0.00     0.070 C 
BRANCH   9  16
ATOM     16  N   UNL A   1      33.274  23.431  24.539  1.00  0.00    -0.329 N 
ATOM     17  C   UNL A   1      34.187  23.119  25.645  1.00  0.00     0.262 C 
ATOM     18  C   UNL A   1      33.837  22.790  23.338  1.00  0.00     0.262 C 
ATOM     19  H   UNL A   1      32.367  23.035  24.786  1.00  0.00     0.348 HD
ATOM     20  C   UNL A   1      35.643  23.549  25.454  1.00  0.00     0.062 C 
ATOM     21  C   UNL A   1      35.207  23.339  22.945  1.00  0.00     0.062 C 
ATOM     22  C   UNL A   1      36.211  23.172  24.086  1.00  0.00     0.012 C 
ENDBRANCH   9  16
ENDBRANCH   8   9
ENDBRANCH   5   8
ENDBRANCH   3   4
ENDBRANCH   2   3
ENDBRANCH   1   2
BRANCH   1  23
ATOM     23  C   UNL A   1      32.679  30.025  26.016  1.00  0.00     0.116 C 
BRANCH  23  24
ATOM     24  N   UNL A   1      32.414  31.373  26.513  1.00  0.00    -0.352 N 
ATOM     25  C   UNL A   1      33.197  32.132  27.353  1.00  0.00     0.251 C 
ATOM     26  H   UNL A   1      31.574  31.787  26.212  1.00  0.00     0.163 HD
ATOM     27  O   UNL A   1      32.810  33.217  27.770  1.00  0.00    -0.269 OA
BRANCH  25  28
ATOM     28  C   UNL A   1      34.501  31.580  27.764  1.00  0.00     0.039 A 
ATOM     29  C   UNL A   1      35.580  32.444  27.953  1.00  0.00     0.014 A 
ATOM     30  C   UNL A   1      34.594  30.229  28.104  1.00  0.00     0.014 A 
ATOM     31  C   UNL A   1      36.736  31.961  28.567  1.00  0.00     0.010 A 
ATOM     32  C   UNL A   1      35.693  29.787  28.819  1.00  0.00     0.010 A 
ATOM     33  C   UNL A   1      36.783  30.641  29.045  1.00  0.00    -0.014 A 
BRANCH  33  34
ATOM     34  C   UNL A   1      37.964  30.108  29.767  1.00  0.00     0.031 A 
ATOM     35  C   UNL A   1      38.234  30.569  31.174  1.00  0.00     0.074 A 
ATOM     36  C   UNL A   1      38.845  29.313  29.128  1.00  0.00     0.049 A 
ATOM     37  N   UNL A   1      39.264  30.322  31.940  1.00  0.00    -0.248 NA
ATOM     38  C   UNL A   1      37.240  31.473  31.783  1.00  0.00     0.031 C 
ATOM     39  C   UNL A   1      38.748  28.886  27.731  1.00  0.00     0.029 A 
ATOM     40  N   UNL A   1      40.016  28.746  29.567  1.00  0.00    -0.354 N 
ATOM     41  C   UNL A   1      39.066  31.078  33.089  1.00  0.00     0.074 A 
ATOM     42  C   UNL A   1      37.851  31.835  32.900  1.00  0.00     0.031 C 
ATOM     43  C   UNL A   1      39.808  28.116  27.431  1.00  0.00     0.029 A 
ATOM     44  C   UNL A   1      40.670  28.012  28.604  1.00  0.00     0.049 A 
ATOM     45  H   UNL A   1      40.355  28.853  30.484  1.00  0.00     0.167 HD
ATOM     46  C   UNL A   1      39.804  31.105  34.223  1.00  0.00     0.034 A 
ATOM     47  C   UNL A   1      41.831  27.331  28.665  1.00  0.00     0.034 A 
ATOM     48  C   UNL A   1      40.960  30.284  34.439  1.00  0.00     0.049 A 
ATOM     49  C   UNL A   1      42.578  27.292  29.972  1.00  0.00     0.074 A 
ATOM     50  C   UNL A   1      41.718  30.146  35.587  1.00  0.00     0.029 A 
ATOM     51  N   UNL A   1      41.517  29.444  33.486  1.00  0.00    -0.354 N 
ATOM     52  N   UNL A   1      42.286  27.884  31.106  1.00  0.00    -0.248 NA
ATOM     53  C   UNL A   1      43.788  26.460  30.023  1.00  0.00     0.031 C 
ATOM     54  C   UNL A   1      42.736  29.222  35.326  1.00  0.00     0.029 A 
ATOM     55  C   UNL A   1      42.604  28.778  34.019  1.00  0.00     0.049 A 
ATOM     56  H   UNL A   1      41.186  29.337  32.564  1.00  0.00     0.167 HD
ATOM     57  C   UNL A   1      43.256  27.472  32.012  1.00  0.00     0.074 A 
ATOM     58  C   UNL A   1      44.130  26.561  31.301  1.00  0.00     0.031 C 
ATOM     59  C   UNL A   1      43.421  27.828  33.310  1.00  0.00     0.034 A 
BRANCH  46  60
ATOM     60  C   UNL A   1      39.323  31.991  35.342  1.00  0.00     0.023 A 
ATOM     61  C   UNL A   1      38.381  31.488  36.264  1.00  0.00     0.012 A 
ATOM     62  C   UNL A   1      39.814  33.301  35.500  1.00  0.00     0.148 A 
ATOM     63  C   UNL A   1      37.903  32.287  37.300  1.00  0.00     0.002 A 
ATOM     64  C   UNL A   1      39.367  34.076  36.565  1.00  0.00     0.091 A 
ATOM     65  F   UNL A   1      40.688  33.771  34.599  1.00  0.00    -0.205 F 
ATOM     66  C   UNL A   1      38.403  33.577  37.456  1.00  0.00     0.022 A 
BRANCH  64  67
ATOM     67  S   UNL A   1      40.007  35.722  36.895  1.00  0.00     0.127 S 
ATOM     68  O   UNL A   1      39.323  36.059  38.143  1.00  0.00    -0.237 OA
ATOM     69  O   UNL A   1      41.442  35.474  37.035  1.00  0.00    -0.237 OA
ATOM     70  O   UNL A   1      39.642  36.531  35.740  1.00  0.00    -0.744 OA
ENDBRANCH  64  67
ENDBRANCH  46  60
BRANCH  47  71
ATOM     71  C   UNL A   1      42.301  26.553  27.485  1.00  0.00     0.023 A 
ATOM     72  C   UNL A   1      43.074  27.200  26.500  1.00  0.00     0.012 A 
ATOM     73  C   UNL A   1      42.029  25.178  27.349  1.00  0.00     0.148 A 
ATOM     74  C   UNL A   1      43.543  26.499  25.388  1.00  0.00     0.002 A 
ATOM     75  C   UNL A   1      42.542  24.475  26.264  1.00  0.00     0.091 A 
ATOM     76  F   UNL A   1      41.282  24.582  28.289  1.00  0.00    -0.205 F 
ATOM     77  C   UNL A   1      43.286  25.136  25.275  1.00  0.00     0.022 A 
BRANCH  75  78
ATOM     78  S   UNL A   1      42.372  22.692  26.108  1.00  0.00     0.127 S 
ATOM     79  O   UNL A   1      43.085  22.219  27.293  1.00  0.00    -0.237 OA
ATOM     80  O   UNL A   1      40.920  22.520  26.152  1.00  0.00    -0.237 OA
ATOM     81  O   UNL A   1      42.975  22.356  24.825  1.00  0.00    -0.744 OA
ENDBRANCH  75  78
ENDBRANCH  47  71
BRANCH  59  82
ATOM     82  C   UNL A   1      44.571  27.214  34.061  1.00  0.00     0.023 A 
ATOM     83  C   UNL A   1      45.832  27.839  34.031  1.00  0.00     0.012 A 
ATOM     84  C   UNL A   1      44.377  26.078  34.870  1.00  0.00     0.148 A 
ATOM     85  C   UNL A   1      46.892  27.326  34.776  1.00  0.00     0.002 A 
ATOM     86  C   UNL A   1      45.427  25.599  35.644  1.00  0.00     0.091 A 
ATOM     87  F   UNL A   1      43.172  25.488  34.868  1.00  0.00    -0.205 F 
ATOM     88  C   UNL A   1      46.687  26.216  35.591  1.00  0.00     0.022 A 
BRANCH  86  89
ATOM     89  S   UNL A   1      45.220  24.234  36.793  1.00  0.00     0.127 S 
ATOM     90  O   UNL A   1      44.231  24.774  37.724  1.00  0.00    -0.237 OA
ATOM     91  O   UNL A   1      44.721  23.166  35.927  1.00  0.00    -0.237 OA
ATOM     92  O   UNL A   1      46.540  23.983  37.355  1.00  0.00    -0.744 OA
ENDBRANCH  86  89
ENDBRANCH  59  82
ENDBRANCH  33  34
ENDBRANCH  25  28
ENDBRANCH  23  24
ENDBRANCH   1  23
TORSDOF 16
ENDMDL
MODEL 2
REMARK VINA RESULT:     -11.6      4.750     10.037
REMARK SMILES CC1(C)CCC[C@@]1(CC(=O)NCCCCNC(=O)c1ccc(-c2c3nc(c(-c4cccc(S(=O)(=O)[O-])c4F)c4ccc([nH]4)c(-c4cccc(S(=O)(=O)[O-])c4F)c4nc(c(-c5cccc(S(=O)(=O)[O-])c5F)c5ccc2[nH]5)C=C4)C=C3)cc1)[NH+]1CCCCC1
REMARK SMILES IDX 14 1 13 2 12 3 11 4 9 5 10 6 8 8 7 9 1 10 2 11 3 12 4 13
REMARK SMILES IDX 5 14 6 15 82 16 83 17 87 18 84 20 86 21 85 22 15 23 16 24
REMARK SMILES IDX 17 25 18 27 19 28 20 29 81 30 21 31 80 32 22 33 23 34 24 35
REMARK SMILES IDX 74 36 25 37 79 38 73 39 75 40 26 41 78 42 72 43 71 44 27 46
REMARK SMILES IDX 59 47 39 48 58 49 40 50 43 51 57 52 76 53 41 54 42 55 56 57
REMARK SMILES IDX 77 58 44 59 28 60 29 61 37 62 30 63 32 64 38 65 31 66 33 67
REMARK SMILES IDX 34 68 35 69 36 70 60 71 61 72 69 73 62 74 64 75 70 76 63 77
REMARK SMILES IDX 65 78 66 79 67 80 68 81 45 82 46 83 54 84 47 85 49 86 55 87
REMARK SMILES IDX 48 88 50 89 51 90 52 91 53 92
REMARK H PARENT 11 7 82 19 16 26 75 45 43 56
REMARK Flexibility Score: inf
ROOT
ATOM      1  C   UNL A   1      35.217  21.560  25.050  1.00  0.00     0.023 C 
ENDROOT
BRANCH   1   2
ATOM      2  C   UNL A   1      34.133  21.090  26.002  1.00  0.00     0.023 C 
BRANCH   2   3
ATOM      3  C   UNL A   1      32.702  21.232  25.469  1.00  0.00     0.116 C 
BRANCH   3   4
ATOM      4  N   UNL A   1      31.890  21.970  26.412  1.00  0.00    -0.356 N 
ATOM      5  C   UNL A   1      31.209  23.143  26.298  1.00  0.00     0.226 C 
ATOM      6  O   UNL A   1      30.572  23.490  27.296  1.00  0.00    -0.275 OA
ATOM      7  H   UNL A   1      31.815  21.546  27.298  1.00  0.00     0.163 HD
BRANCH   5   8
ATOM      8  C   UNL A   1      31.120  23.918  24.974  1.00  0.00     0.169 C 
BRANCH   8   9
ATOM      9  C   UNL A   1      32.168  25.044  24.554  1.00  0.00     0.112 C 
ATOM     10  C   UNL A   1      31.855  25.337  21.931  1.00  0.00     0.018 C 
ATOM     11  C   UNL A   1      32.708  24.722  23.050  1.00  0.00     0.020 C 
ATOM     12  C   UNL A   1      32.831  23.204  22.719  1.00  0.00     0.018 C 
ATOM     13  C   UNL A   1      34.151  25.274  23.011  1.00  0.00     0.013 C 
ATOM     14  C   UNL A   1      34.695  25.064  24.408  1.00  0.00     0.007 C 
ATOM     15  C   UNL A   1      33.493  24.873  25.325  1.00  0.00     0.070 C 
BRANCH   9  16
ATOM     16  N   UNL A   1      31.579  26.430  24.649  1.00  0.00    -0.329 N 
ATOM     17  C   UNL A   1      32.398  27.631  24.447  1.00  0.00     0.262 C 
ATOM     18  C   UNL A   1      30.668  26.725  25.768  1.00  0.00     0.262 C 
ATOM     19  H   UNL A   1      31.068  26.273  23.780  1.00  0.00     0.348 HD
ATOM     20  C   UNL A   1      33.197  28.109  25.662  1.00  0.00     0.062 C 
ATOM     21  C   UNL A   1      31.395  26.988  27.086  1.00  0.00     0.062 C 
ATOM     22  C   UNL A   1      32.372  28.155  26.948  1.00  0.00     0.012 C 
ENDBRANCH   9  16
ENDBRANCH   8   9
ENDBRANCH   5   8
ENDBRANCH   3   4
ENDBRANCH   2   3
ENDBRANCH   1   2
BRANCH   1  23
ATOM     23  C   UNL A   1      36.507  21.968  25.737  1.00  0.00     0.116 C 
BRANCH  23  24
ATOM     24  N   UNL A   1      37.569  20.972  25.633  1.00  0.00    -0.352 N 
ATOM     25  C   UNL A   1      38.898  21.117  25.963  1.00  0.00     0.251 C 
ATOM     26  H   UNL A   1      37.303  20.090  25.284  1.00  0.00     0.163 HD
ATOM     27  O   UNL A   1      39.707  20.225  25.736  1.00  0.00    -0.269 OA
BRANCH  25  28
ATOM     28  C   UNL A   1      39.322  22.395  26.562  1.00  0.00     0.039 A 
ATOM     29  C   UNL A   1      40.375  22.405  27.478  1.00  0.00     0.014 A 
ATOM     30  C   UNL A   1      38.769  23.587  26.091  1.00  0.00     0.014 A 
ATOM     31  C   UNL A   1      40.930  23.626  27.860  1.00  0.00     0.010 A 
ATOM     32  C   UNL A   1      39.400  24.785  26.379  1.00  0.00     0.010 A 
ATOM     33  C   UNL A   1      40.476  24.822  27.278  1.00  0.00    -0.014 A 
BRANCH  33  34
ATOM     34  C   UNL A   1      41.086  26.134  27.601  1.00  0.00     0.031 A 
ATOM     35  C   UNL A   1      42.501  26.413  27.170  1.00  0.00     0.074 A 
ATOM     36  C   UNL A   1      40.421  27.018  28.371  1.00  0.00     0.049 A 
ATOM     37  N   UNL A   1      43.260  27.440  27.446  1.00  0.00    -0.248 NA
ATOM     38  C   UNL A   1      43.170  25.374  26.365  1.00  0.00     0.031 C 
ATOM     39  C   UNL A   1      39.086  26.815  28.941  1.00  0.00     0.029 A 
ATOM     40  N   UNL A   1      40.793  28.255  28.834  1.00  0.00    -0.354 N 
ATOM     41  C   UNL A   1      44.503  27.145  26.899  1.00  0.00     0.074 A 
ATOM     42  C   UNL A   1      44.415  25.822  26.324  1.00  0.00     0.031 C 
ATOM     43  C   UNL A   1      38.748  27.895  29.666  1.00  0.00     0.029 A 
ATOM     44  C   UNL A   1      39.847  28.855  29.634  1.00  0.00     0.049 A 
ATOM     45  H   UNL A   1      41.656  28.675  28.615  1.00  0.00     0.167 HD
ATOM     46  C   UNL A   1      45.608  27.923  26.835  1.00  0.00     0.034 A 
ATOM     47  C   UNL A   1      39.865  30.047  30.263  1.00  0.00     0.034 A 
ATOM     48  C   UNL A   1      45.661  29.269  27.329  1.00  0.00     0.049 A 
ATOM     49  C   UNL A   1      41.066  30.938  30.089  1.00  0.00     0.074 A 
ATOM     50  C   UNL A   1      46.689  30.187  27.220  1.00  0.00     0.029 A 
ATOM     51  N   UNL A   1      44.631  29.896  28.013  1.00  0.00    -0.354 N 
ATOM     52  N   UNL A   1      42.173  30.707  29.424  1.00  0.00    -0.248 NA
ATOM     53  C   UNL A   1      41.005  32.267  30.712  1.00  0.00     0.031 C 
ATOM     54  C   UNL A   1      46.279  31.372  27.841  1.00  0.00     0.029 A 
ATOM     55  C   UNL A   1      44.993  31.193  28.328  1.00  0.00     0.049 A 
ATOM     56  H   UNL A   1      43.769  29.480  28.242  1.00  0.00     0.167 HD
ATOM     57  C   UNL A   1      42.926  31.872  29.523  1.00  0.00     0.074 A 
ATOM     58  C   UNL A   1      42.138  32.814  30.291  1.00  0.00     0.031 C 
ATOM     59  C   UNL A   1      44.166  32.133  29.038  1.00  0.00     0.034 A 
BRANCH  46  60
ATOM     60  C   UNL A   1      46.814  27.359  26.131  1.00  0.00     0.023 A 
ATOM     61  C   UNL A   1      46.914  27.480  24.729  1.00  0.00     0.012 A 
ATOM     62  C   UNL A   1      47.855  26.738  26.846  1.00  0.00     0.148 A 
ATOM     63  C   UNL A   1      48.007  26.954  24.045  1.00  0.00     0.002 A 
ATOM     64  C   UNL A   1      48.965  26.257  26.161  1.00  0.00     0.091 A 
ATOM     65  F   UNL A   1      47.731  26.608  28.175  1.00  0.00    -0.205 F 
ATOM     66  C   UNL A   1      49.037  26.353  24.761  1.00  0.00     0.022 A 
BRANCH  64  67
ATOM     67  S   UNL A   1      50.379  25.534  27.001  1.00  0.00     0.127 S 
ATOM     68  O   UNL A   1      49.783  24.348  27.615  1.00  0.00    -0.237 OA
ATOM     69  O   UNL A   1      51.289  25.253  25.890  1.00  0.00    -0.237 OA
ATOM     70  O   UNL A   1      50.854  26.550  27.929  1.00  0.00    -0.744 OA
ENDBRANCH  64  67
ENDBRANCH  46  60
BRANCH  47  71
ATOM     71  C   UNL A   1      38.671  30.502  31.028  1.00  0.00     0.023 A 
ATOM     72  C   UNL A   1      38.611  30.259  32.415  1.00  0.00     0.012 A 
ATOM     73  C   UNL A   1      37.621  31.207  30.410  1.00  0.00     0.148 A 
ATOM     74  C   UNL A   1      37.514  30.684  33.167  1.00  0.00     0.002 A 
ATOM     75  C   UNL A   1      36.555  31.672  31.175  1.00  0.00     0.091 A 
ATOM     76  F   UNL A   1      37.688  31.419  29.088  1.00  0.00    -0.205 F 
ATOM     77  C   UNL A   1      36.492  31.398  32.549  1.00  0.00     0.022 A 
BRANCH  75  78
ATOM     78  S   UNL A   1      35.262  32.714  30.486  1.00  0.00     0.127 S 
ATOM     79  O   UNL A   1      36.007  33.918  30.129  1.00  0.00    -0.237 OA
ATOM     80  O   UNL A   1      34.800  31.915  29.350  1.00  0.00    -0.237 OA
ATOM     81  O   UNL A   1      34.277  32.863  31.549  1.00  0.00    -0.744 OA
ENDBRANCH  75  78
ENDBRANCH  47  71
BRANCH  59  82
ATOM     82  C   UNL A   1      44.742  33.499  29.295  1.00  0.00     0.023 A 
ATOM     83  C   UNL A   1      45.441  33.743  30.492  1.00  0.00     0.012 A 
ATOM     84  C   UNL A   1      44.673  34.504  28.312  1.00  0.00     0.148 A 
ATOM     85  C   UNL A   1      46.042  34.979  30.719  1.00  0.00     0.002 A 
ATOM     86  C   UNL A   1      45.312  35.719  28.527  1.00  0.00     0.091 A 
ATOM     87  F   UNL A   1      43.984  34.256  27.188  1.00  0.00    -0.205 F 
ATOM     88  C   UNL A   1      45.989  35.962  29.733  1.00  0.00     0.022 A 
BRANCH  86  89
ATOM     89  S   UNL A   1      45.374  37.001  27.270  1.00  0.00     0.127 S 
ATOM     90  O   UNL A   1      46.152  36.350  26.217  1.00  0.00    -0.237 OA
ATOM     91  O   UNL A   1      43.960  37.197  26.950  1.00  0.00    -0.237 OA
ATOM     92  O   UNL A   1      46.011  38.148  27.903  1.00  0.00    -0.744 OA
ENDBRANCH  86  89
ENDBRANCH  59  82
ENDBRANCH  33  34
ENDBRANCH  25  28
ENDBRANCH  23  24
ENDBRANCH   1  23
TORSDOF 16
ENDMDL
MODEL 3
REMARK VINA RESULT:     -11.6      1.082      2.191
REMARK SMILES CC1(C)CCC[C@@]1(CC(=O)NCCCCNC(=O)c1ccc(-c2c3nc(c(-c4cccc(S(=O)(=O)[O-])c4F)c4ccc([nH]4)c(-c4cccc(S(=O)(=O)[O-])c4F)c4nc(c(-c5cccc(S(=O)(=O)[O-])c5F)c5ccc2[nH]5)C=C4)C=C3)cc1)[NH+]1CCCCC1
REMARK SMILES IDX 14 1 13 2 12 3 11 4 9 5 10 6 8 8 7 9 1 10 2 11 3 12 4 13
REMARK SMILES IDX 5 14 6 15 82 16 83 17 87 18 84 20 86 21 85 22 15 23 16 24
REMARK SMILES IDX 17 25 18 27 19 28 20 29 81 30 21 31 80 32 22 33 23 34 24 35
REMARK SMILES IDX 74 36 25 37 79 38 73 39 75 40 26 41 78 42 72 43 71 44 27 46
REMARK SMILES IDX 59 47 39 48 58 49 40 50 43 51 57 52 76 53 41 54 42 55 56 57
REMARK SMILES IDX 77 58 44 59 28 60 29 61 37 62 30 63 32 64 38 65 31 66 33 67
REMARK SMILES IDX 34 68 35 69 36 70 60 71 61 72 69 73 62 74 64 75 70 76 63 77
REMARK SMILES IDX 65 78 66 79 67 80 68 81 45 82 46 83 54 84 47 85 49 86 55 87
REMARK SMILES IDX 48 88 50 89 51 90 52 91 53 92
REMARK H PARENT 11 7 82 19 16 26 75 45 43 56
REMARK Flexibility Score: inf
ROOT
ATOM      1  C   UNL A   1      31.779  29.298  26.791  1.00  0.00     0.023 C 
ENDROOT
BRANCH   1   2
ATOM      2  C   UNL A   1      32.145  27.834  26.632  1.00  0.00     0.023 C 
BRANCH   2   3
ATOM      3  C   UNL A   1      30.960  26.901  26.353  1.00  0.00     0.116 C 
BRANCH   3   4
ATOM      4  N   UNL A   1      31.209  25.595  26.924  1.00  0.00    -0.356 N 
ATOM      5  C   UNL A   1      31.381  24.372  26.350  1.00  0.00     0.226 C 
ATOM      6  O   UNL A   1      31.616  23.445  27.129  1.00  0.00    -0.275 OA
ATOM      7  H   UNL A   1      31.266  25.589  27.907  1.00  0.00     0.163 HD
BRANCH   5   8
ATOM      8  C   UNL A   1      31.420  24.175  24.826  1.00  0.00     0.169 C 
BRANCH   8   9
ATOM      9  C   UNL A   1      32.757  24.307  23.968  1.00  0.00     0.112 C 
ATOM     10  C   UNL A   1      32.759  22.190  22.360  1.00  0.00     0.018 C 
ATOM     11  C   UNL A   1      33.323  22.812  23.646  1.00  0.00     0.020 C 
ATOM     12  C   UNL A   1      33.075  21.770  24.778  1.00  0.00     0.018 C 
ATOM     13  C   UNL A   1      34.858  22.971  23.556  1.00  0.00     0.013 C 
ATOM     14  C   UNL A   1      35.206  24.050  24.558  1.00  0.00     0.007 C 
ATOM     15  C   UNL A   1      33.920  24.818  24.842  1.00  0.00     0.070 C 
BRANCH   9  16
ATOM     16  N   UNL A   1      32.544  25.105  22.705  1.00  0.00    -0.329 N 
ATOM     17  C   UNL A   1      33.464  26.175  22.304  1.00  0.00     0.262 C 
ATOM     18  C   UNL A   1      31.184  25.586  22.406  1.00  0.00     0.262 C 
ATOM     19  H   UNL A   1      32.784  24.286  22.146  1.00  0.00     0.348 HD
ATOM     20  C   UNL A   1      33.234  27.538  22.961  1.00  0.00     0.062 C 
ATOM     21  C   UNL A   1      30.792  26.826  23.207  1.00  0.00     0.062 C 
ATOM     22  C   UNL A   1      31.769  27.974  22.952  1.00  0.00     0.012 C 
ENDBRANCH   9  16
ENDBRANCH   8   9
ENDBRANCH   5   8
ENDBRANCH   3   4
ENDBRANCH   2   3
ENDBRANCH   1   2
BRANCH   1  23
ATOM     23  C   UNL A   1      32.839  30.256  26.283  1.00  0.00     0.116 C 
BRANCH  23  24
ATOM     24  N   UNL A   1      32.643  31.636  26.720  1.00  0.00    -0.352 N 
ATOM     25  C   UNL A   1      33.475  32.398  27.509  1.00  0.00     0.251 C 
ATOM     26  H   UNL A   1      31.816  32.073  26.415  1.00  0.00     0.163 HD
ATOM     27  O   UNL A   1      33.144  33.517  27.881  1.00  0.00    -0.269 OA
BRANCH  25  28
ATOM     28  C   UNL A   1      34.761  31.808  27.923  1.00  0.00     0.039 A 
ATOM     29  C   UNL A   1      35.880  32.631  28.054  1.00  0.00     0.014 A 
ATOM     30  C   UNL A   1      34.802  30.471  28.323  1.00  0.00     0.014 A 
ATOM     31  C   UNL A   1      37.026  32.125  28.669  1.00  0.00     0.010 A 
ATOM     32  C   UNL A   1      35.895  30.013  29.039  1.00  0.00     0.010 A 
ATOM     33  C   UNL A   1      37.025  30.828  29.206  1.00  0.00    -0.014 A 
BRANCH  33  34
ATOM     34  C   UNL A   1      38.195  30.276  29.932  1.00  0.00     0.031 A 
ATOM     35  C   UNL A   1      38.487  30.758  31.328  1.00  0.00     0.074 A 
ATOM     36  C   UNL A   1      39.049  29.444  29.304  1.00  0.00     0.049 A 
ATOM     37  N   UNL A   1      39.514  30.497  32.092  1.00  0.00    -0.248 NA
ATOM     38  C   UNL A   1      37.523  31.701  31.924  1.00  0.00     0.031 C 
ATOM     39  C   UNL A   1      38.931  28.992  27.916  1.00  0.00     0.029 A 
ATOM     40  N   UNL A   1      40.206  28.853  29.747  1.00  0.00    -0.354 N 
ATOM     41  C   UNL A   1      39.346  31.281  33.227  1.00  0.00     0.074 A 
ATOM     42  C   UNL A   1      38.150  32.068  33.030  1.00  0.00     0.031 C 
ATOM     43  C   UNL A   1      39.967  28.187  27.625  1.00  0.00     0.029 A 
ATOM     44  C   UNL A   1      40.833  28.083  28.795  1.00  0.00     0.049 A 
ATOM     45  H   UNL A   1      40.555  28.969  30.660  1.00  0.00     0.167 HD
ATOM     46  C   UNL A   1      40.092  31.310  34.356  1.00  0.00     0.034 A 
ATOM     47  C   UNL A   1      41.975  27.371  28.863  1.00  0.00     0.034 A 
ATOM     48  C   UNL A   1      41.226  30.461  34.581  1.00  0.00     0.049 A 
ATOM     49  C   UNL A   1      42.730  27.337  30.165  1.00  0.00     0.074 A 
ATOM     50  C   UNL A   1      41.987  30.325  35.727  1.00  0.00     0.029 A 
ATOM     51  N   UNL A   1      41.752  29.587  33.642  1.00  0.00    -0.354 N 
ATOM     52  N   UNL A   1      42.462  27.959  31.289  1.00  0.00    -0.248 NA
ATOM     53  C   UNL A   1      43.916  26.472  30.226  1.00  0.00     0.031 C 
ATOM     54  C   UNL A   1      42.977  29.368  35.479  1.00  0.00     0.029 A 
ATOM     55  C   UNL A   1      42.824  28.902  34.182  1.00  0.00     0.049 A 
ATOM     56  H   UNL A   1      41.412  29.472  32.725  1.00  0.00     0.167 HD
ATOM     57  C   UNL A   1      43.426  27.538  32.197  1.00  0.00     0.074 A 
ATOM     58  C   UNL A   1      44.270  26.589  31.499  1.00  0.00     0.031 C 
ATOM     59  C   UNL A   1      43.609  27.916  33.487  1.00  0.00     0.034 A 
BRANCH  46  60
ATOM     60  C   UNL A   1      39.643  32.231  35.459  1.00  0.00     0.023 A 
ATOM     61  C   UNL A   1      38.787  31.737  36.466  1.00  0.00     0.012 A 
ATOM     62  C   UNL A   1      40.082  33.568  35.521  1.00  0.00     0.148 A 
ATOM     63  C   UNL A   1      38.340  32.567  37.491  1.00  0.00     0.002 A 
ATOM     64  C   UNL A   1      39.668  34.377  36.573  1.00  0.00     0.091 A 
ATOM     65  F   UNL A   1      40.873  34.028  34.541  1.00  0.00    -0.205 F 
ATOM     66  C   UNL A   1      38.788  33.883  37.550  1.00  0.00     0.022 A 
BRANCH  64  67
ATOM     67  S   UNL A   1      40.251  36.064  36.779  1.00  0.00     0.127 S 
ATOM     68  O   UNL A   1      41.695  35.866  36.889  1.00  0.00    -0.237 OA
ATOM     69  O   UNL A   1      39.815  36.697  35.534  1.00  0.00    -0.237 OA
ATOM     70  O   UNL A   1      39.593  36.569  37.977  1.00  0.00    -0.744 OA
ENDBRANCH  64  67
ENDBRANCH  46  60
BRANCH  47  71
ATOM     71  C   UNL A   1      42.416  26.556  27.695  1.00  0.00     0.023 A 
ATOM     72  C   UNL A   1      43.282  27.132  26.745  1.00  0.00     0.012 A 
ATOM     73  C   UNL A   1      42.023  25.213  27.541  1.00  0.00     0.148 A 
ATOM     74  C   UNL A   1      43.725  26.395  25.646  1.00  0.00     0.002 A 
ATOM     75  C   UNL A   1      42.510  24.469  26.470  1.00  0.00     0.091 A 
ATOM     76  F   UNL A   1      41.189  24.685  28.448  1.00  0.00    -0.205 F 
ATOM     77  C   UNL A   1      43.349  25.062  25.514  1.00  0.00     0.022 A 
BRANCH  75  78
ATOM     78  S   UNL A   1      42.182  22.710  26.296  1.00  0.00     0.127 S 
ATOM     79  O   UNL A   1      42.775  22.173  27.519  1.00  0.00    -0.237 OA
ATOM     80  O   UNL A   1      40.720  22.675  26.253  1.00  0.00    -0.237 OA
ATOM     81  O   UNL A   1      42.825  22.317  25.049  1.00  0.00    -0.744 OA
ENDBRANCH  75  78
ENDBRANCH  47  71
BRANCH  59  82
ATOM     82  C   UNL A   1      44.747  27.285  34.243  1.00  0.00     0.023 A 
ATOM     83  C   UNL A   1      45.997  27.932  34.284  1.00  0.00     0.012 A 
ATOM     84  C   UNL A   1      44.549  26.107  34.988  1.00  0.00     0.148 A 
ATOM     85  C   UNL A   1      47.042  27.401  35.036  1.00  0.00     0.002 A 
ATOM     86  C   UNL A   1      45.583  25.607  35.771  1.00  0.00     0.091 A 
ATOM     87  F   UNL A   1      43.356  25.497  34.919  1.00  0.00    -0.205 F 
ATOM     88  C   UNL A   1      46.832  26.247  35.789  1.00  0.00     0.022 A 
BRANCH  86  89
ATOM     89  S   UNL A   1      45.366  24.183  36.845  1.00  0.00     0.127 S 
ATOM     90  O   UNL A   1      46.736  23.937  37.293  1.00  0.00    -0.237 OA
ATOM     91  O   UNL A   1      44.471  24.703  37.879  1.00  0.00    -0.237 OA
ATOM     92  O   UNL A   1      44.781  23.142  36.012  1.00  0.00    -0.744 OA
ENDBRANCH  86  89
ENDBRANCH  59  82
ENDBRANCH  33  34
ENDBRANCH  25  28
ENDBRANCH  23  24
ENDBRANCH   1  23
TORSDOF 16
ENDMDL
