MODEL 1
REMARK VINA RESULT:     -12.3      0.000      0.000
REMARK SMILES C=CCN1C(=O)/C(=C/c2ccc(OCc3cccc(C(=O)NCCCCNC(=O)c4ccc(-c5c6nc(c(-c7cccc(S(=O)(=O)[O-])c7F)c7ccc([nH]7)c(-c7cccc(S(=O)(=O)[O-])c7F)c7nc(c(-c8cccc(S(=O)(=O)[O-])c8F)c8ccc5[nH]8)C=C7)C=C6)cc4)c3)cc2)C(=O)NC1=S
REMARK SMILES IDX 23 1 22 2 20 3 21 4 19 6 15 7 16 8 93 9 17 10 18 11 14 12
REMARK SMILES IDX 13 13 12 14 9 15 10 16 95 17 11 18 94 19 8 20 4 21 5 22
REMARK SMILES IDX 99 23 6 24 7 25 98 26 100 27 96 28 97 30 3 31 2 32 1 33
REMARK SMILES IDX 24 34 25 35 26 36 27 37 28 38 29 40 30 41 31 42 92 43 32 44
REMARK SMILES IDX 91 45 33 46 34 47 35 48 85 49 36 50 90 51 84 52 86 53 37 54
REMARK SMILES IDX 89 55 83 56 82 57 38 59 70 60 50 61 69 62 51 63 54 64 68 65
REMARK SMILES IDX 87 66 52 67 53 68 67 70 88 71 55 72 39 73 40 74 48 75 41 76
REMARK SMILES IDX 43 77 49 78 42 79 44 80 45 81 46 82 47 83 71 84 72 85 80 86
REMARK SMILES IDX 73 87 75 88 81 89 74 90 76 91 77 92 78 93 79 94 56 95 57 96
REMARK SMILES IDX 65 97 58 98 60 99 66 100 59 101 61 102 62 103 63 104 64 105
REMARK H PARENT 22 5 98 29 27 39 86 58 54 69
REMARK Flexibility Score: inf
ROOT
ATOM      1  C   UNL A   1      36.623  21.901  25.023  1.00  0.00     0.116 C 
ENDROOT
BRANCH   1   2
ATOM      2  N   UNL A   1      35.718  21.726  26.142  1.00  0.00    -0.352 N 
ATOM      3  C   UNL A   1      34.347  21.670  26.210  1.00  0.00     0.251 C 
ATOM      4  O   UNL A   1      33.834  21.410  27.299  1.00  0.00    -0.269 OA
ATOM      5  H   UNL A   1      36.167  21.629  27.012  1.00  0.00     0.163 HD
BRANCH   3   6
ATOM      6  C   UNL A   1      33.454  21.864  25.029  1.00  0.00     0.040 A 
ATOM      7  C   UNL A   1      32.264  23.222  23.381  1.00  0.00    -0.010 A 
ATOM      8  C   UNL A   1      31.828  22.057  22.741  1.00  0.00     0.007 A 
ATOM      9  C   UNL A   1      33.025  23.108  24.558  1.00  0.00     0.021 A 
ATOM     10  C   UNL A   1      32.172  20.805  23.250  1.00  0.00     0.001 A 
ATOM     11  C   UNL A   1      32.993  20.711  24.377  1.00  0.00     0.014 A 
BRANCH   7  12
ATOM     12  C   UNL A   1      31.971  24.588  22.793  1.00  0.00     0.265 C 
BRANCH  12  13
ATOM     13  O   UNL A   1      32.975  25.566  23.097  1.00  0.00    -0.489 OA
BRANCH  13  14
ATOM     14  C   UNL A   1      32.590  26.712  23.740  1.00  0.00     0.119 A 
ATOM     15  C   UNL A   1      32.131  29.124  25.102  1.00  0.00    -0.024 A 
ATOM     16  C   UNL A   1      33.173  29.023  24.175  1.00  0.00     0.012 A 
ATOM     17  C   UNL A   1      31.275  28.042  25.288  1.00  0.00     0.012 A 
ATOM     18  C   UNL A   1      33.400  27.823  23.498  1.00  0.00     0.047 A 
ATOM     19  C   UNL A   1      31.495  26.846  24.594  1.00  0.00     0.047 A 
BRANCH  15  20
ATOM     20  C   UNL A   1      31.986  30.368  25.858  1.00  0.00     0.027 C 
ATOM     21  N   UNL A   1      33.794  32.690  27.872  1.00  0.00    -0.281 N 
ATOM     22  C   UNL A   1      32.630  32.160  27.310  1.00  0.00     0.265 C 
ATOM     23  C   UNL A   1      34.789  31.905  28.445  1.00  0.00     0.183 C 
ATOM     24  O   UNL A   1      31.623  32.821  27.063  1.00  0.00    -0.268 OA
ATOM     25  C   UNL A   1      32.716  30.728  26.932  1.00  0.00     0.106 C 
ATOM     26  N   UNL A   1      34.632  30.548  28.343  1.00  0.00    -0.298 N 
ATOM     27  S   UNL A   1      36.168  32.437  29.239  1.00  0.00    -0.040 S 
ATOM     28  C   UNL A   1      33.689  29.862  27.626  1.00  0.00     0.263 C 
ATOM     29  H   UNL A   1      35.275  29.999  28.848  1.00  0.00     0.172 HD
ATOM     30  O   UNL A   1      33.689  28.644  27.593  1.00  0.00    -0.269 OA
BRANCH  21  31
ATOM     31  C   UNL A   1      33.902  34.148  27.792  1.00  0.00     0.155 C 
BRANCH  31  32
ATOM     32  C   UNL A   1      33.292  34.706  29.056  1.00  0.00    -0.013 C 
ATOM     33  C   UNL A   1      32.914  35.983  29.215  1.00  0.00     0.006 C 
ENDBRANCH  31  32
ENDBRANCH  21  31
ENDBRANCH  15  20
ENDBRANCH  13  14
ENDBRANCH  12  13
ENDBRANCH   7  12
ENDBRANCH   3   6
ENDBRANCH   1   2
BRANCH   1  34
ATOM     34  C   UNL A   1      38.079  21.945  25.497  1.00  0.00     0.023 C 
BRANCH  34  35
ATOM     35  C   UNL A   1      38.847  20.638  25.288  1.00  0.00     0.023 C 
BRANCH  35  36
ATOM     36  C   UNL A   1      39.715  20.211  26.469  1.00  0.00     0.116 C 
BRANCH  36  37
ATOM     37  N   UNL A   1      40.657  19.150  26.140  1.00  0.00    -0.352 N 
ATOM     38  C   UNL A   1      42.026  19.230  26.034  1.00  0.00     0.251 C 
ATOM     39  H   UNL A   1      40.264  18.263  25.972  1.00  0.00     0.163 HD
ATOM     40  O   UNL A   1      42.675  18.261  25.653  1.00  0.00    -0.269 OA
BRANCH  38  41
ATOM     41  C   UNL A   1      42.700  20.510  26.339  1.00  0.00     0.039 A 
ATOM     42  C   UNL A   1      43.207  21.273  25.284  1.00  0.00     0.014 A 
ATOM     43  C   UNL A   1      42.779  20.978  27.653  1.00  0.00     0.014 A 
ATOM     44  C   UNL A   1      43.726  22.544  25.540  1.00  0.00     0.010 A 
ATOM     45  C   UNL A   1      43.235  22.271  27.897  1.00  0.00     0.010 A 
ATOM     46  C   UNL A   1      43.706  23.068  26.843  1.00  0.00    -0.014 A 
BRANCH  46  47
ATOM     47  C   UNL A   1      44.139  24.461  27.122  1.00  0.00     0.031 A 
ATOM     48  C   UNL A   1      43.153  25.475  27.633  1.00  0.00     0.074 A 
ATOM     49  C   UNL A   1      45.395  24.838  26.812  1.00  0.00     0.049 A 
ATOM     50  N   UNL A   1      43.331  26.748  27.869  1.00  0.00    -0.248 NA
ATOM     51  C   UNL A   1      41.781  25.004  27.883  1.00  0.00     0.031 C 
ATOM     52  C   UNL A   1      46.418  23.969  26.223  1.00  0.00     0.029 A 
ATOM     53  N   UNL A   1      46.019  26.055  26.919  1.00  0.00    -0.354 N 
ATOM     54  C   UNL A   1      42.091  27.239  28.258  1.00  0.00     0.074 A 
ATOM     55  C   UNL A   1      41.161  26.132  28.198  1.00  0.00     0.031 C 
ATOM     56  C   UNL A   1      47.539  24.681  26.023  1.00  0.00     0.029 A 
ATOM     57  C   UNL A   1      47.311  26.059  26.446  1.00  0.00     0.049 A 
ATOM     58  H   UNL A   1      45.582  26.852  27.298  1.00  0.00     0.167 HD
ATOM     59  C   UNL A   1      41.762  28.489  28.663  1.00  0.00     0.034 A 
ATOM     60  C   UNL A   1      48.210  27.059  26.364  1.00  0.00     0.034 A 
ATOM     61  C   UNL A   1      42.700  29.572  28.776  1.00  0.00     0.049 A 
ATOM     62  C   UNL A   1      47.837  28.422  26.880  1.00  0.00     0.074 A 
ATOM     63  C   UNL A   1      42.487  30.846  29.271  1.00  0.00     0.029 A 
ATOM     64  N   UNL A   1      44.030  29.509  28.391  1.00  0.00    -0.354 N 
ATOM     65  N   UNL A   1      46.706  28.822  27.409  1.00  0.00    -0.248 NA
ATOM     66  C   UNL A   1      48.875  29.462  26.824  1.00  0.00     0.031 C 
ATOM     67  C   UNL A   1      43.689  31.558  29.176  1.00  0.00     0.029 A 
ATOM     68  C   UNL A   1      44.651  30.722  28.633  1.00  0.00     0.049 A 
ATOM     69  H   UNL A   1      44.469  28.718  28.002  1.00  0.00     0.167 HD
ATOM     70  C   UNL A   1      46.905  30.147  27.780  1.00  0.00     0.074 A 
ATOM     71  C   UNL A   1      48.274  30.475  27.434  1.00  0.00     0.031 C 
ATOM     72  C   UNL A   1      46.030  31.017  28.340  1.00  0.00     0.034 A 
BRANCH  59  73
ATOM     73  C   UNL A   1      40.336  28.734  29.082  1.00  0.00     0.023 A 
ATOM     74  C   UNL A   1      39.355  28.947  28.093  1.00  0.00     0.012 A 
ATOM     75  C   UNL A   1      39.956  28.701  30.437  1.00  0.00     0.148 A 
ATOM     76  C   UNL A   1      38.023  29.154  28.446  1.00  0.00     0.002 A 
ATOM     77  C   UNL A   1      38.619  28.868  30.780  1.00  0.00     0.091 A 
ATOM     78  F   UNL A   1      40.907  28.523  31.365  1.00  0.00    -0.205 F 
ATOM     79  C   UNL A   1      37.654  29.104  29.787  1.00  0.00     0.022 A 
BRANCH  77  80
ATOM     80  S   UNL A   1      38.033  28.749  32.474  1.00  0.00     0.127 S 
ATOM     81  O   UNL A   1      38.948  29.653  33.168  1.00  0.00    -0.237 OA
ATOM     82  O   UNL A   1      36.659  29.241  32.362  1.00  0.00    -0.237 OA
ATOM     83  O   UNL A   1      38.143  27.343  32.835  1.00  0.00    -0.744 OA
ENDBRANCH  77  80
ENDBRANCH  59  73
BRANCH  60  84
ATOM     84  C   UNL A   1      49.581  26.783  25.848  1.00  0.00     0.023 A 
ATOM     85  C   UNL A   1      50.504  26.117  26.678  1.00  0.00     0.012 A 
ATOM     86  C   UNL A   1      49.965  27.139  24.541  1.00  0.00     0.148 A 
ATOM     87  C   UNL A   1      51.794  25.834  26.225  1.00  0.00     0.002 A 
ATOM     88  C   UNL A   1      51.234  26.809  24.079  1.00  0.00     0.091 A 
ATOM     89  F   UNL A   1      49.078  27.787  23.772  1.00  0.00    -0.205 F 
ATOM     90  C   UNL A   1      52.155  26.171  24.923  1.00  0.00     0.022 A 
BRANCH  88  91
ATOM     91  S   UNL A   1      51.735  27.086  22.375  1.00  0.00     0.127 S 
ATOM     92  O   UNL A   1      50.548  26.658  21.641  1.00  0.00    -0.237 OA
ATOM     93  O   UNL A   1      51.982  28.528  22.361  1.00  0.00    -0.237 OA
ATOM     94  O   UNL A   1      52.930  26.274  22.187  1.00  0.00    -0.744 OA
ENDBRANCH  88  91
ENDBRANCH  60  84
BRANCH  72  95
ATOM     95  C   UNL A   1      46.524  32.407  28.643  1.00  0.00     0.023 A 
ATOM     96  C   UNL A   1      47.052  32.695  29.917  1.00  0.00     0.012 A 
ATOM     97  C   UNL A   1      46.540  33.401  27.645  1.00  0.00     0.148 A 
ATOM     98  C   UNL A   1      47.564  33.960  30.201  1.00  0.00     0.002 A 
ATOM     99  C   UNL A   1      47.093  34.645  27.922  1.00  0.00     0.091 A 
ATOM    100  F   UNL A   1      46.013  33.112  26.446  1.00  0.00    -0.205 F 
ATOM    101  C   UNL A   1      47.597  34.930  29.201  1.00  0.00     0.022 A 
BRANCH  99 102
ATOM    102  S   UNL A   1      47.259  35.920  26.667  1.00  0.00     0.127 S 
ATOM    103  O   UNL A   1      45.975  36.611  26.772  1.00  0.00    -0.237 OA
ATOM    104  O   UNL A   1      48.407  36.688  27.148  1.00  0.00    -0.237 OA
ATOM    105  O   UNL A   1      47.491  35.215  25.413  1.00  0.00    -0.744 OA
ENDBRANCH  99 102
ENDBRANCH  72  95
ENDBRANCH  46  47
ENDBRANCH  38  41
ENDBRANCH  36  37
ENDBRANCH  35  36
ENDBRANCH  34  35
ENDBRANCH   1  34
TORSDOF 20
ENDMDL
MODEL 2
REMARK VINA RESULT:     -12.2      2.129      7.826
REMARK SMILES C=CCN1C(=O)/C(=C/c2ccc(OCc3cccc(C(=O)NCCCCNC(=O)c4ccc(-c5c6nc(c(-c7cccc(S(=O)(=O)[O-])c7F)c7ccc([nH]7)c(-c7cccc(S(=O)(=O)[O-])c7F)c7nc(c(-c8cccc(S(=O)(=O)[O-])c8F)c8ccc5[nH]8)C=C7)C=C6)cc4)c3)cc2)C(=O)NC1=S
REMARK SMILES IDX 23 1 22 2 20 3 21 4 19 6 15 7 16 8 93 9 17 10 18 11 14 12
REMARK SMILES IDX 13 13 12 14 9 15 10 16 95 17 11 18 94 19 8 20 4 21 5 22
REMARK SMILES IDX 99 23 6 24 7 25 98 26 100 27 96 28 97 30 3 31 2 32 1 33
REMARK SMILES IDX 24 34 25 35 26 36 27 37 28 38 29 40 30 41 31 42 92 43 32 44
REMARK SMILES IDX 91 45 33 46 34 47 35 48 85 49 36 50 90 51 84 52 86 53 37 54
REMARK SMILES IDX 89 55 83 56 82 57 38 59 70 60 50 61 69 62 51 63 54 64 68 65
REMARK SMILES IDX 87 66 52 67 53 68 67 70 88 71 55 72 39 73 40 74 48 75 41 76
REMARK SMILES IDX 43 77 49 78 42 79 44 80 45 81 46 82 47 83 71 84 72 85 80 86
REMARK SMILES IDX 73 87 75 88 81 89 74 90 76 91 77 92 78 93 79 94 56 95 57 96
REMARK SMILES IDX 65 97 58 98 60 99 66 100 59 101 61 102 62 103 63 104 64 105
REMARK H PARENT 22 5 98 29 27 39 86 58 54 69
REMARK Flexibility Score: inf
ROOT
ATOM      1  C   UNL A   1      34.103  21.669  27.122  1.00  0.00     0.116 C 
ENDROOT
BRANCH   1   2
ATOM      2  N   UNL A   1      33.303  20.645  26.479  1.00  0.00    -0.352 N 
ATOM      3  C   UNL A   1      32.475  20.685  25.384  1.00  0.00     0.251 C 
ATOM      4  O   UNL A   1      31.988  19.623  24.993  1.00  0.00    -0.269 OA
ATOM      5  H   UNL A   1      33.366  19.760  26.905  1.00  0.00     0.163 HD
BRANCH   3   6
ATOM      6  C   UNL A   1      32.171  21.933  24.624  1.00  0.00     0.040 A 
ATOM      7  C   UNL A   1      31.041  24.075  24.289  1.00  0.00    -0.010 A 
ATOM      8  C   UNL A   1      31.774  24.274  23.115  1.00  0.00     0.007 A 
ATOM      9  C   UNL A   1      31.206  22.872  24.999  1.00  0.00     0.021 A 
ATOM     10  C   UNL A   1      32.677  23.305  22.678  1.00  0.00     0.001 A 
ATOM     11  C   UNL A   1      32.885  22.151  23.437  1.00  0.00     0.014 A 
BRANCH   7  12
ATOM     12  C   UNL A   1      30.120  25.154  24.823  1.00  0.00     0.265 C 
BRANCH  12  13
ATOM     13  O   UNL A   1      30.484  26.474  24.397  1.00  0.00    -0.489 OA
BRANCH  13  14
ATOM     14  C   UNL A   1      31.462  27.133  25.094  1.00  0.00     0.119 A 
ATOM     15  C   UNL A   1      33.682  28.371  26.287  1.00  0.00    -0.024 A 
ATOM     16  C   UNL A   1      33.536  28.370  24.895  1.00  0.00     0.012 A 
ATOM     17  C   UNL A   1      32.678  27.821  27.079  1.00  0.00     0.012 A 
ATOM     18  C   UNL A   1      32.431  27.754  24.304  1.00  0.00     0.047 A 
ATOM     19  C   UNL A   1      31.564  27.220  26.482  1.00  0.00     0.047 A 
BRANCH  15  20
ATOM     20  C   UNL A   1      34.899  28.944  26.860  1.00  0.00     0.027 C 
ATOM     21  N   UNL A   1      36.075  31.093  29.452  1.00  0.00    -0.281 N 
ATOM     22  C   UNL A   1      36.230  30.323  28.296  1.00  0.00     0.265 C 
ATOM     23  C   UNL A   1      35.008  31.962  29.651  1.00  0.00     0.183 C 
ATOM     24  O   UNL A   1      37.283  29.779  27.968  1.00  0.00    -0.268 OA
ATOM     25  C   UNL A   1      34.987  30.121  27.512  1.00  0.00     0.106 C 
ATOM     26  N   UNL A   1      34.030  31.960  28.692  1.00  0.00    -0.298 N 
ATOM     27  S   UNL A   1      34.780  33.007  30.944  1.00  0.00    -0.040 S 
ATOM     28  C   UNL A   1      33.897  31.109  27.627  1.00  0.00     0.263 C 
ATOM     29  H   UNL A   1      33.338  32.656  28.778  1.00  0.00     0.172 HD
ATOM     30  O   UNL A   1      32.949  31.198  26.868  1.00  0.00    -0.269 OA
BRANCH  21  31
ATOM     31  C   UNL A   1      37.119  30.897  30.460  1.00  0.00     0.155 C 
BRANCH  31  32
ATOM     32  C   UNL A   1      36.654  29.781  31.366  1.00  0.00    -0.013 C 
ATOM     33  C   UNL A   1      37.467  28.879  31.934  1.00  0.00     0.006 C 
ENDBRANCH  31  32
ENDBRANCH  21  31
ENDBRANCH  15  20
ENDBRANCH  13  14
ENDBRANCH  12  13
ENDBRANCH   7  12
ENDBRANCH   3   6
ENDBRANCH   1   2
BRANCH   1  34
ATOM     34  C   UNL A   1      35.444  21.851  26.404  1.00  0.00     0.023 C 
BRANCH  34  35
ATOM     35  C   UNL A   1      35.723  23.286  25.948  1.00  0.00     0.023 C 
BRANCH  35  36
ATOM     36  C   UNL A   1      37.200  23.665  25.898  1.00  0.00     0.116 C 
BRANCH  36  37
ATOM     37  N   UNL A   1      38.094  22.527  26.067  1.00  0.00    -0.352 N 
ATOM     38  C   UNL A   1      39.399  22.528  26.501  1.00  0.00     0.251 C 
ATOM     39  H   UNL A   1      37.716  21.646  25.843  1.00  0.00     0.163 HD
ATOM     40  O   UNL A   1      40.053  21.489  26.499  1.00  0.00    -0.269 OA
BRANCH  38  41
ATOM     41  C   UNL A   1      40.019  23.802  26.923  1.00  0.00     0.039 A 
ATOM     42  C   UNL A   1      40.794  23.821  28.085  1.00  0.00     0.014 A 
ATOM     43  C   UNL A   1      39.880  24.954  26.145  1.00  0.00     0.014 A 
ATOM     44  C   UNL A   1      41.496  24.980  28.426  1.00  0.00     0.010 A 
ATOM     45  C   UNL A   1      40.631  26.085  26.450  1.00  0.00     0.010 A 
ATOM     46  C   UNL A   1      41.451  26.107  27.588  1.00  0.00    -0.014 A 
BRANCH  46  47
ATOM     47  C   UNL A   1      42.281  27.308  27.863  1.00  0.00     0.031 A 
ATOM     48  C   UNL A   1      43.705  27.372  27.384  1.00  0.00     0.074 A 
ATOM     49  C   UNL A   1      41.784  28.292  28.638  1.00  0.00     0.049 A 
ATOM     50  N   UNL A   1      44.599  28.304  27.586  1.00  0.00    -0.248 NA
ATOM     51  C   UNL A   1      44.198  26.227  26.601  1.00  0.00     0.031 C 
ATOM     52  C   UNL A   1      40.449  28.302  29.241  1.00  0.00     0.029 A 
ATOM     53  N   UNL A   1      42.353  29.460  29.078  1.00  0.00    -0.354 N 
ATOM     54  C   UNL A   1      45.767  27.845  26.991  1.00  0.00     0.074 A 
ATOM     55  C   UNL A   1      45.477  26.536  26.445  1.00  0.00     0.031 C 
ATOM     56  C   UNL A   1      40.302  29.420  29.969  1.00  0.00     0.029 A 
ATOM     57  C   UNL A   1      41.537  30.196  29.906  1.00  0.00     0.049 A 
ATOM     58  H   UNL A   1      43.262  29.745  28.826  1.00  0.00     0.167 HD
ATOM     59  C   UNL A   1      46.964  28.469  26.877  1.00  0.00     0.034 A 
ATOM     60  C   UNL A   1      41.758  31.364  30.541  1.00  0.00     0.034 A 
ATOM     61  C   UNL A   1      47.232  29.792  27.370  1.00  0.00     0.049 A 
ATOM     62  C   UNL A   1      43.074  32.066  30.345  1.00  0.00     0.074 A 
ATOM     63  C   UNL A   1      48.378  30.551  27.217  1.00  0.00     0.029 A 
ATOM     64  N   UNL A   1      46.343  30.555  28.111  1.00  0.00    -0.354 N 
ATOM     65  N   UNL A   1      44.108  31.693  29.631  1.00  0.00    -0.248 NA
ATOM     66  C   UNL A   1      43.241  33.366  31.010  1.00  0.00     0.031 C 
ATOM     67  C   UNL A   1      48.186  31.772  27.875  1.00  0.00     0.029 A 
ATOM     68  C   UNL A   1      46.915  31.775  28.426  1.00  0.00     0.049 A 
ATOM     69  H   UNL A   1      45.438  30.270  28.374  1.00  0.00     0.167 HD
ATOM     70  C   UNL A   1      45.034  32.725  29.731  1.00  0.00     0.074 A 
ATOM     71  C   UNL A   1      44.429  33.749  30.559  1.00  0.00     0.031 C 
ATOM     72  C   UNL A   1      46.278  32.810  29.200  1.00  0.00     0.034 A 
BRANCH  59  73
ATOM     73  C   UNL A   1      48.056  27.753  26.128  1.00  0.00     0.023 A 
ATOM     74  C   UNL A   1      48.973  26.955  26.843  1.00  0.00     0.012 A 
ATOM     75  C   UNL A   1      48.147  27.820  24.725  1.00  0.00     0.148 A 
ATOM     76  C   UNL A   1      49.981  26.261  26.177  1.00  0.00     0.002 A 
ATOM     77  C   UNL A   1      49.130  27.093  24.064  1.00  0.00     0.091 A 
ATOM     78  F   UNL A   1      47.283  28.603  24.063  1.00  0.00    -0.205 F 
ATOM     79  C   UNL A   1      50.054  26.321  24.789  1.00  0.00     0.022 A 
BRANCH  77  80
ATOM     80  S   UNL A   1      49.261  27.048  22.272  1.00  0.00     0.127 S 
ATOM     81  O   UNL A   1      50.669  26.707  22.086  1.00  0.00    -0.237 OA
ATOM     82  O   UNL A   1      48.324  25.980  21.920  1.00  0.00    -0.237 OA
ATOM     83  O   UNL A   1      48.867  28.372  21.812  1.00  0.00    -0.744 OA
ENDBRANCH  77  80
ENDBRANCH  59  73
BRANCH  60  84
ATOM     84  C   UNL A   1      40.672  31.984  31.353  1.00  0.00     0.023 A 
ATOM     85  C   UNL A   1      39.912  33.031  30.795  1.00  0.00     0.012 A 
ATOM     86  C   UNL A   1      40.364  31.526  32.647  1.00  0.00     0.148 A 
ATOM     87  C   UNL A   1      38.882  33.628  31.522  1.00  0.00     0.002 A 
ATOM     88  C   UNL A   1      39.303  32.091  33.347  1.00  0.00     0.091 A 
ATOM     89  F   UNL A   1      41.109  30.539  33.167  1.00  0.00    -0.205 F 
ATOM     90  C   UNL A   1      38.571  33.152  32.793  1.00  0.00     0.022 A 
BRANCH  88  91
ATOM     91  S   UNL A   1      38.751  31.450  34.933  1.00  0.00     0.127 S 
ATOM     92  O   UNL A   1      38.832  30.008  34.717  1.00  0.00    -0.237 OA
ATOM     93  O   UNL A   1      39.755  31.994  35.848  1.00  0.00    -0.237 OA
ATOM     94  O   UNL A   1      37.412  31.992  35.124  1.00  0.00    -0.744 OA
ENDBRANCH  88  91
ENDBRANCH  60  84
BRANCH  72  95
ATOM     95  C   UNL A   1      47.069  34.062  29.471  1.00  0.00     0.023 A 
ATOM     96  C   UNL A   1      47.917  34.121  30.594  1.00  0.00     0.012 A 
ATOM     97  C   UNL A   1      47.035  35.146  28.571  1.00  0.00     0.148 A 
ATOM     98  C   UNL A   1      48.699  35.249  30.833  1.00  0.00     0.002 A 
ATOM     99  C   UNL A   1      47.851  36.250  28.792  1.00  0.00     0.091 A 
ATOM    100  F   UNL A   1      46.205  35.080  27.520  1.00  0.00    -0.205 F 
ATOM    101  C   UNL A   1      48.677  36.307  29.926  1.00  0.00     0.022 A 
BRANCH  99 102
ATOM    102  S   UNL A   1      47.952  37.614  27.627  1.00  0.00     0.127 S 
ATOM    103  O   UNL A   1      49.026  38.420  28.204  1.00  0.00    -0.237 OA
ATOM    104  O   UNL A   1      48.301  36.936  26.378  1.00  0.00    -0.237 OA
ATOM    105  O   UNL A   1      46.633  38.233  27.625  1.00  0.00    -0.744 OA
ENDBRANCH  99 102
ENDBRANCH  72  95
ENDBRANCH  46  47
ENDBRANCH  38  41
ENDBRANCH  36  37
ENDBRANCH  35  36
ENDBRANCH  34  35
ENDBRANCH   1  34
TORSDOF 20
ENDMDL
MODEL 3
REMARK VINA RESULT:     -12.1      5.393     12.253
REMARK SMILES C=CCN1C(=O)/C(=C/c2ccc(OCc3cccc(C(=O)NCCCCNC(=O)c4ccc(-c5c6nc(c(-c7cccc(S(=O)(=O)[O-])c7F)c7ccc([nH]7)c(-c7cccc(S(=O)(=O)[O-])c7F)c7nc(c(-c8cccc(S(=O)(=O)[O-])c8F)c8ccc5[nH]8)C=C7)C=C6)cc4)c3)cc2)C(=O)NC1=S
REMARK SMILES IDX 23 1 22 2 20 3 21 4 19 6 15 7 16 8 93 9 17 10 18 11 14 12
REMARK SMILES IDX 13 13 12 14 9 15 10 16 95 17 11 18 94 19 8 20 4 21 5 22
REMARK SMILES IDX 99 23 6 24 7 25 98 26 100 27 96 28 97 30 3 31 2 32 1 33
REMARK SMILES IDX 24 34 25 35 26 36 27 37 28 38 29 40 30 41 31 42 92 43 32 44
REMARK SMILES IDX 91 45 33 46 34 47 35 48 85 49 36 50 90 51 84 52 86 53 37 54
REMARK SMILES IDX 89 55 83 56 82 57 38 59 70 60 50 61 69 62 51 63 54 64 68 65
REMARK SMILES IDX 87 66 52 67 53 68 67 70 88 71 55 72 39 73 40 74 48 75 41 76
REMARK SMILES IDX 43 77 49 78 42 79 44 80 45 81 46 82 47 83 71 84 72 85 80 86
REMARK SMILES IDX 73 87 75 88 81 89 74 90 76 91 77 92 78 93 79 94 56 95 57 96
REMARK SMILES IDX 65 97 58 98 60 99 66 100 59 101 61 102 62 103 63 104 64 105
REMARK H PARENT 22 5 98 29 27 39 86 58 54 69
REMARK Flexibility Score: inf
ROOT
ATOM      1  C   UNL A   1      31.518  29.083  25.461  1.00  0.00     0.116 C 
ENDROOT
BRANCH   1   2
ATOM      2  N   UNL A   1      31.008  29.219  24.111  1.00  0.00    -0.352 N 
ATOM      3  C   UNL A   1      30.749  28.290  23.133  1.00  0.00     0.251 C 
ATOM      4  O   UNL A   1      30.217  28.681  22.094  1.00  0.00    -0.269 OA
ATOM      5  H   UNL A   1      30.810  30.147  23.847  1.00  0.00     0.163 HD
BRANCH   3   6
ATOM      6  C   UNL A   1      31.038  26.833  23.282  1.00  0.00     0.040 A 
ATOM      7  C   UNL A   1      32.327  24.800  22.856  1.00  0.00    -0.010 A 
ATOM      8  C   UNL A   1      31.498  24.094  23.735  1.00  0.00     0.007 A 
ATOM      9  C   UNL A   1      32.046  26.152  22.594  1.00  0.00     0.021 A 
ATOM     10  C   UNL A   1      30.431  24.737  24.363  1.00  0.00     0.001 A 
ATOM     11  C   UNL A   1      30.214  26.101  24.149  1.00  0.00     0.014 A 
BRANCH   7  12
ATOM     12  C   UNL A   1      33.541  24.139  22.233  1.00  0.00     0.265 C 
BRANCH  12  13
ATOM     13  O   UNL A   1      33.971  22.964  22.935  1.00  0.00    -0.489 OA
BRANCH  13  14
ATOM     14  C   UNL A   1      34.978  23.091  23.854  1.00  0.00     0.119 A 
ATOM     15  C   UNL A   1      37.222  23.141  25.542  1.00  0.00    -0.024 A 
ATOM     16  C   UNL A   1      37.381  23.167  24.152  1.00  0.00     0.012 A 
ATOM     17  C   UNL A   1      35.939  23.168  26.082  1.00  0.00     0.012 A 
ATOM     18  C   UNL A   1      36.265  23.142  23.314  1.00  0.00     0.047 A 
ATOM     19  C   UNL A   1      34.822  23.161  25.238  1.00  0.00     0.047 A 
BRANCH  15  20
ATOM     20  C   UNL A   1      38.418  23.072  26.381  1.00  0.00     0.027 C 
ATOM     21  N   UNL A   1      41.598  21.483  26.664  1.00  0.00    -0.281 N 
ATOM     22  C   UNL A   1      40.550  22.282  27.130  1.00  0.00     0.265 C 
ATOM     23  C   UNL A   1      41.400  20.263  26.027  1.00  0.00     0.183 C 
ATOM     24  O   UNL A   1      40.692  23.202  27.934  1.00  0.00    -0.268 OA
ATOM     25  C   UNL A   1      39.232  22.006  26.509  1.00  0.00     0.106 C 
ATOM     26  N   UNL A   1      40.101  19.909  25.773  1.00  0.00    -0.298 N 
ATOM     27  S   UNL A   1      42.578  19.178  25.526  1.00  0.00    -0.040 S 
ATOM     28  C   UNL A   1      38.974  20.669  25.940  1.00  0.00     0.263 C 
ATOM     29  H   UNL A   1      39.960  18.997  25.429  1.00  0.00     0.172 HD
ATOM     30  O   UNL A   1      37.876  20.238  25.635  1.00  0.00    -0.269 OA
BRANCH  21  31
ATOM     31  C   UNL A   1      42.934  22.044  26.875  1.00  0.00     0.155 C 
BRANCH  31  32
ATOM     32  C   UNL A   1      43.203  22.989  25.728  1.00  0.00    -0.013 C 
ATOM     33  C   UNL A   1      43.951  22.687  24.657  1.00  0.00     0.006 C 
ENDBRANCH  31  32
ENDBRANCH  21  31
ENDBRANCH  15  20
ENDBRANCH  13  14
ENDBRANCH  12  13
ENDBRANCH   7  12
ENDBRANCH   3   6
ENDBRANCH   1   2
BRANCH   1  34
ATOM     34  C   UNL A   1      32.542  30.179  25.774  1.00  0.00     0.023 C 
BRANCH  34  35
ATOM     35  C   UNL A   1      32.015  31.289  26.687  1.00  0.00     0.023 C 
BRANCH  35  36
ATOM     36  C   UNL A   1      33.091  32.199  27.274  1.00  0.00     0.116 C 
BRANCH  36  37
ATOM     37  N   UNL A   1      32.621  33.551  27.540  1.00  0.00    -0.352 N 
ATOM     38  C   UNL A   1      33.091  34.447  28.471  1.00  0.00     0.251 C 
ATOM     39  H   UNL A   1      31.873  33.865  26.981  1.00  0.00     0.163 HD
ATOM     40  O   UNL A   1      32.522  35.523  28.638  1.00  0.00    -0.269 OA
BRANCH  38  41
ATOM     41  C   UNL A   1      34.257  34.080  29.302  1.00  0.00     0.039 A 
ATOM     42  C   UNL A   1      34.046  33.349  30.474  1.00  0.00     0.014 A 
ATOM     43  C   UNL A   1      35.552  34.408  28.896  1.00  0.00     0.014 A 
ATOM     44  C   UNL A   1      35.143  32.879  31.200  1.00  0.00     0.010 A 
ATOM     45  C   UNL A   1      36.643  33.883  29.583  1.00  0.00     0.010 A 
ATOM     46  C   UNL A   1      36.449  33.108  30.736  1.00  0.00    -0.014 A 
BRANCH  46  47
ATOM     47  C   UNL A   1      37.627  32.518  31.422  1.00  0.00     0.031 A 
ATOM     48  C   UNL A   1      38.389  31.388  30.785  1.00  0.00     0.074 A 
ATOM     49  C   UNL A   1      37.942  32.927  32.666  1.00  0.00     0.049 A 
ATOM     50  N   UNL A   1      39.397  30.705  31.261  1.00  0.00    -0.248 NA
ATOM     51  C   UNL A   1      37.942  30.950  29.453  1.00  0.00     0.031 C 
ATOM     52  C   UNL A   1      37.221  33.950  33.428  1.00  0.00     0.029 A 
ATOM     53  N   UNL A   1      38.930  32.514  33.524  1.00  0.00    -0.354 N 
ATOM     54  C   UNL A   1      39.681  29.735  30.308  1.00  0.00     0.074 A 
ATOM     55  C   UNL A   1      38.719  29.898  29.239  1.00  0.00     0.031 C 
ATOM     56  C   UNL A   1      37.792  34.084  34.636  1.00  0.00     0.029 A 
ATOM     57  C   UNL A   1      38.903  33.144  34.746  1.00  0.00     0.049 A 
ATOM     58  H   UNL A   1      39.597  31.828  33.286  1.00  0.00     0.167 HD
ATOM     59  C   UNL A   1      40.673  28.813  30.306  1.00  0.00     0.034 A 
ATOM     60  C   UNL A   1      39.684  32.983  35.832  1.00  0.00     0.034 A 
ATOM     61  C   UNL A   1      41.661  28.691  31.342  1.00  0.00     0.049 A 
ATOM     62  C   UNL A   1      40.819  31.996  35.777  1.00  0.00     0.074 A 
ATOM     63  C   UNL A   1      42.765  27.858  31.385  1.00  0.00     0.029 A 
ATOM     64  N   UNL A   1      41.668  29.423  32.519  1.00  0.00    -0.354 N 
ATOM     65  N   UNL A   1      41.178  31.208  34.793  1.00  0.00    -0.248 NA
ATOM     66  C   UNL A   1      41.679  31.904  36.965  1.00  0.00     0.031 C 
ATOM     67  C   UNL A   1      43.434  28.080  32.594  1.00  0.00     0.029 A 
ATOM     68  C   UNL A   1      42.753  29.059  33.297  1.00  0.00     0.049 A 
ATOM     69  H   UNL A   1      40.997  30.101  32.765  1.00  0.00     0.167 HD
ATOM     70  C   UNL A   1      42.323  30.552  35.229  1.00  0.00     0.074 A 
ATOM     71  C   UNL A   1      42.610  31.052  36.558  1.00  0.00     0.031 C 
ATOM     72  C   UNL A   1      43.061  29.609  34.593  1.00  0.00     0.034 A 
BRANCH  59  73
ATOM     73  C   UNL A   1      40.781  27.907  29.107  1.00  0.00     0.023 A 
ATOM     74  C   UNL A   1      39.926  26.792  29.008  1.00  0.00     0.012 A 
ATOM     75  C   UNL A   1      41.681  28.184  28.060  1.00  0.00     0.148 A 
ATOM     76  C   UNL A   1      39.985  25.947  27.901  1.00  0.00     0.002 A 
ATOM     77  C   UNL A   1      41.707  27.360  26.940  1.00  0.00     0.091 A 
ATOM     78  F   UNL A   1      42.505  29.235  28.183  1.00  0.00    -0.205 F 
ATOM     79  C   UNL A   1      40.867  26.237  26.864  1.00  0.00     0.022 A 
BRANCH  77  80
ATOM     80  S   UNL A   1      42.756  27.691  25.520  1.00  0.00     0.127 S 
ATOM     81  O   UNL A   1      42.566  26.481  24.724  1.00  0.00    -0.237 OA
ATOM     82  O   UNL A   1      42.143  28.895  24.956  1.00  0.00    -0.237 OA
ATOM     83  O   UNL A   1      44.096  27.889  26.054  1.00  0.00    -0.744 OA
ENDBRANCH  77  80
ENDBRANCH  59  73
BRANCH  60  84
ATOM     84  C   UNL A   1      39.471  33.841  37.032  1.00  0.00     0.023 A 
ATOM     85  C   UNL A   1      39.872  35.191  36.990  1.00  0.00     0.012 A 
ATOM     86  C   UNL A   1      38.848  33.346  38.193  1.00  0.00     0.148 A 
ATOM     87  C   UNL A   1      39.681  36.025  38.092  1.00  0.00     0.002 A 
ATOM     88  C   UNL A   1      38.613  34.195  39.269  1.00  0.00     0.091 A 
ATOM     89  F   UNL A   1      38.488  32.054  38.220  1.00  0.00    -0.205 F 
ATOM     90  C   UNL A   1      39.043  35.530  39.227  1.00  0.00     0.022 A 
BRANCH  88  91
ATOM     91  S   UNL A   1      37.680  33.676  40.714  1.00  0.00     0.127 S 
ATOM     92  O   UNL A   1      36.500  33.069  40.106  1.00  0.00    -0.237 OA
ATOM     93  O   UNL A   1      38.602  32.733  41.349  1.00  0.00    -0.237 OA
ATOM     94  O   UNL A   1      37.449  34.892  41.482  1.00  0.00    -0.744 OA
ENDBRANCH  88  91
ENDBRANCH  60  84
BRANCH  72  95
ATOM     95  C   UNL A   1      44.270  29.067  35.308  1.00  0.00     0.023 A 
ATOM     96  C   UNL A   1      45.524  29.678  35.116  1.00  0.00     0.012 A 
ATOM     97  C   UNL A   1      44.148  28.009  36.230  1.00  0.00     0.148 A 
ATOM     98  C   UNL A   1      46.645  29.226  35.810  1.00  0.00     0.002 A 
ATOM     99  C   UNL A   1      45.261  27.593  36.952  1.00  0.00     0.091 A 
ATOM    100  F   UNL A   1      42.949  27.427  36.382  1.00  0.00    -0.205 F 
ATOM    101  C   UNL A   1      46.512  28.194  36.737  1.00  0.00     0.022 A 
BRANCH  99 102
ATOM    102  S   UNL A   1      45.158  26.334  38.230  1.00  0.00     0.127 S 
ATOM    103  O   UNL A   1      44.521  25.232  37.512  1.00  0.00    -0.237 OA
ATOM    104  O   UNL A   1      46.564  26.112  38.566  1.00  0.00    -0.237 OA
ATOM    105  O   UNL A   1      44.369  26.923  39.304  1.00  0.00    -0.744 OA
ENDBRANCH  99 102
ENDBRANCH  72  95
ENDBRANCH  46  47
ENDBRANCH  38  41
ENDBRANCH  36  37
ENDBRANCH  35  36
ENDBRANCH  34  35
ENDBRANCH   1  34
TORSDOF 20
ENDMDL
