MODEL 1
REMARK VINA RESULT:     -11.3      0.000      0.000
REMARK SMILES COc1ncccc1C[C@H](C(=O)NCCCCNC(=O)c1ccc(-c2c3nc(c(-c4cccc(S(=O)(=O)[O-])c4F)c4ccc([nH]4)c(-c4cccc(S(=O)(=O)[O-])c4F)c4nc(c(-c5cccc(S(=O)(=O)[O-])c5F)c5ccc2[nH]5)C=C4)C=C3)cc1)c1ccc(F)cc1
REMARK SMILES IDX 15 1 14 2 13 3 11 4 12 5 10 7 9 8 8 9 3 10 4 11 5 12 7 13
REMARK SMILES IDX 6 14 2 15 1 16 84 17 85 18 90 19 86 20 89 21 87 22 88 23
REMARK SMILES IDX 16 24 17 25 18 26 19 27 20 29 21 30 22 31 83 32 23 33 82 34
REMARK SMILES IDX 24 35 25 36 26 37 76 38 27 39 81 40 75 41 77 42 28 43 80 44
REMARK SMILES IDX 74 45 73 46 29 48 61 49 41 50 60 51 42 52 45 53 59 54 78 55
REMARK SMILES IDX 43 56 44 57 58 59 79 60 46 61 30 62 31 63 39 64 32 65 34 66
REMARK SMILES IDX 40 67 33 68 35 69 36 70 37 71 38 72 62 73 63 74 71 75 64 76
REMARK SMILES IDX 66 77 72 78 65 79 67 80 68 81 69 82 70 83 47 84 48 85 56 86
REMARK SMILES IDX 49 87 51 88 57 89 50 90 52 91 53 92 54 93 55 94
REMARK H PARENT 13 6 18 28 77 47 45 58
REMARK Flexibility Score: inf
ROOT
ATOM      1  C   UNL A   1      36.628  20.899  24.789  1.00  0.00     0.023 C 
ENDROOT
BRANCH   1   2
ATOM      2  C   UNL A   1      36.536  22.262  25.480  1.00  0.00     0.116 C 
BRANCH   2   3
ATOM      3  N   UNL A   1      35.721  22.214  26.679  1.00  0.00    -0.356 N 
ATOM      4  C   UNL A   1      34.435  22.608  26.900  1.00  0.00     0.227 C 
ATOM      5  O   UNL A   1      34.006  22.458  28.048  1.00  0.00    -0.274 OA
ATOM      6  H   UNL A   1      36.173  21.832  27.466  1.00  0.00     0.163 HD
BRANCH   4   7
ATOM      7  C   UNL A   1      33.536  23.134  25.765  1.00  0.00     0.113 C 
BRANCH   7   8
ATOM      8  C   UNL A   1      32.314  22.172  25.631  1.00  0.00     0.059 C 
BRANCH   8   9
ATOM      9  C   UNL A   1      32.348  21.259  24.430  1.00  0.00     0.015 A 
ATOM     10  C   UNL A   1      32.519  19.878  24.551  1.00  0.00     0.216 A 
ATOM     11  N   UNL A   1      32.416  19.009  23.520  1.00  0.00    -0.222 NA
ATOM     12  C   UNL A   1      32.165  19.539  22.306  1.00  0.00     0.115 A 
ATOM     13  C   UNL A   1      32.146  21.769  23.143  1.00  0.00     0.011 A 
ATOM     14  C   UNL A   1      32.056  20.898  22.062  1.00  0.00     0.021 A 
BRANCH  10  15
ATOM     15  O   UNL A   1      33.034  19.353  25.709  1.00  0.00    -0.481 OA
ATOM     16  C   UNL A   1      32.896  17.941  25.751  1.00  0.00     0.280 C 
ENDBRANCH  10  15
ENDBRANCH   8   9
ENDBRANCH   7   8
BRANCH   7  17
ATOM     17  C   UNL A   1      33.117  24.601  25.896  1.00  0.00    -0.035 A 
ATOM     18  C   UNL A   1      33.999  25.660  25.639  1.00  0.00     0.007 A 
ATOM     19  C   UNL A   1      31.804  24.911  26.302  1.00  0.00     0.007 A 
ATOM     20  C   UNL A   1      33.569  26.988  25.735  1.00  0.00     0.039 A 
ATOM     21  C   UNL A   1      31.386  26.236  26.433  1.00  0.00     0.039 A 
ATOM     22  C   UNL A   1      32.269  27.263  26.134  1.00  0.00     0.123 A 
ATOM     23  F   UNL A   1      31.861  28.536  26.235  1.00  0.00    -0.207 F 
ENDBRANCH   7  17
ENDBRANCH   4   7
ENDBRANCH   2   3
ENDBRANCH   1   2
BRANCH   1  24
ATOM     24  C   UNL A   1      38.032  20.310  24.689  1.00  0.00     0.023 C 
BRANCH  24  25
ATOM     25  C   UNL A   1      38.858  20.437  25.956  1.00  0.00     0.116 C 
BRANCH  25  26
ATOM     26  N   UNL A   1      39.837  19.367  26.095  1.00  0.00    -0.352 N 
ATOM     27  C   UNL A   1      41.199  19.460  26.241  1.00  0.00     0.251 C 
ATOM     28  H   UNL A   1      39.472  18.452  26.083  1.00  0.00     0.163 HD
ATOM     29  O   UNL A   1      41.897  18.451  26.190  1.00  0.00    -0.269 OA
BRANCH  27  30
ATOM     30  C   UNL A   1      41.810  20.788  26.437  1.00  0.00     0.039 A 
ATOM     31  C   UNL A   1      41.831  21.693  25.374  1.00  0.00     0.014 A 
ATOM     32  C   UNL A   1      42.311  21.150  27.690  1.00  0.00     0.014 A 
ATOM     33  C   UNL A   1      42.297  22.992  25.591  1.00  0.00     0.010 A 
ATOM     34  C   UNL A   1      42.678  22.467  27.926  1.00  0.00     0.010 A 
ATOM     35  C   UNL A   1      42.690  23.397  26.877  1.00  0.00    -0.014 A 
BRANCH  35  36
ATOM     36  C   UNL A   1      43.137  24.785  27.153  1.00  0.00     0.031 A 
ATOM     37  C   UNL A   1      42.189  25.755  27.809  1.00  0.00     0.074 A 
ATOM     38  C   UNL A   1      44.349  25.195  26.727  1.00  0.00     0.049 A 
ATOM     39  N   UNL A   1      42.353  27.028  28.054  1.00  0.00    -0.248 NA
ATOM     40  C   UNL A   1      40.870  25.234  28.211  1.00  0.00     0.031 C 
ATOM     41  C   UNL A   1      45.316  24.372  25.998  1.00  0.00     0.029 A 
ATOM     42  N   UNL A   1      44.962  26.419  26.822  1.00  0.00    -0.354 N 
ATOM     43  C   UNL A   1      41.151  27.466  28.598  1.00  0.00     0.074 A 
ATOM     44  C   UNL A   1      40.250  26.336  28.606  1.00  0.00     0.031 C 
ATOM     45  C   UNL A   1      46.403  25.110  25.720  1.00  0.00     0.029 A 
ATOM     46  C   UNL A   1      46.200  26.464  26.223  1.00  0.00     0.049 A 
ATOM     47  H   UNL A   1      44.554  27.192  27.275  1.00  0.00     0.167 HD
ATOM     48  C   UNL A   1      40.837  28.688  29.087  1.00  0.00     0.034 A 
ATOM     49  C   UNL A   1      47.069  27.487  26.095  1.00  0.00     0.034 A 
ATOM     50  C   UNL A   1      41.759  29.789  29.136  1.00  0.00     0.049 A 
ATOM     51  C   UNL A   1      46.717  28.818  26.703  1.00  0.00     0.074 A 
ATOM     52  C   UNL A   1      41.571  31.043  29.688  1.00  0.00     0.029 A 
ATOM     53  N   UNL A   1      43.045  29.764  28.620  1.00  0.00    -0.354 N 
ATOM     54  N   UNL A   1      45.633  29.167  27.353  1.00  0.00    -0.248 NA
ATOM     55  C   UNL A   1      47.723  29.885  26.597  1.00  0.00     0.031 C 
ATOM     56  C   UNL A   1      42.743  31.782  29.496  1.00  0.00     0.029 A 
ATOM     57  C   UNL A   1      43.665  30.980  28.843  1.00  0.00     0.049 A 
ATOM     58  H   UNL A   1      43.455  28.995  28.164  1.00  0.00     0.167 HD
ATOM     59  C   UNL A   1      45.842  30.478  27.767  1.00  0.00     0.074 A 
ATOM     60  C   UNL A   1      47.167  30.852  27.314  1.00  0.00     0.031 C 
ATOM     61  C   UNL A   1      45.010  31.306  28.443  1.00  0.00     0.034 A 
BRANCH  48  62
ATOM     62  C   UNL A   1      39.466  28.877  29.678  1.00  0.00     0.023 A 
ATOM     63  C   UNL A   1      39.218  28.455  31.000  1.00  0.00     0.012 A 
ATOM     64  C   UNL A   1      38.444  29.526  28.958  1.00  0.00     0.148 A 
ATOM     65  C   UNL A   1      37.970  28.647  31.588  1.00  0.00     0.002 A 
ATOM     66  C   UNL A   1      37.215  29.756  29.566  1.00  0.00     0.091 A 
ATOM     67  F   UNL A   1      38.691  29.902  27.695  1.00  0.00    -0.205 F 
ATOM     68  C   UNL A   1      36.974  29.308  30.875  1.00  0.00     0.022 A 
BRANCH  66  69
ATOM     69  S   UNL A   1      35.888  30.665  28.767  1.00  0.00     0.127 S 
ATOM     70  O   UNL A   1      35.175  31.218  29.918  1.00  0.00    -0.237 OA
ATOM     71  O   UNL A   1      36.624  31.650  27.975  1.00  0.00    -0.237 OA
ATOM     72  O   UNL A   1      35.143  29.687  27.985  1.00  0.00    -0.744 OA
ENDBRANCH  66  69
ENDBRANCH  48  62
BRANCH  49  73
ATOM     73  C   UNL A   1      48.387  27.276  25.429  1.00  0.00     0.023 A 
ATOM     74  C   UNL A   1      49.497  26.889  26.204  1.00  0.00     0.012 A 
ATOM     75  C   UNL A   1      48.548  27.452  24.042  1.00  0.00     0.148 A 
ATOM     76  C   UNL A   1      50.753  26.722  25.618  1.00  0.00     0.002 A 
ATOM     77  C   UNL A   1      49.790  27.230  23.455  1.00  0.00     0.091 A 
ATOM     78  F   UNL A   1      47.485  27.834  23.320  1.00  0.00    -0.205 F 
ATOM     79  C   UNL A   1      50.898  26.885  24.244  1.00  0.00     0.022 A 
BRANCH  77  80
ATOM     80  S   UNL A   1      50.030  27.289  21.675  1.00  0.00     0.127 S 
ATOM     81  O   UNL A   1      49.808  28.704  21.391  1.00  0.00    -0.237 OA
ATOM     82  O   UNL A   1      51.416  26.842  21.537  1.00  0.00    -0.237 OA
ATOM     83  O   UNL A   1      49.048  26.365  21.124  1.00  0.00    -0.744 OA
ENDBRANCH  77  80
ENDBRANCH  49  73
BRANCH  61  84
ATOM     84  C   UNL A   1      45.515  32.683  28.778  1.00  0.00     0.023 A 
ATOM     85  C   UNL A   1      46.288  32.882  29.938  1.00  0.00     0.012 A 
ATOM     86  C   UNL A   1      45.290  33.761  27.899  1.00  0.00     0.148 A 
ATOM     87  C   UNL A   1      46.803  34.143  30.236  1.00  0.00     0.002 A 
ATOM     88  C   UNL A   1      45.849  35.003  28.177  1.00  0.00     0.091 A 
ATOM     89  F   UNL A   1      44.537  33.553  26.809  1.00  0.00    -0.205 F 
ATOM     90  C   UNL A   1      46.595  35.199  29.352  1.00  0.00     0.022 A 
BRANCH  88  91
ATOM     91  S   UNL A   1      45.716  36.391  27.046  1.00  0.00     0.127 S 
ATOM     92  O   UNL A   1      46.426  37.439  27.775  1.00  0.00    -0.237 OA
ATOM     93  O   UNL A   1      46.413  35.893  25.860  1.00  0.00    -0.237 OA
ATOM     94  O   UNL A   1      44.289  36.617  26.856  1.00  0.00    -0.744 OA
ENDBRANCH  88  91
ENDBRANCH  61  84
ENDBRANCH  35  36
ENDBRANCH  27  30
ENDBRANCH  25  26
ENDBRANCH  24  25
ENDBRANCH   1  24
TORSDOF 18
ENDMDL
MODEL 2
REMARK VINA RESULT:     -11.2      2.159      3.427
REMARK SMILES COc1ncccc1C[C@H](C(=O)NCCCCNC(=O)c1ccc(-c2c3nc(c(-c4cccc(S(=O)(=O)[O-])c4F)c4ccc([nH]4)c(-c4cccc(S(=O)(=O)[O-])c4F)c4nc(c(-c5cccc(S(=O)(=O)[O-])c5F)c5ccc2[nH]5)C=C4)C=C3)cc1)c1ccc(F)cc1
REMARK SMILES IDX 15 1 14 2 13 3 11 4 12 5 10 7 9 8 8 9 3 10 4 11 5 12 7 13
REMARK SMILES IDX 6 14 2 15 1 16 84 17 85 18 90 19 86 20 89 21 87 22 88 23
REMARK SMILES IDX 16 24 17 25 18 26 19 27 20 29 21 30 22 31 83 32 23 33 82 34
REMARK SMILES IDX 24 35 25 36 26 37 76 38 27 39 81 40 75 41 77 42 28 43 80 44
REMARK SMILES IDX 74 45 73 46 29 48 61 49 41 50 60 51 42 52 45 53 59 54 78 55
REMARK SMILES IDX 43 56 44 57 58 59 79 60 46 61 30 62 31 63 39 64 32 65 34 66
REMARK SMILES IDX 40 67 33 68 35 69 36 70 37 71 38 72 62 73 63 74 71 75 64 76
REMARK SMILES IDX 66 77 72 78 65 79 67 80 68 81 69 82 70 83 47 84 48 85 56 86
REMARK SMILES IDX 49 87 51 88 57 89 50 90 52 91 53 92 54 93 55 94
REMARK H PARENT 13 6 18 28 77 47 45 58
REMARK Flexibility Score: inf
ROOT
ATOM      1  C   UNL A   1      36.809  20.199  24.995  1.00  0.00     0.023 C 
ENDROOT
BRANCH   1   2
ATOM      2  C   UNL A   1      36.622  21.635  25.489  1.00  0.00     0.116 C 
BRANCH   2   3
ATOM      3  N   UNL A   1      35.678  21.717  26.589  1.00  0.00    -0.356 N 
ATOM      4  C   UNL A   1      34.382  22.137  26.623  1.00  0.00     0.227 C 
ATOM      5  O   UNL A   1      33.827  22.110  27.725  1.00  0.00    -0.274 OA
ATOM      6  H   UNL A   1      36.035  21.419  27.457  1.00  0.00     0.163 HD
BRANCH   4   7
ATOM      7  C   UNL A   1      33.622  22.543  25.345  1.00  0.00     0.113 C 
BRANCH   7   8
ATOM      8  C   UNL A   1      34.518  23.540  24.546  1.00  0.00     0.059 C 
BRANCH   8   9
ATOM      9  C   UNL A   1      34.064  24.979  24.586  1.00  0.00     0.015 A 
ATOM     10  C   UNL A   1      33.425  25.587  23.503  1.00  0.00     0.216 A 
ATOM     11  N   UNL A   1      32.878  26.822  23.543  1.00  0.00    -0.222 NA
ATOM     12  C   UNL A   1      32.999  27.500  24.703  1.00  0.00     0.115 A 
ATOM     13  C   UNL A   1      34.216  25.741  25.750  1.00  0.00     0.011 A 
ATOM     14  C   UNL A   1      33.679  27.022  25.811  1.00  0.00     0.021 A 
BRANCH  10  15
ATOM     15  O   UNL A   1      33.526  25.033  22.253  1.00  0.00    -0.481 OA
ATOM     16  C   UNL A   1      32.829  25.798  21.282  1.00  0.00     0.280 C 
ENDBRANCH  10  15
ENDBRANCH   8   9
ENDBRANCH   7   8
BRANCH   7  17
ATOM     17  C   UNL A   1      33.132  21.375  24.485  1.00  0.00    -0.035 A 
ATOM     18  C   UNL A   1      32.532  21.564  23.233  1.00  0.00     0.007 A 
ATOM     19  C   UNL A   1      33.272  20.057  24.964  1.00  0.00     0.007 A 
ATOM     20  C   UNL A   1      32.130  20.469  22.459  1.00  0.00     0.039 A 
ATOM     21  C   UNL A   1      32.837  18.967  24.208  1.00  0.00     0.039 A 
ATOM     22  C   UNL A   1      32.283  19.183  22.955  1.00  0.00     0.123 A 
ATOM     23  F   UNL A   1      31.889  18.136  22.218  1.00  0.00    -0.207 F 
ENDBRANCH   7  17
ENDBRANCH   4   7
ENDBRANCH   2   3
ENDBRANCH   1   2
BRANCH   1  24
ATOM     24  C   UNL A   1      38.255  19.770  24.765  1.00  0.00     0.023 C 
BRANCH  24  25
ATOM     25  C   UNL A   1      39.185  20.043  25.934  1.00  0.00     0.116 C 
BRANCH  25  26
ATOM     26  N   UNL A   1      40.339  19.154  25.950  1.00  0.00    -0.352 N 
ATOM     27  C   UNL A   1      41.667  19.469  26.099  1.00  0.00     0.251 C 
ATOM     28  H   UNL A   1      40.140  18.196  25.838  1.00  0.00     0.163 HD
ATOM     29  O   UNL A   1      42.530  18.611  25.934  1.00  0.00    -0.269 OA
BRANCH  27  30
ATOM     30  C   UNL A   1      42.040  20.856  26.437  1.00  0.00     0.039 A 
ATOM     31  C   UNL A   1      42.311  21.185  27.767  1.00  0.00     0.014 A 
ATOM     32  C   UNL A   1      42.174  21.811  25.426  1.00  0.00     0.014 A 
ATOM     33  C   UNL A   1      42.782  22.464  28.072  1.00  0.00     0.010 A 
ATOM     34  C   UNL A   1      42.736  23.045  25.719  1.00  0.00     0.010 A 
ATOM     35  C   UNL A   1      43.032  23.390  27.046  1.00  0.00    -0.014 A 
BRANCH  35  36
ATOM     36  C   UNL A   1      43.586  24.737  27.331  1.00  0.00     0.031 A 
ATOM     37  C   UNL A   1      42.677  25.821  27.848  1.00  0.00     0.074 A 
ATOM     38  C   UNL A   1      44.873  25.008  27.034  1.00  0.00     0.049 A 
ATOM     39  N   UNL A   1      42.943  27.080  28.073  1.00  0.00    -0.248 NA
ATOM     40  C   UNL A   1      41.275  25.449  28.113  1.00  0.00     0.031 C 
ATOM     41  C   UNL A   1      45.825  24.064  26.443  1.00  0.00     0.029 A 
ATOM     42  N   UNL A   1      45.595  26.167  27.162  1.00  0.00    -0.354 N 
ATOM     43  C   UNL A   1      41.740  27.656  28.465  1.00  0.00     0.074 A 
ATOM     44  C   UNL A   1      40.733  26.622  28.403  1.00  0.00     0.031 C 
ATOM     45  C   UNL A   1      47.006  24.680  26.268  1.00  0.00     0.029 A 
ATOM     46  C   UNL A   1      46.889  26.066  26.706  1.00  0.00     0.049 A 
ATOM     47  H   UNL A   1      45.222  26.994  27.544  1.00  0.00     0.167 HD
ATOM     48  C   UNL A   1      41.502  28.922  28.880  1.00  0.00     0.034 A 
ATOM     49  C   UNL A   1      47.867  26.991  26.648  1.00  0.00     0.034 A 
ATOM     50  C   UNL A   1      42.521  29.927  29.001  1.00  0.00     0.049 A 
ATOM     51  C   UNL A   1      47.590  28.375  27.174  1.00  0.00     0.074 A 
ATOM     52  C   UNL A   1      42.404  31.215  29.492  1.00  0.00     0.029 A 
ATOM     53  N   UNL A   1      43.846  29.755  28.635  1.00  0.00    -0.354 N 
ATOM     54  N   UNL A   1      46.483  28.855  27.687  1.00  0.00    -0.248 NA
ATOM     55  C   UNL A   1      48.705  29.331  27.151  1.00  0.00     0.031 C 
ATOM     56  C   UNL A   1      43.659  31.826  29.412  1.00  0.00     0.029 A 
ATOM     57  C   UNL A   1      44.560  30.911  28.892  1.00  0.00     0.049 A 
ATOM     58  H   UNL A   1      44.223  28.932  28.250  1.00  0.00     0.167 HD
ATOM     59  C   UNL A   1      46.779  30.154  28.083  1.00  0.00     0.074 A 
ATOM     60  C   UNL A   1      48.176  30.377  27.772  1.00  0.00     0.031 C 
ATOM     61  C   UNL A   1      45.967  31.087  28.637  1.00  0.00     0.034 A 
BRANCH  48  62
ATOM     62  C   UNL A   1      40.100  29.270  29.306  1.00  0.00     0.023 A 
ATOM     63  C   UNL A   1      39.145  29.612  28.328  1.00  0.00     0.012 A 
ATOM     64  C   UNL A   1      39.710  29.196  30.657  1.00  0.00     0.148 A 
ATOM     65  C   UNL A   1      37.831  29.904  28.687  1.00  0.00     0.002 A 
ATOM     66  C   UNL A   1      38.386  29.445  31.004  1.00  0.00     0.091 A 
ATOM     67  F   UNL A   1      40.637  28.890  31.575  1.00  0.00    -0.205 F 
ATOM     68  C   UNL A   1      37.450  29.809  30.022  1.00  0.00     0.022 A 
BRANCH  66  69
ATOM     69  S   UNL A   1      37.771  29.276  32.682  1.00  0.00     0.127 S 
ATOM     70  O   UNL A   1      38.738  30.077  33.433  1.00  0.00    -0.237 OA
ATOM     71  O   UNL A   1      36.437  29.868  32.581  1.00  0.00    -0.237 OA
ATOM     72  O   UNL A   1      37.786  27.849  32.976  1.00  0.00    -0.744 OA
ENDBRANCH  66  69
ENDBRANCH  48  62
BRANCH  49  73
ATOM     73  C   UNL A   1      49.222  26.625  26.141  1.00  0.00     0.023 A 
ATOM     74  C   UNL A   1      50.036  25.769  26.907  1.00  0.00     0.012 A 
ATOM     75  C   UNL A   1      49.706  27.112  24.912  1.00  0.00     0.148 A 
ATOM     76  C   UNL A   1      51.323  25.438  26.481  1.00  0.00     0.002 A 
ATOM     77  C   UNL A   1      50.968  26.733  24.466  1.00  0.00     0.091 A 
ATOM     78  F   UNL A   1      48.923  27.936  24.201  1.00  0.00    -0.205 F 
ATOM     79  C   UNL A   1      51.786  25.914  25.258  1.00  0.00     0.022 A 
BRANCH  77  80
ATOM     80  S   UNL A   1      51.585  27.195  22.843  1.00  0.00     0.127 S 
ATOM     81  O   UNL A   1      51.695  28.645  22.966  1.00  0.00    -0.237 OA
ATOM     82  O   UNL A   1      52.862  26.482  22.786  1.00  0.00    -0.237 OA
ATOM     83  O   UNL A   1      50.587  26.707  21.899  1.00  0.00    -0.744 OA
ENDBRANCH  77  80
ENDBRANCH  49  73
BRANCH  61  84
ATOM     84  C   UNL A   1      46.571  32.420  28.987  1.00  0.00     0.023 A 
ATOM     85  C   UNL A   1      47.114  32.627  30.270  1.00  0.00     0.012 A 
ATOM     86  C   UNL A   1      46.672  33.436  28.017  1.00  0.00     0.148 A 
ATOM     87  C   UNL A   1      47.720  33.839  30.593  1.00  0.00     0.002 A 
ATOM     88  C   UNL A   1      47.322  34.624  28.332  1.00  0.00     0.091 A 
ATOM     89  F   UNL A   1      46.133  33.225  26.808  1.00  0.00    -0.205 F 
ATOM     90  C   UNL A   1      47.835  34.832  29.622  1.00  0.00     0.022 A 
BRANCH  88  91
ATOM     91  S   UNL A   1      47.603  35.915  27.116  1.00  0.00     0.127 S 
ATOM     92  O   UNL A   1      46.239  36.354  26.827  1.00  0.00    -0.237 OA
ATOM     93  O   UNL A   1      48.408  36.879  27.868  1.00  0.00    -0.237 OA
ATOM     94  O   UNL A   1      48.304  35.278  26.009  1.00  0.00    -0.744 OA
ENDBRANCH  88  91
ENDBRANCH  61  84
ENDBRANCH  35  36
ENDBRANCH  27  30
ENDBRANCH  25  26
ENDBRANCH  24  25
ENDBRANCH   1  24
TORSDOF 18
ENDMDL
MODEL 3
REMARK VINA RESULT:     -11.2      6.561     11.535
REMARK SMILES COc1ncccc1C[C@H](C(=O)NCCCCNC(=O)c1ccc(-c2c3nc(c(-c4cccc(S(=O)(=O)[O-])c4F)c4ccc([nH]4)c(-c4cccc(S(=O)(=O)[O-])c4F)c4nc(c(-c5cccc(S(=O)(=O)[O-])c5F)c5ccc2[nH]5)C=C4)C=C3)cc1)c1ccc(F)cc1
REMARK SMILES IDX 15 1 14 2 13 3 11 4 12 5 10 7 9 8 8 9 3 10 4 11 5 12 7 13
REMARK SMILES IDX 6 14 2 15 1 16 84 17 85 18 90 19 86 20 89 21 87 22 88 23
REMARK SMILES IDX 16 24 17 25 18 26 19 27 20 29 21 30 22 31 83 32 23 33 82 34
REMARK SMILES IDX 24 35 25 36 26 37 76 38 27 39 81 40 75 41 77 42 28 43 80 44
REMARK SMILES IDX 74 45 73 46 29 48 61 49 41 50 60 51 42 52 45 53 59 54 78 55
REMARK SMILES IDX 43 56 44 57 58 59 79 60 46 61 30 62 31 63 39 64 32 65 34 66
REMARK SMILES IDX 40 67 33 68 35 69 36 70 37 71 38 72 62 73 63 74 71 75 64 76
REMARK SMILES IDX 66 77 72 78 65 79 67 80 68 81 69 82 70 83 47 84 48 85 56 86
REMARK SMILES IDX 49 87 51 88 57 89 50 90 52 91 53 92 54 93 55 94
REMARK H PARENT 13 6 18 28 77 47 45 58
REMARK Flexibility Score: inf
ROOT
ATOM      1  C   UNL A   1      31.410  30.830  25.620  1.00  0.00     0.023 C 
ENDROOT
BRANCH   1   2
ATOM      2  C   UNL A   1      32.499  29.777  25.843  1.00  0.00     0.116 C 
BRANCH   2   3
ATOM      3  N   UNL A   1      33.394  29.667  24.706  1.00  0.00    -0.356 N 
ATOM      4  C   UNL A   1      33.380  28.821  23.637  1.00  0.00     0.227 C 
ATOM      5  O   UNL A   1      34.298  28.954  22.823  1.00  0.00    -0.274 OA
ATOM      6  H   UNL A   1      34.138  30.313  24.708  1.00  0.00     0.163 HD
BRANCH   4   7
ATOM      7  C   UNL A   1      32.238  27.813  23.410  1.00  0.00     0.113 C 
BRANCH   7   8
ATOM      8  C   UNL A   1      32.126  26.914  24.682  1.00  0.00     0.059 C 
BRANCH   8   9
ATOM      9  C   UNL A   1      33.006  25.688  24.676  1.00  0.00     0.015 A 
ATOM     10  C   UNL A   1      32.799  24.628  23.790  1.00  0.00     0.216 A 
ATOM     11  N   UNL A   1      33.640  23.580  23.654  1.00  0.00    -0.222 NA
ATOM     12  C   UNL A   1      34.723  23.564  24.458  1.00  0.00     0.115 A 
ATOM     13  C   UNL A   1      34.111  25.601  25.530  1.00  0.00     0.011 A 
ATOM     14  C   UNL A   1      34.982  24.523  25.424  1.00  0.00     0.021 A 
BRANCH  10  15
ATOM     15  O   UNL A   1      31.586  24.490  23.164  1.00  0.00    -0.481 OA
ATOM     16  C   UNL A   1      31.008  23.219  23.417  1.00  0.00     0.280 C 
ENDBRANCH  10  15
ENDBRANCH   8   9
ENDBRANCH   7   8
BRANCH   7  17
ATOM     17  C   UNL A   1      30.897  28.433  23.010  1.00  0.00    -0.035 A 
ATOM     18  C   UNL A   1      30.809  29.583  22.214  1.00  0.00     0.007 A 
ATOM     19  C   UNL A   1      29.699  27.843  23.461  1.00  0.00     0.007 A 
ATOM     20  C   UNL A   1      29.564  30.100  21.838  1.00  0.00     0.039 A 
ATOM     21  C   UNL A   1      28.458  28.380  23.116  1.00  0.00     0.039 A 
ATOM     22  C   UNL A   1      28.402  29.496  22.295  1.00  0.00     0.123 A 
ATOM     23  F   UNL A   1      27.210  29.997  21.943  1.00  0.00    -0.207 F 
ENDBRANCH   7  17
ENDBRANCH   4   7
ENDBRANCH   2   3
ENDBRANCH   1   2
BRANCH   1  24
ATOM     24  C   UNL A   1      31.298  31.894  26.708  1.00  0.00     0.023 C 
BRANCH  24  25
ATOM     25  C   UNL A   1      32.621  32.510  27.124  1.00  0.00     0.116 C 
BRANCH  25  26
ATOM     26  N   UNL A   1      32.475  33.877  27.606  1.00  0.00    -0.352 N 
ATOM     27  C   UNL A   1      33.187  34.526  28.584  1.00  0.00     0.251 C 
ATOM     28  H   UNL A   1      31.769  34.409  27.171  1.00  0.00     0.163 HD
ATOM     29  O   UNL A   1      32.832  35.634  28.977  1.00  0.00    -0.269 OA
BRANCH  27  30
ATOM     30  C   UNL A   1      34.368  33.863  29.170  1.00  0.00     0.039 A 
ATOM     31  C   UNL A   1      35.643  34.343  28.863  1.00  0.00     0.014 A 
ATOM     32  C   UNL A   1      34.203  32.803  30.064  1.00  0.00     0.014 A 
ATOM     33  C   UNL A   1      36.753  33.796  29.510  1.00  0.00     0.010 A 
ATOM     34  C   UNL A   1      35.296  32.332  30.778  1.00  0.00     0.010 A 
ATOM     35  C   UNL A   1      36.584  32.813  30.498  1.00  0.00    -0.014 A 
BRANCH  35  36
ATOM     36  C   UNL A   1      37.737  32.252  31.244  1.00  0.00     0.031 A 
ATOM     37  C   UNL A   1      38.523  31.111  30.652  1.00  0.00     0.074 A 
ATOM     38  C   UNL A   1      38.014  32.701  32.485  1.00  0.00     0.049 A 
ATOM     39  N   UNL A   1      39.502  30.424  31.179  1.00  0.00    -0.248 NA
ATOM     40  C   UNL A   1      38.132  30.657  29.305  1.00  0.00     0.031 C 
ATOM     41  C   UNL A   1      37.265  33.738  33.200  1.00  0.00     0.029 A 
ATOM     42  N   UNL A   1      38.983  32.320  33.378  1.00  0.00    -0.354 N 
ATOM     43  C   UNL A   1      39.815  29.439  30.251  1.00  0.00     0.074 A 
ATOM     44  C   UNL A   1      38.893  29.585  29.147  1.00  0.00     0.031 C 
ATOM     45  C   UNL A   1      37.808  33.916  34.415  1.00  0.00     0.029 A 
ATOM     46  C   UNL A   1      38.922  32.989  34.579  1.00  0.00     0.049 A 
ATOM     47  H   UNL A   1      39.658  31.632  33.179  1.00  0.00     0.167 HD
ATOM     48  C   UNL A   1      40.808  28.521  30.292  1.00  0.00     0.034 A 
ATOM     49  C   UNL A   1      39.680  32.863  35.686  1.00  0.00     0.034 A 
ATOM     50  C   UNL A   1      41.762  28.424  31.362  1.00  0.00     0.049 A 
ATOM     51  C   UNL A   1      40.816  31.875  35.679  1.00  0.00     0.074 A 
ATOM     52  C   UNL A   1      42.858  27.587  31.462  1.00  0.00     0.029 A 
ATOM     53  N   UNL A   1      41.737  29.195  32.513  1.00  0.00    -0.354 N 
ATOM     54  N   UNL A   1      41.193  31.058  34.725  1.00  0.00    -0.248 NA
ATOM     55  C   UNL A   1      41.657  31.819  36.883  1.00  0.00     0.031 C 
ATOM     56  C   UNL A   1      43.491  27.845  32.683  1.00  0.00     0.029 A 
ATOM     57  C   UNL A   1      42.800  28.857  33.330  1.00  0.00     0.049 A 
ATOM     58  H   UNL A   1      41.062  29.881  32.718  1.00  0.00     0.167 HD
ATOM     59  C   UNL A   1      42.334  30.421  35.197  1.00  0.00     0.074 A 
ATOM     60  C   UNL A   1      42.602  30.965  36.512  1.00  0.00     0.031 C 
ATOM     61  C   UNL A   1      43.085  29.460  34.606  1.00  0.00     0.034 A 
BRANCH  48  62
ATOM     62  C   UNL A   1      40.962  27.598  29.112  1.00  0.00     0.023 A 
ATOM     63  C   UNL A   1      40.228  26.395  29.075  1.00  0.00     0.012 A 
ATOM     64  C   UNL A   1      41.774  27.946  28.015  1.00  0.00     0.148 A 
ATOM     65  C   UNL A   1      40.321  25.537  27.981  1.00  0.00     0.002 A 
ATOM     66  C   UNL A   1      41.827  27.107  26.907  1.00  0.00     0.091 A 
ATOM     67  F   UNL A   1      42.480  29.084  28.077  1.00  0.00    -0.205 F 
ATOM     68  C   UNL A   1      41.110  25.899  26.894  1.00  0.00     0.022 A 
BRANCH  66  69
ATOM     69  S   UNL A   1      42.751  27.514  25.422  1.00  0.00     0.127 S 
ATOM     70  O   UNL A   1      42.099  28.754  24.999  1.00  0.00    -0.237 OA
ATOM     71  O   UNL A   1      44.107  27.686  25.942  1.00  0.00    -0.237 OA
ATOM     72  O   UNL A   1      42.582  26.384  24.519  1.00  0.00    -0.744 OA
ENDBRANCH  66  69
ENDBRANCH  48  62
BRANCH  49  73
ATOM     73  C   UNL A   1      39.442  33.743  36.867  1.00  0.00     0.023 A 
ATOM     74  C   UNL A   1      39.824  35.098  36.805  1.00  0.00     0.012 A 
ATOM     75  C   UNL A   1      38.841  33.254  38.042  1.00  0.00     0.148 A 
ATOM     76  C   UNL A   1      39.651  35.938  37.906  1.00  0.00     0.002 A 
ATOM     77  C   UNL A   1      38.620  34.111  39.115  1.00  0.00     0.091 A 
ATOM     78  F   UNL A   1      38.495  31.960  38.089  1.00  0.00    -0.205 F 
ATOM     79  C   UNL A   1      39.042  35.448  39.057  1.00  0.00     0.022 A 
BRANCH  77  80
ATOM     80  S   UNL A   1      37.724  33.591  40.583  1.00  0.00     0.127 S 
ATOM     81  O   UNL A   1      36.500  33.043  40.008  1.00  0.00    -0.237 OA
ATOM     82  O   UNL A   1      38.632  32.600  41.162  1.00  0.00    -0.237 OA
ATOM     83  O   UNL A   1      37.569  34.797  41.387  1.00  0.00    -0.744 OA
ENDBRANCH  77  80
ENDBRANCH  49  73
BRANCH  61  84
ATOM     84  C   UNL A   1      44.294  28.962  35.351  1.00  0.00     0.023 A 
ATOM     85  C   UNL A   1      45.536  29.604  35.179  1.00  0.00     0.012 A 
ATOM     86  C   UNL A   1      44.178  27.910  36.281  1.00  0.00     0.148 A 
ATOM     87  C   UNL A   1      46.653  29.184  35.898  1.00  0.00     0.002 A 
ATOM     88  C   UNL A   1      45.285  27.531  37.031  1.00  0.00     0.091 A 
ATOM     89  F   UNL A   1      42.991  27.302  36.416  1.00  0.00    -0.205 F 
ATOM     90  C   UNL A   1      46.526  28.158  36.832  1.00  0.00     0.022 A 
BRANCH  88  91
ATOM     91  S   UNL A   1      45.189  26.288  38.323  1.00  0.00     0.127 S 
ATOM     92  O   UNL A   1      44.226  26.889  39.244  1.00  0.00    -0.237 OA
ATOM     93  O   UNL A   1      44.691  25.121  37.595  1.00  0.00    -0.237 OA
ATOM     94  O   UNL A   1      46.543  26.143  38.841  1.00  0.00    -0.744 OA
ENDBRANCH  88  91
ENDBRANCH  61  84
ENDBRANCH  35  36
ENDBRANCH  27  30
ENDBRANCH  25  26
ENDBRANCH  24  25
ENDBRANCH   1  24
TORSDOF 18
ENDMDL
