MODEL 1
REMARK VINA RESULT:     -11.9      0.000      0.000
REMARK SMILES C[N@@H+]1CC[N@H+](Cc2ccc(C#CC(C)(C)O)s2)C[C@H]1C(=O)NCCCCNC(=O)c1ccc(-c2c3nc(c(-c4cccc(S(=O)(=O)[O-])c4F)c4ccc([nH]4)c(-c4cccc(S(=O)(=O)[O-])c4F)c4nc(c(-c5cccc(S(=O)(=O)[O-])c5F)c5ccc2[nH]5)C=C4)C=C3)cc1
REMARK SMILES IDX 23 1 22 2 20 3 21 4 19 6 1 7 2 8 3 9 4 11 18 12 5 13 6 15
REMARK SMILES IDX 7 16 8 17 17 18 9 19 10 20 11 21 12 22 13 23 14 24 15 25
REMARK SMILES IDX 16 26 24 28 25 29 26 30 27 31 28 32 29 34 30 35 31 36 92 37
REMARK SMILES IDX 32 38 91 39 33 40 34 41 35 42 85 43 36 44 90 45 84 46 86 47
REMARK SMILES IDX 37 48 89 49 83 50 82 51 38 53 70 54 50 55 69 56 51 57 54 58
REMARK SMILES IDX 68 59 87 60 52 61 53 62 67 64 88 65 55 66 39 67 40 68 48 69
REMARK SMILES IDX 41 70 43 71 49 72 42 73 44 74 45 75 46 76 47 77 71 78 72 79
REMARK SMILES IDX 80 80 73 81 75 82 81 83 74 84 76 85 77 86 78 87 79 88 56 89
REMARK SMILES IDX 57 90 65 91 58 92 60 93 66 94 59 95 61 96 62 97 63 98 64 99
REMARK H PARENT 22 5 2 10 5 14 16 27 27 33 86 52 54 63
REMARK Flexibility Score: inf
ROOT
ATOM      1  C   UNL A   1      36.238  21.530  24.690  1.00  0.00     0.116 C 
ENDROOT
BRANCH   1   2
ATOM      2  N   UNL A   1      35.500  21.040  25.838  1.00  0.00    -0.351 N 
ATOM      3  C   UNL A   1      34.384  21.569  26.423  1.00  0.00     0.284 C 
ATOM      4  O   UNL A   1      34.007  21.094  27.497  1.00  0.00    -0.268 OA
ATOM      5  H   UNL A   1      35.851  20.217  26.251  1.00  0.00     0.163 HD
BRANCH   3   6
ATOM      6  C   UNL A   1      33.635  22.749  25.774  1.00  0.00     0.329 C 
ATOM      7  C   UNL A   1      31.690  21.447  25.124  1.00  0.00     0.333 C 
ATOM      8  N   UNL A   1      32.159  22.577  25.935  1.00  0.00    -0.318 N 
ATOM      9  C   UNL A   1      31.431  23.799  25.584  1.00  0.00     0.325 C 
ATOM     10  H   UNL A   1      31.972  22.381  26.918  1.00  0.00     0.348 HD
ATOM     11  C   UNL A   1      32.031  25.110  26.147  1.00  0.00     0.324 C 
ATOM     12  C   UNL A   1      34.233  24.092  26.295  1.00  0.00     0.339 C 
ATOM     13  N   UNL A   1      33.469  25.317  25.981  1.00  0.00    -0.320 N 
ATOM     14  H   UNL A   1      33.716  26.010  26.689  1.00  0.00     0.348 HD
BRANCH  13  15
ATOM     15  C   UNL A   1      33.897  26.020  24.764  1.00  0.00     0.310 C 
BRANCH  15  16
ATOM     16  C   UNL A   1      33.267  27.361  24.565  1.00  0.00     0.060 A 
ATOM     17  C   UNL A   1      33.600  28.579  25.126  1.00  0.00     0.022 A 
ATOM     18  S   UNL A   1      31.922  27.525  23.514  1.00  0.00    -0.126 S 
ATOM     19  C   UNL A   1      32.543  29.523  24.983  1.00  0.00     0.029 A 
ATOM     20  C   UNL A   1      31.519  29.025  24.211  1.00  0.00     0.077 A 
BRANCH  20  21
ATOM     21  C   UNL A   1      30.315  29.703  23.905  1.00  0.00    -0.053 C 
ATOM     22  C   UNL A   1      29.392  30.463  23.383  1.00  0.00    -0.063 C 
BRANCH  22  23
ATOM     23  C   UNL A   1      28.316  31.349  22.777  1.00  0.00     0.120 C 
ATOM     24  C   UNL A   1      28.804  32.795  22.730  1.00  0.00     0.056 C 
ATOM     25  C   UNL A   1      27.961  30.840  21.381  1.00  0.00     0.056 C 
BRANCH  23  26
ATOM     26  O   UNL A   1      27.146  31.247  23.582  1.00  0.00    -0.378 OA
ATOM     27  H   UNL A   1      26.361  31.248  23.013  1.00  0.00     0.212 HD
ENDBRANCH  23  26
ENDBRANCH  22  23
ENDBRANCH  20  21
ENDBRANCH  15  16
ENDBRANCH  13  15
ENDBRANCH   3   6
ENDBRANCH   1   2
BRANCH   1  28
ATOM     28  C   UNL A   1      37.751  21.362  24.849  1.00  0.00     0.023 C 
BRANCH  28  29
ATOM     29  C   UNL A   1      38.285  19.941  24.635  1.00  0.00     0.023 C 
BRANCH  29  30
ATOM     30  C   UNL A   1      38.859  19.299  25.889  1.00  0.00     0.116 C 
BRANCH  30  31
ATOM     31  N   UNL A   1      40.213  18.782  25.684  1.00  0.00    -0.352 N 
ATOM     32  C   UNL A   1      41.392  19.490  25.703  1.00  0.00     0.251 C 
ATOM     33  H   UNL A   1      40.289  17.815  25.513  1.00  0.00     0.163 HD
ATOM     34  O   UNL A   1      42.412  19.038  25.173  1.00  0.00    -0.269 OA
BRANCH  32  35
ATOM     35  C   UNL A   1      41.420  20.796  26.374  1.00  0.00     0.039 A 
ATOM     36  C   UNL A   1      40.845  20.980  27.635  1.00  0.00     0.014 A 
ATOM     37  C   UNL A   1      42.083  21.837  25.729  1.00  0.00     0.014 A 
ATOM     38  C   UNL A   1      41.014  22.202  28.279  1.00  0.00     0.010 A 
ATOM     39  C   UNL A   1      42.366  22.988  26.417  1.00  0.00     0.010 A 
ATOM     40  C   UNL A   1      41.791  23.196  27.669  1.00  0.00    -0.014 A 
BRANCH  40  41
ATOM     41  C   UNL A   1      42.141  24.420  28.383  1.00  0.00     0.031 A 
ATOM     42  C   UNL A   1      41.127  25.509  28.272  1.00  0.00     0.074 A 
ATOM     43  C   UNL A   1      43.148  24.444  29.286  1.00  0.00     0.049 A 
ATOM     44  N   UNL A   1      41.269  26.683  27.747  1.00  0.00    -0.248 NA
ATOM     45  C   UNL A   1      39.739  25.197  28.652  1.00  0.00     0.031 C 
ATOM     46  C   UNL A   1      43.981  23.311  29.716  1.00  0.00     0.029 A 
ATOM     47  N   UNL A   1      43.518  25.429  30.149  1.00  0.00    -0.354 N 
ATOM     48  C   UNL A   1      40.056  27.342  27.967  1.00  0.00     0.074 A 
ATOM     49  C   UNL A   1      39.106  26.315  28.291  1.00  0.00     0.031 C 
ATOM     50  C   UNL A   1      44.530  23.589  30.917  1.00  0.00     0.029 A 
ATOM     51  C   UNL A   1      44.229  24.966  31.256  1.00  0.00     0.049 A 
ATOM     52  H   UNL A   1      43.302  26.379  30.005  1.00  0.00     0.167 HD
ATOM     53  C   UNL A   1      40.013  28.694  28.152  1.00  0.00     0.034 A 
ATOM     54  C   UNL A   1      44.492  25.645  32.399  1.00  0.00     0.034 A 
ATOM     55  C   UNL A   1      41.249  29.305  27.721  1.00  0.00     0.049 A 
ATOM     56  C   UNL A   1      44.300  27.082  32.107  1.00  0.00     0.074 A 
ATOM     57  C   UNL A   1      41.969  29.357  26.545  1.00  0.00     0.029 A 
ATOM     58  N   UNL A   1      42.120  29.685  28.713  1.00  0.00    -0.354 N 
ATOM     59  N   UNL A   1      45.054  27.757  31.286  1.00  0.00    -0.248 NA
ATOM     60  C   UNL A   1      42.999  27.663  32.392  1.00  0.00     0.031 C 
ATOM     61  C   UNL A   1      43.337  29.305  26.950  1.00  0.00     0.029 A 
ATOM     62  C   UNL A   1      43.376  29.298  28.346  1.00  0.00     0.049 A 
ATOM     63  H   UNL A   1      41.880  30.155  29.544  1.00  0.00     0.167 HD
ATOM     64  C   UNL A   1      44.162  28.564  30.595  1.00  0.00     0.074 A 
ATOM     65  C   UNL A   1      42.941  28.557  31.399  1.00  0.00     0.031 C 
ATOM     66  C   UNL A   1      44.396  28.910  29.294  1.00  0.00     0.034 A 
BRANCH  53  67
ATOM     67  C   UNL A   1      39.086  29.429  29.118  1.00  0.00     0.023 A 
ATOM     68  C   UNL A   1      38.631  30.706  28.701  1.00  0.00     0.012 A 
ATOM     69  C   UNL A   1      38.897  29.114  30.483  1.00  0.00     0.148 A 
ATOM     70  C   UNL A   1      38.159  31.661  29.609  1.00  0.00     0.002 A 
ATOM     71  C   UNL A   1      38.372  30.046  31.374  1.00  0.00     0.091 A 
ATOM     72  F   UNL A   1      39.308  27.947  30.974  1.00  0.00    -0.205 F 
ATOM     73  C   UNL A   1      38.043  31.334  30.952  1.00  0.00     0.022 A 
BRANCH  71  74
ATOM     74  S   UNL A   1      38.159  29.668  33.121  1.00  0.00     0.127 S 
ATOM     75  O   UNL A   1      37.240  28.535  33.060  1.00  0.00    -0.237 OA
ATOM     76  O   UNL A   1      39.527  29.338  33.522  1.00  0.00    -0.237 OA
ATOM     77  O   UNL A   1      37.634  30.884  33.730  1.00  0.00    -0.744 OA
ENDBRANCH  71  74
ENDBRANCH  53  67
BRANCH  54  78
ATOM     78  C   UNL A   1      44.651  25.147  33.785  1.00  0.00     0.023 A 
ATOM     79  C   UNL A   1      43.509  24.917  34.579  1.00  0.00     0.012 A 
ATOM     80  C   UNL A   1      45.888  24.634  34.235  1.00  0.00     0.148 A 
ATOM     81  C   UNL A   1      43.590  24.171  35.762  1.00  0.00     0.002 A 
ATOM     82  C   UNL A   1      45.965  23.902  35.417  1.00  0.00     0.091 A 
ATOM     83  F   UNL A   1      46.968  24.783  33.457  1.00  0.00    -0.205 F 
ATOM     84  C   UNL A   1      44.816  23.657  36.176  1.00  0.00     0.022 A 
BRANCH  82  85
ATOM     85  S   UNL A   1      47.508  23.188  36.001  1.00  0.00     0.127 S 
ATOM     86  O   UNL A   1      47.868  22.302  34.893  1.00  0.00    -0.237 OA
ATOM     87  O   UNL A   1      48.353  24.370  36.140  1.00  0.00    -0.237 OA
ATOM     88  O   UNL A   1      47.177  22.493  37.239  1.00  0.00    -0.744 OA
ENDBRANCH  82  85
ENDBRANCH  54  78
BRANCH  66  89
ATOM     89  C   UNL A   1      45.762  28.636  28.719  1.00  0.00     0.023 A 
ATOM     90  C   UNL A   1      46.873  29.468  28.967  1.00  0.00     0.012 A 
ATOM     91  C   UNL A   1      45.961  27.410  28.066  1.00  0.00     0.148 A 
ATOM     92  C   UNL A   1      48.154  29.089  28.555  1.00  0.00     0.002 A 
ATOM     93  C   UNL A   1      47.241  27.015  27.702  1.00  0.00     0.091 A 
ATOM     94  F   UNL A   1      44.892  26.632  27.841  1.00  0.00    -0.205 F 
ATOM     95  C   UNL A   1      48.341  27.856  27.937  1.00  0.00     0.022 A 
BRANCH  93  96
ATOM     96  S   UNL A   1      47.555  25.385  27.024  1.00  0.00     0.127 S 
ATOM     97  O   UNL A   1      49.013  25.367  26.936  1.00  0.00    -0.237 OA
ATOM     98  O   UNL A   1      46.993  24.504  28.050  1.00  0.00    -0.237 OA
ATOM     99  O   UNL A   1      46.848  25.337  25.751  1.00  0.00    -0.744 OA
ENDBRANCH  93  96
ENDBRANCH  66  89
ENDBRANCH  40  41
ENDBRANCH  32  35
ENDBRANCH  30  31
ENDBRANCH  29  30
ENDBRANCH  28  29
ENDBRANCH   1  28
TORSDOF 19
ENDMDL
MODEL 2
REMARK VINA RESULT:     -11.4      3.787      7.527
REMARK SMILES C[N@@H+]1CC[N@H+](Cc2ccc(C#CC(C)(C)O)s2)C[C@H]1C(=O)NCCCCNC(=O)c1ccc(-c2c3nc(c(-c4cccc(S(=O)(=O)[O-])c4F)c4ccc([nH]4)c(-c4cccc(S(=O)(=O)[O-])c4F)c4nc(c(-c5cccc(S(=O)(=O)[O-])c5F)c5ccc2[nH]5)C=C4)C=C3)cc1
REMARK SMILES IDX 23 1 22 2 20 3 21 4 19 6 1 7 2 8 3 9 4 11 18 12 5 13 6 15
REMARK SMILES IDX 7 16 8 17 17 18 9 19 10 20 11 21 12 22 13 23 14 24 15 25
REMARK SMILES IDX 16 26 24 28 25 29 26 30 27 31 28 32 29 34 30 35 31 36 92 37
REMARK SMILES IDX 32 38 91 39 33 40 34 41 35 42 85 43 36 44 90 45 84 46 86 47
REMARK SMILES IDX 37 48 89 49 83 50 82 51 38 53 70 54 50 55 69 56 51 57 54 58
REMARK SMILES IDX 68 59 87 60 52 61 53 62 67 64 88 65 55 66 39 67 40 68 48 69
REMARK SMILES IDX 41 70 43 71 49 72 42 73 44 74 45 75 46 76 47 77 71 78 72 79
REMARK SMILES IDX 80 80 73 81 75 82 81 83 74 84 76 85 77 86 78 87 79 88 56 89
REMARK SMILES IDX 57 90 65 91 58 92 60 93 66 94 59 95 61 96 62 97 63 98 64 99
REMARK H PARENT 22 5 2 10 5 14 16 27 27 33 86 52 54 63
REMARK Flexibility Score: inf
ROOT
ATOM      1  C   UNL A   1      37.039  22.871  25.608  1.00  0.00     0.116 C 
ENDROOT
BRANCH   1   2
ATOM      2  N   UNL A   1      36.130  22.262  26.559  1.00  0.00    -0.351 N 
ATOM      3  C   UNL A   1      34.778  22.089  26.456  1.00  0.00     0.284 C 
ATOM      4  O   UNL A   1      34.162  21.700  27.450  1.00  0.00    -0.268 OA
ATOM      5  H   UNL A   1      36.542  21.928  27.389  1.00  0.00     0.163 HD
BRANCH   3   6
ATOM      6  C   UNL A   1      34.039  22.406  25.141  1.00  0.00     0.329 C 
ATOM      7  C   UNL A   1      33.683  20.083  24.522  1.00  0.00     0.333 C 
ATOM      8  N   UNL A   1      33.020  21.350  24.853  1.00  0.00    -0.318 N 
ATOM      9  C   UNL A   1      32.114  21.754  23.775  1.00  0.00     0.325 C 
ATOM     10  H   UNL A   1      32.457  21.221  25.694  1.00  0.00     0.348 HD
ATOM     11  C   UNL A   1      31.587  23.206  23.864  1.00  0.00     0.324 C 
ATOM     12  C   UNL A   1      33.517  23.874  25.180  1.00  0.00     0.339 C 
ATOM     13  N   UNL A   1      32.565  24.262  24.119  1.00  0.00    -0.320 N 
ATOM     14  H   UNL A   1      32.017  25.043  24.483  1.00  0.00     0.348 HD
BRANCH  13  15
ATOM     15  C   UNL A   1      33.174  24.895  22.941  1.00  0.00     0.310 C 
BRANCH  15  16
ATOM     16  C   UNL A   1      32.804  26.330  22.744  1.00  0.00     0.060 A 
ATOM     17  C   UNL A   1      33.496  27.471  23.102  1.00  0.00     0.022 A 
ATOM     18  S   UNL A   1      31.322  26.734  21.980  1.00  0.00    -0.126 S 
ATOM     19  C   UNL A   1      32.650  28.618  23.087  1.00  0.00     0.029 A 
ATOM     20  C   UNL A   1      31.400  28.320  22.594  1.00  0.00     0.077 A 
BRANCH  20  21
ATOM     21  C   UNL A   1      30.324  29.231  22.475  1.00  0.00    -0.053 C 
ATOM     22  C   UNL A   1      29.568  30.293  22.437  1.00  0.00    -0.063 C 
BRANCH  22  23
ATOM     23  C   UNL A   1      28.686  31.530  22.393  1.00  0.00     0.120 C 
ATOM     24  C   UNL A   1      28.050  31.661  21.010  1.00  0.00     0.056 C 
ATOM     25  C   UNL A   1      27.622  31.440  23.484  1.00  0.00     0.056 C 
BRANCH  23  26
ATOM     26  O   UNL A   1      29.495  32.667  22.675  1.00  0.00    -0.378 OA
ATOM     27  H   UNL A   1      29.631  33.177  21.861  1.00  0.00     0.212 HD
ENDBRANCH  23  26
ENDBRANCH  22  23
ENDBRANCH  20  21
ENDBRANCH  15  16
ENDBRANCH  13  15
ENDBRANCH   3   6
ENDBRANCH   1   2
BRANCH   1  28
ATOM     28  C   UNL A   1      38.422  23.140  26.207  1.00  0.00     0.023 C 
BRANCH  28  29
ATOM     29  C   UNL A   1      39.321  21.910  26.372  1.00  0.00     0.023 C 
BRANCH  29  30
ATOM     30  C   UNL A   1      40.577  22.165  27.191  1.00  0.00     0.116 C 
BRANCH  30  31
ATOM     31  N   UNL A   1      41.760  22.372  26.353  1.00  0.00    -0.352 N 
ATOM     32  C   UNL A   1      42.414  23.557  26.104  1.00  0.00     0.251 C 
ATOM     33  H   UNL A   1      42.131  21.571  25.918  1.00  0.00     0.163 HD
ATOM     34  O   UNL A   1      43.156  23.677  25.124  1.00  0.00    -0.269 OA
BRANCH  32  35
ATOM     35  C   UNL A   1      42.219  24.679  27.031  1.00  0.00     0.039 A 
ATOM     36  C   UNL A   1      42.980  24.800  28.197  1.00  0.00     0.014 A 
ATOM     37  C   UNL A   1      41.279  25.646  26.682  1.00  0.00     0.014 A 
ATOM     38  C   UNL A   1      42.844  25.949  28.971  1.00  0.00     0.010 A 
ATOM     39  C   UNL A   1      41.245  26.833  27.366  1.00  0.00     0.010 A 
ATOM     40  C   UNL A   1      41.986  26.969  28.539  1.00  0.00    -0.014 A 
BRANCH  40  41
ATOM     41  C   UNL A   1      41.947  28.259  29.220  1.00  0.00     0.031 A 
ATOM     42  C   UNL A   1      42.906  29.269  28.682  1.00  0.00     0.074 A 
ATOM     43  C   UNL A   1      40.938  28.581  30.061  1.00  0.00     0.049 A 
ATOM     44  N   UNL A   1      43.895  29.837  29.292  1.00  0.00    -0.248 NA
ATOM     45  C   UNL A   1      42.853  29.566  27.240  1.00  0.00     0.031 C 
ATOM     46  C   UNL A   1      39.755  27.768  30.381  1.00  0.00     0.029 A 
ATOM     47  N   UNL A   1      40.651  29.770  30.659  1.00  0.00    -0.354 N 
ATOM     48  C   UNL A   1      44.423  30.753  28.377  1.00  0.00     0.074 A 
ATOM     49  C   UNL A   1      43.912  30.364  27.093  1.00  0.00     0.031 C 
ATOM     50  C   UNL A   1      38.777  28.567  30.853  1.00  0.00     0.029 A 
ATOM     51  C   UNL A   1      39.312  29.902  31.028  1.00  0.00     0.049 A 
ATOM     52  H   UNL A   1      41.325  30.471  30.814  1.00  0.00     0.167 HD
ATOM     53  C   UNL A   1      44.993  31.920  28.799  1.00  0.00     0.034 A 
ATOM     54  C   UNL A   1      38.673  31.042  31.386  1.00  0.00     0.034 A 
ATOM     55  C   UNL A   1      45.288  31.859  30.212  1.00  0.00     0.049 A 
ATOM     56  C   UNL A   1      39.712  32.028  31.753  1.00  0.00     0.074 A 
ATOM     57  C   UNL A   1      46.041  31.042  31.031  1.00  0.00     0.029 A 
ATOM     58  N   UNL A   1      44.433  32.541  31.044  1.00  0.00    -0.354 N 
ATOM     59  N   UNL A   1      40.496  31.896  32.786  1.00  0.00    -0.248 NA
ATOM     60  C   UNL A   1      40.175  32.942  30.723  1.00  0.00     0.031 C 
ATOM     61  C   UNL A   1      45.282  30.930  32.235  1.00  0.00     0.029 A 
ATOM     62  C   UNL A   1      44.151  31.739  32.112  1.00  0.00     0.049 A 
ATOM     63  H   UNL A   1      44.084  33.449  30.895  1.00  0.00     0.167 HD
ATOM     64  C   UNL A   1      41.735  32.317  32.326  1.00  0.00     0.074 A 
ATOM     65  C   UNL A   1      41.451  33.063  31.100  1.00  0.00     0.031 C 
ATOM     66  C   UNL A   1      42.887  31.765  32.812  1.00  0.00     0.034 A 
BRANCH  53  67
ATOM     67  C   UNL A   1      44.879  33.270  28.094  1.00  0.00     0.023 A 
ATOM     68  C   UNL A   1      46.098  33.868  27.683  1.00  0.00     0.012 A 
ATOM     69  C   UNL A   1      43.741  34.108  28.093  1.00  0.00     0.148 A 
ATOM     70  C   UNL A   1      46.206  35.240  27.434  1.00  0.00     0.002 A 
ATOM     71  C   UNL A   1      43.841  35.463  27.788  1.00  0.00     0.091 A 
ATOM     72  F   UNL A   1      42.555  33.645  28.481  1.00  0.00    -0.205 F 
ATOM     73  C   UNL A   1      45.077  36.042  27.501  1.00  0.00     0.022 A 
BRANCH  71  74
ATOM     74  S   UNL A   1      42.405  36.548  27.817  1.00  0.00     0.127 S 
ATOM     75  O   UNL A   1      43.002  37.826  27.439  1.00  0.00    -0.237 OA
ATOM     76  O   UNL A   1      41.550  35.935  26.800  1.00  0.00    -0.237 OA
ATOM     77  O   UNL A   1      41.875  36.468  29.172  1.00  0.00    -0.744 OA
ENDBRANCH  71  74
ENDBRANCH  53  67
BRANCH  54  78
ATOM     78  C   UNL A   1      37.257  31.437  31.199  1.00  0.00     0.023 A 
ATOM     79  C   UNL A   1      36.494  31.847  32.311  1.00  0.00     0.012 A 
ATOM     80  C   UNL A   1      36.736  31.680  29.909  1.00  0.00     0.148 A 
ATOM     81  C   UNL A   1      35.271  32.509  32.143  1.00  0.00     0.002 A 
ATOM     82  C   UNL A   1      35.515  32.329  29.747  1.00  0.00     0.091 A 
ATOM     83  F   UNL A   1      37.481  31.361  28.842  1.00  0.00    -0.205 F 
ATOM     84  C   UNL A   1      34.786  32.757  30.863  1.00  0.00     0.022 A 
BRANCH  82  85
ATOM     85  S   UNL A   1      34.837  32.704  28.125  1.00  0.00     0.127 S 
ATOM     86  O   UNL A   1      35.914  33.493  27.525  1.00  0.00    -0.237 OA
ATOM     87  O   UNL A   1      34.663  31.372  27.556  1.00  0.00    -0.237 OA
ATOM     88  O   UNL A   1      33.614  33.455  28.373  1.00  0.00    -0.744 OA
ENDBRANCH  82  85
ENDBRANCH  54  78
BRANCH  66  89
ATOM     89  C   UNL A   1      42.798  30.904  34.046  1.00  0.00     0.023 A 
ATOM     90  C   UNL A   1      42.825  31.438  35.350  1.00  0.00     0.012 A 
ATOM     91  C   UNL A   1      42.494  29.545  33.872  1.00  0.00     0.148 A 
ATOM     92  C   UNL A   1      42.571  30.625  36.460  1.00  0.00     0.002 A 
ATOM     93  C   UNL A   1      42.195  28.752  34.971  1.00  0.00     0.091 A 
ATOM     94  F   UNL A   1      42.471  29.056  32.622  1.00  0.00    -0.205 F 
ATOM     95  C   UNL A   1      42.241  29.286  36.269  1.00  0.00     0.022 A 
BRANCH  93  96
ATOM     96  S   UNL A   1      41.636  27.060  34.775  1.00  0.00     0.127 S 
ATOM     97  O   UNL A   1      42.840  26.396  34.284  1.00  0.00    -0.237 OA
ATOM     98  O   UNL A   1      41.248  26.696  36.140  1.00  0.00    -0.237 OA
ATOM     99  O   UNL A   1      40.521  27.112  33.838  1.00  0.00    -0.744 OA
ENDBRANCH  93  96
ENDBRANCH  66  89
ENDBRANCH  40  41
ENDBRANCH  32  35
ENDBRANCH  30  31
ENDBRANCH  29  30
ENDBRANCH  28  29
ENDBRANCH   1  28
TORSDOF 19
ENDMDL
MODEL 3
REMARK VINA RESULT:     -11.2      3.307      8.298
REMARK SMILES C[N@@H+]1CC[N@H+](Cc2ccc(C#CC(C)(C)O)s2)C[C@H]1C(=O)NCCCCNC(=O)c1ccc(-c2c3nc(c(-c4cccc(S(=O)(=O)[O-])c4F)c4ccc([nH]4)c(-c4cccc(S(=O)(=O)[O-])c4F)c4nc(c(-c5cccc(S(=O)(=O)[O-])c5F)c5ccc2[nH]5)C=C4)C=C3)cc1
REMARK SMILES IDX 23 1 22 2 20 3 21 4 19 6 1 7 2 8 3 9 4 11 18 12 5 13 6 15
REMARK SMILES IDX 7 16 8 17 17 18 9 19 10 20 11 21 12 22 13 23 14 24 15 25
REMARK SMILES IDX 16 26 24 28 25 29 26 30 27 31 28 32 29 34 30 35 31 36 92 37
REMARK SMILES IDX 32 38 91 39 33 40 34 41 35 42 85 43 36 44 90 45 84 46 86 47
REMARK SMILES IDX 37 48 89 49 83 50 82 51 38 53 70 54 50 55 69 56 51 57 54 58
REMARK SMILES IDX 68 59 87 60 52 61 53 62 67 64 88 65 55 66 39 67 40 68 48 69
REMARK SMILES IDX 41 70 43 71 49 72 42 73 44 74 45 75 46 76 47 77 71 78 72 79
REMARK SMILES IDX 80 80 73 81 75 82 81 83 74 84 76 85 77 86 78 87 79 88 56 89
REMARK SMILES IDX 57 90 65 91 58 92 60 93 66 94 59 95 61 96 62 97 63 98 64 99
REMARK H PARENT 22 5 2 10 5 14 16 27 27 33 86 52 54 63
REMARK Flexibility Score: inf
ROOT
ATOM      1  C   UNL A   1      32.187  27.779  27.384  1.00  0.00     0.116 C 
ENDROOT
BRANCH   1   2
ATOM      2  N   UNL A   1      31.062  26.874  27.250  1.00  0.00    -0.351 N 
ATOM      3  C   UNL A   1      30.619  26.223  26.133  1.00  0.00     0.284 C 
ATOM      4  O   UNL A   1      29.540  25.629  26.193  1.00  0.00    -0.268 OA
ATOM      5  H   UNL A   1      30.550  26.706  28.074  1.00  0.00     0.163 HD
BRANCH   3   6
ATOM      6  C   UNL A   1      31.431  26.259  24.823  1.00  0.00     0.329 C 
ATOM      7  C   UNL A   1      29.850  27.659  23.621  1.00  0.00     0.333 C 
ATOM      8  N   UNL A   1      31.226  27.564  24.123  1.00  0.00    -0.318 N 
ATOM      9  C   UNL A   1      32.186  27.749  23.032  1.00  0.00     0.325 C 
ATOM     10  H   UNL A   1      31.385  28.311  24.800  1.00  0.00     0.348 HD
ATOM     11  C   UNL A   1      33.649  27.377  23.370  1.00  0.00     0.324 C 
ATOM     12  C   UNL A   1      32.909  25.861  25.118  1.00  0.00     0.339 C 
ATOM     13  N   UNL A   1      33.882  26.095  24.032  1.00  0.00    -0.320 N 
ATOM     14  H   UNL A   1      34.799  26.190  24.470  1.00  0.00     0.348 HD
BRANCH  13  15
ATOM     15  C   UNL A   1      34.127  24.938  23.159  1.00  0.00     0.310 C 
BRANCH  15  16
ATOM     16  C   UNL A   1      34.454  23.671  23.883  1.00  0.00     0.060 A 
ATOM     17  C   UNL A   1      35.663  23.238  24.392  1.00  0.00     0.022 A 
ATOM     18  S   UNL A   1      33.224  22.510  24.170  1.00  0.00    -0.126 S 
ATOM     19  C   UNL A   1      35.641  21.839  24.663  1.00  0.00     0.029 A 
ATOM     20  C   UNL A   1      34.387  21.305  24.474  1.00  0.00     0.077 A 
BRANCH  20  21
ATOM     21  C   UNL A   1      34.041  19.942  24.633  1.00  0.00    -0.053 C 
ATOM     22  C   UNL A   1      34.030  18.638  24.664  1.00  0.00    -0.063 C 
BRANCH  22  23
ATOM     23  C   UNL A   1      34.015  17.119  24.699  1.00  0.00     0.120 C 
ATOM     24  C   UNL A   1      32.760  16.631  25.421  1.00  0.00     0.056 C 
ATOM     25  C   UNL A   1      34.080  16.573  23.274  1.00  0.00     0.056 C 
BRANCH  23  26
ATOM     26  O   UNL A   1      35.183  16.676  25.383  1.00  0.00    -0.378 OA
ATOM     27  H   UNL A   1      35.188  17.038  26.283  1.00  0.00     0.212 HD
ENDBRANCH  23  26
ENDBRANCH  22  23
ENDBRANCH  20  21
ENDBRANCH  15  16
ENDBRANCH  13  15
ENDBRANCH   3   6
ENDBRANCH   1   2
BRANCH   1  28
ATOM     28  C   UNL A   1      31.799  29.239  27.134  1.00  0.00     0.023 C 
BRANCH  28  29
ATOM     29  C   UNL A   1      32.819  30.068  26.346  1.00  0.00     0.023 C 
BRANCH  29  30
ATOM     30  C   UNL A   1      34.032  30.495  27.159  1.00  0.00     0.116 C 
BRANCH  30  31
ATOM     31  N   UNL A   1      33.909  31.860  27.674  1.00  0.00    -0.352 N 
ATOM     32  C   UNL A   1      34.548  32.405  28.764  1.00  0.00     0.251 C 
ATOM     33  H   UNL A   1      33.300  32.458  27.183  1.00  0.00     0.163 HD
ATOM     34  O   UNL A   1      34.111  33.422  29.311  1.00  0.00    -0.269 OA
BRANCH  32  35
ATOM     35  C   UNL A   1      35.769  31.758  29.263  1.00  0.00     0.039 A 
ATOM     36  C   UNL A   1      35.795  30.396  29.575  1.00  0.00     0.014 A 
ATOM     37  C   UNL A   1      36.914  32.542  29.369  1.00  0.00     0.014 A 
ATOM     38  C   UNL A   1      37.009  29.809  29.918  1.00  0.00     0.010 A 
ATOM     39  C   UNL A   1      38.129  31.940  29.572  1.00  0.00     0.010 A 
ATOM     40  C   UNL A   1      38.176  30.586  29.899  1.00  0.00    -0.014 A 
BRANCH  40  41
ATOM     41  C   UNL A   1      39.489  29.975  30.077  1.00  0.00     0.031 A 
ATOM     42  C   UNL A   1      40.010  30.030  31.474  1.00  0.00     0.074 A 
ATOM     43  C   UNL A   1      40.034  29.188  29.121  1.00  0.00     0.049 A 
ATOM     44  N   UNL A   1      41.073  30.624  31.909  1.00  0.00    -0.248 NA
ATOM     45  C   UNL A   1      39.157  29.487  32.546  1.00  0.00     0.031 C 
ATOM     46  C   UNL A   1      39.426  28.795  27.842  1.00  0.00     0.029 A 
ATOM     47  N   UNL A   1      41.157  28.420  29.164  1.00  0.00    -0.354 N 
ATOM     48  C   UNL A   1      41.151  30.307  33.268  1.00  0.00     0.074 A 
ATOM     49  C   UNL A   1      39.847  29.832  33.635  1.00  0.00     0.031 C 
ATOM     50  C   UNL A   1      40.025  27.675  27.386  1.00  0.00     0.029 A 
ATOM     51  C   UNL A   1      41.156  27.375  28.241  1.00  0.00     0.049 A 
ATOM     52  H   UNL A   1      41.899  28.586  29.790  1.00  0.00     0.167 HD
ATOM     53  C   UNL A   1      42.358  30.186  33.894  1.00  0.00     0.034 A 
ATOM     54  C   UNL A   1      41.983  26.301  28.222  1.00  0.00     0.034 A 
ATOM     55  C   UNL A   1      43.407  30.776  33.096  1.00  0.00     0.049 A 
ATOM     56  C   UNL A   1      43.157  26.641  29.055  1.00  0.00     0.074 A 
ATOM     57  C   UNL A   1      43.660  32.024  32.563  1.00  0.00     0.029 A 
ATOM     58  N   UNL A   1      44.219  29.904  32.413  1.00  0.00    -0.354 N 
ATOM     59  N   UNL A   1      44.016  27.570  28.744  1.00  0.00    -0.248 NA
ATOM     60  C   UNL A   1      43.134  26.247  30.453  1.00  0.00     0.031 C 
ATOM     61  C   UNL A   1      44.250  31.767  31.289  1.00  0.00     0.029 A 
ATOM     62  C   UNL A   1      44.389  30.385  31.147  1.00  0.00     0.049 A 
ATOM     63  H   UNL A   1      44.610  29.076  32.774  1.00  0.00     0.167 HD
ATOM     64  C   UNL A   1      44.284  28.200  29.950  1.00  0.00     0.074 A 
ATOM     65  C   UNL A   1      43.816  27.269  30.977  1.00  0.00     0.031 C 
ATOM     66  C   UNL A   1      44.576  29.535  29.993  1.00  0.00     0.034 A 
BRANCH  53  67
ATOM     67  C   UNL A   1      42.699  29.163  34.976  1.00  0.00     0.023 A 
ATOM     68  C   UNL A   1      43.448  29.643  36.080  1.00  0.00     0.012 A 
ATOM     69  C   UNL A   1      42.620  27.758  34.839  1.00  0.00     0.148 A 
ATOM     70  C   UNL A   1      44.192  28.789  36.903  1.00  0.00     0.002 A 
ATOM     71  C   UNL A   1      43.314  26.907  35.696  1.00  0.00     0.091 A 
ATOM     72  F   UNL A   1      41.955  27.210  33.824  1.00  0.00    -0.205 F 
ATOM     73  C   UNL A   1      44.135  27.418  36.701  1.00  0.00     0.022 A 
BRANCH  71  74
ATOM     74  S   UNL A   1      43.249  25.118  35.510  1.00  0.00     0.127 S 
ATOM     75  O   UNL A   1      41.832  24.856  35.744  1.00  0.00    -0.237 OA
ATOM     76  O   UNL A   1      43.693  24.948  34.126  1.00  0.00    -0.237 OA
ATOM     77  O   UNL A   1      44.169  24.582  36.504  1.00  0.00    -0.744 OA
ENDBRANCH  71  74
ENDBRANCH  53  67
BRANCH  54  78
ATOM     78  C   UNL A   1      41.735  24.917  27.756  1.00  0.00     0.023 A 
ATOM     79  C   UNL A   1      40.430  24.385  27.813  1.00  0.00     0.012 A 
ATOM     80  C   UNL A   1      42.705  24.221  27.002  1.00  0.00     0.148 A 
ATOM     81  C   UNL A   1      40.095  23.218  27.114  1.00  0.00     0.002 A 
ATOM     82  C   UNL A   1      42.370  23.055  26.317  1.00  0.00     0.091 A 
ATOM     83  F   UNL A   1      43.929  24.750  26.880  1.00  0.00    -0.205 F 
ATOM     84  C   UNL A   1      41.062  22.559  26.360  1.00  0.00     0.022 A 
BRANCH  82  85
ATOM     85  S   UNL A   1      43.558  22.164  25.305  1.00  0.00     0.127 S 
ATOM     86  O   UNL A   1      42.987  20.816  25.288  1.00  0.00    -0.237 OA
ATOM     87  O   UNL A   1      43.471  22.881  24.037  1.00  0.00    -0.237 OA
ATOM     88  O   UNL A   1      44.830  22.266  26.008  1.00  0.00    -0.744 OA
ENDBRANCH  82  85
ENDBRANCH  54  78
BRANCH  66  89
ATOM     89  C   UNL A   1      44.877  30.239  28.695  1.00  0.00     0.023 A 
ATOM     90  C   UNL A   1      43.866  30.726  27.841  1.00  0.00     0.012 A 
ATOM     91  C   UNL A   1      46.213  30.577  28.431  1.00  0.00     0.148 A 
ATOM     92  C   UNL A   1      44.187  31.519  26.735  1.00  0.00     0.002 A 
ATOM     93  C   UNL A   1      46.524  31.404  27.361  1.00  0.00     0.091 A 
ATOM     94  F   UNL A   1      47.160  30.106  29.257  1.00  0.00    -0.205 F 
ATOM     95  C   UNL A   1      45.514  31.871  26.504  1.00  0.00     0.022 A 
BRANCH  93  96
ATOM     96  S   UNL A   1      48.196  31.995  27.095  1.00  0.00     0.127 S 
ATOM     97  O   UNL A   1      48.888  30.777  26.682  1.00  0.00    -0.237 OA
ATOM     98  O   UNL A   1      48.014  32.987  26.033  1.00  0.00    -0.237 OA
ATOM     99  O   UNL A   1      48.627  32.563  28.367  1.00  0.00    -0.744 OA
ENDBRANCH  93  96
ENDBRANCH  66  89
ENDBRANCH  40  41
ENDBRANCH  32  35
ENDBRANCH  30  31
ENDBRANCH  29  30
ENDBRANCH  28  29
ENDBRANCH   1  28
TORSDOF 19
ENDMDL
