MODEL 1
REMARK VINA RESULT:     -11.1      0.000      0.000
REMARK SMILES CC[C@@H](C)c1ccccc1OCC(C)(C)C(=O)NCCCCNC(=O)c1ccc(-c2c3nc(c(-c4cccc(S(=O)(=O)[O-])c4F)c4ccc([nH]4)c(-c4cccc(S(=O)(=O)[O-])c4F)c4nc(c(-c5cccc(S(=O)(=O)[O-])c5F)c5ccc2[nH]5)C=C4)C=C3)cc1
REMARK SMILES IDX 19 1 18 2 16 3 17 4 13 6 14 7 15 8 12 9 11 10 10 11 5 12
REMARK SMILES IDX 6 13 7 14 9 15 8 16 3 17 4 18 2 19 1 20 20 21 21 22 22 23
REMARK SMILES IDX 23 24 24 25 25 27 26 28 27 29 88 30 28 31 87 32 29 33 30 34
REMARK SMILES IDX 31 35 81 36 32 37 86 38 80 39 82 40 33 41 85 42 79 43 78 44
REMARK SMILES IDX 34 46 66 47 46 48 65 49 47 50 50 51 64 52 83 53 48 54 49 55
REMARK SMILES IDX 63 57 84 58 51 59 35 60 36 61 44 62 37 63 39 64 45 65 38 66
REMARK SMILES IDX 40 67 41 68 42 69 43 70 67 71 68 72 76 73 69 74 71 75 77 76
REMARK SMILES IDX 70 77 72 78 73 79 74 80 75 81 52 82 53 83 61 84 54 85 56 86
REMARK SMILES IDX 62 87 55 88 57 89 58 90 59 91 60 92
REMARK H PARENT 18 5 23 26 82 45 50 56
REMARK Flexibility Score: inf
ROOT
ATOM      1  C   UNL A   1      33.340  22.764  26.716  1.00  0.00     0.116 C 
ENDROOT
BRANCH   1   2
ATOM      2  N   UNL A   1      31.993  22.654  27.266  1.00  0.00    -0.356 N 
ATOM      3  C   UNL A   1      30.848  23.323  26.902  1.00  0.00     0.229 C 
ATOM      4  O   UNL A   1      29.786  23.022  27.446  1.00  0.00    -0.274 OA
ATOM      5  H   UNL A   1      31.889  22.009  28.002  1.00  0.00     0.163 HD
BRANCH   3   6
ATOM      6  C   UNL A   1      30.941  24.432  25.848  1.00  0.00     0.077 C 
ATOM      7  C   UNL A   1      29.720  25.354  26.070  1.00  0.00     0.025 C 
ATOM      8  C   UNL A   1      31.017  23.724  24.471  1.00  0.00     0.025 C 
BRANCH   6   9
ATOM      9  C   UNL A   1      32.246  25.265  26.034  1.00  0.00     0.245 C 
BRANCH   9  10
ATOM     10  O   UNL A   1      32.543  26.133  24.904  1.00  0.00    -0.492 OA
BRANCH  10  11
ATOM     11  C   UNL A   1      32.488  27.482  25.156  1.00  0.00     0.122 A 
ATOM     12  C   UNL A   1      31.467  28.287  24.590  1.00  0.00    -0.003 A 
ATOM     13  C   UNL A   1      31.402  29.622  25.063  1.00  0.00     0.008 A 
ATOM     14  C   UNL A   1      32.285  30.130  26.022  1.00  0.00     0.001 A 
ATOM     15  C   UNL A   1      33.440  28.037  26.035  1.00  0.00     0.047 A 
ATOM     16  C   UNL A   1      33.323  29.345  26.490  1.00  0.00     0.004 A 
BRANCH  12  17
ATOM     17  C   UNL A   1      30.460  27.856  23.487  1.00  0.00     0.019 C 
ATOM     18  C   UNL A   1      31.152  27.082  22.336  1.00  0.00     0.013 C 
BRANCH  17  19
ATOM     19  C   UNL A   1      29.589  28.954  22.839  1.00  0.00     0.005 C 
ATOM     20  C   UNL A   1      28.080  28.795  22.980  1.00  0.00     0.004 C 
ENDBRANCH  17  19
ENDBRANCH  12  17
ENDBRANCH  10  11
ENDBRANCH   9  10
ENDBRANCH   6   9
ENDBRANCH   3   6
ENDBRANCH   1   2
BRANCH   1  21
ATOM     21  C   UNL A   1      33.753  21.577  25.867  1.00  0.00     0.023 C 
BRANCH  21  22
ATOM     22  C   UNL A   1      34.955  21.850  24.976  1.00  0.00     0.023 C 
BRANCH  22  23
ATOM     23  C   UNL A   1      36.261  22.073  25.725  1.00  0.00     0.116 C 
BRANCH  23  24
ATOM     24  N   UNL A   1      37.228  20.998  25.537  1.00  0.00    -0.352 N 
ATOM     25  C   UNL A   1      38.581  21.036  25.800  1.00  0.00     0.251 C 
ATOM     26  H   UNL A   1      36.875  20.150  25.182  1.00  0.00     0.163 HD
ATOM     27  O   UNL A   1      39.314  20.108  25.503  1.00  0.00    -0.269 OA
BRANCH  25  28
ATOM     28  C   UNL A   1      39.115  22.262  26.426  1.00  0.00     0.039 A 
ATOM     29  C   UNL A   1      40.165  22.156  27.338  1.00  0.00     0.014 A 
ATOM     30  C   UNL A   1      38.668  23.509  25.981  1.00  0.00     0.014 A 
ATOM     31  C   UNL A   1      40.818  23.314  27.759  1.00  0.00     0.010 A 
ATOM     32  C   UNL A   1      39.378  24.648  26.333  1.00  0.00     0.010 A 
ATOM     33  C   UNL A   1      40.455  24.564  27.229  1.00  0.00    -0.014 A 
BRANCH  33  34
ATOM     34  C   UNL A   1      41.186  25.803  27.597  1.00  0.00     0.031 A 
ATOM     35  C   UNL A   1      40.477  26.887  28.360  1.00  0.00     0.074 A 
ATOM     36  C   UNL A   1      42.447  25.993  27.163  1.00  0.00     0.049 A 
ATOM     37  N   UNL A   1      40.917  28.062  28.723  1.00  0.00    -0.248 NA
ATOM     38  C   UNL A   1      39.074  26.632  28.731  1.00  0.00     0.031 C 
ATOM     39  C   UNL A   1      43.211  25.056  26.336  1.00  0.00     0.029 A 
ATOM     40  N   UNL A   1      43.303  27.052  27.337  1.00  0.00    -0.354 N 
ATOM     41  C   UNL A   1      39.839  28.699  29.326  1.00  0.00     0.074 A 
ATOM     42  C   UNL A   1      38.711  27.799  29.238  1.00  0.00     0.031 C 
ATOM     43  C   UNL A   1      44.424  25.576  26.086  1.00  0.00     0.029 A 
ATOM     44  C   UNL A   1      44.517  26.892  26.710  1.00  0.00     0.049 A 
ATOM     45  H   UNL A   1      43.069  27.851  27.862  1.00  0.00     0.167 HD
ATOM     46  C   UNL A   1      39.798  29.908  29.933  1.00  0.00     0.034 A 
ATOM     47  C   UNL A   1      45.584  27.713  26.649  1.00  0.00     0.034 A 
ATOM     48  C   UNL A   1      40.937  30.774  30.068  1.00  0.00     0.049 A 
ATOM     49  C   UNL A   1      45.535  29.026  27.382  1.00  0.00     0.074 A 
ATOM     50  C   UNL A   1      41.032  31.971  30.752  1.00  0.00     0.029 A 
ATOM     51  N   UNL A   1      42.181  30.536  29.503  1.00  0.00    -0.354 N 
ATOM     52  N   UNL A   1      44.562  29.537  28.096  1.00  0.00    -0.248 NA
ATOM     53  C   UNL A   1      46.745  29.860  27.335  1.00  0.00     0.031 C 
ATOM     54  C   UNL A   1      42.330  32.466  30.588  1.00  0.00     0.029 A 
ATOM     55  C   UNL A   1      43.049  31.566  29.817  1.00  0.00     0.049 A 
ATOM     56  H   UNL A   1      42.412  29.748  28.959  1.00  0.00     0.167 HD
ATOM     57  C   UNL A   1      45.050  30.732  28.610  1.00  0.00     0.074 A 
ATOM     58  C   UNL A   1      46.416  30.859  28.142  1.00  0.00     0.031 C 
ATOM     59  C   UNL A   1      44.422  31.649  29.388  1.00  0.00     0.034 A 
BRANCH  46  60
ATOM     60  C   UNL A   1      38.492  30.330  30.551  1.00  0.00     0.023 A 
ATOM     61  C   UNL A   1      38.178  29.916  31.862  1.00  0.00     0.012 A 
ATOM     62  C   UNL A   1      37.589  31.156  29.853  1.00  0.00     0.148 A 
ATOM     63  C   UNL A   1      36.970  30.279  32.453  1.00  0.00     0.002 A 
ATOM     64  C   UNL A   1      36.406  31.552  30.468  1.00  0.00     0.091 A 
ATOM     65  F   UNL A   1      37.890  31.519  28.599  1.00  0.00    -0.205 F 
ATOM     66  C   UNL A   1      36.089  31.104  31.760  1.00  0.00     0.022 A 
BRANCH  64  67
ATOM     67  S   UNL A   1      35.245  32.679  29.687  1.00  0.00     0.127 S 
ATOM     68  O   UNL A   1      34.377  33.032  30.809  1.00  0.00    -0.237 OA
ATOM     69  O   UNL A   1      36.121  33.759  29.232  1.00  0.00    -0.237 OA
ATOM     70  O   UNL A   1      34.614  31.922  28.616  1.00  0.00    -0.744 OA
ENDBRANCH  64  67
ENDBRANCH  46  60
BRANCH  47  71
ATOM     71  C   UNL A   1      46.819  27.273  25.940  1.00  0.00     0.023 A 
ATOM     72  C   UNL A   1      46.949  27.532  24.561  1.00  0.00     0.012 A 
ATOM     73  C   UNL A   1      47.877  26.640  26.621  1.00  0.00     0.148 A 
ATOM     74  C   UNL A   1      48.096  27.147  23.868  1.00  0.00     0.002 A 
ATOM     75  C   UNL A   1      49.038  26.306  25.935  1.00  0.00     0.091 A 
ATOM     76  F   UNL A   1      47.730  26.394  27.930  1.00  0.00    -0.205 F 
ATOM     77  C   UNL A   1      49.144  26.543  24.555  1.00  0.00     0.022 A 
BRANCH  75  78
ATOM     78  S   UNL A   1      50.491  25.644  26.762  1.00  0.00     0.127 S 
ATOM     79  O   UNL A   1      51.403  25.433  25.640  1.00  0.00    -0.237 OA
ATOM     80  O   UNL A   1      50.856  26.744  27.654  1.00  0.00    -0.237 OA
ATOM     81  O   UNL A   1      50.039  24.441  27.446  1.00  0.00    -0.744 OA
ENDBRANCH  75  78
ENDBRANCH  47  71
BRANCH  59  82
ATOM     82  C   UNL A   1      45.208  32.862  29.812  1.00  0.00     0.023 A 
ATOM     83  C   UNL A   1      46.008  32.807  30.969  1.00  0.00     0.012 A 
ATOM     84  C   UNL A   1      45.217  34.026  29.017  1.00  0.00     0.148 A 
ATOM     85  C   UNL A   1      46.784  33.902  31.346  1.00  0.00     0.002 A 
ATOM     86  C   UNL A   1      46.030  35.095  29.373  1.00  0.00     0.091 A 
ATOM     87  F   UNL A   1      44.433  34.065  27.930  1.00  0.00    -0.205 F 
ATOM     88  C   UNL A   1      46.806  35.039  30.542  1.00  0.00     0.022 A 
BRANCH  86  89
ATOM     89  S   UNL A   1      46.194  36.559  28.345  1.00  0.00     0.127 S 
ATOM     90  O   UNL A   1      44.849  37.128  28.420  1.00  0.00    -0.237 OA
ATOM     91  O   UNL A   1      47.221  37.324  29.054  1.00  0.00    -0.237 OA
ATOM     92  O   UNL A   1      46.599  36.082  27.030  1.00  0.00    -0.744 OA
ENDBRANCH  86  89
ENDBRANCH  59  82
ENDBRANCH  33  34
ENDBRANCH  25  28
ENDBRANCH  23  24
ENDBRANCH  22  23
ENDBRANCH  21  22
ENDBRANCH   1  21
TORSDOF 19
ENDMDL
MODEL 2
REMARK VINA RESULT:     -10.8      1.542      7.763
REMARK SMILES CC[C@@H](C)c1ccccc1OCC(C)(C)C(=O)NCCCCNC(=O)c1ccc(-c2c3nc(c(-c4cccc(S(=O)(=O)[O-])c4F)c4ccc([nH]4)c(-c4cccc(S(=O)(=O)[O-])c4F)c4nc(c(-c5cccc(S(=O)(=O)[O-])c5F)c5ccc2[nH]5)C=C4)C=C3)cc1
REMARK SMILES IDX 19 1 18 2 16 3 17 4 13 6 14 7 15 8 12 9 11 10 10 11 5 12
REMARK SMILES IDX 6 13 7 14 9 15 8 16 3 17 4 18 2 19 1 20 20 21 21 22 22 23
REMARK SMILES IDX 23 24 24 25 25 27 26 28 27 29 88 30 28 31 87 32 29 33 30 34
REMARK SMILES IDX 31 35 81 36 32 37 86 38 80 39 82 40 33 41 85 42 79 43 78 44
REMARK SMILES IDX 34 46 66 47 46 48 65 49 47 50 50 51 64 52 83 53 48 54 49 55
REMARK SMILES IDX 63 57 84 58 51 59 35 60 36 61 44 62 37 63 39 64 45 65 38 66
REMARK SMILES IDX 40 67 41 68 42 69 43 70 67 71 68 72 76 73 69 74 71 75 77 76
REMARK SMILES IDX 70 77 72 78 73 79 74 80 75 81 52 82 53 83 61 84 54 85 56 86
REMARK SMILES IDX 62 87 55 88 57 89 58 90 59 91 60 92
REMARK H PARENT 18 5 23 26 82 45 50 56
REMARK Flexibility Score: inf
ROOT
ATOM      1  C   UNL A   1      34.409  23.571  26.289  1.00  0.00     0.116 C 
ENDROOT
BRANCH   1   2
ATOM      2  N   UNL A   1      33.377  22.586  25.979  1.00  0.00    -0.356 N 
ATOM      3  C   UNL A   1      32.436  22.600  24.977  1.00  0.00     0.229 C 
ATOM      4  O   UNL A   1      31.701  21.623  24.839  1.00  0.00    -0.274 OA
ATOM      5  H   UNL A   1      33.352  21.801  26.570  1.00  0.00     0.163 HD
BRANCH   3   6
ATOM      6  C   UNL A   1      32.323  23.840  24.083  1.00  0.00     0.077 C 
ATOM      7  C   UNL A   1      30.921  23.787  23.431  1.00  0.00     0.025 C 
ATOM      8  C   UNL A   1      33.528  23.792  23.110  1.00  0.00     0.025 C 
BRANCH   6   9
ATOM      9  C   UNL A   1      32.439  25.145  24.929  1.00  0.00     0.245 C 
BRANCH   9  10
ATOM     10  O   UNL A   1      31.336  26.071  24.717  1.00  0.00    -0.492 OA
BRANCH  10  11
ATOM     11  C   UNL A   1      31.571  27.374  25.082  1.00  0.00     0.122 A 
ATOM     12  C   UNL A   1      30.980  28.448  24.369  1.00  0.00    -0.003 A 
ATOM     13  C   UNL A   1      31.144  29.733  24.943  1.00  0.00     0.008 A 
ATOM     14  C   UNL A   1      31.848  29.947  26.134  1.00  0.00     0.001 A 
ATOM     15  C   UNL A   1      32.373  27.616  26.216  1.00  0.00     0.047 A 
ATOM     16  C   UNL A   1      32.486  28.891  26.758  1.00  0.00     0.004 A 
BRANCH  12  17
ATOM     17  C   UNL A   1      30.218  28.346  23.018  1.00  0.00     0.019 C 
ATOM     18  C   UNL A   1      30.618  29.477  22.036  1.00  0.00     0.013 C 
BRANCH  17  19
ATOM     19  C   UNL A   1      28.675  28.307  23.064  1.00  0.00     0.005 C 
ATOM     20  C   UNL A   1      27.958  29.648  22.960  1.00  0.00     0.004 C 
ENDBRANCH  17  19
ENDBRANCH  12  17
ENDBRANCH  10  11
ENDBRANCH   9  10
ENDBRANCH   6   9
ENDBRANCH   3   6
ENDBRANCH   1   2
BRANCH   1  21
ATOM     21  C   UNL A   1      35.779  22.966  26.531  1.00  0.00     0.023 C 
BRANCH  21  22
ATOM     22  C   UNL A   1      36.143  21.861  25.552  1.00  0.00     0.023 C 
BRANCH  22  23
ATOM     23  C   UNL A   1      37.543  21.970  24.966  1.00  0.00     0.116 C 
BRANCH  23  24
ATOM     24  N   UNL A   1      38.429  20.888  25.377  1.00  0.00    -0.352 N 
ATOM     25  C   UNL A   1      39.566  20.987  26.149  1.00  0.00     0.251 C 
ATOM     26  H   UNL A   1      38.187  19.984  25.068  1.00  0.00     0.163 HD
ATOM     27  O   UNL A   1      40.292  20.026  26.343  1.00  0.00    -0.269 OA
BRANCH  25  28
ATOM     28  C   UNL A   1      39.893  22.314  26.707  1.00  0.00     0.039 A 
ATOM     29  C   UNL A   1      40.839  22.408  27.727  1.00  0.00     0.014 A 
ATOM     30  C   UNL A   1      39.367  23.460  26.102  1.00  0.00     0.014 A 
ATOM     31  C   UNL A   1      41.314  23.665  28.099  1.00  0.00     0.010 A 
ATOM     32  C   UNL A   1      39.908  24.699  26.414  1.00  0.00     0.010 A 
ATOM     33  C   UNL A   1      40.880  24.816  27.419  1.00  0.00    -0.014 A 
BRANCH  33  34
ATOM     34  C   UNL A   1      41.429  26.158  27.739  1.00  0.00     0.031 A 
ATOM     35  C   UNL A   1      42.845  26.492  27.364  1.00  0.00     0.074 A 
ATOM     36  C   UNL A   1      40.690  27.034  28.449  1.00  0.00     0.049 A 
ATOM     37  N   UNL A   1      43.527  27.581  27.607  1.00  0.00    -0.248 NA
ATOM     38  C   UNL A   1      43.611  25.451  26.656  1.00  0.00     0.031 C 
ATOM     39  C   UNL A   1      39.335  26.791  28.952  1.00  0.00     0.029 A 
ATOM     40  N   UNL A   1      40.984  28.298  28.894  1.00  0.00    -0.354 N 
ATOM     41  C   UNL A   1      44.807  27.340  27.120  1.00  0.00     0.074 A 
ATOM     42  C   UNL A   1      44.820  25.988  26.611  1.00  0.00     0.031 C 
ATOM     43  C   UNL A   1      38.914  27.874  29.624  1.00  0.00     0.029 A 
ATOM     44  C   UNL A   1      39.973  28.879  29.623  1.00  0.00     0.049 A 
ATOM     45  H   UNL A   1      41.841  28.747  28.707  1.00  0.00     0.167 HD
ATOM     46  C   UNL A   1      45.866  28.181  27.066  1.00  0.00     0.034 A 
ATOM     47  C   UNL A   1      39.908  30.085  30.221  1.00  0.00     0.034 A 
ATOM     48  C   UNL A   1      45.830  29.543  27.521  1.00  0.00     0.049 A 
ATOM     49  C   UNL A   1      41.077  31.024  30.095  1.00  0.00     0.074 A 
ATOM     50  C   UNL A   1      46.812  30.511  27.419  1.00  0.00     0.029 A 
ATOM     51  N   UNL A   1      44.754  30.130  28.169  1.00  0.00    -0.354 N 
ATOM     52  N   UNL A   1      42.220  30.842  29.478  1.00  0.00    -0.248 NA
ATOM     53  C   UNL A   1      40.935  32.351  30.714  1.00  0.00     0.031 C 
ATOM     54  C   UNL A   1      46.335  31.681  28.021  1.00  0.00     0.029 A 
ATOM     55  C   UNL A   1      45.048  31.446  28.479  1.00  0.00     0.049 A 
ATOM     56  H   UNL A   1      43.904  29.677  28.377  1.00  0.00     0.167 HD
ATOM     57  C   UNL A   1      42.917  32.037  29.603  1.00  0.00     0.074 A 
ATOM     58  C   UNL A   1      42.059  32.945  30.339  1.00  0.00     0.031 C 
ATOM     59  C   UNL A   1      44.161  32.352  29.163  1.00  0.00     0.034 A 
BRANCH  46  60
ATOM     60  C   UNL A   1      47.130  27.663  26.433  1.00  0.00     0.023 A 
ATOM     61  C   UNL A   1      48.090  27.008  27.234  1.00  0.00     0.012 A 
ATOM     62  C   UNL A   1      47.359  27.794  25.050  1.00  0.00     0.148 A 
ATOM     63  C   UNL A   1      49.275  26.532  26.678  1.00  0.00     0.002 A 
ATOM     64  C   UNL A   1      48.524  27.274  24.495  1.00  0.00     0.091 A 
ATOM     65  F   UNL A   1      46.450  28.440  24.308  1.00  0.00    -0.205 F 
ATOM     66  C   UNL A   1      49.488  26.657  25.309  1.00  0.00     0.022 A 
BRANCH  64  67
ATOM     67  S   UNL A   1      48.851  27.314  22.730  1.00  0.00     0.127 S 
ATOM     68  O   UNL A   1      48.065  28.473  22.310  1.00  0.00    -0.237 OA
ATOM     69  O   UNL A   1      50.301  27.515  22.688  1.00  0.00    -0.237 OA
ATOM     70  O   UNL A   1      48.405  26.029  22.212  1.00  0.00    -0.744 OA
ENDBRANCH  64  67
ENDBRANCH  46  60
BRANCH  47  71
ATOM     71  C   UNL A   1      38.656  30.503  30.914  1.00  0.00     0.023 A 
ATOM     72  C   UNL A   1      38.510  30.235  32.289  1.00  0.00     0.012 A 
ATOM     73  C   UNL A   1      37.633  31.195  30.237  1.00  0.00     0.148 A 
ATOM     74  C   UNL A   1      37.357  30.623  32.973  1.00  0.00     0.002 A 
ATOM     75  C   UNL A   1      36.511  31.625  30.936  1.00  0.00     0.091 A 
ATOM     76  F   UNL A   1      37.787  31.432  28.927  1.00  0.00    -0.205 F 
ATOM     77  C   UNL A   1      36.363  31.326  32.300  1.00  0.00     0.022 A 
BRANCH  75  78
ATOM     78  S   UNL A   1      35.240  32.650  30.184  1.00  0.00     0.127 S 
ATOM     79  O   UNL A   1      36.007  33.821  29.767  1.00  0.00    -0.237 OA
ATOM     80  O   UNL A   1      34.774  31.797  29.090  1.00  0.00    -0.237 OA
ATOM     81  O   UNL A   1      34.252  32.879  31.229  1.00  0.00    -0.744 OA
ENDBRANCH  75  78
ENDBRANCH  47  71
BRANCH  59  82
ATOM     82  C   UNL A   1      44.667  33.744  29.434  1.00  0.00     0.023 A 
ATOM     83  C   UNL A   1      45.334  34.023  30.642  1.00  0.00     0.012 A 
ATOM     84  C   UNL A   1      44.554  34.752  28.455  1.00  0.00     0.148 A 
ATOM     85  C   UNL A   1      45.858  35.292  30.885  1.00  0.00     0.002 A 
ATOM     86  C   UNL A   1      45.120  36.000  28.685  1.00  0.00     0.091 A 
ATOM     87  F   UNL A   1      43.898  34.472  27.320  1.00  0.00    -0.205 F 
ATOM     88  C   UNL A   1      45.763  36.276  29.903  1.00  0.00     0.022 A 
BRANCH  86  89
ATOM     89  S   UNL A   1      45.130  37.294  27.438  1.00  0.00     0.127 S 
ATOM     90  O   UNL A   1      45.739  38.405  28.167  1.00  0.00    -0.237 OA
ATOM     91  O   UNL A   1      45.975  36.713  26.394  1.00  0.00    -0.237 OA
ATOM     92  O   UNL A   1      43.740  37.487  27.051  1.00  0.00    -0.744 OA
ENDBRANCH  86  89
ENDBRANCH  59  82
ENDBRANCH  33  34
ENDBRANCH  25  28
ENDBRANCH  23  24
ENDBRANCH  22  23
ENDBRANCH  21  22
ENDBRANCH   1  21
TORSDOF 19
ENDMDL
MODEL 3
REMARK VINA RESULT:     -10.7      2.235      7.860
REMARK SMILES CC[C@@H](C)c1ccccc1OCC(C)(C)C(=O)NCCCCNC(=O)c1ccc(-c2c3nc(c(-c4cccc(S(=O)(=O)[O-])c4F)c4ccc([nH]4)c(-c4cccc(S(=O)(=O)[O-])c4F)c4nc(c(-c5cccc(S(=O)(=O)[O-])c5F)c5ccc2[nH]5)C=C4)C=C3)cc1
REMARK SMILES IDX 19 1 18 2 16 3 17 4 13 6 14 7 15 8 12 9 11 10 10 11 5 12
REMARK SMILES IDX 6 13 7 14 9 15 8 16 3 17 4 18 2 19 1 20 20 21 21 22 22 23
REMARK SMILES IDX 23 24 24 25 25 27 26 28 27 29 88 30 28 31 87 32 29 33 30 34
REMARK SMILES IDX 31 35 81 36 32 37 86 38 80 39 82 40 33 41 85 42 79 43 78 44
REMARK SMILES IDX 34 46 66 47 46 48 65 49 47 50 50 51 64 52 83 53 48 54 49 55
REMARK SMILES IDX 63 57 84 58 51 59 35 60 36 61 44 62 37 63 39 64 45 65 38 66
REMARK SMILES IDX 40 67 41 68 42 69 43 70 67 71 68 72 76 73 69 74 71 75 77 76
REMARK SMILES IDX 70 77 72 78 73 79 74 80 75 81 52 82 53 83 61 84 54 85 56 86
REMARK SMILES IDX 62 87 55 88 57 89 58 90 59 91 60 92
REMARK H PARENT 18 5 23 26 82 45 50 56
REMARK Flexibility Score: inf
ROOT
ATOM      1  C   UNL A   1      33.396  23.129  25.042  1.00  0.00     0.116 C 
ENDROOT
BRANCH   1   2
ATOM      2  N   UNL A   1      33.505  22.892  23.606  1.00  0.00    -0.356 N 
ATOM      3  C   UNL A   1      33.299  23.764  22.563  1.00  0.00     0.229 C 
ATOM      4  O   UNL A   1      33.524  23.381  21.415  1.00  0.00    -0.274 OA
ATOM      5  H   UNL A   1      33.762  21.979  23.348  1.00  0.00     0.163 HD
BRANCH   3   6
ATOM      6  C   UNL A   1      32.779  25.174  22.867  1.00  0.00     0.077 C 
ATOM      7  C   UNL A   1      32.717  25.921  21.514  1.00  0.00     0.025 C 
ATOM      8  C   UNL A   1      33.732  25.774  23.931  1.00  0.00     0.025 C 
BRANCH   6   9
ATOM      9  C   UNL A   1      31.347  25.115  23.480  1.00  0.00     0.245 C 
BRANCH   9  10
ATOM     10  O   UNL A   1      31.167  26.009  24.615  1.00  0.00    -0.492 OA
BRANCH  10  11
ATOM     11  C   UNL A   1      30.657  27.250  24.323  1.00  0.00     0.122 A 
ATOM     12  C   UNL A   1      31.244  28.424  24.862  1.00  0.00    -0.003 A 
ATOM     13  C   UNL A   1      30.751  29.650  24.349  1.00  0.00     0.008 A 
ATOM     14  C   UNL A   1      29.744  29.716  23.379  1.00  0.00     0.001 A 
ATOM     15  C   UNL A   1      29.568  27.332  23.432  1.00  0.00     0.047 A 
ATOM     16  C   UNL A   1      29.133  28.556  22.938  1.00  0.00     0.004 A 
BRANCH  12  17
ATOM     17  C   UNL A   1      32.329  28.483  25.973  1.00  0.00     0.019 C 
ATOM     18  C   UNL A   1      31.726  28.302  27.389  1.00  0.00     0.013 C 
BRANCH  17  19
ATOM     19  C   UNL A   1      33.240  29.729  26.022  1.00  0.00     0.005 C 
ATOM     20  C   UNL A   1      33.134  30.599  27.269  1.00  0.00     0.004 C 
ENDBRANCH  17  19
ENDBRANCH  12  17
ENDBRANCH  10  11
ENDBRANCH   9  10
ENDBRANCH   6   9
ENDBRANCH   3   6
ENDBRANCH   1   2
BRANCH   1  21
ATOM     21  C   UNL A   1      34.493  22.470  25.856  1.00  0.00     0.023 C 
BRANCH  21  22
ATOM     22  C   UNL A   1      35.752  22.169  25.058  1.00  0.00     0.023 C 
BRANCH  22  23
ATOM     23  C   UNL A   1      37.048  22.576  25.741  1.00  0.00     0.116 C 
BRANCH  23  24
ATOM     24  N   UNL A   1      38.016  21.491  25.842  1.00  0.00    -0.352 N 
ATOM     25  C   UNL A   1      39.325  21.575  26.268  1.00  0.00     0.251 C 
ATOM     26  H   UNL A   1      37.699  20.596  25.577  1.00  0.00     0.163 HD
ATOM     27  O   UNL A   1      40.077  20.617  26.210  1.00  0.00    -0.269 OA
BRANCH  25  28
ATOM     28  C   UNL A   1      39.793  22.884  26.765  1.00  0.00     0.039 A 
ATOM     29  C   UNL A   1      40.750  22.922  27.778  1.00  0.00     0.014 A 
ATOM     30  C   UNL A   1      39.385  24.051  26.111  1.00  0.00     0.014 A 
ATOM     31  C   UNL A   1      41.357  24.138  28.094  1.00  0.00     0.010 A 
ATOM     32  C   UNL A   1      40.055  25.239  26.367  1.00  0.00     0.010 A 
ATOM     33  C   UNL A   1      41.041  25.297  27.364  1.00  0.00    -0.014 A 
BRANCH  33  34
ATOM     34  C   UNL A   1      41.729  26.587  27.624  1.00  0.00     0.031 A 
ATOM     35  C   UNL A   1      43.153  26.774  27.179  1.00  0.00     0.074 A 
ATOM     36  C   UNL A   1      41.111  27.546  28.341  1.00  0.00     0.049 A 
ATOM     37  N   UNL A   1      43.946  27.796  27.362  1.00  0.00    -0.248 NA
ATOM     38  C   UNL A   1      43.782  25.648  26.467  1.00  0.00     0.031 C 
ATOM     39  C   UNL A   1      39.763  27.446  28.908  1.00  0.00     0.029 A 
ATOM     40  N   UNL A   1      41.544  28.786  28.738  1.00  0.00    -0.354 N 
ATOM     41  C   UNL A   1      45.173  27.422  26.827  1.00  0.00     0.074 A 
ATOM     42  C   UNL A   1      45.033  26.064  26.355  1.00  0.00     0.031 C 
ATOM     43  C   UNL A   1      39.479  28.581  29.568  1.00  0.00     0.029 A 
ATOM     44  C   UNL A   1      40.628  29.478  29.494  1.00  0.00     0.049 A 
ATOM     45  H   UNL A   1      42.430  29.146  28.502  1.00  0.00     0.167 HD
ATOM     46  C   UNL A   1      46.304  28.155  26.704  1.00  0.00     0.034 A 
ATOM     47  C   UNL A   1      40.705  30.698  30.060  1.00  0.00     0.034 A 
ATOM     48  C   UNL A   1      46.419  29.525  27.122  1.00  0.00     0.049 A 
ATOM     49  C   UNL A   1      41.952  31.517  29.859  1.00  0.00     0.074 A 
ATOM     50  C   UNL A   1      47.483  30.391  26.952  1.00  0.00     0.029 A 
ATOM     51  N   UNL A   1      45.434  30.228  27.801  1.00  0.00    -0.354 N 
ATOM     52  N   UNL A   1      43.042  31.211  29.198  1.00  0.00    -0.248 NA
ATOM     53  C   UNL A   1      41.965  32.865  30.447  1.00  0.00     0.031 C 
ATOM     54  C   UNL A   1      47.148  31.615  27.541  1.00  0.00     0.029 A 
ATOM     55  C   UNL A   1      45.867  31.516  28.062  1.00  0.00     0.049 A 
ATOM     56  H   UNL A   1      44.556  29.864  28.057  1.00  0.00     0.167 HD
ATOM     57  C   UNL A   1      43.856  32.336  29.260  1.00  0.00     0.074 A 
ATOM     58  C   UNL A   1      43.123  33.339  30.007  1.00  0.00     0.031 C 
ATOM     59  C   UNL A   1      45.102  32.519  28.759  1.00  0.00     0.034 A 
BRANCH  46  60
ATOM     60  C   UNL A   1      47.483  27.503  26.031  1.00  0.00     0.023 A 
ATOM     61  C   UNL A   1      48.334  26.665  26.782  1.00  0.00     0.012 A 
ATOM     62  C   UNL A   1      47.734  27.691  24.659  1.00  0.00     0.148 A 
ATOM     63  C   UNL A   1      49.441  26.061  26.189  1.00  0.00     0.002 A 
ATOM     64  C   UNL A   1      48.814  27.047  24.064  1.00  0.00     0.091 A 
ATOM     65  F   UNL A   1      46.931  28.511  23.966  1.00  0.00    -0.205 F 
ATOM     66  C   UNL A   1      49.675  26.244  24.830  1.00  0.00     0.022 A 
BRANCH  64  67
ATOM     67  S   UNL A   1      49.151  27.157  22.304  1.00  0.00     0.127 S 
ATOM     68  O   UNL A   1      48.601  28.472  21.980  1.00  0.00    -0.237 OA
ATOM     69  O   UNL A   1      50.613  27.082  22.264  1.00  0.00    -0.237 OA
ATOM     70  O   UNL A   1      48.472  26.022  21.696  1.00  0.00    -0.744 OA
ENDBRANCH  64  67
ENDBRANCH  46  60
BRANCH  47  71
ATOM     71  C   UNL A   1      39.532  31.251  30.795  1.00  0.00     0.023 A 
ATOM     72  C   UNL A   1      38.422  31.718  30.064  1.00  0.00     0.012 A 
ATOM     73  C   UNL A   1      39.489  31.283  32.202  1.00  0.00     0.148 A 
ATOM     74  C   UNL A   1      37.301  32.231  30.719  1.00  0.00     0.002 A 
ATOM     75  C   UNL A   1      38.350  31.746  32.849  1.00  0.00     0.091 A 
ATOM     76  F   UNL A   1      40.560  30.843  32.879  1.00  0.00    -0.205 F 
ATOM     77  C   UNL A   1      37.261  32.236  32.110  1.00  0.00     0.022 A 
BRANCH  75  78
ATOM     78  S   UNL A   1      38.154  31.670  34.634  1.00  0.00     0.127 S 
ATOM     79  O   UNL A   1      38.243  30.234  34.884  1.00  0.00    -0.237 OA
ATOM     80  O   UNL A   1      39.304  32.448  35.096  1.00  0.00    -0.237 OA
ATOM     81  O   UNL A   1      36.863  32.283  34.914  1.00  0.00    -0.744 OA
ENDBRANCH  75  78
ENDBRANCH  47  71
BRANCH  59  82
ATOM     82  C   UNL A   1      45.751  33.862  28.969  1.00  0.00     0.023 A 
ATOM     83  C   UNL A   1      46.645  34.046  30.040  1.00  0.00     0.012 A 
ATOM     84  C   UNL A   1      45.537  34.913  28.055  1.00  0.00     0.148 A 
ATOM     85  C   UNL A   1      47.297  35.266  30.217  1.00  0.00     0.002 A 
ATOM     86  C   UNL A   1      46.226  36.110  28.210  1.00  0.00     0.091 A 
ATOM     87  F   UNL A   1      44.666  34.724  27.053  1.00  0.00    -0.205 F 
ATOM     88  C   UNL A   1      47.098  36.292  29.296  1.00  0.00     0.022 A 
BRANCH  86  89
ATOM     89  S   UNL A   1      46.106  37.448  27.018  1.00  0.00     0.127 S 
ATOM     90  O   UNL A   1      46.792  36.878  25.860  1.00  0.00    -0.237 OA
ATOM     91  O   UNL A   1      44.658  37.594  26.859  1.00  0.00    -0.237 OA
ATOM     92  O   UNL A   1      46.762  38.593  27.634  1.00  0.00    -0.744 OA
ENDBRANCH  86  89
ENDBRANCH  59  82
ENDBRANCH  33  34
ENDBRANCH  25  28
ENDBRANCH  23  24
ENDBRANCH  22  23
ENDBRANCH  21  22
ENDBRANCH   1  21
TORSDOF 19
ENDMDL
