MODEL 1
REMARK VINA RESULT:     -12.3      0.000      0.000
REMARK SMILES O=C(NCCCCNC(=O)[C@]1(CCc2ccccc2)C[C@H]2CC[C@@H]1O2)c1ccc(-c2c3nc(c(-c4cccc(S(=O)(=O)[O-])c4F)c4ccc([nH]4)c(-c4cccc(S(=O)(=O)[O-])c4F)c4nc(c(-c5cccc(S(=O)(=O)[O-])c5F)c5ccc2[nH]5)C=C4)C=C3)cc1
REMARK SMILES IDX 5 1 4 2 3 3 1 4 2 5 26 7 27 8 88 9 28 10 87 11 29 12 30 13
REMARK SMILES IDX 31 14 81 15 32 16 86 17 80 18 82 19 33 20 85 21 79 22 78 23
REMARK SMILES IDX 34 25 66 26 46 27 65 28 47 29 50 30 64 31 83 32 48 33 49 34
REMARK SMILES IDX 63 36 84 37 51 38 35 39 36 40 44 41 37 42 39 43 45 44 38 45
REMARK SMILES IDX 40 46 41 47 42 48 43 49 67 50 68 51 76 52 69 53 71 54 77 55
REMARK SMILES IDX 70 56 72 57 73 58 74 59 75 60 52 61 53 62 61 63 54 64 56 65
REMARK SMILES IDX 62 66 55 67 57 68 58 69 59 70 60 71 6 72 7 73 8 74 9 75
REMARK SMILES IDX 10 77 11 78 20 79 24 80 21 81 23 82 25 83 22 84 12 85 13 86
REMARK SMILES IDX 14 87 15 88 19 89 16 90 18 91 17 92
REMARK H PARENT 3 6 82 24 50 35 8 76
REMARK Flexibility Score: inf
ROOT
ATOM      1  C   UNL A   1      37.600  19.621  25.033  1.00  0.00     0.023 C 
ENDROOT
BRANCH   1   2
ATOM      2  C   UNL A   1      38.834  20.222  25.694  1.00  0.00     0.116 C 
BRANCH   2   3
ATOM      3  N   UNL A   1      39.922  19.266  25.835  1.00  0.00    -0.352 N 
ATOM      4  O   UNL A   1      42.063  18.612  26.100  1.00  0.00    -0.269 OA
ATOM      5  C   UNL A   1      41.236  19.516  26.140  1.00  0.00     0.251 C 
ATOM      6  H   UNL A   1      39.685  18.321  25.695  1.00  0.00     0.163 HD
BRANCH   5   7
ATOM      7  C   UNL A   1      41.634  20.894  26.482  1.00  0.00     0.039 A 
ATOM      8  C   UNL A   1      41.700  21.294  27.820  1.00  0.00     0.014 A 
ATOM      9  C   UNL A   1      41.916  21.795  25.453  1.00  0.00     0.014 A 
ATOM     10  C   UNL A   1      41.950  22.626  28.128  1.00  0.00     0.010 A 
ATOM     11  C   UNL A   1      42.233  23.116  25.767  1.00  0.00     0.010 A 
ATOM     12  C   UNL A   1      42.236  23.544  27.105  1.00  0.00    -0.014 A 
BRANCH  12  13
ATOM     13  C   UNL A   1      42.655  24.921  27.454  1.00  0.00     0.031 A 
ATOM     14  C   UNL A   1      41.698  25.894  28.078  1.00  0.00     0.074 A 
ATOM     15  C   UNL A   1      43.913  25.293  27.148  1.00  0.00     0.049 A 
ATOM     16  N   UNL A   1      41.906  27.141  28.414  1.00  0.00    -0.248 NA
ATOM     17  C   UNL A   1      40.334  25.417  28.355  1.00  0.00     0.031 C 
ATOM     18  C   UNL A   1      44.903  24.437  26.487  1.00  0.00     0.029 A 
ATOM     19  N   UNL A   1      44.568  26.484  27.325  1.00  0.00    -0.354 N 
ATOM     20  C   UNL A   1      40.692  27.613  28.897  1.00  0.00     0.074 A 
ATOM     21  C   UNL A   1      39.751  26.516  28.820  1.00  0.00     0.031 C 
ATOM     22  C   UNL A   1      46.036  25.130  26.311  1.00  0.00     0.029 A 
ATOM     23  C   UNL A   1      45.839  26.489  26.799  1.00  0.00     0.049 A 
ATOM     24  H   UNL A   1      44.168  27.258  27.782  1.00  0.00     0.167 HD
ATOM     25  C   UNL A   1      40.400  28.847  29.371  1.00  0.00     0.034 A 
ATOM     26  C   UNL A   1      46.736  27.486  26.692  1.00  0.00     0.034 A 
ATOM     27  C   UNL A   1      41.360  29.913  29.487  1.00  0.00     0.049 A 
ATOM     28  C   UNL A   1      46.387  28.835  27.246  1.00  0.00     0.074 A 
ATOM     29  C   UNL A   1      41.196  31.158  30.070  1.00  0.00     0.029 A 
ATOM     30  N   UNL A   1      42.656  29.869  28.995  1.00  0.00    -0.354 N 
ATOM     31  N   UNL A   1      45.292  29.210  27.865  1.00  0.00    -0.248 NA
ATOM     32  C   UNL A   1      47.397  29.892  27.110  1.00  0.00     0.031 C 
ATOM     33  C   UNL A   1      42.385  31.876  29.906  1.00  0.00     0.029 A 
ATOM     34  C   UNL A   1      43.293  31.075  29.234  1.00  0.00     0.049 A 
ATOM     35  H   UNL A   1      43.063  29.095  28.544  1.00  0.00     0.167 HD
ATOM     36  C   UNL A   1      45.485  30.543  28.203  1.00  0.00     0.074 A 
ATOM     37  C   UNL A   1      46.816  30.900  27.749  1.00  0.00     0.031 C 
ATOM     38  C   UNL A   1      44.631  31.400  28.810  1.00  0.00     0.034 A 
BRANCH  25  39
ATOM     39  C   UNL A   1      38.997  29.117  29.845  1.00  0.00     0.023 A 
ATOM     40  C   UNL A   1      38.632  28.772  31.162  1.00  0.00     0.012 A 
ATOM     41  C   UNL A   1      38.079  29.807  29.029  1.00  0.00     0.148 A 
ATOM     42  C   UNL A   1      37.368  29.097  31.655  1.00  0.00     0.002 A 
ATOM     43  C   UNL A   1      36.834  30.157  29.539  1.00  0.00     0.091 A 
ATOM     44  F   UNL A   1      38.441  30.108  27.774  1.00  0.00    -0.205 F 
ATOM     45  C   UNL A   1      36.475  29.800  30.848  1.00  0.00     0.022 A 
BRANCH  43  46
ATOM     46  S   UNL A   1      35.640  31.122  28.603  1.00  0.00     0.127 S 
ATOM     47  O   UNL A   1      34.790  31.652  29.669  1.00  0.00    -0.237 OA
ATOM     48  O   UNL A   1      36.491  32.118  27.951  1.00  0.00    -0.237 OA
ATOM     49  O   UNL A   1      34.992  30.187  27.694  1.00  0.00    -0.744 OA
ENDBRANCH  43  46
ENDBRANCH  25  39
BRANCH  26  50
ATOM     50  C   UNL A   1      48.055  27.221  26.054  1.00  0.00     0.023 A 
ATOM     51  C   UNL A   1      49.094  26.656  26.817  1.00  0.00     0.012 A 
ATOM     52  C   UNL A   1      48.263  27.463  24.682  1.00  0.00     0.148 A 
ATOM     53  C   UNL A   1      50.322  26.355  26.228  1.00  0.00     0.002 A 
ATOM     54  C   UNL A   1      49.468  27.105  24.090  1.00  0.00     0.091 A 
ATOM     55  F   UNL A   1      47.271  28.022  23.974  1.00  0.00    -0.205 F 
ATOM     56  C   UNL A   1      50.504  26.564  24.864  1.00  0.00     0.022 A 
BRANCH  54  57
ATOM     57  S   UNL A   1      49.707  27.204  22.312  1.00  0.00     0.127 S 
ATOM     58  O   UNL A   1      49.449  28.617  22.051  1.00  0.00    -0.237 OA
ATOM     59  O   UNL A   1      51.106  26.796  22.162  1.00  0.00    -0.237 OA
ATOM     60  O   UNL A   1      48.752  26.260  21.748  1.00  0.00    -0.744 OA
ENDBRANCH  54  57
ENDBRANCH  26  50
BRANCH  38  61
ATOM     61  C   UNL A   1      45.102  32.814  29.016  1.00  0.00     0.023 A 
ATOM     62  C   UNL A   1      45.798  33.141  30.196  1.00  0.00     0.012 A 
ATOM     63  C   UNL A   1      44.922  33.792  28.020  1.00  0.00     0.148 A 
ATOM     64  C   UNL A   1      46.289  34.431  30.392  1.00  0.00     0.002 A 
ATOM     65  C   UNL A   1      45.451  35.063  28.204  1.00  0.00     0.091 A 
ATOM     66  F   UNL A   1      44.238  33.462  26.915  1.00  0.00    -0.205 F 
ATOM     67  C   UNL A   1      46.127  35.386  29.392  1.00  0.00     0.022 A 
BRANCH  65  68
ATOM     68  S   UNL A   1      45.366  36.334  26.936  1.00  0.00     0.127 S 
ATOM     69  O   UNL A   1      46.174  37.399  27.530  1.00  0.00    -0.237 OA
ATOM     70  O   UNL A   1      45.982  35.669  25.788  1.00  0.00    -0.237 OA
ATOM     71  O   UNL A   1      43.953  36.640  26.771  1.00  0.00    -0.744 OA
ENDBRANCH  65  68
ENDBRANCH  38  61
ENDBRANCH  12  13
ENDBRANCH   5   7
ENDBRANCH   2   3
ENDBRANCH   1   2
BRANCH   1  72
ATOM     72  C   UNL A   1      36.493  20.626  24.708  1.00  0.00     0.023 C 
BRANCH  72  73
ATOM     73  C   UNL A   1      36.276  21.687  25.786  1.00  0.00     0.116 C 
BRANCH  73  74
ATOM     74  N   UNL A   1      35.188  21.310  26.667  1.00  0.00    -0.356 N 
ATOM     75  C   UNL A   1      33.946  21.850  26.745  1.00  0.00     0.228 C 
ATOM     76  H   UNL A   1      35.375  20.569  27.288  1.00  0.00     0.163 HD
ATOM     77  O   UNL A   1      33.536  22.115  27.883  1.00  0.00    -0.274 OA
BRANCH  75  78
ATOM     78  C   UNL A   1      33.053  22.149  25.523  1.00  0.00     0.078 C 
ATOM     79  C   UNL A   1      33.684  22.715  24.238  1.00  0.00     0.051 C 
ATOM     80  C   UNL A   1      32.180  23.347  25.974  1.00  0.00     0.134 C 
ATOM     81  C   UNL A   1      33.207  24.177  24.250  1.00  0.00     0.120 C 
ATOM     82  C   UNL A   1      31.022  23.692  25.036  1.00  0.00     0.036 C 
ATOM     83  O   UNL A   1      33.071  24.456  25.659  1.00  0.00    -0.374 OA
ATOM     84  C   UNL A   1      31.747  24.265  23.817  1.00  0.00     0.035 C 
BRANCH  78  85
ATOM     85  C   UNL A   1      32.255  20.847  25.213  1.00  0.00     0.024 C 
BRANCH  85  86
ATOM     86  C   UNL A   1      32.792  19.984  24.044  1.00  0.00     0.037 C 
BRANCH  86  87
ATOM     87  C   UNL A   1      33.075  18.530  24.331  1.00  0.00    -0.048 A 
ATOM     88  C   UNL A   1      33.743  17.734  23.389  1.00  0.00     0.004 A 
ATOM     89  C   UNL A   1      32.670  17.942  25.537  1.00  0.00     0.004 A 
ATOM     90  C   UNL A   1      34.032  16.395  23.666  1.00  0.00     0.000 A 
ATOM     91  C   UNL A   1      32.973  16.609  25.819  1.00  0.00     0.000 A 
ATOM     92  C   UNL A   1      33.657  15.835  24.885  1.00  0.00     0.000 A 
ENDBRANCH  86  87
ENDBRANCH  85  86
ENDBRANCH  78  85
ENDBRANCH  75  78
ENDBRANCH  73  74
ENDBRANCH  72  73
ENDBRANCH   1  72
TORSDOF 17
ENDMDL
MODEL 2
REMARK VINA RESULT:     -12.2      6.019     11.178
REMARK SMILES O=C(NCCCCNC(=O)[C@]1(CCc2ccccc2)C[C@H]2CC[C@@H]1O2)c1ccc(-c2c3nc(c(-c4cccc(S(=O)(=O)[O-])c4F)c4ccc([nH]4)c(-c4cccc(S(=O)(=O)[O-])c4F)c4nc(c(-c5cccc(S(=O)(=O)[O-])c5F)c5ccc2[nH]5)C=C4)C=C3)cc1
REMARK SMILES IDX 5 1 4 2 3 3 1 4 2 5 26 7 27 8 88 9 28 10 87 11 29 12 30 13
REMARK SMILES IDX 31 14 81 15 32 16 86 17 80 18 82 19 33 20 85 21 79 22 78 23
REMARK SMILES IDX 34 25 66 26 46 27 65 28 47 29 50 30 64 31 83 32 48 33 49 34
REMARK SMILES IDX 63 36 84 37 51 38 35 39 36 40 44 41 37 42 39 43 45 44 38 45
REMARK SMILES IDX 40 46 41 47 42 48 43 49 67 50 68 51 76 52 69 53 71 54 77 55
REMARK SMILES IDX 70 56 72 57 73 58 74 59 75 60 52 61 53 62 61 63 54 64 56 65
REMARK SMILES IDX 62 66 55 67 57 68 58 69 59 70 60 71 6 72 7 73 8 74 9 75
REMARK SMILES IDX 10 77 11 78 20 79 24 80 21 81 23 82 25 83 22 84 12 85 13 86
REMARK SMILES IDX 14 87 15 88 19 89 16 90 18 91 17 92
REMARK H PARENT 3 6 82 24 50 35 8 76
REMARK Flexibility Score: inf
ROOT
ATOM      1  C   UNL A   1      31.401  31.751  26.405  1.00  0.00     0.023 C 
ENDROOT
BRANCH   1   2
ATOM      2  C   UNL A   1      32.677  32.338  26.996  1.00  0.00     0.116 C 
BRANCH   2   3
ATOM      3  N   UNL A   1      32.511  33.709  27.452  1.00  0.00    -0.352 N 
ATOM      4  O   UNL A   1      32.896  35.500  28.767  1.00  0.00    -0.269 OA
ATOM      5  C   UNL A   1      33.239  34.380  28.402  1.00  0.00     0.251 C 
ATOM      6  H   UNL A   1      31.786  34.220  27.025  1.00  0.00     0.163 HD
BRANCH   5   7
ATOM      7  C   UNL A   1      34.415  33.717  28.992  1.00  0.00     0.039 A 
ATOM      8  C   UNL A   1      35.704  34.155  28.670  1.00  0.00     0.014 A 
ATOM      9  C   UNL A   1      34.224  32.634  29.852  1.00  0.00     0.014 A 
ATOM     10  C   UNL A   1      36.806  33.445  29.129  1.00  0.00     0.010 A 
ATOM     11  C   UNL A   1      35.333  31.963  30.365  1.00  0.00     0.010 A 
ATOM     12  C   UNL A   1      36.631  32.353  29.994  1.00  0.00    -0.014 A 
BRANCH  12  13
ATOM     13  C   UNL A   1      37.815  31.703  30.601  1.00  0.00     0.031 A 
ATOM     14  C   UNL A   1      38.590  30.648  29.867  1.00  0.00     0.074 A 
ATOM     15  C   UNL A   1      38.150  32.052  31.859  1.00  0.00     0.049 A 
ATOM     16  N   UNL A   1      39.629  29.967  30.273  1.00  0.00    -0.248 NA
ATOM     17  C   UNL A   1      38.142  30.306  28.507  1.00  0.00     0.031 C 
ATOM     18  C   UNL A   1      37.425  33.026  32.680  1.00  0.00     0.029 A 
ATOM     19  N   UNL A   1      39.160  31.616  32.675  1.00  0.00    -0.354 N 
ATOM     20  C   UNL A   1      39.933  29.084  29.246  1.00  0.00     0.074 A 
ATOM     21  C   UNL A   1      38.973  29.320  28.188  1.00  0.00     0.031 C 
ATOM     22  C   UNL A   1      38.010  33.111  33.882  1.00  0.00     0.029 A 
ATOM     23  C   UNL A   1      39.117  32.165  33.935  1.00  0.00     0.049 A 
ATOM     24  H   UNL A   1      39.848  30.973  32.388  1.00  0.00     0.167 HD
ATOM     25  C   UNL A   1      40.931  28.171  29.191  1.00  0.00     0.034 A 
ATOM     26  C   UNL A   1      39.867  31.913  35.025  1.00  0.00     0.034 A 
ATOM     27  C   UNL A   1      41.908  27.983  30.230  1.00  0.00     0.049 A 
ATOM     28  C   UNL A   1      40.976  30.910  34.922  1.00  0.00     0.074 A 
ATOM     29  C   UNL A   1      43.030  27.173  30.219  1.00  0.00     0.029 A 
ATOM     30  N   UNL A   1      41.869  28.594  31.474  1.00  0.00    -0.354 N 
ATOM     31  N   UNL A   1      41.360  30.215  33.878  1.00  0.00    -0.248 NA
ATOM     32  C   UNL A   1      41.769  30.669  36.134  1.00  0.00     0.031 C 
ATOM     33  C   UNL A   1      43.656  27.276  31.466  1.00  0.00     0.029 A 
ATOM     34  C   UNL A   1      42.931  28.159  32.249  1.00  0.00     0.049 A 
ATOM     35  H   UNL A   1      41.188  29.244  31.764  1.00  0.00     0.167 HD
ATOM     36  C   UNL A   1      42.447  29.462  34.303  1.00  0.00     0.074 A 
ATOM     37  C   UNL A   1      42.681  29.812  35.690  1.00  0.00     0.031 C 
ATOM     38  C   UNL A   1      43.170  28.546  33.615  1.00  0.00     0.034 A 
BRANCH  25  39
ATOM     39  C   UNL A   1      41.057  27.324  27.953  1.00  0.00     0.023 A 
ATOM     40  C   UNL A   1      41.677  27.860  26.806  1.00  0.00     0.012 A 
ATOM     41  C   UNL A   1      40.664  25.971  27.960  1.00  0.00     0.148 A 
ATOM     42  C   UNL A   1      41.890  27.065  25.679  1.00  0.00     0.002 A 
ATOM     43  C   UNL A   1      40.911  25.177  26.845  1.00  0.00     0.091 A 
ATOM     44  F   UNL A   1      40.059  25.488  29.054  1.00  0.00    -0.205 F 
ATOM     45  C   UNL A   1      41.519  25.722  25.704  1.00  0.00     0.022 A 
BRANCH  43  46
ATOM     46  S   UNL A   1      40.533  23.420  26.804  1.00  0.00     0.127 S 
ATOM     47  O   UNL A   1      41.433  22.950  25.752  1.00  0.00    -0.237 OA
ATOM     48  O   UNL A   1      40.899  22.993  28.155  1.00  0.00    -0.237 OA
ATOM     49  O   UNL A   1      39.112  23.322  26.501  1.00  0.00    -0.744 OA
ENDBRANCH  43  46
ENDBRANCH  25  39
BRANCH  26  50
ATOM     50  C   UNL A   1      39.594  32.651  36.289  1.00  0.00     0.023 A 
ATOM     51  C   UNL A   1      40.237  33.880  36.527  1.00  0.00     0.012 A 
ATOM     52  C   UNL A   1      38.653  32.175  37.222  1.00  0.00     0.148 A 
ATOM     53  C   UNL A   1      39.961  34.611  37.682  1.00  0.00     0.002 A 
ATOM     54  C   UNL A   1      38.339  32.938  38.341  1.00  0.00     0.091 A 
ATOM     55  F   UNL A   1      38.066  30.992  36.991  1.00  0.00    -0.205 F 
ATOM     56  C   UNL A   1      39.002  34.150  38.580  1.00  0.00     0.022 A 
BRANCH  54  57
ATOM     57  S   UNL A   1      37.004  32.474  39.450  1.00  0.00     0.127 S 
ATOM     58  O   UNL A   1      35.842  32.541  38.567  1.00  0.00    -0.237 OA
ATOM     59  O   UNL A   1      37.391  31.121  39.855  1.00  0.00    -0.237 OA
ATOM     60  O   UNL A   1      37.050  33.451  40.529  1.00  0.00    -0.744 OA
ENDBRANCH  54  57
ENDBRANCH  26  50
BRANCH  38  61
ATOM     61  C   UNL A   1      44.281  27.850  34.352  1.00  0.00     0.023 A 
ATOM     62  C   UNL A   1      45.552  28.454  34.411  1.00  0.00     0.012 A 
ATOM     63  C   UNL A   1      44.052  26.644  35.042  1.00  0.00     0.148 A 
ATOM     64  C   UNL A   1      46.587  27.856  35.128  1.00  0.00     0.002 A 
ATOM     65  C   UNL A   1      45.076  26.076  35.788  1.00  0.00     0.091 A 
ATOM     66  F   UNL A   1      42.840  26.078  34.953  1.00  0.00    -0.205 F 
ATOM     67  C   UNL A   1      46.345  26.676  35.826  1.00  0.00     0.022 A 
BRANCH  65  68
ATOM     68  S   UNL A   1      44.834  24.603  36.789  1.00  0.00     0.127 S 
ATOM     69  O   UNL A   1      46.205  24.289  37.189  1.00  0.00    -0.237 OA
ATOM     70  O   UNL A   1      43.980  25.097  37.869  1.00  0.00    -0.237 OA
ATOM     71  O   UNL A   1      44.199  23.626  35.916  1.00  0.00    -0.744 OA
ENDBRANCH  65  68
ENDBRANCH  38  61
ENDBRANCH  12  13
ENDBRANCH   5   7
ENDBRANCH   2   3
ENDBRANCH   1   2
BRANCH   1  72
ATOM     72  C   UNL A   1      31.494  30.275  26.016  1.00  0.00     0.023 C 
BRANCH  72  73
ATOM     73  C   UNL A   1      32.916  29.792  25.735  1.00  0.00     0.116 C 
BRANCH  73  74
ATOM     74  N   UNL A   1      33.159  29.709  24.308  1.00  0.00    -0.356 N 
ATOM     75  C   UNL A   1      33.635  28.656  23.598  1.00  0.00     0.228 C 
ATOM     76  H   UNL A   1      32.953  30.520  23.789  1.00  0.00     0.163 HD
ATOM     77  O   UNL A   1      34.542  28.905  22.793  1.00  0.00    -0.274 OA
BRANCH  75  78
ATOM     78  C   UNL A   1      33.125  27.208  23.748  1.00  0.00     0.078 C 
ATOM     79  C   UNL A   1      33.358  26.195  22.611  1.00  0.00     0.051 C 
ATOM     80  C   UNL A   1      31.582  27.342  23.709  1.00  0.00     0.134 C 
ATOM     81  C   UNL A   1      31.951  26.042  22.010  1.00  0.00     0.120 C 
ATOM     82  C   UNL A   1      30.813  26.077  24.091  1.00  0.00     0.036 C 
ATOM     83  O   UNL A   1      31.352  27.328  22.271  1.00  0.00    -0.374 OA
ATOM     84  C   UNL A   1      31.083  25.156  22.899  1.00  0.00     0.035 C 
BRANCH  78  85
ATOM     85  C   UNL A   1      33.694  26.662  25.092  1.00  0.00     0.024 C 
BRANCH  85  86
ATOM     86  C   UNL A   1      34.390  25.280  25.023  1.00  0.00     0.037 C 
BRANCH  86  87
ATOM     87  C   UNL A   1      33.932  24.226  26.001  1.00  0.00    -0.048 A 
ATOM     88  C   UNL A   1      32.581  24.130  26.365  1.00  0.00     0.004 A 
ATOM     89  C   UNL A   1      34.844  23.329  26.573  1.00  0.00     0.004 A 
ATOM     90  C   UNL A   1      32.150  23.135  27.246  1.00  0.00     0.000 A 
ATOM     91  C   UNL A   1      34.411  22.326  27.442  1.00  0.00     0.000 A 
ATOM     92  C   UNL A   1      33.063  22.227  27.777  1.00  0.00     0.000 A 
ENDBRANCH  86  87
ENDBRANCH  85  86
ENDBRANCH  78  85
ENDBRANCH  75  78
ENDBRANCH  73  74
ENDBRANCH  72  73
ENDBRANCH   1  72
TORSDOF 17
ENDMDL
MODEL 3
REMARK VINA RESULT:     -12.2      6.732     11.966
REMARK SMILES O=C(NCCCCNC(=O)[C@]1(CCc2ccccc2)C[C@H]2CC[C@@H]1O2)c1ccc(-c2c3nc(c(-c4cccc(S(=O)(=O)[O-])c4F)c4ccc([nH]4)c(-c4cccc(S(=O)(=O)[O-])c4F)c4nc(c(-c5cccc(S(=O)(=O)[O-])c5F)c5ccc2[nH]5)C=C4)C=C3)cc1
REMARK SMILES IDX 5 1 4 2 3 3 1 4 2 5 26 7 27 8 88 9 28 10 87 11 29 12 30 13
REMARK SMILES IDX 31 14 81 15 32 16 86 17 80 18 82 19 33 20 85 21 79 22 78 23
REMARK SMILES IDX 34 25 66 26 46 27 65 28 47 29 50 30 64 31 83 32 48 33 49 34
REMARK SMILES IDX 63 36 84 37 51 38 35 39 36 40 44 41 37 42 39 43 45 44 38 45
REMARK SMILES IDX 40 46 41 47 42 48 43 49 67 50 68 51 76 52 69 53 71 54 77 55
REMARK SMILES IDX 70 56 72 57 73 58 74 59 75 60 52 61 53 62 61 63 54 64 56 65
REMARK SMILES IDX 62 66 55 67 57 68 58 69 59 70 60 71 6 72 7 73 8 74 9 75
REMARK SMILES IDX 10 77 11 78 20 79 24 80 21 81 23 82 25 83 22 84 12 85 13 86
REMARK SMILES IDX 14 87 15 88 19 89 16 90 18 91 17 92
REMARK H PARENT 3 6 82 24 50 35 8 76
REMARK Flexibility Score: inf
ROOT
ATOM      1  C   UNL A   1      31.648  31.671  26.687  1.00  0.00     0.023 C 
ENDROOT
BRANCH   1   2
ATOM      2  C   UNL A   1      32.886  32.442  27.127  1.00  0.00     0.116 C 
BRANCH   2   3
ATOM      3  N   UNL A   1      32.577  33.779  27.611  1.00  0.00    -0.352 N 
ATOM      4  O   UNL A   1      32.720  35.545  29.006  1.00  0.00    -0.269 OA
ATOM      5  C   UNL A   1      33.178  34.470  28.633  1.00  0.00     0.251 C 
ATOM      6  H   UNL A   1      31.846  34.246  27.147  1.00  0.00     0.163 HD
BRANCH   5   7
ATOM      7  C   UNL A   1      34.359  33.880  29.289  1.00  0.00     0.039 A 
ATOM      8  C   UNL A   1      34.198  32.946  30.317  1.00  0.00     0.014 A 
ATOM      9  C   UNL A   1      35.633  34.286  28.888  1.00  0.00     0.014 A 
ATOM     10  C   UNL A   1      35.310  32.492  31.015  1.00  0.00     0.010 A 
ATOM     11  C   UNL A   1      36.753  33.778  29.545  1.00  0.00     0.010 A 
ATOM     12  C   UNL A   1      36.598  32.891  30.623  1.00  0.00    -0.014 A 
BRANCH  12  13
ATOM     13  C   UNL A   1      37.781  32.280  31.271  1.00  0.00     0.031 A 
ATOM     14  C   UNL A   1      38.518  31.138  30.634  1.00  0.00     0.074 A 
ATOM     15  C   UNL A   1      38.148  32.747  32.480  1.00  0.00     0.049 A 
ATOM     16  N   UNL A   1      39.552  30.478  31.089  1.00  0.00    -0.248 NA
ATOM     17  C   UNL A   1      38.036  30.669  29.326  1.00  0.00     0.031 C 
ATOM     18  C   UNL A   1      37.461  33.815  33.211  1.00  0.00     0.029 A 
ATOM     19  N   UNL A   1      39.166  32.373  33.318  1.00  0.00    -0.354 N 
ATOM     20  C   UNL A   1      39.816  29.489  30.151  1.00  0.00     0.074 A 
ATOM     21  C   UNL A   1      38.839  29.638  29.093  1.00  0.00     0.031 C 
ATOM     22  C   UNL A   1      38.072  34.008  34.387  1.00  0.00     0.029 A 
ATOM     23  C   UNL A   1      39.161  33.049  34.516  1.00  0.00     0.049 A 
ATOM     24  H   UNL A   1      39.835  31.689  33.086  1.00  0.00     0.167 HD
ATOM     25  C   UNL A   1      40.793  28.552  30.172  1.00  0.00     0.034 A 
ATOM     26  C   UNL A   1      39.927  32.892  35.611  1.00  0.00     0.034 A 
ATOM     27  C   UNL A   1      41.788  28.449  31.207  1.00  0.00     0.049 A 
ATOM     28  C   UNL A   1      41.014  31.859  35.591  1.00  0.00     0.074 A 
ATOM     29  C   UNL A   1      42.893  27.617  31.257  1.00  0.00     0.029 A 
ATOM     30  N   UNL A   1      41.787  29.185  32.382  1.00  0.00    -0.354 N 
ATOM     31  N   UNL A   1      41.362  31.053  34.617  1.00  0.00    -0.248 NA
ATOM     32  C   UNL A   1      41.827  31.724  36.807  1.00  0.00     0.031 C 
ATOM     33  C   UNL A   1      43.546  27.832  32.475  1.00  0.00     0.029 A 
ATOM     34  C   UNL A   1      42.856  28.806  33.178  1.00  0.00     0.049 A 
ATOM     35  H   UNL A   1      41.126  29.875  32.616  1.00  0.00     0.167 HD
ATOM     36  C   UNL A   1      42.441  30.323  35.096  1.00  0.00     0.074 A 
ATOM     37  C   UNL A   1      42.711  30.807  36.436  1.00  0.00     0.031 C 
ATOM     38  C   UNL A   1      43.131  29.326  34.492  1.00  0.00     0.034 A 
BRANCH  25  39
ATOM     39  C   UNL A   1      40.877  27.581  29.025  1.00  0.00     0.023 A 
ATOM     40  C   UNL A   1      39.972  26.503  28.961  1.00  0.00     0.012 A 
ATOM     41  C   UNL A   1      41.775  27.796  27.961  1.00  0.00     0.148 A 
ATOM     42  C   UNL A   1      39.969  25.645  27.861  1.00  0.00     0.002 A 
ATOM     43  C   UNL A   1      41.743  26.957  26.853  1.00  0.00     0.091 A 
ATOM     44  F   UNL A   1      42.641  28.816  28.052  1.00  0.00    -0.205 F 
ATOM     45  C   UNL A   1      40.845  25.879  26.803  1.00  0.00     0.022 A 
BRANCH  43  46
ATOM     46  S   UNL A   1      42.783  27.216  25.410  1.00  0.00     0.127 S 
ATOM     47  O   UNL A   1      44.099  27.391  26.023  1.00  0.00    -0.237 OA
ATOM     48  O   UNL A   1      42.615  25.960  24.677  1.00  0.00    -0.237 OA
ATOM     49  O   UNL A   1      42.247  28.389  24.734  1.00  0.00    -0.744 OA
ENDBRANCH  43  46
ENDBRANCH  25  39
BRANCH  26  50
ATOM     50  C   UNL A   1      39.696  33.760  36.799  1.00  0.00     0.023 A 
ATOM     51  C   UNL A   1      40.043  35.123  36.740  1.00  0.00     0.012 A 
ATOM     52  C   UNL A   1      39.074  33.259  37.958  1.00  0.00     0.148 A 
ATOM     53  C   UNL A   1      39.792  35.965  37.822  1.00  0.00     0.002 A 
ATOM     54  C   UNL A   1      38.772  34.117  39.009  1.00  0.00     0.091 A 
ATOM     55  F   UNL A   1      38.769  31.954  38.007  1.00  0.00    -0.205 F 
ATOM     56  C   UNL A   1      39.143  35.468  38.949  1.00  0.00     0.022 A 
BRANCH  54  57
ATOM     57  S   UNL A   1      37.800  33.571  40.418  1.00  0.00     0.127 S 
ATOM     58  O   UNL A   1      36.601  33.046  39.772  1.00  0.00    -0.237 OA
ATOM     59  O   UNL A   1      38.668  32.558  41.022  1.00  0.00    -0.237 OA
ATOM     60  O   UNL A   1      37.621  34.761  41.240  1.00  0.00    -0.744 OA
ENDBRANCH  54  57
ENDBRANCH  26  50
BRANCH  38  61
ATOM     61  C   UNL A   1      44.243  28.683  35.276  1.00  0.00     0.023 A 
ATOM     62  C   UNL A   1      45.560  29.157  35.117  1.00  0.00     0.012 A 
ATOM     63  C   UNL A   1      43.977  27.668  36.215  1.00  0.00     0.148 A 
ATOM     64  C   UNL A   1      46.602  28.614  35.866  1.00  0.00     0.002 A 
ATOM     65  C   UNL A   1      45.014  27.161  36.988  1.00  0.00     0.091 A 
ATOM     66  F   UNL A   1      42.720  27.219  36.332  1.00  0.00    -0.205 F 
ATOM     67  C   UNL A   1      46.327  27.627  36.809  1.00  0.00     0.022 A 
BRANCH  65  68
ATOM     68  S   UNL A   1      44.743  25.949  38.286  1.00  0.00     0.127 S 
ATOM     69  O   UNL A   1      44.144  24.844  37.539  1.00  0.00    -0.237 OA
ATOM     70  O   UNL A   1      46.102  25.696  38.765  1.00  0.00    -0.237 OA
ATOM     71  O   UNL A   1      43.869  26.591  39.258  1.00  0.00    -0.744 OA
ENDBRANCH  65  68
ENDBRANCH  38  61
ENDBRANCH  12  13
ENDBRANCH   5   7
ENDBRANCH   2   3
ENDBRANCH   1   2
BRANCH   1  72
ATOM     72  C   UNL A   1      31.790  30.149  26.736  1.00  0.00     0.023 C 
BRANCH  72  73
ATOM     73  C   UNL A   1      33.063  29.619  26.077  1.00  0.00     0.116 C 
BRANCH  73  74
ATOM     74  N   UNL A   1      32.993  29.757  24.635  1.00  0.00    -0.356 N 
ATOM     75  C   UNL A   1      33.018  28.778  23.696  1.00  0.00     0.228 C 
ATOM     76  H   UNL A   1      32.919  30.678  24.295  1.00  0.00     0.163 HD
ATOM     77  O   UNL A   1      33.784  28.957  22.741  1.00  0.00    -0.274 OA
BRANCH  75  78
ATOM     78  C   UNL A   1      32.172  27.490  23.765  1.00  0.00     0.078 C 
ATOM     79  C   UNL A   1      32.481  26.431  24.840  1.00  0.00     0.051 C 
ATOM     80  C   UNL A   1      32.550  26.717  22.477  1.00  0.00     0.134 C 
ATOM     81  C   UNL A   1      33.129  25.304  24.020  1.00  0.00     0.120 C 
ATOM     82  C   UNL A   1      31.665  25.509  22.164  1.00  0.00     0.036 C 
ATOM     83  O   UNL A   1      33.745  26.018  22.929  1.00  0.00    -0.374 OA
ATOM     84  C   UNL A   1      32.064  24.518  23.260  1.00  0.00     0.035 C 
BRANCH  78  85
ATOM     85  C   UNL A   1      30.679  27.929  23.843  1.00  0.00     0.024 C 
BRANCH  85  86
ATOM     86  C   UNL A   1      30.064  28.478  22.532  1.00  0.00     0.037 C 
BRANCH  86  87
ATOM     87  C   UNL A   1      29.469  29.863  22.574  1.00  0.00    -0.048 A 
ATOM     88  C   UNL A   1      29.461  30.600  23.768  1.00  0.00     0.004 A 
ATOM     89  C   UNL A   1      28.904  30.441  21.428  1.00  0.00     0.004 A 
ATOM     90  C   UNL A   1      28.938  31.895  23.802  1.00  0.00     0.000 A 
ATOM     91  C   UNL A   1      28.396  31.740  21.459  1.00  0.00     0.000 A 
ATOM     92  C   UNL A   1      28.414  32.469  22.645  1.00  0.00     0.000 A 
ENDBRANCH  86  87
ENDBRANCH  85  86
ENDBRANCH  78  85
ENDBRANCH  75  78
ENDBRANCH  73  74
ENDBRANCH  72  73
ENDBRANCH   1  72
TORSDOF 17
ENDMDL
