MODEL 1
REMARK VINA RESULT:     -11.9      0.000      0.000
REMARK SMILES COCC[N@H+]1C[C@@H]2CN(c3nc(CO)cs3)C[C@]2(C(=O)NCCCCNC(=O)c2ccc(-c3c4nc(c(-c5cccc(S(=O)(=O)[O-])c5F)c5ccc([nH]5)c(-c5cccc(S(=O)(=O)[O-])c5F)c5nc(c(-c6cccc(S(=O)(=O)[O-])c6F)c6ccc3[nH]6)C=C5)C=C4)cc2)C1
REMARK SMILES IDX 23 1 22 2 21 3 19 4 20 5 18 7 5 8 6 9 92 10 7 12 8 13 17 14
REMARK SMILES IDX 9 15 4 16 3 17 2 18 1 19 10 20 11 21 16 22 12 23 15 24 13 25
REMARK SMILES IDX 14 26 24 28 25 29 26 30 27 31 28 33 29 34 30 35 91 36 31 37
REMARK SMILES IDX 90 38 32 39 33 40 34 41 84 42 35 43 89 44 83 45 85 46 36 47
REMARK SMILES IDX 88 48 82 49 81 50 37 52 69 53 49 54 68 55 50 56 53 57 67 58
REMARK SMILES IDX 86 59 51 60 52 61 66 63 87 64 54 65 38 66 39 67 47 68 40 69
REMARK SMILES IDX 42 70 48 71 41 72 43 73 44 74 45 75 46 76 70 77 71 78 79 79
REMARK SMILES IDX 72 80 74 81 80 82 73 83 75 84 76 85 77 86 78 87 55 88 56 89
REMARK SMILES IDX 64 90 57 91 59 92 65 93 58 94 60 95 61 96 62 97 63 98
REMARK H PARENT 21 6 5 11 14 27 26 32 85 51 53 62
REMARK Flexibility Score: inf
ROOT
ATOM      1  C   UNL A   1      34.015  28.638  25.356  1.00  0.00     0.023 C 
ENDROOT
BRANCH   1   2
ATOM      2  C   UNL A   1      33.803  27.184  24.936  1.00  0.00     0.116 C 
BRANCH   2   3
ATOM      3  N   UNL A   1      33.911  27.073  23.499  1.00  0.00    -0.355 N 
ATOM      4  C   UNL A   1      33.207  26.214  22.702  1.00  0.00     0.234 C 
ATOM      5  O   UNL A   1      33.716  25.870  21.632  1.00  0.00    -0.274 OA
ATOM      6  H   UNL A   1      34.551  27.673  23.052  1.00  0.00     0.163 HD
BRANCH   4   7
ATOM      7  C   UNL A   1      31.851  25.714  23.214  1.00  0.00     0.125 C 
ATOM      8  N   UNL A   1      30.217  27.511  23.474  1.00  0.00    -0.332 N 
ATOM      9  C   UNL A   1      29.618  26.365  24.127  1.00  0.00     0.269 C 
ATOM     10  C   UNL A   1      31.159  26.964  22.467  1.00  0.00     0.281 C 
ATOM     11  H   UNL A   1      30.693  28.077  24.177  1.00  0.00     0.348 HD
ATOM     12  C   UNL A   1      30.425  25.243  23.534  1.00  0.00     0.087 C 
ATOM     13  C   UNL A   1      30.578  24.025  24.406  1.00  0.00     0.129 C 
ATOM     14  C   UNL A   1      32.177  24.234  22.651  1.00  0.00     0.142 C 
ATOM     15  N   UNL A   1      31.580  23.304  23.653  1.00  0.00    -0.346 N 
BRANCH   8  16
ATOM     16  C   UNL A   1      29.275  28.481  22.901  1.00  0.00     0.291 C 
BRANCH  16  17
ATOM     17  C   UNL A   1      29.518  29.951  23.303  1.00  0.00     0.221 C 
BRANCH  17  18
ATOM     18  O   UNL A   1      28.807  30.911  22.519  1.00  0.00    -0.379 OA
ATOM     19  C   UNL A   1      28.130  30.346  21.405  1.00  0.00     0.195 C 
ENDBRANCH  17  18
ENDBRANCH  16  17
ENDBRANCH   8  16
BRANCH  15  20
ATOM     20  C   UNL A   1      32.359  22.413  24.320  1.00  0.00     0.185 A 
ATOM     21  N   UNL A   1      32.228  21.104  24.245  1.00  0.00    -0.223 NA
ATOM     22  S   UNL A   1      33.681  22.941  25.293  1.00  0.00    -0.105 S 
ATOM     23  C   UNL A   1      33.147  20.466  25.074  1.00  0.00     0.079 A 
ATOM     24  C   UNL A   1      34.063  21.315  25.662  1.00  0.00     0.095 A 
BRANCH  23  25
ATOM     25  C   UNL A   1      33.063  18.987  25.285  1.00  0.00     0.213 C 
BRANCH  25  26
ATOM     26  O   UNL A   1      32.804  18.652  26.644  1.00  0.00    -0.390 OA
ATOM     27  H   UNL A   1      33.626  18.711  27.155  1.00  0.00     0.211 HD
ENDBRANCH  25  26
ENDBRANCH  23  25
ENDBRANCH  15  20
ENDBRANCH   4   7
ENDBRANCH   2   3
ENDBRANCH   1   2
BRANCH   1  28
ATOM     28  C   UNL A   1      32.742  29.446  25.588  1.00  0.00     0.023 C 
BRANCH  28  29
ATOM     29  C   UNL A   1      32.582  29.963  27.010  1.00  0.00     0.116 C 
BRANCH  29  30
ATOM     30  N   UNL A   1      32.615  31.418  27.094  1.00  0.00    -0.352 N 
ATOM     31  C   UNL A   1      33.586  32.231  27.632  1.00  0.00     0.251 C 
ATOM     32  H   UNL A   1      31.834  31.884  26.714  1.00  0.00     0.163 HD
ATOM     33  O   UNL A   1      33.398  33.430  27.749  1.00  0.00    -0.269 OA
BRANCH  31  34
ATOM     34  C   UNL A   1      34.848  31.611  28.083  1.00  0.00     0.039 A 
ATOM     35  C   UNL A   1      36.015  32.377  28.111  1.00  0.00     0.014 A 
ATOM     36  C   UNL A   1      34.850  30.291  28.539  1.00  0.00     0.014 A 
ATOM     37  C   UNL A   1      37.173  31.836  28.670  1.00  0.00     0.010 A 
ATOM     38  C   UNL A   1      35.975  29.790  29.179  1.00  0.00     0.010 A 
ATOM     39  C   UNL A   1      37.149  30.553  29.243  1.00  0.00    -0.014 A 
BRANCH  39  40
ATOM     40  C   UNL A   1      38.335  29.983  29.924  1.00  0.00     0.031 A 
ATOM     41  C   UNL A   1      38.721  30.472  31.293  1.00  0.00     0.074 A 
ATOM     42  C   UNL A   1      39.131  29.123  29.261  1.00  0.00     0.049 A 
ATOM     43  N   UNL A   1      39.762  30.156  32.017  1.00  0.00    -0.248 NA
ATOM     44  C   UNL A   1      37.844  31.480  31.911  1.00  0.00     0.031 C 
ATOM     45  C   UNL A   1      38.926  28.672  27.883  1.00  0.00     0.029 A 
ATOM     46  N   UNL A   1      40.294  28.505  29.644  1.00  0.00    -0.354 N 
ATOM     47  C   UNL A   1      39.690  30.957  33.150  1.00  0.00     0.074 A 
ATOM     48  C   UNL A   1      38.531  31.808  32.995  1.00  0.00     0.031 C 
ATOM     49  C   UNL A   1      39.929  27.850  27.535  1.00  0.00     0.029 A 
ATOM     50  C   UNL A   1      40.857  27.731  28.656  1.00  0.00     0.049 A 
ATOM     51  H   UNL A   1      40.688  28.607  30.540  1.00  0.00     0.167 HD
ATOM     52  C   UNL A   1      40.490  30.957  34.241  1.00  0.00     0.034 A 
ATOM     53  C   UNL A   1      41.992  27.007  28.655  1.00  0.00     0.034 A 
ATOM     54  C   UNL A   1      41.603  30.065  34.414  1.00  0.00     0.049 A 
ATOM     55  C   UNL A   1      42.816  26.946  29.911  1.00  0.00     0.074 A 
ATOM     56  C   UNL A   1      42.409  29.894  35.525  1.00  0.00     0.029 A 
ATOM     57  N   UNL A   1      42.071  29.192  33.442  1.00  0.00    -0.354 N 
ATOM     58  N   UNL A   1      42.625  27.567  31.051  1.00  0.00    -0.248 NA
ATOM     59  C   UNL A   1      43.983  26.053  29.902  1.00  0.00     0.031 C 
ATOM     60  C   UNL A   1      43.371  28.924  35.221  1.00  0.00     0.029 A 
ATOM     61  C   UNL A   1      43.156  28.482  33.925  1.00  0.00     0.049 A 
ATOM     62  H   UNL A   1      41.687  29.092  32.541  1.00  0.00     0.167 HD
ATOM     63  C   UNL A   1      43.632  27.125  31.900  1.00  0.00     0.074 A 
ATOM     64  C   UNL A   1      44.415  26.162  31.151  1.00  0.00     0.031 C 
ATOM     65  C   UNL A   1      43.896  27.495  33.178  1.00  0.00     0.034 A 
BRANCH  52  66
ATOM     66  C   UNL A   1      40.135  31.905  35.357  1.00  0.00     0.023 A 
ATOM     67  C   UNL A   1      40.854  33.112  35.494  1.00  0.00     0.012 A 
ATOM     68  C   UNL A   1      39.094  31.618  36.259  1.00  0.00     0.148 A 
ATOM     69  C   UNL A   1      40.577  33.990  36.540  1.00  0.00     0.002 A 
ATOM     70  C   UNL A   1      38.793  32.522  37.273  1.00  0.00     0.091 A 
ATOM     71  F   UNL A   1      38.436  30.455  36.134  1.00  0.00    -0.205 F 
ATOM     72  C   UNL A   1      39.542  33.700  37.423  1.00  0.00     0.022 A 
BRANCH  70  73
ATOM     73  S   UNL A   1      37.425  32.267  38.410  1.00  0.00     0.127 S 
ATOM     74  O   UNL A   1      37.917  32.928  39.617  1.00  0.00    -0.237 OA
ATOM     75  O   UNL A   1      36.327  32.965  37.739  1.00  0.00    -0.237 OA
ATOM     76  O   UNL A   1      37.253  30.824  38.501  1.00  0.00    -0.744 OA
ENDBRANCH  70  73
ENDBRANCH  52  66
BRANCH  53  77
ATOM     77  C   UNL A   1      42.353  26.217  27.445  1.00  0.00     0.023 A 
ATOM     78  C   UNL A   1      43.114  26.823  26.428  1.00  0.00     0.012 A 
ATOM     79  C   UNL A   1      42.018  24.853  27.334  1.00  0.00     0.148 A 
ATOM     80  C   UNL A   1      43.521  26.091  25.311  1.00  0.00     0.002 A 
ATOM     81  C   UNL A   1      42.471  24.116  26.246  1.00  0.00     0.091 A 
ATOM     82  F   UNL A   1      41.288  24.298  28.313  1.00  0.00    -0.205 F 
ATOM     83  C   UNL A   1      43.210  24.737  25.227  1.00  0.00     0.022 A 
BRANCH  81  84
ATOM     84  S   UNL A   1      42.241  22.339  26.119  1.00  0.00     0.127 S 
ATOM     85  O   UNL A   1      43.048  22.017  24.945  1.00  0.00    -0.237 OA
ATOM     86  O   UNL A   1      42.793  21.873  27.393  1.00  0.00    -0.237 OA
ATOM     87  O   UNL A   1      40.806  22.136  25.976  1.00  0.00    -0.744 OA
ENDBRANCH  81  84
ENDBRANCH  53  77
BRANCH  65  88
ATOM     88  C   UNL A   1      45.076  26.853  33.858  1.00  0.00     0.023 A 
ATOM     89  C   UNL A   1      46.360  27.412  33.693  1.00  0.00     0.012 A 
ATOM     90  C   UNL A   1      44.905  25.754  34.720  1.00  0.00     0.148 A 
ATOM     91  C   UNL A   1      47.459  26.867  34.355  1.00  0.00     0.002 A 
ATOM     92  C   UNL A   1      45.997  25.244  35.412  1.00  0.00     0.091 A 
ATOM     93  F   UNL A   1      43.679  25.224  34.848  1.00  0.00    -0.205 F 
ATOM     94  C   UNL A   1      47.276  25.793  35.223  1.00  0.00     0.022 A 
BRANCH  92  95
ATOM     95  S   UNL A   1      45.836  23.924  36.620  1.00  0.00     0.127 S 
ATOM     96  O   UNL A   1      45.410  22.804  35.782  1.00  0.00    -0.237 OA
ATOM     97  O   UNL A   1      47.197  23.810  37.144  1.00  0.00    -0.237 OA
ATOM     98  O   UNL A   1      44.854  24.392  37.591  1.00  0.00    -0.744 OA
ENDBRANCH  92  95
ENDBRANCH  65  88
ENDBRANCH  39  40
ENDBRANCH  31  34
ENDBRANCH  29  30
ENDBRANCH  28  29
ENDBRANCH   1  28
TORSDOF 20
ENDMDL
MODEL 2
REMARK VINA RESULT:     -11.7      2.078      4.498
REMARK SMILES COCC[N@H+]1C[C@@H]2CN(c3nc(CO)cs3)C[C@]2(C(=O)NCCCCNC(=O)c2ccc(-c3c4nc(c(-c5cccc(S(=O)(=O)[O-])c5F)c5ccc([nH]5)c(-c5cccc(S(=O)(=O)[O-])c5F)c5nc(c(-c6cccc(S(=O)(=O)[O-])c6F)c6ccc3[nH]6)C=C5)C=C4)cc2)C1
REMARK SMILES IDX 23 1 22 2 21 3 19 4 20 5 18 7 5 8 6 9 92 10 7 12 8 13 17 14
REMARK SMILES IDX 9 15 4 16 3 17 2 18 1 19 10 20 11 21 16 22 12 23 15 24 13 25
REMARK SMILES IDX 14 26 24 28 25 29 26 30 27 31 28 33 29 34 30 35 91 36 31 37
REMARK SMILES IDX 90 38 32 39 33 40 34 41 84 42 35 43 89 44 83 45 85 46 36 47
REMARK SMILES IDX 88 48 82 49 81 50 37 52 69 53 49 54 68 55 50 56 53 57 67 58
REMARK SMILES IDX 86 59 51 60 52 61 66 63 87 64 54 65 38 66 39 67 47 68 40 69
REMARK SMILES IDX 42 70 48 71 41 72 43 73 44 74 45 75 46 76 70 77 71 78 79 79
REMARK SMILES IDX 72 80 74 81 80 82 73 83 75 84 76 85 77 86 78 87 55 88 56 89
REMARK SMILES IDX 64 90 57 91 59 92 65 93 58 94 60 95 61 96 62 97 63 98
REMARK H PARENT 21 6 5 11 14 27 26 32 85 51 53 62
REMARK Flexibility Score: inf
ROOT
ATOM      1  C   UNL A   1      31.534  27.166  26.570  1.00  0.00     0.023 C 
ENDROOT
BRANCH   1   2
ATOM      2  C   UNL A   1      32.295  25.844  26.480  1.00  0.00     0.116 C 
BRANCH   2   3
ATOM      3  N   UNL A   1      31.474  24.775  27.001  1.00  0.00    -0.355 N 
ATOM      4  C   UNL A   1      30.982  23.718  26.288  1.00  0.00     0.234 C 
ATOM      5  O   UNL A   1      29.944  23.184  26.688  1.00  0.00    -0.274 OA
ATOM      6  H   UNL A   1      31.250  24.811  27.959  1.00  0.00     0.163 HD
BRANCH   4   7
ATOM      7  C   UNL A   1      31.738  23.294  25.025  1.00  0.00     0.125 C 
ATOM      8  N   UNL A   1      32.970  21.205  25.313  1.00  0.00    -0.332 N 
ATOM      9  C   UNL A   1      33.445  21.747  24.056  1.00  0.00     0.269 C 
ATOM     10  C   UNL A   1      31.611  21.763  25.514  1.00  0.00     0.281 C 
ATOM     11  H   UNL A   1      33.614  21.485  26.054  1.00  0.00     0.348 HD
ATOM     12  C   UNL A   1      32.350  22.727  23.736  1.00  0.00     0.087 C 
ATOM     13  C   UNL A   1      32.769  23.919  22.917  1.00  0.00     0.129 C 
ATOM     14  C   UNL A   1      30.726  24.170  24.117  1.00  0.00     0.142 C 
ATOM     15  N   UNL A   1      31.575  24.728  23.026  1.00  0.00    -0.346 N 
BRANCH   8  16
ATOM     16  C   UNL A   1      33.004  19.742  25.428  1.00  0.00     0.291 C 
BRANCH  16  17
ATOM     17  C   UNL A   1      33.525  18.995  24.182  1.00  0.00     0.221 C 
BRANCH  17  18
ATOM     18  O   UNL A   1      32.706  17.906  23.751  1.00  0.00    -0.379 OA
ATOM     19  C   UNL A   1      33.365  16.648  23.790  1.00  0.00     0.195 C 
ENDBRANCH  17  18
ENDBRANCH  16  17
ENDBRANCH   8  16
BRANCH  15  20
ATOM     20  C   UNL A   1      31.699  26.071  22.863  1.00  0.00     0.185 A 
ATOM     21  N   UNL A   1      30.686  26.911  22.791  1.00  0.00    -0.223 NA
ATOM     22  S   UNL A   1      33.251  26.821  22.816  1.00  0.00    -0.105 S 
ATOM     23  C   UNL A   1      31.136  28.212  22.583  1.00  0.00     0.079 A 
ATOM     24  C   UNL A   1      32.509  28.353  22.645  1.00  0.00     0.095 A 
BRANCH  23  25
ATOM     25  C   UNL A   1      30.156  29.305  22.292  1.00  0.00     0.213 C 
BRANCH  25  26
ATOM     26  O   UNL A   1      30.589  30.145  21.228  1.00  0.00    -0.390 OA
ATOM     27  H   UNL A   1      30.292  31.054  21.390  1.00  0.00     0.211 HD
ENDBRANCH  25  26
ENDBRANCH  23  25
ENDBRANCH  15  20
ENDBRANCH   4   7
ENDBRANCH   2   3
ENDBRANCH   1   2
BRANCH   1  28
ATOM     28  C   UNL A   1      32.147  28.215  27.493  1.00  0.00     0.023 C 
BRANCH  28  29
ATOM     29  C   UNL A   1      33.404  28.872  26.941  1.00  0.00     0.116 C 
BRANCH  29  30
ATOM     30  N   UNL A   1      33.477  30.298  27.235  1.00  0.00    -0.352 N 
ATOM     31  C   UNL A   1      34.467  30.996  27.888  1.00  0.00     0.251 C 
ATOM     32  H   UNL A   1      32.714  30.837  26.922  1.00  0.00     0.163 HD
ATOM     33  O   UNL A   1      34.313  32.171  28.176  1.00  0.00    -0.269 OA
BRANCH  31  34
ATOM     34  C   UNL A   1      35.707  30.280  28.251  1.00  0.00     0.039 A 
ATOM     35  C   UNL A   1      36.785  30.286  27.363  1.00  0.00     0.014 A 
ATOM     36  C   UNL A   1      35.814  29.663  29.499  1.00  0.00     0.014 A 
ATOM     37  C   UNL A   1      38.001  29.734  27.764  1.00  0.00     0.010 A 
ATOM     38  C   UNL A   1      37.049  29.201  29.930  1.00  0.00     0.010 A 
ATOM     39  C   UNL A   1      38.152  29.223  29.065  1.00  0.00    -0.014 A 
BRANCH  39  40
ATOM     40  C   UNL A   1      39.454  28.712  29.554  1.00  0.00     0.031 A 
ATOM     41  C   UNL A   1      40.174  29.430  30.661  1.00  0.00     0.074 A 
ATOM     42  C   UNL A   1      40.042  27.680  28.918  1.00  0.00     0.049 A 
ATOM     43  N   UNL A   1      41.353  29.186  31.171  1.00  0.00    -0.248 NA
ATOM     44  C   UNL A   1      39.500  30.604  31.241  1.00  0.00     0.031 C 
ATOM     45  C   UNL A   1      39.495  26.983  27.752  1.00  0.00     0.029 A 
ATOM     46  N   UNL A   1      41.247  27.064  29.139  1.00  0.00    -0.354 N 
ATOM     47  C   UNL A   1      41.580  30.198  32.095  1.00  0.00     0.074 A 
ATOM     48  C   UNL A   1      40.440  31.086  32.040  1.00  0.00     0.031 C 
ATOM     49  C   UNL A   1      40.361  26.036  27.360  1.00  0.00     0.029 A 
ATOM     50  C   UNL A   1      41.531  26.070  28.232  1.00  0.00     0.049 A 
ATOM     51  H   UNL A   1      41.850  27.310  29.876  1.00  0.00     0.167 HD
ATOM     52  C   UNL A   1      42.622  30.353  32.944  1.00  0.00     0.034 A 
ATOM     53  C   UNL A   1      42.614  25.277  28.117  1.00  0.00     0.034 A 
ATOM     54  C   UNL A   1      43.721  29.432  33.034  1.00  0.00     0.049 A 
ATOM     55  C   UNL A   1      43.717  25.403  29.130  1.00  0.00     0.074 A 
ATOM     56  C   UNL A   1      44.769  29.424  33.937  1.00  0.00     0.029 A 
ATOM     57  N   UNL A   1      43.914  28.352  32.185  1.00  0.00    -0.354 N 
ATOM     58  N   UNL A   1      43.827  26.250  30.127  1.00  0.00    -0.248 NA
ATOM     59  C   UNL A   1      44.823  24.441  29.035  1.00  0.00     0.031 C 
ATOM     60  C   UNL A   1      45.603  28.343  33.626  1.00  0.00     0.029 A 
ATOM     61  C   UNL A   1      45.067  27.671  32.539  1.00  0.00     0.049 A 
ATOM     62  H   UNL A   1      43.320  28.105  31.441  1.00  0.00     0.167 HD
ATOM     63  C   UNL A   1      44.999  25.909  30.790  1.00  0.00     0.074 A 
ATOM     64  C   UNL A   1      45.550  24.761  30.097  1.00  0.00     0.031 C 
ATOM     65  C   UNL A   1      45.577  26.504  31.863  1.00  0.00     0.034 A 
BRANCH  52  66
ATOM     66  C   UNL A   1      42.574  31.526  33.888  1.00  0.00     0.023 A 
ATOM     67  C   UNL A   1      43.116  32.764  33.480  1.00  0.00     0.012 A 
ATOM     68  C   UNL A   1      41.990  31.418  35.163  1.00  0.00     0.148 A 
ATOM     69  C   UNL A   1      43.124  33.857  34.344  1.00  0.00     0.002 A 
ATOM     70  C   UNL A   1      41.962  32.526  36.003  1.00  0.00     0.091 A 
ATOM     71  F   UNL A   1      41.504  30.229  35.549  1.00  0.00    -0.205 F 
ATOM     72  C   UNL A   1      42.540  33.741  35.601  1.00  0.00     0.022 A 
BRANCH  70  73
ATOM     73  S   UNL A   1      41.159  32.491  37.611  1.00  0.00     0.127 S 
ATOM     74  O   UNL A   1      39.848  31.940  37.274  1.00  0.00    -0.237 OA
ATOM     75  O   UNL A   1      42.022  31.586  38.372  1.00  0.00    -0.237 OA
ATOM     76  O   UNL A   1      41.166  33.868  38.084  1.00  0.00    -0.744 OA
ENDBRANCH  70  73
ENDBRANCH  52  66
BRANCH  53  77
ATOM     77  C   UNL A   1      42.647  24.239  27.050  1.00  0.00     0.023 A 
ATOM     78  C   UNL A   1      43.378  24.486  25.871  1.00  0.00     0.012 A 
ATOM     79  C   UNL A   1      42.032  22.984  27.228  1.00  0.00     0.148 A 
ATOM     80  C   UNL A   1      43.481  23.508  24.881  1.00  0.00     0.002 A 
ATOM     81  C   UNL A   1      42.182  21.997  26.261  1.00  0.00     0.091 A 
ATOM     82  F   UNL A   1      41.337  22.774  28.355  1.00  0.00    -0.205 F 
ATOM     83  C   UNL A   1      42.894  22.262  25.081  1.00  0.00     0.022 A 
BRANCH  81  84
ATOM     84  S   UNL A   1      41.583  20.319  26.492  1.00  0.00     0.127 S 
ATOM     85  O   UNL A   1      42.207  19.622  25.371  1.00  0.00    -0.237 OA
ATOM     86  O   UNL A   1      42.129  19.984  27.808  1.00  0.00    -0.237 OA
ATOM     87  O   UNL A   1      40.130  20.410  26.451  1.00  0.00    -0.744 OA
ENDBRANCH  81  84
ENDBRANCH  53  77
BRANCH  65  88
ATOM     88  C   UNL A   1      46.871  25.922  32.367  1.00  0.00     0.023 A 
ATOM     89  C   UNL A   1      48.092  26.381  31.833  1.00  0.00     0.012 A 
ATOM     90  C   UNL A   1      46.883  24.987  33.419  1.00  0.00     0.148 A 
ATOM     91  C   UNL A   1      49.304  25.896  32.322  1.00  0.00     0.002 A 
ATOM     92  C   UNL A   1      48.095  24.541  33.932  1.00  0.00     0.091 A 
ATOM     93  F   UNL A   1      45.709  24.547  33.899  1.00  0.00    -0.205 F 
ATOM     94  C   UNL A   1      49.307  24.987  33.377  1.00  0.00     0.022 A 
BRANCH  92  95
ATOM     95  S   UNL A   1      48.192  23.444  35.351  1.00  0.00     0.127 S 
ATOM     96  O   UNL A   1      47.598  24.267  36.404  1.00  0.00    -0.237 OA
ATOM     97  O   UNL A   1      47.369  22.310  34.928  1.00  0.00    -0.237 OA
ATOM     98  O   UNL A   1      49.605  23.133  35.518  1.00  0.00    -0.744 OA
ENDBRANCH  92  95
ENDBRANCH  65  88
ENDBRANCH  39  40
ENDBRANCH  31  34
ENDBRANCH  29  30
ENDBRANCH  28  29
ENDBRANCH   1  28
TORSDOF 20
ENDMDL
MODEL 3
REMARK VINA RESULT:     -11.7      2.410      2.879
REMARK SMILES COCC[N@H+]1C[C@@H]2CN(c3nc(CO)cs3)C[C@]2(C(=O)NCCCCNC(=O)c2ccc(-c3c4nc(c(-c5cccc(S(=O)(=O)[O-])c5F)c5ccc([nH]5)c(-c5cccc(S(=O)(=O)[O-])c5F)c5nc(c(-c6cccc(S(=O)(=O)[O-])c6F)c6ccc3[nH]6)C=C5)C=C4)cc2)C1
REMARK SMILES IDX 23 1 22 2 21 3 19 4 20 5 18 7 5 8 6 9 92 10 7 12 8 13 17 14
REMARK SMILES IDX 9 15 4 16 3 17 2 18 1 19 10 20 11 21 16 22 12 23 15 24 13 25
REMARK SMILES IDX 14 26 24 28 25 29 26 30 27 31 28 33 29 34 30 35 91 36 31 37
REMARK SMILES IDX 90 38 32 39 33 40 34 41 84 42 35 43 89 44 83 45 85 46 36 47
REMARK SMILES IDX 88 48 82 49 81 50 37 52 69 53 49 54 68 55 50 56 53 57 67 58
REMARK SMILES IDX 86 59 51 60 52 61 66 63 87 64 54 65 38 66 39 67 47 68 40 69
REMARK SMILES IDX 42 70 48 71 41 72 43 73 44 74 45 75 46 76 70 77 71 78 79 79
REMARK SMILES IDX 72 80 74 81 80 82 73 83 75 84 76 85 77 86 78 87 55 88 56 89
REMARK SMILES IDX 64 90 57 91 59 92 65 93 58 94 60 95 61 96 62 97 63 98
REMARK H PARENT 21 6 5 11 14 27 26 32 85 51 53 62
REMARK Flexibility Score: inf
ROOT
ATOM      1  C   UNL A   1      32.628  27.247  26.187  1.00  0.00     0.023 C 
ENDROOT
BRANCH   1   2
ATOM      2  C   UNL A   1      33.725  26.405  25.537  1.00  0.00     0.116 C 
BRANCH   2   3
ATOM      3  N   UNL A   1      33.921  26.834  24.171  1.00  0.00    -0.355 N 
ATOM      4  C   UNL A   1      33.346  26.278  23.062  1.00  0.00     0.234 C 
ATOM      5  O   UNL A   1      33.942  26.385  21.988  1.00  0.00    -0.274 OA
ATOM      6  H   UNL A   1      34.524  27.598  24.025  1.00  0.00     0.163 HD
BRANCH   4   7
ATOM      7  C   UNL A   1      32.019  25.534  23.243  1.00  0.00     0.125 C 
ATOM      8  N   UNL A   1      30.126  27.042  23.576  1.00  0.00    -0.332 N 
ATOM      9  C   UNL A   1      29.613  25.724  23.892  1.00  0.00     0.269 C 
ATOM     10  C   UNL A   1      31.263  26.829  22.648  1.00  0.00     0.281 C 
ATOM     11  H   UNL A   1      30.418  27.496  24.443  1.00  0.00     0.348 HD
ATOM     12  C   UNL A   1      30.644  24.850  23.233  1.00  0.00     0.087 C 
ATOM     13  C   UNL A   1      30.849  23.500  23.868  1.00  0.00     0.129 C 
ATOM     14  C   UNL A   1      32.624  24.252  22.467  1.00  0.00     0.142 C 
ATOM     15  N   UNL A   1      32.035  23.071  23.162  1.00  0.00    -0.346 N 
BRANCH   8  16
ATOM     16  C   UNL A   1      29.142  28.000  23.056  1.00  0.00     0.291 C 
BRANCH  16  17
ATOM     17  C   UNL A   1      29.725  29.345  22.572  1.00  0.00     0.221 C 
BRANCH  17  18
ATOM     18  O   UNL A   1      29.402  30.467  23.395  1.00  0.00    -0.379 OA
ATOM     19  C   UNL A   1      28.024  30.814  23.371  1.00  0.00     0.195 C 
ENDBRANCH  17  18
ENDBRANCH  16  17
ENDBRANCH   8  16
BRANCH  15  20
ATOM     20  C   UNL A   1      32.836  22.151  23.762  1.00  0.00     0.185 A 
ATOM     21  N   UNL A   1      32.550  20.869  23.869  1.00  0.00    -0.223 NA
ATOM     22  S   UNL A   1      34.382  22.591  24.385  1.00  0.00    -0.105 S 
ATOM     23  C   UNL A   1      33.548  20.197  24.570  1.00  0.00     0.079 A 
ATOM     24  C   UNL A   1      34.655  20.970  24.861  1.00  0.00     0.095 A 
BRANCH  23  25
ATOM     25  C   UNL A   1      33.351  18.767  24.966  1.00  0.00     0.213 C 
BRANCH  25  26
ATOM     26  O   UNL A   1      32.258  18.605  25.863  1.00  0.00    -0.390 OA
ATOM     27  H   UNL A   1      31.492  18.255  25.382  1.00  0.00     0.211 HD
ENDBRANCH  25  26
ENDBRANCH  23  25
ENDBRANCH  15  20
ENDBRANCH   4   7
ENDBRANCH   2   3
ENDBRANCH   1   2
BRANCH   1  28
ATOM     28  C   UNL A   1      33.114  28.326  27.151  1.00  0.00     0.023 C 
BRANCH  28  29
ATOM     29  C   UNL A   1      33.858  29.471  26.480  1.00  0.00     0.116 C 
BRANCH  29  30
ATOM     30  N   UNL A   1      33.749  30.728  27.213  1.00  0.00    -0.352 N 
ATOM     31  C   UNL A   1      34.569  31.226  28.199  1.00  0.00     0.251 C 
ATOM     32  H   UNL A   1      32.984  31.298  26.968  1.00  0.00     0.163 HD
ATOM     33  O   UNL A   1      34.262  32.235  28.811  1.00  0.00    -0.269 OA
BRANCH  31  34
ATOM     34  C   UNL A   1      35.815  30.496  28.510  1.00  0.00     0.039 A 
ATOM     35  C   UNL A   1      36.942  30.696  27.710  1.00  0.00     0.014 A 
ATOM     36  C   UNL A   1      35.874  29.670  29.634  1.00  0.00     0.014 A 
ATOM     37  C   UNL A   1      38.155  30.120  28.086  1.00  0.00     0.010 A 
ATOM     38  C   UNL A   1      37.101  29.178  30.057  1.00  0.00     0.010 A 
ATOM     39  C   UNL A   1      38.251  29.390  29.283  1.00  0.00    -0.014 A 
BRANCH  39  40
ATOM     40  C   UNL A   1      39.542  28.841  29.759  1.00  0.00     0.031 A 
ATOM     41  C   UNL A   1      40.291  29.533  30.863  1.00  0.00     0.074 A 
ATOM     42  C   UNL A   1      40.097  27.796  29.113  1.00  0.00     0.049 A 
ATOM     43  N   UNL A   1      41.467  29.255  31.361  1.00  0.00    -0.248 NA
ATOM     44  C   UNL A   1      39.655  30.722  31.454  1.00  0.00     0.031 C 
ATOM     45  C   UNL A   1      39.521  27.120  27.949  1.00  0.00     0.029 A 
ATOM     46  N   UNL A   1      41.286  27.147  29.321  1.00  0.00    -0.354 N 
ATOM     47  C   UNL A   1      41.729  30.256  32.289  1.00  0.00     0.074 A 
ATOM     48  C   UNL A   1      40.613  31.174  32.248  1.00  0.00     0.031 C 
ATOM     49  C   UNL A   1      40.358  26.152  27.544  1.00  0.00     0.029 A 
ATOM     50  C   UNL A   1      41.536  26.150  28.406  1.00  0.00     0.049 A 
ATOM     51  H   UNL A   1      41.902  27.373  30.054  1.00  0.00     0.167 HD
ATOM     52  C   UNL A   1      42.783  30.378  33.129  1.00  0.00     0.034 A 
ATOM     53  C   UNL A   1      42.596  25.328  28.278  1.00  0.00     0.034 A 
ATOM     54  C   UNL A   1      43.857  29.427  33.206  1.00  0.00     0.049 A 
ATOM     55  C   UNL A   1      43.711  25.420  29.283  1.00  0.00     0.074 A 
ATOM     56  C   UNL A   1      44.912  29.386  34.099  1.00  0.00     0.029 A 
ATOM     57  N   UNL A   1      44.014  28.347  32.350  1.00  0.00    -0.354 N 
ATOM     58  N   UNL A   1      43.851  26.258  30.282  1.00  0.00    -0.248 NA
ATOM     59  C   UNL A   1      44.789  24.428  29.173  1.00  0.00     0.031 C 
ATOM     60  C   UNL A   1      45.713  28.285  33.776  1.00  0.00     0.029 A 
ATOM     61  C   UNL A   1      45.150  27.633  32.691  1.00  0.00     0.049 A 
ATOM     62  H   UNL A   1      43.406  28.120  31.610  1.00  0.00     0.167 HD
ATOM     63  C   UNL A   1      45.019  25.883  30.934  1.00  0.00     0.074 A 
ATOM     64  C   UNL A   1      45.534  24.723  30.231  1.00  0.00     0.031 C 
ATOM     65  C   UNL A   1      45.623  26.456  32.005  1.00  0.00     0.034 A 
BRANCH  52  66
ATOM     66  C   UNL A   1      42.775  31.548  34.079  1.00  0.00     0.023 A 
ATOM     67  C   UNL A   1      43.381  32.761  33.687  1.00  0.00     0.012 A 
ATOM     68  C   UNL A   1      42.166  31.460  35.345  1.00  0.00     0.148 A 
ATOM     69  C   UNL A   1      43.426  33.848  34.558  1.00  0.00     0.002 A 
ATOM     70  C   UNL A   1      42.176  32.565  36.190  1.00  0.00     0.091 A 
ATOM     71  F   UNL A   1      41.618  30.294  35.716  1.00  0.00    -0.205 F 
ATOM     72  C   UNL A   1      42.817  33.753  35.804  1.00  0.00     0.022 A 
BRANCH  70  73
ATOM     73  S   UNL A   1      41.346  32.559  37.785  1.00  0.00     0.127 S 
ATOM     74  O   UNL A   1      40.015  32.076  37.423  1.00  0.00    -0.237 OA
ATOM     75  O   UNL A   1      42.151  31.607  38.552  1.00  0.00    -0.237 OA
ATOM     76  O   UNL A   1      41.414  33.931  38.268  1.00  0.00    -0.744 OA
ENDBRANCH  70  73
ENDBRANCH  52  66
BRANCH  53  77
ATOM     77  C   UNL A   1      42.592  24.295  27.206  1.00  0.00     0.023 A 
ATOM     78  C   UNL A   1      43.292  24.542  26.009  1.00  0.00     0.012 A 
ATOM     79  C   UNL A   1      41.972  23.045  27.395  1.00  0.00     0.148 A 
ATOM     80  C   UNL A   1      43.360  23.568  25.012  1.00  0.00     0.002 A 
ATOM     81  C   UNL A   1      42.087  22.061  26.420  1.00  0.00     0.091 A 
ATOM     82  F   UNL A   1      41.306  22.835  28.540  1.00  0.00    -0.205 F 
ATOM     83  C   UNL A   1      42.770  22.326  25.222  1.00  0.00     0.022 A 
BRANCH  81  84
ATOM     84  S   UNL A   1      41.482  20.387  26.660  1.00  0.00     0.127 S 
ATOM     85  O   UNL A   1      42.180  19.989  27.879  1.00  0.00    -0.237 OA
ATOM     86  O   UNL A   1      40.043  20.607  26.818  1.00  0.00    -0.237 OA
ATOM     87  O   UNL A   1      41.849  19.658  25.454  1.00  0.00    -0.744 OA
ENDBRANCH  81  84
ENDBRANCH  53  77
BRANCH  65  88
ATOM     88  C   UNL A   1      46.904  25.836  32.495  1.00  0.00     0.023 A 
ATOM     89  C   UNL A   1      46.874  24.959  33.597  1.00  0.00     0.012 A 
ATOM     90  C   UNL A   1      48.119  26.057  31.818  1.00  0.00     0.148 A 
ATOM     91  C   UNL A   1      48.040  24.332  34.035  1.00  0.00     0.002 A 
ATOM     92  C   UNL A   1      49.269  25.395  32.232  1.00  0.00     0.091 A 
ATOM     93  F   UNL A   1      48.131  26.912  30.785  1.00  0.00    -0.205 F 
ATOM     94  C   UNL A   1      49.233  24.540  33.347  1.00  0.00     0.022 A 
BRANCH  92  95
ATOM     95  S   UNL A   1      50.826  25.531  31.346  1.00  0.00     0.127 S 
ATOM     96  O   UNL A   1      51.679  24.613  32.101  1.00  0.00    -0.237 OA
ATOM     97  O   UNL A   1      50.466  25.065  30.006  1.00  0.00    -0.237 OA
ATOM     98  O   UNL A   1      51.200  26.937  31.415  1.00  0.00    -0.744 OA
ENDBRANCH  92  95
ENDBRANCH  65  88
ENDBRANCH  39  40
ENDBRANCH  31  34
ENDBRANCH  29  30
ENDBRANCH  28  29
ENDBRANCH   1  28
TORSDOF 20
ENDMDL
