MODEL 1
REMARK VINA RESULT:     -12.7      0.000      0.000
REMARK SMILES Cc1ccc(-n2nc(C(=O)NCCCCNC(=O)c3ccc(-c4c5nc(c(-c6cccc(S(=O)(=O)[O-])c6F)c6ccc([nH]6)c(-c6cccc(S(=O)(=O)[O-])c6F)c6nc(c(-c7cccc(S(=O)(=O)[O-])c7F)c7ccc4[nH]7)C=C6)C=C5)cc3)c3c2CCC3)c(F)c1
REMARK SMILES IDX 14 1 13 2 12 3 11 4 9 5 10 6 8 8 6 9 7 10 83 11 82 12 84 13
REMARK SMILES IDX 86 14 85 15 5 16 1 17 2 18 3 19 89 20 4 21 87 22 88 23 15 24
REMARK SMILES IDX 16 25 17 26 18 28 19 29 20 30 81 31 21 32 80 33 22 34 23 35
REMARK SMILES IDX 24 36 74 37 25 38 79 39 73 40 75 41 26 42 78 43 72 44 71 45
REMARK SMILES IDX 27 47 59 48 39 49 58 50 40 51 43 52 57 53 76 54 41 55 42 56
REMARK SMILES IDX 56 58 77 59 44 60 28 61 29 62 37 63 30 64 32 65 38 66 31 67
REMARK SMILES IDX 33 68 34 69 35 70 36 71 60 72 61 73 69 74 62 75 64 76 70 77
REMARK SMILES IDX 63 78 65 79 66 80 67 81 68 82 45 83 46 84 54 85 47 86 49 87
REMARK SMILES IDX 55 88 48 89 50 90 51 91 52 92 53 93
REMARK H PARENT 11 7 16 27 75 46 43 57
REMARK Flexibility Score: inf
ROOT
ATOM      1  C   UNL A   1      37.797  19.862  24.672  1.00  0.00     0.023 C 
ENDROOT
BRANCH   1   2
ATOM      2  C   UNL A   1      36.416  20.480  24.942  1.00  0.00     0.023 C 
BRANCH   2   3
ATOM      3  C   UNL A   1      36.426  21.825  25.675  1.00  0.00     0.116 C 
BRANCH   3   4
ATOM      4  N   UNL A   1      35.563  21.814  26.843  1.00  0.00    -0.351 N 
ATOM      5  C   UNL A   1      34.299  22.320  27.052  1.00  0.00     0.272 C 
ATOM      6  O   UNL A   1      33.852  22.246  28.199  1.00  0.00    -0.267 OA
ATOM      7  H   UNL A   1      35.951  21.362  27.627  1.00  0.00     0.163 HD
BRANCH   5   8
ATOM      8  C   UNL A   1      33.513  22.961  25.981  1.00  0.00     0.154 A 
ATOM      9  N   UNL A   1      32.451  24.441  24.797  1.00  0.00    -0.234 N 
ATOM     10  N   UNL A   1      33.138  24.262  25.955  1.00  0.00    -0.162 NA
ATOM     11  C   UNL A   1      32.336  23.268  24.124  1.00  0.00     0.048 A 
ATOM     12  C   UNL A   1      33.048  22.331  24.812  1.00  0.00     0.007 A 
ATOM     13  C   UNL A   1      31.855  22.830  22.807  1.00  0.00     0.057 C 
ATOM     14  C   UNL A   1      33.133  21.054  24.082  1.00  0.00     0.040 C 
ATOM     15  C   UNL A   1      32.095  21.283  22.924  1.00  0.00     0.011 C 
BRANCH   9  16
ATOM     16  C   UNL A   1      31.884  25.685  24.478  1.00  0.00     0.101 A 
ATOM     17  C   UNL A   1      30.184  29.503  23.467  1.00  0.00     0.044 C 
ATOM     18  C   UNL A   1      30.766  28.176  23.850  1.00  0.00    -0.048 A 
ATOM     19  C   UNL A   1      29.940  27.075  24.117  1.00  0.00     0.006 A 
ATOM     20  C   UNL A   1      32.156  28.015  23.905  1.00  0.00     0.045 A 
ATOM     21  C   UNL A   1      30.493  25.826  24.412  1.00  0.00     0.032 A 
ATOM     22  C   UNL A   1      32.709  26.781  24.243  1.00  0.00     0.149 A 
ATOM     23  F   UNL A   1      34.045  26.666  24.237  1.00  0.00    -0.205 F 
ENDBRANCH   9  16
ENDBRANCH   5   8
ENDBRANCH   3   4
ENDBRANCH   2   3
ENDBRANCH   1   2
BRANCH   1  24
ATOM     24  C   UNL A   1      38.883  20.253  25.670  1.00  0.00     0.116 C 
BRANCH  24  25
ATOM     25  N   UNL A   1      39.951  19.259  25.764  1.00  0.00    -0.352 N 
ATOM     26  C   UNL A   1      41.301  19.472  25.974  1.00  0.00     0.251 C 
ATOM     27  H   UNL A   1      39.674  18.319  25.666  1.00  0.00     0.163 HD
ATOM     28  O   UNL A   1      42.123  18.628  25.656  1.00  0.00    -0.269 OA
BRANCH  26  29
ATOM     29  C   UNL A   1      41.731  20.741  26.593  1.00  0.00     0.039 A 
ATOM     30  C   UNL A   1      42.157  21.814  25.806  1.00  0.00     0.014 A 
ATOM     31  C   UNL A   1      41.684  20.848  27.981  1.00  0.00     0.014 A 
ATOM     32  C   UNL A   1      42.446  23.029  26.426  1.00  0.00     0.010 A 
ATOM     33  C   UNL A   1      41.852  22.074  28.578  1.00  0.00     0.010 A 
ATOM     34  C   UNL A   1      42.268  23.160  27.812  1.00  0.00    -0.014 A 
BRANCH  34  35
ATOM     35  C   UNL A   1      42.345  24.476  28.445  1.00  0.00     0.031 A 
ATOM     36  C   UNL A   1      41.169  25.349  28.167  1.00  0.00     0.074 A 
ATOM     37  C   UNL A   1      43.262  24.786  29.389  1.00  0.00     0.049 A 
ATOM     38  N   UNL A   1      41.136  26.447  27.486  1.00  0.00    -0.248 NA
ATOM     39  C   UNL A   1      39.837  24.854  28.555  1.00  0.00     0.031 C 
ATOM     40  C   UNL A   1      44.257  23.889  29.992  1.00  0.00     0.029 A 
ATOM     41  N   UNL A   1      43.400  25.924  30.125  1.00  0.00    -0.354 N 
ATOM     42  C   UNL A   1      39.822  26.910  27.585  1.00  0.00     0.074 A 
ATOM     43  C   UNL A   1      39.042  25.790  28.034  1.00  0.00     0.031 C 
ATOM     44  C   UNL A   1      44.698  24.421  31.153  1.00  0.00     0.029 A 
ATOM     45  C   UNL A   1      44.160  25.760  31.284  1.00  0.00     0.049 A 
ATOM     46  H   UNL A   1      43.002  26.786  29.863  1.00  0.00     0.167 HD
ATOM     47  C   UNL A   1      39.545  28.245  27.574  1.00  0.00     0.034 A 
ATOM     48  C   UNL A   1      44.305  26.644  32.300  1.00  0.00     0.034 A 
ATOM     49  C   UNL A   1      40.685  28.995  27.103  1.00  0.00     0.049 A 
ATOM     50  C   UNL A   1      43.917  27.970  31.777  1.00  0.00     0.074 A 
ATOM     51  C   UNL A   1      41.429  29.050  25.944  1.00  0.00     0.029 A 
ATOM     52  N   UNL A   1      41.438  29.592  28.083  1.00  0.00    -0.354 N 
ATOM     53  N   UNL A   1      44.595  28.615  30.869  1.00  0.00    -0.248 NA
ATOM     54  C   UNL A   1      42.557  28.429  31.993  1.00  0.00     0.031 C 
ATOM     55  C   UNL A   1      42.764  29.314  26.373  1.00  0.00     0.029 A 
ATOM     56  C   UNL A   1      42.760  29.471  27.762  1.00  0.00     0.049 A 
ATOM     57  H   UNL A   1      41.084  30.037  28.886  1.00  0.00     0.167 HD
ATOM     58  C   UNL A   1      43.620  29.220  30.091  1.00  0.00     0.074 A 
ATOM     59  C   UNL A   1      42.414  29.204  30.915  1.00  0.00     0.031 C 
ATOM     60  C   UNL A   1      43.813  29.396  28.751  1.00  0.00     0.034 A 
BRANCH  47  61
ATOM     61  C   UNL A   1      38.459  28.936  28.393  1.00  0.00     0.023 A 
ATOM     62  C   UNL A   1      37.632  29.856  27.700  1.00  0.00     0.012 A 
ATOM     63  C   UNL A   1      38.393  28.976  29.805  1.00  0.00     0.148 A 
ATOM     64  C   UNL A   1      36.873  30.824  28.368  1.00  0.00     0.002 A 
ATOM     65  C   UNL A   1      37.582  29.895  30.467  1.00  0.00     0.091 A 
ATOM     66  F   UNL A   1      39.195  28.210  30.543  1.00  0.00    -0.205 F 
ATOM     67  C   UNL A   1      36.852  30.847  29.755  1.00  0.00     0.022 A 
BRANCH  65  68
ATOM     68  S   UNL A   1      37.477  29.942  32.262  1.00  0.00     0.127 S 
ATOM     69  O   UNL A   1      38.812  30.412  32.620  1.00  0.00    -0.237 OA
ATOM     70  O   UNL A   1      36.401  30.912  32.470  1.00  0.00    -0.237 OA
ATOM     71  O   UNL A   1      37.145  28.585  32.677  1.00  0.00    -0.744 OA
ENDBRANCH  65  68
ENDBRANCH  47  61
BRANCH  48  72
ATOM     72  C   UNL A   1      44.571  26.438  33.742  1.00  0.00     0.023 A 
ATOM     73  C   UNL A   1      45.857  26.706  34.256  1.00  0.00     0.012 A 
ATOM     74  C   UNL A   1      43.509  26.271  34.657  1.00  0.00     0.148 A 
ATOM     75  C   UNL A   1      46.071  26.850  35.631  1.00  0.00     0.002 A 
ATOM     76  C   UNL A   1      43.727  26.413  36.025  1.00  0.00     0.091 A 
ATOM     77  F   UNL A   1      42.275  26.066  34.177  1.00  0.00    -0.205 F 
ATOM     78  C   UNL A   1      45.004  26.717  36.515  1.00  0.00     0.022 A 
BRANCH  76  79
ATOM     79  S   UNL A   1      42.399  26.294  37.233  1.00  0.00     0.127 S 
ATOM     80  O   UNL A   1      41.885  24.947  36.983  1.00  0.00    -0.237 OA
ATOM     81  O   UNL A   1      43.124  26.448  38.492  1.00  0.00    -0.237 OA
ATOM     82  O   UNL A   1      41.468  27.365  36.903  1.00  0.00    -0.744 OA
ENDBRANCH  76  79
ENDBRANCH  48  72
BRANCH  60  83
ATOM     83  C   UNL A   1      45.216  29.278  28.218  1.00  0.00     0.023 A 
ATOM     84  C   UNL A   1      46.162  30.321  28.299  1.00  0.00     0.012 A 
ATOM     85  C   UNL A   1      45.633  28.012  27.775  1.00  0.00     0.148 A 
ATOM     86  C   UNL A   1      47.492  30.105  27.930  1.00  0.00     0.002 A 
ATOM     87  C   UNL A   1      46.966  27.787  27.462  1.00  0.00     0.091 A 
ATOM     88  F   UNL A   1      44.717  27.034  27.697  1.00  0.00    -0.205 F 
ATOM     89  C   UNL A   1      47.898  28.833  27.528  1.00  0.00     0.022 A 
BRANCH  87  90
ATOM     90  S   UNL A   1      47.563  26.140  27.077  1.00  0.00     0.127 S 
ATOM     91  O   UNL A   1      46.889  25.858  25.811  1.00  0.00    -0.237 OA
ATOM     92  O   UNL A   1      49.009  26.347  26.969  1.00  0.00    -0.237 OA
ATOM     93  O   UNL A   1      47.168  25.299  28.200  1.00  0.00    -0.744 OA
ENDBRANCH  87  90
ENDBRANCH  60  83
ENDBRANCH  34  35
ENDBRANCH  26  29
ENDBRANCH  24  25
ENDBRANCH   1  24
TORSDOF 15
ENDMDL
MODEL 2
REMARK VINA RESULT:     -12.6      1.627      1.852
REMARK SMILES Cc1ccc(-n2nc(C(=O)NCCCCNC(=O)c3ccc(-c4c5nc(c(-c6cccc(S(=O)(=O)[O-])c6F)c6ccc([nH]6)c(-c6cccc(S(=O)(=O)[O-])c6F)c6nc(c(-c7cccc(S(=O)(=O)[O-])c7F)c7ccc4[nH]7)C=C6)C=C5)cc3)c3c2CCC3)c(F)c1
REMARK SMILES IDX 14 1 13 2 12 3 11 4 9 5 10 6 8 8 6 9 7 10 83 11 82 12 84 13
REMARK SMILES IDX 86 14 85 15 5 16 1 17 2 18 3 19 89 20 4 21 87 22 88 23 15 24
REMARK SMILES IDX 16 25 17 26 18 28 19 29 20 30 81 31 21 32 80 33 22 34 23 35
REMARK SMILES IDX 24 36 74 37 25 38 79 39 73 40 75 41 26 42 78 43 72 44 71 45
REMARK SMILES IDX 27 47 59 48 39 49 58 50 40 51 43 52 57 53 76 54 41 55 42 56
REMARK SMILES IDX 56 58 77 59 44 60 28 61 29 62 37 63 30 64 32 65 38 66 31 67
REMARK SMILES IDX 33 68 34 69 35 70 36 71 60 72 61 73 69 74 62 75 64 76 70 77
REMARK SMILES IDX 63 78 65 79 66 80 67 81 68 82 45 83 46 84 54 85 47 86 49 87
REMARK SMILES IDX 55 88 48 89 50 90 51 91 52 92 53 93
REMARK H PARENT 11 7 16 27 75 46 43 57
REMARK Flexibility Score: inf
ROOT
ATOM      1  C   UNL A   1      38.086  20.063  24.685  1.00  0.00     0.023 C 
ENDROOT
BRANCH   1   2
ATOM      2  C   UNL A   1      37.137  21.257  24.497  1.00  0.00     0.023 C 
BRANCH   2   3
ATOM      3  C   UNL A   1      36.843  22.073  25.760  1.00  0.00     0.116 C 
BRANCH   3   4
ATOM      4  N   UNL A   1      35.730  21.527  26.514  1.00  0.00    -0.351 N 
ATOM      5  C   UNL A   1      34.428  21.952  26.663  1.00  0.00     0.272 C 
ATOM      6  O   UNL A   1      33.727  21.329  27.463  1.00  0.00    -0.267 OA
ATOM      7  H   UNL A   1      35.943  20.702  27.007  1.00  0.00     0.163 HD
BRANCH   5   8
ATOM      8  C   UNL A   1      33.888  23.122  25.944  1.00  0.00     0.154 A 
ATOM      9  N   UNL A   1      33.204  25.131  25.480  1.00  0.00    -0.234 N 
ATOM     10  N   UNL A   1      33.699  24.351  26.477  1.00  0.00    -0.162 NA
ATOM     11  C   UNL A   1      33.022  24.401  24.350  1.00  0.00     0.048 A 
ATOM     12  C   UNL A   1      33.502  23.149  24.591  1.00  0.00     0.007 A 
ATOM     13  C   UNL A   1      32.668  24.665  22.949  1.00  0.00     0.057 C 
ATOM     14  C   UNL A   1      33.510  22.316  23.376  1.00  0.00     0.040 C 
ATOM     15  C   UNL A   1      32.678  23.202  22.380  1.00  0.00     0.011 C 
BRANCH   9  16
ATOM     16  C   UNL A   1      32.860  26.471  25.715  1.00  0.00     0.101 A 
ATOM     17  C   UNL A   1      31.803  30.585  26.383  1.00  0.00     0.044 C 
ATOM     18  C   UNL A   1      32.186  29.151  26.179  1.00  0.00    -0.048 A 
ATOM     19  C   UNL A   1      31.589  28.129  26.931  1.00  0.00     0.006 A 
ATOM     20  C   UNL A   1      33.126  28.814  25.196  1.00  0.00     0.045 A 
ATOM     21  C   UNL A   1      31.907  26.790  26.690  1.00  0.00     0.032 A 
ATOM     22  C   UNL A   1      33.477  27.482  24.984  1.00  0.00     0.149 A 
ATOM     23  F   UNL A   1      34.346  27.208  24.001  1.00  0.00    -0.205 F 
ENDBRANCH   9  16
ENDBRANCH   5   8
ENDBRANCH   3   4
ENDBRANCH   2   3
ENDBRANCH   1   2
BRANCH   1  24
ATOM     24  C   UNL A   1      38.976  20.137  25.923  1.00  0.00     0.116 C 
BRANCH  24  25
ATOM     25  N   UNL A   1      40.103  19.209  25.867  1.00  0.00    -0.352 N 
ATOM     26  C   UNL A   1      41.453  19.498  25.953  1.00  0.00     0.251 C 
ATOM     27  H   UNL A   1      39.873  18.258  25.753  1.00  0.00     0.163 HD
ATOM     28  O   UNL A   1      42.287  18.721  25.518  1.00  0.00    -0.269 OA
BRANCH  26  29
ATOM     29  C   UNL A   1      41.868  20.765  26.586  1.00  0.00     0.039 A 
ATOM     30  C   UNL A   1      42.316  21.839  25.813  1.00  0.00     0.014 A 
ATOM     31  C   UNL A   1      41.784  20.870  27.973  1.00  0.00     0.014 A 
ATOM     32  C   UNL A   1      42.590  23.052  26.441  1.00  0.00     0.010 A 
ATOM     33  C   UNL A   1      41.939  22.095  28.576  1.00  0.00     0.010 A 
ATOM     34  C   UNL A   1      42.375  23.181  27.823  1.00  0.00    -0.014 A 
BRANCH  34  35
ATOM     35  C   UNL A   1      42.438  24.497  28.460  1.00  0.00     0.031 A 
ATOM     36  C   UNL A   1      41.261  25.365  28.167  1.00  0.00     0.074 A 
ATOM     37  C   UNL A   1      43.339  24.809  29.417  1.00  0.00     0.049 A 
ATOM     38  N   UNL A   1      41.232  26.464  27.489  1.00  0.00    -0.248 NA
ATOM     39  C   UNL A   1      39.927  24.862  28.535  1.00  0.00     0.031 C 
ATOM     40  C   UNL A   1      44.330  23.915  30.032  1.00  0.00     0.029 A 
ATOM     41  N   UNL A   1      43.462  25.946  30.158  1.00  0.00    -0.354 N 
ATOM     42  C   UNL A   1      39.915  26.920  27.570  1.00  0.00     0.074 A 
ATOM     43  C   UNL A   1      39.134  25.796  28.006  1.00  0.00     0.031 C 
ATOM     44  C   UNL A   1      44.753  24.447  31.200  1.00  0.00     0.029 A 
ATOM     45  C   UNL A   1      44.207  25.782  31.327  1.00  0.00     0.049 A 
ATOM     46  H   UNL A   1      43.064  26.806  29.892  1.00  0.00     0.167 HD
ATOM     47  C   UNL A   1      39.632  28.254  27.559  1.00  0.00     0.034 A 
ATOM     48  C   UNL A   1      44.333  26.665  32.347  1.00  0.00     0.034 A 
ATOM     49  C   UNL A   1      40.774  29.010  27.105  1.00  0.00     0.049 A 
ATOM     50  C   UNL A   1      43.947  27.990  31.821  1.00  0.00     0.074 A 
ATOM     51  C   UNL A   1      41.534  29.072  25.957  1.00  0.00     0.029 A 
ATOM     52  N   UNL A   1      41.511  29.609  28.096  1.00  0.00    -0.354 N 
ATOM     53  N   UNL A   1      44.633  28.640  30.925  1.00  0.00    -0.248 NA
ATOM     54  C   UNL A   1      42.581  28.442  32.019  1.00  0.00     0.031 C 
ATOM     55  C   UNL A   1      42.861  29.341  26.405  1.00  0.00     0.029 A 
ATOM     56  C   UNL A   1      42.837  29.495  27.794  1.00  0.00     0.049 A 
ATOM     57  H   UNL A   1      41.143  30.050  28.896  1.00  0.00     0.167 HD
ATOM     58  C   UNL A   1      43.666  29.243  30.134  1.00  0.00     0.074 A 
ATOM     59  C   UNL A   1      42.449  29.219  30.941  1.00  0.00     0.031 C 
ATOM     60  C   UNL A   1      43.877  29.423  28.798  1.00  0.00     0.034 A 
BRANCH  47  61
ATOM     61  C   UNL A   1      38.531  28.937  28.364  1.00  0.00     0.023 A 
ATOM     62  C   UNL A   1      37.733  29.883  27.670  1.00  0.00     0.012 A 
ATOM     63  C   UNL A   1      38.426  28.946  29.774  1.00  0.00     0.148 A 
ATOM     64  C   UNL A   1      36.967  30.844  28.341  1.00  0.00     0.002 A 
ATOM     65  C   UNL A   1      37.608  29.858  30.435  1.00  0.00     0.091 A 
ATOM     66  F   UNL A   1      39.200  28.153  30.515  1.00  0.00    -0.205 F 
ATOM     67  C   UNL A   1      36.907  30.834  29.727  1.00  0.00     0.022 A 
BRANCH  65  68
ATOM     68  S   UNL A   1      37.453  29.864  32.228  1.00  0.00     0.127 S 
ATOM     69  O   UNL A   1      38.753  30.396  32.630  1.00  0.00    -0.237 OA
ATOM     70  O   UNL A   1      36.324  30.772  32.425  1.00  0.00    -0.237 OA
ATOM     71  O   UNL A   1      37.183  28.483  32.608  1.00  0.00    -0.744 OA
ENDBRANCH  65  68
ENDBRANCH  47  61
BRANCH  48  72
ATOM     72  C   UNL A   1      44.580  26.456  33.792  1.00  0.00     0.023 A 
ATOM     73  C   UNL A   1      45.856  26.737  34.325  1.00  0.00     0.012 A 
ATOM     74  C   UNL A   1      43.506  26.275  34.690  1.00  0.00     0.148 A 
ATOM     75  C   UNL A   1      46.047  26.878  35.704  1.00  0.00     0.002 A 
ATOM     76  C   UNL A   1      43.703  26.415  36.061  1.00  0.00     0.091 A 
ATOM     77  F   UNL A   1      42.282  26.059  34.192  1.00  0.00    -0.205 F 
ATOM     78  C   UNL A   1      44.970  26.731  36.571  1.00  0.00     0.022 A 
BRANCH  76  79
ATOM     79  S   UNL A   1      42.359  26.277  37.249  1.00  0.00     0.127 S 
ATOM     80  O   UNL A   1      43.064  26.432  38.522  1.00  0.00    -0.237 OA
ATOM     81  O   UNL A   1      41.512  27.408  36.878  1.00  0.00    -0.237 OA
ATOM     82  O   UNL A   1      41.779  24.957  37.039  1.00  0.00    -0.744 OA
ENDBRANCH  76  79
ENDBRANCH  48  72
BRANCH  60  83
ATOM     83  C   UNL A   1      45.288  29.313  28.283  1.00  0.00     0.023 A 
ATOM     84  C   UNL A   1      45.852  28.101  27.835  1.00  0.00     0.012 A 
ATOM     85  C   UNL A   1      46.000  30.508  28.092  1.00  0.00     0.148 A 
ATOM     86  C   UNL A   1      47.108  28.084  27.224  1.00  0.00     0.002 A 
ATOM     87  C   UNL A   1      47.222  30.494  27.435  1.00  0.00     0.091 A 
ATOM     88  F   UNL A   1      45.450  31.651  28.532  1.00  0.00    -0.205 F 
ATOM     89  C   UNL A   1      47.786  29.282  27.007  1.00  0.00     0.022 A 
BRANCH  87  90
ATOM     90  S   UNL A   1      48.064  32.019  27.009  1.00  0.00     0.127 S 
ATOM     91  O   UNL A   1      47.127  32.634  26.071  1.00  0.00    -0.237 OA
ATOM     92  O   UNL A   1      48.168  32.695  28.304  1.00  0.00    -0.237 OA
ATOM     93  O   UNL A   1      49.349  31.622  26.444  1.00  0.00    -0.744 OA
ENDBRANCH  87  90
ENDBRANCH  60  83
ENDBRANCH  34  35
ENDBRANCH  26  29
ENDBRANCH  24  25
ENDBRANCH   1  24
TORSDOF 15
ENDMDL
MODEL 3
REMARK VINA RESULT:     -12.4      3.988      9.386
REMARK SMILES Cc1ccc(-n2nc(C(=O)NCCCCNC(=O)c3ccc(-c4c5nc(c(-c6cccc(S(=O)(=O)[O-])c6F)c6ccc([nH]6)c(-c6cccc(S(=O)(=O)[O-])c6F)c6nc(c(-c7cccc(S(=O)(=O)[O-])c7F)c7ccc4[nH]7)C=C6)C=C5)cc3)c3c2CCC3)c(F)c1
REMARK SMILES IDX 14 1 13 2 12 3 11 4 9 5 10 6 8 8 6 9 7 10 83 11 82 12 84 13
REMARK SMILES IDX 86 14 85 15 5 16 1 17 2 18 3 19 89 20 4 21 87 22 88 23 15 24
REMARK SMILES IDX 16 25 17 26 18 28 19 29 20 30 81 31 21 32 80 33 22 34 23 35
REMARK SMILES IDX 24 36 74 37 25 38 79 39 73 40 75 41 26 42 78 43 72 44 71 45
REMARK SMILES IDX 27 47 59 48 39 49 58 50 40 51 43 52 57 53 76 54 41 55 42 56
REMARK SMILES IDX 56 58 77 59 44 60 28 61 29 62 37 63 30 64 32 65 38 66 31 67
REMARK SMILES IDX 33 68 34 69 35 70 36 71 60 72 61 73 69 74 62 75 64 76 70 77
REMARK SMILES IDX 63 78 65 79 66 80 67 81 68 82 45 83 46 84 54 85 47 86 49 87
REMARK SMILES IDX 55 88 48 89 50 90 51 91 52 92 53 93
REMARK H PARENT 11 7 16 27 75 46 43 57
REMARK Flexibility Score: inf
ROOT
ATOM      1  C   UNL A   1      31.435  31.901  26.353  1.00  0.00     0.023 C 
ENDROOT
BRANCH   1   2
ATOM      2  C   UNL A   1      31.414  30.375  26.170  1.00  0.00     0.023 C 
BRANCH   2   3
ATOM      3  C   UNL A   1      32.787  29.697  26.119  1.00  0.00     0.116 C 
BRANCH   3   4
ATOM      4  N   UNL A   1      33.362  29.735  24.787  1.00  0.00    -0.351 N 
ATOM      5  C   UNL A   1      33.288  28.852  23.731  1.00  0.00     0.272 C 
ATOM      6  O   UNL A   1      33.977  29.108  22.742  1.00  0.00    -0.267 OA
ATOM      7  H   UNL A   1      33.903  30.537  24.603  1.00  0.00     0.163 HD
BRANCH   5   8
ATOM      8  C   UNL A   1      32.463  27.630  23.776  1.00  0.00     0.154 A 
ATOM      9  N   UNL A   1      31.852  25.551  23.928  1.00  0.00    -0.234 N 
ATOM     10  N   UNL A   1      32.936  26.370  23.922  1.00  0.00    -0.162 NA
ATOM     11  C   UNL A   1      30.715  26.263  23.729  1.00  0.00     0.048 A 
ATOM     12  C   UNL A   1      31.060  27.581  23.693  1.00  0.00     0.007 A 
ATOM     13  C   UNL A   1      29.269  26.007  23.765  1.00  0.00     0.057 C 
ATOM     14  C   UNL A   1      29.879  28.462  23.650  1.00  0.00     0.040 C 
ATOM     15  C   UNL A   1      28.725  27.429  23.382  1.00  0.00     0.011 C 
BRANCH   9  16
ATOM     16  C   UNL A   1      32.000  24.158  24.026  1.00  0.00     0.101 A 
ATOM     17  C   UNL A   1      32.497  19.896  24.298  1.00  0.00     0.044 C 
ATOM     18  C   UNL A   1      32.291  21.378  24.204  1.00  0.00    -0.048 A 
ATOM     19  C   UNL A   1      31.848  22.116  25.311  1.00  0.00     0.006 A 
ATOM     20  C   UNL A   1      32.582  22.047  23.009  1.00  0.00     0.045 A 
ATOM     21  C   UNL A   1      31.720  23.505  25.232  1.00  0.00     0.032 A 
ATOM     22  C   UNL A   1      32.412  23.427  22.916  1.00  0.00     0.149 A 
ATOM     23  F   UNL A   1      32.748  24.027  21.764  1.00  0.00    -0.205 F 
ENDBRANCH   9  16
ENDBRANCH   5   8
ENDBRANCH   3   4
ENDBRANCH   2   3
ENDBRANCH   1   2
BRANCH   1  24
ATOM     24  C   UNL A   1      32.540  32.425  27.266  1.00  0.00     0.116 C 
BRANCH  24  25
ATOM     25  N   UNL A   1      32.341  33.820  27.653  1.00  0.00    -0.352 N 
ATOM     26  C   UNL A   1      33.028  34.548  28.608  1.00  0.00     0.251 C 
ATOM     27  H   UNL A   1      31.629  34.303  27.174  1.00  0.00     0.163 HD
ATOM     28  O   UNL A   1      32.537  35.550  29.102  1.00  0.00    -0.269 OA
BRANCH  26  29
ATOM     29  C   UNL A   1      34.370  34.092  29.018  1.00  0.00     0.039 A 
ATOM     30  C   UNL A   1      34.550  33.359  30.193  1.00  0.00     0.014 A 
ATOM     31  C   UNL A   1      35.452  34.395  28.193  1.00  0.00     0.014 A 
ATOM     32  C   UNL A   1      35.816  32.853  30.483  1.00  0.00     0.010 A 
ATOM     33  C   UNL A   1      36.669  33.799  28.415  1.00  0.00     0.010 A 
ATOM     34  C   UNL A   1      36.868  33.056  29.576  1.00  0.00    -0.014 A 
BRANCH  34  35
ATOM     35  C   UNL A   1      38.137  32.347  29.746  1.00  0.00     0.031 A 
ATOM     36  C   UNL A   1      38.124  30.953  29.217  1.00  0.00     0.074 A 
ATOM     37  C   UNL A   1      39.281  32.965  30.113  1.00  0.00     0.049 A 
ATOM     38  N   UNL A   1      38.216  29.849  29.883  1.00  0.00    -0.248 NA
ATOM     39  C   UNL A   1      37.805  30.760  27.793  1.00  0.00     0.031 C 
ATOM     40  C   UNL A   1      39.487  34.404  30.325  1.00  0.00     0.029 A 
ATOM     41  N   UNL A   1      40.543  32.463  30.224  1.00  0.00    -0.354 N 
ATOM     42  C   UNL A   1      38.227  28.833  28.925  1.00  0.00     0.074 A 
ATOM     43  C   UNL A   1      37.737  29.429  27.713  1.00  0.00     0.031 C 
ATOM     44  C   UNL A   1      40.808  34.683  30.273  1.00  0.00     0.029 A 
ATOM     45  C   UNL A   1      41.543  33.436  30.205  1.00  0.00     0.049 A 
ATOM     46  H   UNL A   1      40.734  31.501  30.310  1.00  0.00     0.167 HD
ATOM     47  C   UNL A   1      38.915  27.676  29.136  1.00  0.00     0.034 A 
ATOM     48  C   UNL A   1      42.879  33.235  30.099  1.00  0.00     0.034 A 
ATOM     49  C   UNL A   1      39.266  27.543  30.529  1.00  0.00     0.049 A 
ATOM     50  C   UNL A   1      43.135  31.830  30.474  1.00  0.00     0.074 A 
ATOM     51  C   UNL A   1      38.584  27.459  31.725  1.00  0.00     0.029 A 
ATOM     52  N   UNL A   1      40.563  27.871  30.840  1.00  0.00    -0.354 N 
ATOM     53  N   UNL A   1      42.969  31.361  31.679  1.00  0.00    -0.248 NA
ATOM     54  C   UNL A   1      43.223  30.836  29.419  1.00  0.00     0.031 C 
ATOM     55  C   UNL A   1      39.407  28.140  32.670  1.00  0.00     0.029 A 
ATOM     56  C   UNL A   1      40.577  28.548  32.025  1.00  0.00     0.049 A 
ATOM     57  H   UNL A   1      41.354  27.652  30.297  1.00  0.00     0.167 HD
ATOM     58  C   UNL A   1      42.465  30.086  31.476  1.00  0.00     0.074 A 
ATOM     59  C   UNL A   1      42.792  29.766  30.090  1.00  0.00     0.031 C 
ATOM     60  C   UNL A   1      41.571  29.547  32.357  1.00  0.00     0.034 A 
BRANCH  47  61
ATOM     61  C   UNL A   1      39.675  26.885  28.075  1.00  0.00     0.023 A 
ATOM     62  C   UNL A   1      39.481  25.480  28.074  1.00  0.00     0.012 A 
ATOM     63  C   UNL A   1      40.761  27.368  27.309  1.00  0.00     0.148 A 
ATOM     64  C   UNL A   1      40.374  24.607  27.440  1.00  0.00     0.002 A 
ATOM     65  C   UNL A   1      41.605  26.500  26.622  1.00  0.00     0.091 A 
ATOM     66  F   UNL A   1      41.073  28.663  27.319  1.00  0.00    -0.205 F 
ATOM     67  C   UNL A   1      41.441  25.118  26.716  1.00  0.00     0.022 A 
BRANCH  65  68
ATOM     68  S   UNL A   1      42.978  27.105  25.629  1.00  0.00     0.127 S 
ATOM     69  O   UNL A   1      43.500  25.863  25.066  1.00  0.00    -0.237 OA
ATOM     70  O   UNL A   1      42.292  27.978  24.676  1.00  0.00    -0.237 OA
ATOM     71  O   UNL A   1      43.860  27.807  26.555  1.00  0.00    -0.744 OA
ENDBRANCH  65  68
ENDBRANCH  47  61
BRANCH  48  72
ATOM     72  C   UNL A   1      43.951  34.083  29.529  1.00  0.00     0.023 A 
ATOM     73  C   UNL A   1      44.796  34.809  30.394  1.00  0.00     0.012 A 
ATOM     74  C   UNL A   1      44.335  33.950  28.177  1.00  0.00     0.148 A 
ATOM     75  C   UNL A   1      46.006  35.345  29.941  1.00  0.00     0.002 A 
ATOM     76  C   UNL A   1      45.540  34.487  27.730  1.00  0.00     0.091 A 
ATOM     77  F   UNL A   1      43.565  33.220  27.360  1.00  0.00    -0.205 F 
ATOM     78  C   UNL A   1      46.385  35.174  28.613  1.00  0.00     0.022 A 
BRANCH  76  79
ATOM     79  S   UNL A   1      46.123  34.280  26.041  1.00  0.00     0.127 S 
ATOM     80  O   UNL A   1      47.242  35.221  25.991  1.00  0.00    -0.237 OA
ATOM     81  O   UNL A   1      46.508  32.871  26.027  1.00  0.00    -0.237 OA
ATOM     82  O   UNL A   1      44.997  34.638  25.188  1.00  0.00    -0.744 OA
ENDBRANCH  76  79
ENDBRANCH  48  72
BRANCH  60  83
ATOM     83  C   UNL A   1      41.442  30.185  33.714  1.00  0.00     0.023 A 
ATOM     84  C   UNL A   1      42.338  29.931  34.773  1.00  0.00     0.012 A 
ATOM     85  C   UNL A   1      40.482  31.199  33.861  1.00  0.00     0.148 A 
ATOM     86  C   UNL A   1      42.264  30.666  35.959  1.00  0.00     0.002 A 
ATOM     87  C   UNL A   1      40.447  31.964  35.018  1.00  0.00     0.091 A 
ATOM     88  F   UNL A   1      39.634  31.421  32.845  1.00  0.00    -0.205 F 
ATOM     89  C   UNL A   1      41.331  31.695  36.075  1.00  0.00     0.022 A 
BRANCH  87  90
ATOM     90  S   UNL A   1      39.363  33.386  35.159  1.00  0.00     0.127 S 
ATOM     91  O   UNL A   1      39.700  34.148  33.959  1.00  0.00    -0.237 OA
ATOM     92  O   UNL A   1      38.034  32.771  35.142  1.00  0.00    -0.237 OA
ATOM     93  O   UNL A   1      39.703  34.024  36.426  1.00  0.00    -0.744 OA
ENDBRANCH  87  90
ENDBRANCH  60  83
ENDBRANCH  34  35
ENDBRANCH  26  29
ENDBRANCH  24  25
ENDBRANCH   1  24
TORSDOF 15
ENDMDL
