MODEL 1
REMARK VINA RESULT:     -12.3      0.000      0.000
REMARK SMILES CC(C)c1ccc([C@]2(C(=O)NCCCCNC(=O)c3ccc(-c4c5nc(c(-c6cccc(S(=O)(=O)[O-])c6F)c6ccc([nH]6)c(-c6cccc(S(=O)(=O)[O-])c6F)c6nc(c(-c7cccc(S(=O)(=O)[O-])c7F)c7ccc4[nH]7)C=C6)C=C5)cc3)CCC[C@@H]2C)cc1
REMARK SMILES IDX 14 1 13 2 12 3 11 4 9 5 10 6 8 8 82 9 85 10 83 11 84 12
REMARK SMILES IDX 86 13 7 14 4 15 5 16 88 17 6 18 87 19 2 20 1 21 3 22 15 23
REMARK SMILES IDX 16 24 17 25 18 27 19 28 20 29 81 30 21 31 80 32 22 33 23 34
REMARK SMILES IDX 24 35 74 36 25 37 79 38 73 39 75 40 26 41 78 42 72 43 71 44
REMARK SMILES IDX 27 46 59 47 39 48 58 49 40 50 43 51 57 52 76 53 41 54 42 55
REMARK SMILES IDX 56 57 77 58 44 59 28 60 29 61 37 62 30 63 32 64 38 65 31 66
REMARK SMILES IDX 33 67 34 68 35 69 36 70 60 71 61 72 69 73 62 74 64 75 70 76
REMARK SMILES IDX 63 77 65 78 66 79 67 80 68 81 45 82 46 83 54 84 47 85 49 86
REMARK SMILES IDX 55 87 48 88 50 89 51 90 52 91 53 92
REMARK H PARENT 11 7 16 26 75 45 43 56
REMARK Flexibility Score: inf
ROOT
ATOM      1  C   UNL A   1      31.737  29.299  26.488  1.00  0.00     0.023 C 
ENDROOT
BRANCH   1   2
ATOM      2  C   UNL A   1      31.794  28.173  27.519  1.00  0.00     0.023 C 
BRANCH   2   3
ATOM      3  C   UNL A   1      32.295  26.837  26.989  1.00  0.00     0.116 C 
BRANCH   3   4
ATOM      4  N   UNL A   1      31.297  26.023  26.345  1.00  0.00    -0.355 N 
ATOM      5  C   UNL A   1      31.223  25.490  25.095  1.00  0.00     0.230 C 
ATOM      6  O   UNL A   1      30.591  24.422  25.063  1.00  0.00    -0.274 OA
ATOM      7  H   UNL A   1      30.522  25.813  26.917  1.00  0.00     0.163 HD
BRANCH   5   8
ATOM      8  C   UNL A   1      31.813  26.125  23.757  1.00  0.00     0.077 C 
ATOM      9  C   UNL A   1      33.270  26.628  23.919  1.00  0.00     0.022 C 
ATOM     10  C   UNL A   1      31.942  25.101  22.560  1.00  0.00     0.006 C 
ATOM     11  C   UNL A   1      34.213  25.615  23.267  1.00  0.00     0.002 C 
ATOM     12  C   UNL A   1      33.358  24.518  22.650  1.00  0.00     0.005 C 
ATOM     13  C   UNL A   1      31.855  25.651  21.120  1.00  0.00     0.009 C 
BRANCH   8  14
ATOM     14  C   UNL A   1      30.854  27.315  23.441  1.00  0.00    -0.032 A 
ATOM     15  C   UNL A   1      29.059  29.456  22.787  1.00  0.00    -0.045 A 
ATOM     16  C   UNL A   1      28.587  28.231  23.271  1.00  0.00     0.004 A 
ATOM     17  C   UNL A   1      30.452  29.634  22.779  1.00  0.00     0.004 A 
ATOM     18  C   UNL A   1      29.467  27.201  23.624  1.00  0.00     0.005 A 
ATOM     19  C   UNL A   1      31.331  28.586  23.091  1.00  0.00     0.005 A 
BRANCH  15  20
ATOM     20  C   UNL A   1      28.108  30.575  22.369  1.00  0.00     0.013 C 
ATOM     21  C   UNL A   1      27.376  31.217  23.559  1.00  0.00     0.012 C 
ATOM     22  C   UNL A   1      28.788  31.711  21.583  1.00  0.00     0.012 C 
ENDBRANCH  15  20
ENDBRANCH   8  14
ENDBRANCH   5   8
ENDBRANCH   3   4
ENDBRANCH   2   3
ENDBRANCH   1   2
BRANCH   1  23
ATOM     23  C   UNL A   1      32.986  30.171  26.382  1.00  0.00     0.116 C 
BRANCH  23  24
ATOM     24  N   UNL A   1      32.797  31.554  26.795  1.00  0.00    -0.352 N 
ATOM     25  C   UNL A   1      33.631  32.323  27.582  1.00  0.00     0.251 C 
ATOM     26  H   UNL A   1      31.977  31.995  26.475  1.00  0.00     0.163 HD
ATOM     27  O   UNL A   1      33.313  33.458  27.903  1.00  0.00    -0.269 OA
BRANCH  25  28
ATOM     28  C   UNL A   1      34.898  31.729  28.064  1.00  0.00     0.039 A 
ATOM     29  C   UNL A   1      36.048  32.521  28.097  1.00  0.00     0.014 A 
ATOM     30  C   UNL A   1      34.928  30.418  28.544  1.00  0.00     0.014 A 
ATOM     31  C   UNL A   1      37.214  32.014  28.673  1.00  0.00     0.010 A 
ATOM     32  C   UNL A   1      36.061  29.950  29.197  1.00  0.00     0.010 A 
ATOM     33  C   UNL A   1      37.222  30.734  29.257  1.00  0.00    -0.014 A 
BRANCH  33  34
ATOM     34  C   UNL A   1      38.438  30.195  29.915  1.00  0.00     0.031 A 
ATOM     35  C   UNL A   1      38.805  30.650  31.304  1.00  0.00     0.074 A 
ATOM     36  C   UNL A   1      39.254  29.362  29.239  1.00  0.00     0.049 A 
ATOM     37  N   UNL A   1      39.826  30.302  32.041  1.00  0.00    -0.248 NA
ATOM     38  C   UNL A   1      37.929  31.653  31.933  1.00  0.00     0.031 C 
ATOM     39  C   UNL A   1      39.064  28.927  27.854  1.00  0.00     0.029 A 
ATOM     40  N   UNL A   1      40.419  28.745  29.623  1.00  0.00    -0.354 N 
ATOM     41  C   UNL A   1      39.742  31.074  33.194  1.00  0.00     0.074 A 
ATOM     42  C   UNL A   1      38.595  31.939  33.041  1.00  0.00     0.031 C 
ATOM     43  C   UNL A   1      40.064  28.096  27.512  1.00  0.00     0.029 A 
ATOM     44  C   UNL A   1      40.972  27.951  28.645  1.00  0.00     0.049 A 
ATOM     45  H   UNL A   1      40.821  28.860  30.514  1.00  0.00     0.167 HD
ATOM     46  C   UNL A   1      40.524  31.040  34.299  1.00  0.00     0.034 A 
ATOM     47  C   UNL A   1      42.078  27.181  28.668  1.00  0.00     0.034 A 
ATOM     48  C   UNL A   1      41.620  30.128  34.476  1.00  0.00     0.049 A 
ATOM     49  C   UNL A   1      42.878  27.093  29.940  1.00  0.00     0.074 A 
ATOM     50  C   UNL A   1      42.404  29.929  35.598  1.00  0.00     0.029 A 
ATOM     51  N   UNL A   1      42.086  29.260  33.501  1.00  0.00    -0.354 N 
ATOM     52  N   UNL A   1      42.672  27.692  31.089  1.00  0.00    -0.248 NA
ATOM     53  C   UNL A   1      44.037  26.188  29.935  1.00  0.00     0.031 C 
ATOM     54  C   UNL A   1      43.354  28.948  35.296  1.00  0.00     0.029 A 
ATOM     55  C   UNL A   1      43.149  28.522  33.993  1.00  0.00     0.049 A 
ATOM     56  H   UNL A   1      41.716  29.177  32.593  1.00  0.00     0.167 HD
ATOM     57  C   UNL A   1      43.644  27.203  31.953  1.00  0.00     0.074 A 
ATOM     58  C   UNL A   1      44.429  26.246  31.201  1.00  0.00     0.031 C 
ATOM     59  C   UNL A   1      43.877  27.527  33.251  1.00  0.00     0.034 A 
BRANCH  46  60
ATOM     60  C   UNL A   1      40.177  31.976  35.428  1.00  0.00     0.023 A 
ATOM     61  C   UNL A   1      40.908  33.171  35.591  1.00  0.00     0.012 A 
ATOM     62  C   UNL A   1      39.108  31.696  36.302  1.00  0.00     0.148 A 
ATOM     63  C   UNL A   1      40.610  34.050  36.631  1.00  0.00     0.002 A 
ATOM     64  C   UNL A   1      38.787  32.601  37.307  1.00  0.00     0.091 A 
ATOM     65  F   UNL A   1      38.439  30.544  36.148  1.00  0.00    -0.205 F 
ATOM     66  C   UNL A   1      39.545  33.770  37.482  1.00  0.00     0.022 A 
BRANCH  64  67
ATOM     67  S   UNL A   1      37.382  32.369  38.402  1.00  0.00     0.127 S 
ATOM     68  O   UNL A   1      37.817  33.089  39.597  1.00  0.00    -0.237 OA
ATOM     69  O   UNL A   1      36.300  33.018  37.659  1.00  0.00    -0.237 OA
ATOM     70  O   UNL A   1      37.230  30.929  38.556  1.00  0.00    -0.744 OA
ENDBRANCH  64  67
ENDBRANCH  46  60
BRANCH  47  71
ATOM     71  C   UNL A   1      42.427  26.340  27.487  1.00  0.00     0.023 A 
ATOM     72  C   UNL A   1      43.177  26.911  26.438  1.00  0.00     0.012 A 
ATOM     73  C   UNL A   1      42.049  24.988  27.401  1.00  0.00     0.148 A 
ATOM     74  C   UNL A   1      43.514  26.161  25.311  1.00  0.00     0.002 A 
ATOM     75  C   UNL A   1      42.431  24.231  26.298  1.00  0.00     0.091 A 
ATOM     76  F   UNL A   1      41.327  24.465  28.403  1.00  0.00    -0.205 F 
ATOM     77  C   UNL A   1      43.149  24.820  25.245  1.00  0.00     0.022 A 
BRANCH  75  78
ATOM     78  S   UNL A   1      42.114  22.466  26.184  1.00  0.00     0.127 S 
ATOM     79  O   UNL A   1      42.781  22.123  24.931  1.00  0.00    -0.237 OA
ATOM     80  O   UNL A   1      42.772  21.961  27.390  1.00  0.00    -0.237 OA
ATOM     81  O   UNL A   1      40.665  22.327  26.190  1.00  0.00    -0.744 OA
ENDBRANCH  75  78
ENDBRANCH  47  71
BRANCH  59  82
ATOM     82  C   UNL A   1      44.995  26.809  33.959  1.00  0.00     0.023 A 
ATOM     83  C   UNL A   1      46.312  27.298  33.865  1.00  0.00     0.012 A 
ATOM     84  C   UNL A   1      44.726  25.695  34.777  1.00  0.00     0.148 A 
ATOM     85  C   UNL A   1      47.352  26.665  34.546  1.00  0.00     0.002 A 
ATOM     86  C   UNL A   1      45.759  25.100  35.493  1.00  0.00     0.091 A 
ATOM     87  F   UNL A   1      43.469  25.230  34.838  1.00  0.00    -0.205 F 
ATOM     88  C   UNL A   1      47.074  25.576  35.369  1.00  0.00     0.022 A 
BRANCH  86  89
ATOM     89  S   UNL A   1      45.466  23.758  36.650  1.00  0.00     0.127 S 
ATOM     90  O   UNL A   1      44.588  24.395  37.629  1.00  0.00    -0.237 OA
ATOM     91  O   UNL A   1      44.814  22.753  35.808  1.00  0.00    -0.237 OA
ATOM     92  O   UNL A   1      46.781  23.365  37.141  1.00  0.00    -0.744 OA
ENDBRANCH  86  89
ENDBRANCH  59  82
ENDBRANCH  33  34
ENDBRANCH  25  28
ENDBRANCH  23  24
ENDBRANCH   1  23
TORSDOF 16
ENDMDL
MODEL 2
REMARK VINA RESULT:     -12.2      2.288      3.973
REMARK SMILES CC(C)c1ccc([C@]2(C(=O)NCCCCNC(=O)c3ccc(-c4c5nc(c(-c6cccc(S(=O)(=O)[O-])c6F)c6ccc([nH]6)c(-c6cccc(S(=O)(=O)[O-])c6F)c6nc(c(-c7cccc(S(=O)(=O)[O-])c7F)c7ccc4[nH]7)C=C6)C=C5)cc3)CCC[C@@H]2C)cc1
REMARK SMILES IDX 14 1 13 2 12 3 11 4 9 5 10 6 8 8 82 9 85 10 83 11 84 12
REMARK SMILES IDX 86 13 7 14 4 15 5 16 88 17 6 18 87 19 2 20 1 21 3 22 15 23
REMARK SMILES IDX 16 24 17 25 18 27 19 28 20 29 81 30 21 31 80 32 22 33 23 34
REMARK SMILES IDX 24 35 74 36 25 37 79 38 73 39 75 40 26 41 78 42 72 43 71 44
REMARK SMILES IDX 27 46 59 47 39 48 58 49 40 50 43 51 57 52 76 53 41 54 42 55
REMARK SMILES IDX 56 57 77 58 44 59 28 60 29 61 37 62 30 63 32 64 38 65 31 66
REMARK SMILES IDX 33 67 34 68 35 69 36 70 60 71 61 72 69 73 62 74 64 75 70 76
REMARK SMILES IDX 63 77 65 78 66 79 67 80 68 81 45 82 46 83 54 84 47 85 49 86
REMARK SMILES IDX 55 87 48 88 50 89 51 90 52 91 53 92
REMARK H PARENT 11 7 16 26 75 45 43 56
REMARK Flexibility Score: inf
ROOT
ATOM      1  C   UNL A   1      31.426  28.468  25.989  1.00  0.00     0.023 C 
ENDROOT
BRANCH   1   2
ATOM      2  C   UNL A   1      31.424  27.142  26.746  1.00  0.00     0.023 C 
BRANCH   2   3
ATOM      3  C   UNL A   1      30.649  26.017  26.075  1.00  0.00     0.116 C 
BRANCH   3   4
ATOM      4  N   UNL A   1      30.880  24.706  26.624  1.00  0.00    -0.355 N 
ATOM      5  C   UNL A   1      31.949  23.866  26.559  1.00  0.00     0.230 C 
ATOM      6  O   UNL A   1      32.058  23.146  27.565  1.00  0.00    -0.274 OA
ATOM      7  H   UNL A   1      30.122  24.350  27.143  1.00  0.00     0.163 HD
BRANCH   5   8
ATOM      8  C   UNL A   1      32.971  23.724  25.344  1.00  0.00     0.077 C 
ATOM      9  C   UNL A   1      32.574  24.585  24.118  1.00  0.00     0.022 C 
ATOM     10  C   UNL A   1      34.428  24.245  25.663  1.00  0.00     0.006 C 
ATOM     11  C   UNL A   1      33.470  25.825  24.080  1.00  0.00     0.002 C 
ATOM     12  C   UNL A   1      34.458  25.716  25.232  1.00  0.00     0.005 C 
ATOM     13  C   UNL A   1      35.612  23.609  24.902  1.00  0.00     0.009 C 
BRANCH   8  14
ATOM     14  C   UNL A   1      32.931  22.206  24.984  1.00  0.00    -0.032 A 
ATOM     15  C   UNL A   1      32.766  19.417  24.331  1.00  0.00    -0.045 A 
ATOM     16  C   UNL A   1      32.319  20.401  23.443  1.00  0.00     0.004 A 
ATOM     17  C   UNL A   1      33.431  19.865  25.484  1.00  0.00     0.004 A 
ATOM     18  C   UNL A   1      32.434  21.763  23.749  1.00  0.00     0.005 A 
ATOM     19  C   UNL A   1      33.505  21.228  25.809  1.00  0.00     0.005 A 
BRANCH  15  20
ATOM     20  C   UNL A   1      32.617  17.929  24.022  1.00  0.00     0.013 C 
ATOM     21  C   UNL A   1      33.839  17.340  23.299  1.00  0.00     0.012 C 
ATOM     22  C   UNL A   1      32.355  17.057  25.264  1.00  0.00     0.012 C 
ENDBRANCH  15  20
ENDBRANCH   8  14
ENDBRANCH   5   8
ENDBRANCH   3   4
ENDBRANCH   2   3
ENDBRANCH   1   2
BRANCH   1  23
ATOM     23  C   UNL A   1      32.658  29.348  26.189  1.00  0.00     0.116 C 
BRANCH  23  24
ATOM     24  N   UNL A   1      32.365  30.744  26.482  1.00  0.00    -0.352 N 
ATOM     25  C   UNL A   1      33.132  31.635  27.206  1.00  0.00     0.251 C 
ATOM     26  H   UNL A   1      31.520  31.096  26.120  1.00  0.00     0.163 HD
ATOM     27  O   UNL A   1      32.729  32.766  27.428  1.00  0.00    -0.269 OA
BRANCH  25  28
ATOM     28  C   UNL A   1      34.433  31.176  27.745  1.00  0.00     0.039 A 
ATOM     29  C   UNL A   1      35.479  32.094  27.862  1.00  0.00     0.014 A 
ATOM     30  C   UNL A   1      34.589  29.863  28.194  1.00  0.00     0.014 A 
ATOM     31  C   UNL A   1      36.663  31.707  28.492  1.00  0.00     0.010 A 
ATOM     32  C   UNL A   1      35.733  29.509  28.899  1.00  0.00     0.010 A 
ATOM     33  C   UNL A   1      36.789  30.420  29.044  1.00  0.00    -0.014 A 
BRANCH  33  34
ATOM     34  C   UNL A   1      38.022  30.005  29.757  1.00  0.00     0.031 A 
ATOM     35  C   UNL A   1      38.283  30.497  31.157  1.00  0.00     0.074 A 
ATOM     36  C   UNL A   1      38.945  29.254  29.122  1.00  0.00     0.049 A 
ATOM     37  N   UNL A   1      39.301  30.253  31.939  1.00  0.00    -0.248 NA
ATOM     38  C   UNL A   1      37.287  31.411  31.741  1.00  0.00     0.031 C 
ATOM     39  C   UNL A   1      38.858  28.799  27.733  1.00  0.00     0.029 A 
ATOM     40  N   UNL A   1      40.147  28.755  29.559  1.00  0.00    -0.354 N 
ATOM     41  C   UNL A   1      39.092  31.017  33.082  1.00  0.00     0.074 A 
ATOM     42  C   UNL A   1      37.873  31.764  32.875  1.00  0.00     0.031 C 
ATOM     43  C   UNL A   1      39.948  28.070  27.440  1.00  0.00     0.029 A 
ATOM     44  C   UNL A   1      40.817  28.017  28.611  1.00  0.00     0.049 A 
ATOM     45  H   UNL A   1      40.497  28.912  30.466  1.00  0.00     0.167 HD
ATOM     46  C   UNL A   1      39.825  31.062  34.219  1.00  0.00     0.034 A 
ATOM     47  C   UNL A   1      41.992  27.360  28.686  1.00  0.00     0.034 A 
ATOM     48  C   UNL A   1      40.996  30.263  34.449  1.00  0.00     0.049 A 
ATOM     49  C   UNL A   1      42.741  27.354  29.992  1.00  0.00     0.074 A 
ATOM     50  C   UNL A   1      41.747  30.145  35.605  1.00  0.00     0.029 A 
ATOM     51  N   UNL A   1      41.587  29.442  33.501  1.00  0.00    -0.354 N 
ATOM     52  N   UNL A   1      42.428  27.933  31.127  1.00  0.00    -0.248 NA
ATOM     53  C   UNL A   1      43.982  26.567  30.043  1.00  0.00     0.031 C 
ATOM     54  C   UNL A   1      42.802  29.262  35.351  1.00  0.00     0.029 A 
ATOM     55  C   UNL A   1      42.695  28.814  34.043  1.00  0.00     0.049 A 
ATOM     56  H   UNL A   1      41.266  29.322  32.579  1.00  0.00     0.167 HD
ATOM     57  C   UNL A   1      43.405  27.545  32.036  1.00  0.00     0.074 A 
ATOM     58  C   UNL A   1      44.311  26.667  31.324  1.00  0.00     0.031 C 
ATOM     59  C   UNL A   1      43.548  27.893  33.339  1.00  0.00     0.034 A 
BRANCH  46  60
ATOM     60  C   UNL A   1      39.339  31.962  35.326  1.00  0.00     0.023 A 
ATOM     61  C   UNL A   1      38.403  31.473  36.261  1.00  0.00     0.012 A 
ATOM     62  C   UNL A   1      39.833  33.274  35.466  1.00  0.00     0.148 A 
ATOM     63  C   UNL A   1      37.934  32.287  37.290  1.00  0.00     0.002 A 
ATOM     64  C   UNL A   1      39.395  34.064  36.523  1.00  0.00     0.091 A 
ATOM     65  F   UNL A   1      40.703  33.732  34.555  1.00  0.00    -0.205 F 
ATOM     66  C   UNL A   1      38.436  33.578  37.427  1.00  0.00     0.022 A 
BRANCH  64  67
ATOM     67  S   UNL A   1      40.044  35.711  36.831  1.00  0.00     0.127 S 
ATOM     68  O   UNL A   1      41.480  35.451  36.918  1.00  0.00    -0.237 OA
ATOM     69  O   UNL A   1      39.627  36.437  35.631  1.00  0.00    -0.237 OA
ATOM     70  O   UNL A   1      39.412  36.164  38.062  1.00  0.00    -0.744 OA
ENDBRANCH  64  67
ENDBRANCH  46  60
BRANCH  47  71
ATOM     71  C   UNL A   1      42.472  26.554  27.528  1.00  0.00     0.023 A 
ATOM     72  C   UNL A   1      43.314  27.162  26.574  1.00  0.00     0.012 A 
ATOM     73  C   UNL A   1      42.126  25.200  27.371  1.00  0.00     0.148 A 
ATOM     74  C   UNL A   1      43.776  26.445  25.470  1.00  0.00     0.002 A 
ATOM     75  C   UNL A   1      42.630  24.476  26.295  1.00  0.00     0.091 A 
ATOM     76  F   UNL A   1      41.314  24.641  28.281  1.00  0.00    -0.205 F 
ATOM     77  C   UNL A   1      43.441  25.101  25.335  1.00  0.00     0.022 A 
BRANCH  75  78
ATOM     78  S   UNL A   1      42.355  22.711  26.106  1.00  0.00     0.127 S 
ATOM     79  O   UNL A   1      43.047  22.432  24.851  1.00  0.00    -0.237 OA
ATOM     80  O   UNL A   1      43.006  22.173  27.302  1.00  0.00    -0.237 OA
ATOM     81  O   UNL A   1      40.909  22.540  26.085  1.00  0.00    -0.744 OA
ENDBRANCH  75  78
ENDBRANCH  47  71
BRANCH  59  82
ATOM     82  C   UNL A   1      44.700  27.291  34.099  1.00  0.00     0.023 A 
ATOM     83  C   UNL A   1      45.954  27.931  34.096  1.00  0.00     0.012 A 
ATOM     84  C   UNL A   1      44.517  26.131  34.877  1.00  0.00     0.148 A 
ATOM     85  C   UNL A   1      47.020  27.405  34.826  1.00  0.00     0.002 A 
ATOM     86  C   UNL A   1      45.569  25.640  35.642  1.00  0.00     0.091 A 
ATOM     87  F   UNL A   1      43.322  25.523  34.852  1.00  0.00    -0.205 F 
ATOM     88  C   UNL A   1      46.824  26.269  35.608  1.00  0.00     0.022 A 
BRANCH  86  89
ATOM     89  S   UNL A   1      45.369  24.242  36.752  1.00  0.00     0.127 S 
ATOM     90  O   UNL A   1      45.007  23.173  35.823  1.00  0.00    -0.237 OA
ATOM     91  O   UNL A   1      46.704  24.113  37.339  1.00  0.00    -0.237 OA
ATOM     92  O   UNL A   1      44.334  24.635  37.699  1.00  0.00    -0.744 OA
ENDBRANCH  86  89
ENDBRANCH  59  82
ENDBRANCH  33  34
ENDBRANCH  25  28
ENDBRANCH  23  24
ENDBRANCH   1  23
TORSDOF 16
ENDMDL
MODEL 3
REMARK VINA RESULT:     -12.0      5.016      9.894
REMARK SMILES CC(C)c1ccc([C@]2(C(=O)NCCCCNC(=O)c3ccc(-c4c5nc(c(-c6cccc(S(=O)(=O)[O-])c6F)c6ccc([nH]6)c(-c6cccc(S(=O)(=O)[O-])c6F)c6nc(c(-c7cccc(S(=O)(=O)[O-])c7F)c7ccc4[nH]7)C=C6)C=C5)cc3)CCC[C@@H]2C)cc1
REMARK SMILES IDX 14 1 13 2 12 3 11 4 9 5 10 6 8 8 82 9 85 10 83 11 84 12
REMARK SMILES IDX 86 13 7 14 4 15 5 16 88 17 6 18 87 19 2 20 1 21 3 22 15 23
REMARK SMILES IDX 16 24 17 25 18 27 19 28 20 29 81 30 21 31 80 32 22 33 23 34
REMARK SMILES IDX 24 35 74 36 25 37 79 38 73 39 75 40 26 41 78 42 72 43 71 44
REMARK SMILES IDX 27 46 59 47 39 48 58 49 40 50 43 51 57 52 76 53 41 54 42 55
REMARK SMILES IDX 56 57 77 58 44 59 28 60 29 61 37 62 30 63 32 64 38 65 31 66
REMARK SMILES IDX 33 67 34 68 35 69 36 70 60 71 61 72 69 73 62 74 64 75 70 76
REMARK SMILES IDX 63 77 65 78 66 79 67 80 68 81 45 82 46 83 54 84 47 85 49 86
REMARK SMILES IDX 55 87 48 88 50 89 51 90 52 91 53 92
REMARK H PARENT 11 7 16 26 75 45 43 56
REMARK Flexibility Score: inf
ROOT
ATOM      1  C   UNL A   1      35.248  21.859  24.571  1.00  0.00     0.023 C 
ENDROOT
BRANCH   1   2
ATOM      2  C   UNL A   1      35.042  22.779  23.368  1.00  0.00     0.023 C 
BRANCH   2   3
ATOM      3  C   UNL A   1      33.597  22.943  22.920  1.00  0.00     0.116 C 
BRANCH   3   4
ATOM      4  N   UNL A   1      33.327  24.133  22.156  1.00  0.00    -0.355 N 
ATOM      5  C   UNL A   1      33.220  25.442  22.515  1.00  0.00     0.230 C 
ATOM      6  O   UNL A   1      33.569  26.219  21.613  1.00  0.00    -0.274 OA
ATOM      7  H   UNL A   1      33.194  23.970  21.194  1.00  0.00     0.163 HD
BRANCH   5   8
ATOM      8  C   UNL A   1      32.672  26.002  23.904  1.00  0.00     0.077 C 
ATOM      9  C   UNL A   1      32.114  24.888  24.827  1.00  0.00     0.022 C 
ATOM     10  C   UNL A   1      33.780  26.668  24.812  1.00  0.00     0.006 C 
ATOM     11  C   UNL A   1      33.145  24.595  25.918  1.00  0.00     0.002 C 
ATOM     12  C   UNL A   1      34.311  25.552  25.721  1.00  0.00     0.005 C 
ATOM     13  C   UNL A   1      33.345  27.776  25.796  1.00  0.00     0.009 C 
BRANCH   8  14
ATOM     14  C   UNL A   1      31.539  26.996  23.497  1.00  0.00    -0.032 A 
ATOM     15  C   UNL A   1      29.426  28.760  22.686  1.00  0.00    -0.045 A 
ATOM     16  C   UNL A   1      29.163  27.592  23.411  1.00  0.00     0.004 A 
ATOM     17  C   UNL A   1      30.777  29.098  22.508  1.00  0.00     0.004 A 
ATOM     18  C   UNL A   1      30.200  26.752  23.836  1.00  0.00     0.005 A 
ATOM     19  C   UNL A   1      31.812  28.233  22.896  1.00  0.00     0.005 A 
BRANCH  15  20
ATOM     20  C   UNL A   1      28.303  29.667  22.190  1.00  0.00     0.013 C 
ATOM     21  C   UNL A   1      27.581  30.408  23.328  1.00  0.00     0.012 C 
ATOM     22  C   UNL A   1      28.761  30.727  21.172  1.00  0.00     0.012 C 
ENDBRANCH  15  20
ENDBRANCH   8  14
ENDBRANCH   5   8
ENDBRANCH   3   4
ENDBRANCH   2   3
ENDBRANCH   1   2
BRANCH   1  23
ATOM     23  C   UNL A   1      36.485  22.137  25.419  1.00  0.00     0.116 C 
BRANCH  23  24
ATOM     24  N   UNL A   1      37.453  21.050  25.456  1.00  0.00    -0.352 N 
ATOM     25  C   UNL A   1      38.762  21.096  25.894  1.00  0.00     0.251 C 
ATOM     26  H   UNL A   1      37.137  20.176  25.129  1.00  0.00     0.163 HD
ATOM     27  O   UNL A   1      39.483  20.114  25.807  1.00  0.00    -0.269 OA
BRANCH  25  28
ATOM     28  C   UNL A   1      39.284  22.372  26.433  1.00  0.00     0.039 A 
ATOM     29  C   UNL A   1      40.350  22.341  27.334  1.00  0.00     0.014 A 
ATOM     30  C   UNL A   1      38.765  23.592  25.992  1.00  0.00     0.014 A 
ATOM     31  C   UNL A   1      40.938  23.539  27.744  1.00  0.00     0.010 A 
ATOM     32  C   UNL A   1      39.410  24.775  26.330  1.00  0.00     0.010 A 
ATOM     33  C   UNL A   1      40.492  24.766  27.220  1.00  0.00    -0.014 A 
BRANCH  33  34
ATOM     34  C   UNL A   1      41.134  26.047  27.608  1.00  0.00     0.031 A 
ATOM     35  C   UNL A   1      42.549  26.338  27.182  1.00  0.00     0.074 A 
ATOM     36  C   UNL A   1      40.478  26.912  28.407  1.00  0.00     0.049 A 
ATOM     37  N   UNL A   1      43.282  27.392  27.426  1.00  0.00    -0.248 NA
ATOM     38  C   UNL A   1      43.245  25.293  26.411  1.00  0.00     0.031 C 
ATOM     39  C   UNL A   1      39.142  26.701  28.971  1.00  0.00     0.029 A 
ATOM     40  N   UNL A   1      40.854  28.138  28.899  1.00  0.00    -0.354 N 
ATOM     41  C   UNL A   1      44.533  27.118  26.883  1.00  0.00     0.074 A 
ATOM     42  C   UNL A   1      44.472  25.783  26.334  1.00  0.00     0.031 C 
ATOM     43  C   UNL A   1      38.803  27.770  29.711  1.00  0.00     0.029 A 
ATOM     44  C   UNL A   1      39.898  28.734  29.688  1.00  0.00     0.049 A 
ATOM     45  H   UNL A   1      41.725  28.551  28.704  1.00  0.00     0.167 HD
ATOM     46  C   UNL A   1      45.621  27.919  26.810  1.00  0.00     0.034 A 
ATOM     47  C   UNL A   1      39.901  29.931  30.308  1.00  0.00     0.034 A 
ATOM     48  C   UNL A   1      45.654  29.271  27.293  1.00  0.00     0.049 A 
ATOM     49  C   UNL A   1      41.089  30.838  30.135  1.00  0.00     0.074 A 
ATOM     50  C   UNL A   1      46.664  30.208  27.168  1.00  0.00     0.029 A 
ATOM     51  N   UNL A   1      44.626  29.881  27.995  1.00  0.00    -0.354 N 
ATOM     52  N   UNL A   1      42.193  30.634  29.456  1.00  0.00    -0.248 NA
ATOM     53  C   UNL A   1      41.016  32.159  30.776  1.00  0.00     0.031 C 
ATOM     54  C   UNL A   1      46.251  31.382  27.807  1.00  0.00     0.029 A 
ATOM     55  C   UNL A   1      44.975  31.182  28.312  1.00  0.00     0.049 A 
ATOM     56  H   UNL A   1      43.772  29.454  28.232  1.00  0.00     0.167 HD
ATOM     57  C   UNL A   1      42.922  31.813  29.549  1.00  0.00     0.074 A 
ATOM     58  C   UNL A   1      42.127  32.734  30.337  1.00  0.00     0.031 C 
ATOM     59  C   UNL A   1      44.145  32.106  29.040  1.00  0.00     0.034 A 
BRANCH  46  60
ATOM     60  C   UNL A   1      46.846  27.370  26.124  1.00  0.00     0.023 A 
ATOM     61  C   UNL A   1      46.992  27.525  24.730  1.00  0.00     0.012 A 
ATOM     62  C   UNL A   1      47.868  26.737  26.858  1.00  0.00     0.148 A 
ATOM     63  C   UNL A   1      48.112  27.021  24.071  1.00  0.00     0.002 A 
ATOM     64  C   UNL A   1      49.004  26.279  26.201  1.00  0.00     0.091 A 
ATOM     65  F   UNL A   1      47.703  26.576  28.179  1.00  0.00    -0.205 F 
ATOM     66  C   UNL A   1      49.122  26.408  24.807  1.00  0.00     0.022 A 
BRANCH  64  67
ATOM     67  S   UNL A   1      50.395  25.548  27.072  1.00  0.00     0.127 S 
ATOM     68  O   UNL A   1      49.781  24.364  27.669  1.00  0.00    -0.237 OA
ATOM     69  O   UNL A   1      51.329  25.266  25.981  1.00  0.00    -0.237 OA
ATOM     70  O   UNL A   1      50.853  26.561  28.012  1.00  0.00    -0.744 OA
ENDBRANCH  64  67
ENDBRANCH  46  60
BRANCH  47  71
ATOM     71  C   UNL A   1      38.692  30.389  31.051  1.00  0.00     0.023 A 
ATOM     72  C   UNL A   1      38.592  30.116  32.430  1.00  0.00     0.012 A 
ATOM     73  C   UNL A   1      37.660  31.107  30.418  1.00  0.00     0.148 A 
ATOM     74  C   UNL A   1      37.472  30.519  33.158  1.00  0.00     0.002 A 
ATOM     75  C   UNL A   1      36.569  31.549  31.160  1.00  0.00     0.091 A 
ATOM     76  F   UNL A   1      37.767  31.348  29.103  1.00  0.00    -0.205 F 
ATOM     77  C   UNL A   1      36.465  31.242  32.526  1.00  0.00     0.022 A 
BRANCH  75  78
ATOM     78  S   UNL A   1      35.287  32.594  30.459  1.00  0.00     0.127 S 
ATOM     79  O   UNL A   1      34.812  31.779  29.345  1.00  0.00    -0.237 OA
ATOM     80  O   UNL A   1      34.350  32.717  31.577  1.00  0.00    -0.237 OA
ATOM     81  O   UNL A   1      35.951  33.839  30.096  1.00  0.00    -0.744 OA
ENDBRANCH  75  78
ENDBRANCH  47  71
BRANCH  59  82
ATOM     82  C   UNL A   1      44.686  33.491  29.277  1.00  0.00     0.023 A 
ATOM     83  C   UNL A   1      45.619  33.714  30.308  1.00  0.00     0.012 A 
ATOM     84  C   UNL A   1      44.325  34.555  28.428  1.00  0.00     0.148 A 
ATOM     85  C   UNL A   1      46.157  34.984  30.514  1.00  0.00     0.002 A 
ATOM     86  C   UNL A   1      44.903  35.807  28.608  1.00  0.00     0.091 A 
ATOM     87  F   UNL A   1      43.420  34.330  27.464  1.00  0.00    -0.205 F 
ATOM     88  C   UNL A   1      45.809  36.026  29.657  1.00  0.00     0.022 A 
BRANCH  86  89
ATOM     89  S   UNL A   1      44.584  37.173  27.486  1.00  0.00     0.127 S 
ATOM     90  O   UNL A   1      44.326  38.270  28.417  1.00  0.00    -0.237 OA
ATOM     91  O   UNL A   1      45.847  37.279  26.753  1.00  0.00    -0.237 OA
ATOM     92  O   UNL A   1      43.452  36.758  26.669  1.00  0.00    -0.744 OA
ENDBRANCH  86  89
ENDBRANCH  59  82
ENDBRANCH  33  34
ENDBRANCH  25  28
ENDBRANCH  23  24
ENDBRANCH   1  23
TORSDOF 16
ENDMDL
