MODEL 1
REMARK VINA RESULT:     -11.0      0.000      0.000
REMARK SMILES CC[NH2+][C@]1(C(=O)NCCCCNC(=O)c2ccc(-c3c4nc(c(-c5cccc(S(=O)(=O)[O-])c5F)c5ccc([nH]5)c(-c5cccc(S(=O)(=O)[O-])c5F)c5nc(c(-c6cccc(S(=O)(=O)[O-])c6F)c6ccc3[nH]6)C=C5)C=C4)cc2)CC[C@H]([N@H+](C)CC[NH+]2CCCC2)C1
REMARK SMILES IDX 9 1 8 2 7 3 5 4 6 5 4 7 78 8 90 9 79 10 80 11 3 12 2 15 1 16
REMARK SMILES IDX 81 17 82 18 83 20 84 21 85 22 86 23 89 24 87 26 88 27 10 28
REMARK SMILES IDX 11 29 12 30 13 31 14 33 15 34 16 35 77 36 17 37 76 38 18 39
REMARK SMILES IDX 19 40 20 41 70 42 21 43 75 44 69 45 71 46 22 47 74 48 68 49
REMARK SMILES IDX 67 50 23 52 55 53 35 54 54 55 36 56 39 57 53 58 72 59 37 60
REMARK SMILES IDX 38 61 52 63 73 64 40 65 24 66 25 67 33 68 26 69 28 70 34 71
REMARK SMILES IDX 27 72 29 73 30 74 31 75 32 76 56 77 57 78 65 79 58 80 60 81
REMARK SMILES IDX 66 82 59 83 61 84 62 85 63 86 64 87 41 88 42 89 50 90 43 91
REMARK SMILES IDX 45 92 51 93 44 94 46 95 47 96 48 97 49 98
REMARK H PARENT 7 6 3 13 3 14 81 19 85 25 12 32 71 51 39 62
REMARK Flexibility Score: inf
ROOT
ATOM      1  C   UNL A   1      32.785  28.453  24.894  1.00  0.00     0.023 C 
ENDROOT
BRANCH   1   2
ATOM      2  C   UNL A   1      31.502  27.718  25.299  1.00  0.00     0.116 C 
BRANCH   2   3
ATOM      3  N   UNL A   1      31.017  26.909  24.201  1.00  0.00    -0.351 N 
ATOM      4  C   UNL A   1      31.214  25.605  23.868  1.00  0.00     0.281 C 
ATOM      5  O   UNL A   1      30.901  25.303  22.708  1.00  0.00    -0.268 OA
ATOM      6  H   UNL A   1      30.433  27.397  23.575  1.00  0.00     0.163 HD
BRANCH   4   7
ATOM      7  C   UNL A   1      31.693  24.502  24.871  1.00  0.00     0.181 C 
ATOM      8  C   UNL A   1      30.701  24.504  26.063  1.00  0.00     0.085 C 
ATOM      9  C   UNL A   1      31.589  23.028  24.471  1.00  0.00     0.144 C 
ATOM     10  C   UNL A   1      30.912  23.180  26.805  1.00  0.00     0.072 C 
ATOM     11  C   UNL A   1      31.427  22.182  25.748  1.00  0.00     0.191 C 
BRANCH   7  12
ATOM     12  N   UNL A   1      33.032  24.893  25.383  1.00  0.00    -0.334 N 
ATOM     13  H   UNL A   1      33.001  25.885  25.619  1.00  0.00     0.347 HD
ATOM     14  H   UNL A   1      33.215  24.285  26.181  1.00  0.00     0.347 HD
BRANCH  12  15
ATOM     15  C   UNL A   1      34.141  24.686  24.458  1.00  0.00     0.257 C 
ATOM     16  C   UNL A   1      35.397  24.322  25.241  1.00  0.00     0.071 C 
ENDBRANCH  12  15
ENDBRANCH   7  12
BRANCH  11  17
ATOM     17  N   UNL A   1      32.536  21.289  26.144  1.00  0.00    -0.330 N 
ATOM     18  C   UNL A   1      33.422  21.770  27.195  1.00  0.00     0.333 C 
ATOM     19  H   UNL A   1      32.048  20.505  26.577  1.00  0.00     0.348 HD
BRANCH  17  20
ATOM     20  C   UNL A   1      33.308  20.800  24.970  1.00  0.00     0.324 C 
BRANCH  20  21
ATOM     21  C   UNL A   1      32.990  19.367  24.453  1.00  0.00     0.324 C 
BRANCH  21  22
ATOM     22  N   UNL A   1      33.716  18.309  25.172  1.00  0.00    -0.330 N 
ATOM     23  C   UNL A   1      34.766  17.704  24.349  1.00  0.00     0.262 C 
ATOM     24  C   UNL A   1      32.815  17.216  25.571  1.00  0.00     0.262 C 
ATOM     25  H   UNL A   1      34.122  18.767  25.987  1.00  0.00     0.348 HD
ATOM     26  C   UNL A   1      34.084  16.570  23.618  1.00  0.00     0.067 C 
ATOM     27  C   UNL A   1      33.113  16.035  24.652  1.00  0.00     0.067 C 
ENDBRANCH  21  22
ENDBRANCH  20  21
ENDBRANCH  17  20
ENDBRANCH  11  17
ENDBRANCH   4   7
ENDBRANCH   2   3
ENDBRANCH   1   2
BRANCH   1  28
ATOM     28  C   UNL A   1      33.928  28.312  25.905  1.00  0.00     0.023 C 
BRANCH  28  29
ATOM     29  C   UNL A   1      33.554  28.688  27.335  1.00  0.00     0.116 C 
BRANCH  29  30
ATOM     30  N   UNL A   1      33.533  30.123  27.569  1.00  0.00    -0.352 N 
ATOM     31  C   UNL A   1      34.524  30.903  28.119  1.00  0.00     0.251 C 
ATOM     32  H   UNL A   1      32.710  30.594  27.304  1.00  0.00     0.163 HD
ATOM     33  O   UNL A   1      34.330  32.088  28.347  1.00  0.00    -0.269 OA
BRANCH  31  34
ATOM     34  C   UNL A   1      35.810  30.266  28.475  1.00  0.00     0.039 A 
ATOM     35  C   UNL A   1      36.884  30.386  27.591  1.00  0.00     0.014 A 
ATOM     36  C   UNL A   1      35.964  29.604  29.695  1.00  0.00     0.014 A 
ATOM     37  C   UNL A   1      38.133  29.884  27.958  1.00  0.00     0.010 A 
ATOM     38  C   UNL A   1      37.225  29.173  30.090  1.00  0.00     0.010 A 
ATOM     39  C   UNL A   1      38.319  29.299  29.222  1.00  0.00    -0.014 A 
BRANCH  39  40
ATOM     40  C   UNL A   1      39.654  28.808  29.645  1.00  0.00     0.031 A 
ATOM     41  C   UNL A   1      40.404  29.512  30.743  1.00  0.00     0.074 A 
ATOM     42  C   UNL A   1      40.220  27.775  28.991  1.00  0.00     0.049 A 
ATOM     43  N   UNL A   1      41.578  29.233  31.247  1.00  0.00    -0.248 NA
ATOM     44  C   UNL A   1      39.767  30.701  31.332  1.00  0.00     0.031 C 
ATOM     45  C   UNL A   1      39.636  27.075  27.845  1.00  0.00     0.029 A 
ATOM     46  N   UNL A   1      41.423  27.146  29.185  1.00  0.00    -0.354 N 
ATOM     47  C   UNL A   1      41.834  30.227  32.184  1.00  0.00     0.074 A 
ATOM     48  C   UNL A   1      40.714  31.141  32.149  1.00  0.00     0.031 C 
ATOM     49  C   UNL A   1      40.476  26.107  27.446  1.00  0.00     0.029 A 
ATOM     50  C   UNL A   1      41.663  26.125  28.295  1.00  0.00     0.049 A 
ATOM     51  H   UNL A   1      42.057  27.400  29.895  1.00  0.00     0.167 HD
ATOM     52  C   UNL A   1      42.887  30.348  33.025  1.00  0.00     0.034 A 
ATOM     53  C   UNL A   1      42.717  25.293  28.183  1.00  0.00     0.034 A 
ATOM     54  C   UNL A   1      43.972  29.407  33.092  1.00  0.00     0.049 A 
ATOM     55  C   UNL A   1      43.839  25.402  29.179  1.00  0.00     0.074 A 
ATOM     56  C   UNL A   1      45.038  29.384  33.975  1.00  0.00     0.029 A 
ATOM     57  N   UNL A   1      44.131  28.324  32.244  1.00  0.00    -0.354 N 
ATOM     58  N   UNL A   1      43.977  26.240  30.179  1.00  0.00    -0.248 NA
ATOM     59  C   UNL A   1      44.930  24.424  29.061  1.00  0.00     0.031 C 
ATOM     60  C   UNL A   1      45.848  28.290  33.650  1.00  0.00     0.029 A 
ATOM     61  C   UNL A   1      45.277  27.624  32.577  1.00  0.00     0.049 A 
ATOM     62  H   UNL A   1      43.517  28.086  31.511  1.00  0.00     0.167 HD
ATOM     63  C   UNL A   1      45.148  25.871  30.828  1.00  0.00     0.074 A 
ATOM     64  C   UNL A   1      45.668  24.716  30.124  1.00  0.00     0.031 C 
ATOM     65  C   UNL A   1      45.750  26.444  31.899  1.00  0.00     0.034 A 
BRANCH  52  66
ATOM     66  C   UNL A   1      42.881  31.506  33.988  1.00  0.00     0.023 A 
ATOM     67  C   UNL A   1      43.483  32.725  33.610  1.00  0.00     0.012 A 
ATOM     68  C   UNL A   1      42.245  31.411  35.242  1.00  0.00     0.148 A 
ATOM     69  C   UNL A   1      43.486  33.817  34.476  1.00  0.00     0.002 A 
ATOM     70  C   UNL A   1      42.214  32.519  36.082  1.00  0.00     0.091 A 
ATOM     71  F   UNL A   1      41.698  30.239  35.595  1.00  0.00    -0.205 F 
ATOM     72  C   UNL A   1      42.843  33.718  35.705  1.00  0.00     0.022 A 
BRANCH  70  73
ATOM     73  S   UNL A   1      41.346  32.516  37.655  1.00  0.00     0.127 S 
ATOM     74  O   UNL A   1      42.155  31.581  38.436  1.00  0.00    -0.237 OA
ATOM     75  O   UNL A   1      41.459  33.915  38.072  1.00  0.00    -0.237 OA
ATOM     76  O   UNL A   1      39.988  32.079  37.362  1.00  0.00    -0.744 OA
ENDBRANCH  70  73
ENDBRANCH  52  66
BRANCH  53  77
ATOM     77  C   UNL A   1      42.713  24.222  27.146  1.00  0.00     0.023 A 
ATOM     78  C   UNL A   1      43.410  24.428  25.939  1.00  0.00     0.012 A 
ATOM     79  C   UNL A   1      42.052  22.996  27.356  1.00  0.00     0.148 A 
ATOM     80  C   UNL A   1      43.424  23.447  24.948  1.00  0.00     0.002 A 
ATOM     81  C   UNL A   1      42.116  22.002  26.386  1.00  0.00     0.091 A 
ATOM     82  F   UNL A   1      41.385  22.824  28.505  1.00  0.00    -0.205 F 
ATOM     83  C   UNL A   1      42.786  22.232  25.174  1.00  0.00     0.022 A 
BRANCH  81  84
ATOM     84  S   UNL A   1      41.436  20.360  26.649  1.00  0.00     0.127 S 
ATOM     85  O   UNL A   1      42.147  19.930  27.850  1.00  0.00    -0.237 OA
ATOM     86  O   UNL A   1      40.015  20.646  26.843  1.00  0.00    -0.237 OA
ATOM     87  O   UNL A   1      41.735  19.616  25.432  1.00  0.00    -0.744 OA
ENDBRANCH  81  84
ENDBRANCH  53  77
BRANCH  65  88
ATOM     88  C   UNL A   1      47.026  25.820  32.398  1.00  0.00     0.023 A 
ATOM     89  C   UNL A   1      48.261  26.218  31.847  1.00  0.00     0.012 A 
ATOM     90  C   UNL A   1      47.009  24.891  33.456  1.00  0.00     0.148 A 
ATOM     91  C   UNL A   1      49.455  25.677  32.318  1.00  0.00     0.002 A 
ATOM     92  C   UNL A   1      48.207  24.390  33.954  1.00  0.00     0.091 A 
ATOM     93  F   UNL A   1      45.824  24.507  33.954  1.00  0.00    -0.205 F 
ATOM     94  C   UNL A   1      49.429  24.773  33.379  1.00  0.00     0.022 A 
BRANCH  92  95
ATOM     95  S   UNL A   1      48.268  23.299  35.379  1.00  0.00     0.127 S 
ATOM     96  O   UNL A   1      48.742  22.052  34.780  1.00  0.00    -0.237 OA
ATOM     97  O   UNL A   1      49.241  23.967  36.245  1.00  0.00    -0.237 OA
ATOM     98  O   UNL A   1      46.913  23.266  35.913  1.00  0.00    -0.744 OA
ENDBRANCH  92  95
ENDBRANCH  65  88
ENDBRANCH  39  40
ENDBRANCH  31  34
ENDBRANCH  29  30
ENDBRANCH  28  29
ENDBRANCH   1  28
TORSDOF 20
ENDMDL
MODEL 2
REMARK VINA RESULT:     -10.5      5.198      8.870
REMARK SMILES CC[NH2+][C@]1(C(=O)NCCCCNC(=O)c2ccc(-c3c4nc(c(-c5cccc(S(=O)(=O)[O-])c5F)c5ccc([nH]5)c(-c5cccc(S(=O)(=O)[O-])c5F)c5nc(c(-c6cccc(S(=O)(=O)[O-])c6F)c6ccc3[nH]6)C=C5)C=C4)cc2)CC[C@H]([N@H+](C)CC[NH+]2CCCC2)C1
REMARK SMILES IDX 9 1 8 2 7 3 5 4 6 5 4 7 78 8 90 9 79 10 80 11 3 12 2 15 1 16
REMARK SMILES IDX 81 17 82 18 83 20 84 21 85 22 86 23 89 24 87 26 88 27 10 28
REMARK SMILES IDX 11 29 12 30 13 31 14 33 15 34 16 35 77 36 17 37 76 38 18 39
REMARK SMILES IDX 19 40 20 41 70 42 21 43 75 44 69 45 71 46 22 47 74 48 68 49
REMARK SMILES IDX 67 50 23 52 55 53 35 54 54 55 36 56 39 57 53 58 72 59 37 60
REMARK SMILES IDX 38 61 52 63 73 64 40 65 24 66 25 67 33 68 26 69 28 70 34 71
REMARK SMILES IDX 27 72 29 73 30 74 31 75 32 76 56 77 57 78 65 79 58 80 60 81
REMARK SMILES IDX 66 82 59 83 61 84 62 85 63 86 64 87 41 88 42 89 50 90 43 91
REMARK SMILES IDX 45 92 51 93 44 94 46 95 47 96 48 97 49 98
REMARK H PARENT 7 6 3 13 3 14 81 19 85 25 12 32 71 51 39 62
REMARK Flexibility Score: inf
ROOT
ATOM      1  C   UNL A   1      36.684  19.378  24.981  1.00  0.00     0.023 C 
ENDROOT
BRANCH   1   2
ATOM      2  C   UNL A   1      35.834  20.652  24.914  1.00  0.00     0.116 C 
BRANCH   2   3
ATOM      3  N   UNL A   1      34.799  20.621  25.925  1.00  0.00    -0.351 N 
ATOM      4  C   UNL A   1      34.011  21.593  26.459  1.00  0.00     0.281 C 
ATOM      5  O   UNL A   1      33.437  21.288  27.514  1.00  0.00    -0.268 OA
ATOM      6  H   UNL A   1      34.634  19.724  26.298  1.00  0.00     0.163 HD
BRANCH   4   7
ATOM      7  C   UNL A   1      33.727  22.972  25.774  1.00  0.00     0.181 C 
ATOM      8  C   UNL A   1      34.940  23.891  26.072  1.00  0.00     0.085 C 
ATOM      9  C   UNL A   1      33.722  23.064  24.246  1.00  0.00     0.144 C 
ATOM     10  C   UNL A   1      34.862  25.051  25.074  1.00  0.00     0.072 C 
ATOM     11  C   UNL A   1      34.125  24.494  23.838  1.00  0.00     0.191 C 
BRANCH   7  12
ATOM     12  N   UNL A   1      32.526  23.568  26.416  1.00  0.00    -0.334 N 
ATOM     13  H   UNL A   1      32.510  23.269  27.391  1.00  0.00     0.347 HD
ATOM     14  H   UNL A   1      32.616  24.577  26.296  1.00  0.00     0.347 HD
BRANCH  12  15
ATOM     15  C   UNL A   1      31.248  23.204  25.813  1.00  0.00     0.257 C 
ATOM     16  C   UNL A   1      30.125  23.448  26.814  1.00  0.00     0.071 C 
ENDBRANCH  12  15
ENDBRANCH   7  12
BRANCH  11  17
ATOM     17  N   UNL A   1      33.105  25.359  23.211  1.00  0.00    -0.330 N 
ATOM     18  C   UNL A   1      32.850  25.151  21.792  1.00  0.00     0.333 C 
ATOM     19  H   UNL A   1      32.243  25.050  23.661  1.00  0.00     0.348 HD
BRANCH  17  20
ATOM     20  C   UNL A   1      33.328  26.799  23.514  1.00  0.00     0.324 C 
BRANCH  20  21
ATOM     21  C   UNL A   1      32.394  27.459  24.569  1.00  0.00     0.324 C 
BRANCH  21  22
ATOM     22  N   UNL A   1      33.111  28.284  25.553  1.00  0.00    -0.330 N 
ATOM     23  C   UNL A   1      32.908  27.810  26.924  1.00  0.00     0.262 C 
ATOM     24  C   UNL A   1      32.651  29.681  25.521  1.00  0.00     0.262 C 
ATOM     25  H   UNL A   1      34.095  28.216  25.295  1.00  0.00     0.348 HD
ATOM     26  C   UNL A   1      31.669  28.530  27.405  1.00  0.00     0.067 C 
ATOM     27  C   UNL A   1      31.806  29.901  26.771  1.00  0.00     0.067 C 
ENDBRANCH  21  22
ENDBRANCH  20  21
ENDBRANCH  17  20
ENDBRANCH  11  17
ENDBRANCH   4   7
ENDBRANCH   2   3
ENDBRANCH   1   2
BRANCH   1  28
ATOM     28  C   UNL A   1      38.155  19.592  24.609  1.00  0.00     0.023 C 
BRANCH  28  29
ATOM     29  C   UNL A   1      39.023  20.116  25.748  1.00  0.00     0.116 C 
BRANCH  29  30
ATOM     30  N   UNL A   1      40.141  19.242  26.072  1.00  0.00    -0.352 N 
ATOM     31  C   UNL A   1      41.392  19.604  26.517  1.00  0.00     0.251 C 
ATOM     32  H   UNL A   1      39.984  18.277  25.958  1.00  0.00     0.163 HD
ATOM     33  O   UNL A   1      42.269  18.764  26.657  1.00  0.00    -0.269 OA
BRANCH  31  34
ATOM     34  C   UNL A   1      41.667  21.033  26.773  1.00  0.00     0.039 A 
ATOM     35  C   UNL A   1      42.139  21.410  28.031  1.00  0.00     0.014 A 
ATOM     36  C   UNL A   1      41.509  21.981  25.759  1.00  0.00     0.014 A 
ATOM     37  C   UNL A   1      42.506  22.737  28.257  1.00  0.00     0.010 A 
ATOM     38  C   UNL A   1      41.945  23.286  25.964  1.00  0.00     0.010 A 
ATOM     39  C   UNL A   1      42.437  23.679  27.217  1.00  0.00    -0.014 A 
BRANCH  39  40
ATOM     40  C   UNL A   1      42.872  25.081  27.429  1.00  0.00     0.031 A 
ATOM     41  C   UNL A   1      41.938  26.074  28.064  1.00  0.00     0.074 A 
ATOM     42  C   UNL A   1      44.081  25.476  26.983  1.00  0.00     0.049 A 
ATOM     43  N   UNL A   1      42.138  27.340  28.328  1.00  0.00    -0.248 NA
ATOM     44  C   UNL A   1      40.593  25.593  28.422  1.00  0.00     0.031 C 
ATOM     45  C   UNL A   1      45.036  24.632  26.262  1.00  0.00     0.029 A 
ATOM     46  N   UNL A   1      44.705  26.696  27.053  1.00  0.00    -0.354 N 
ATOM     47  C   UNL A   1      40.939  27.811  28.850  1.00  0.00     0.074 A 
ATOM     48  C   UNL A   1      40.003  26.709  28.825  1.00  0.00     0.031 C 
ATOM     49  C   UNL A   1      46.127  25.355  25.967  1.00  0.00     0.029 A 
ATOM     50  C   UNL A   1      45.947  26.716  26.463  1.00  0.00     0.049 A 
ATOM     51  H   UNL A   1      44.302  27.484  27.486  1.00  0.00     0.167 HD
ATOM     52  C   UNL A   1      40.654  29.040  29.341  1.00  0.00     0.034 A 
ATOM     53  C   UNL A   1      46.842  27.716  26.344  1.00  0.00     0.034 A 
ATOM     54  C   UNL A   1      41.604  30.116  29.413  1.00  0.00     0.049 A 
ATOM     55  C   UNL A   1      46.528  29.050  26.966  1.00  0.00     0.074 A 
ATOM     56  C   UNL A   1      41.447  31.367  29.981  1.00  0.00     0.029 A 
ATOM     57  N   UNL A   1      42.890  30.068  28.899  1.00  0.00    -0.354 N 
ATOM     58  N   UNL A   1      45.454  29.424  27.619  1.00  0.00    -0.248 NA
ATOM     59  C   UNL A   1      47.568  30.086  26.875  1.00  0.00     0.031 C 
ATOM     60  C   UNL A   1      42.637  32.081  29.799  1.00  0.00     0.029 A 
ATOM     61  C   UNL A   1      43.539  31.267  29.132  1.00  0.00     0.049 A 
ATOM     62  H   UNL A   1      43.285  29.294  28.436  1.00  0.00     0.167 HD
ATOM     63  C   UNL A   1      45.700  30.724  28.046  1.00  0.00     0.074 A 
ATOM     64  C   UNL A   1      47.036  31.062  27.599  1.00  0.00     0.031 C 
ATOM     65  C   UNL A   1      44.889  31.568  28.729  1.00  0.00     0.034 A 
BRANCH  52  66
ATOM     66  C   UNL A   1      39.274  29.262  29.904  1.00  0.00     0.023 A 
ATOM     67  C   UNL A   1      38.964  28.771  31.190  1.00  0.00     0.012 A 
ATOM     68  C   UNL A   1      38.302  29.990  29.191  1.00  0.00     0.148 A 
ATOM     69  C   UNL A   1      37.699  28.968  31.741  1.00  0.00     0.002 A 
ATOM     70  C   UNL A   1      37.057  30.220  29.765  1.00  0.00     0.091 A 
ATOM     71  F   UNL A   1      38.606  30.428  27.960  1.00  0.00    -0.205 F 
ATOM     72  C   UNL A   1      36.750  29.701  31.035  1.00  0.00     0.022 A 
BRANCH  70  73
ATOM     73  S   UNL A   1      35.792  31.215  28.968  1.00  0.00     0.127 S 
ATOM     74  O   UNL A   1      35.163  30.237  28.081  1.00  0.00    -0.237 OA
ATOM     75  O   UNL A   1      34.964  31.629  30.103  1.00  0.00    -0.237 OA
ATOM     76  O   UNL A   1      36.497  32.302  28.305  1.00  0.00    -0.744 OA
ENDBRANCH  70  73
ENDBRANCH  52  66
BRANCH  53  77
ATOM     77  C   UNL A   1      48.158  27.464  25.691  1.00  0.00     0.023 A 
ATOM     78  C   UNL A   1      49.242  27.020  26.472  1.00  0.00     0.012 A 
ATOM     79  C   UNL A   1      48.334  27.630  24.303  1.00  0.00     0.148 A 
ATOM     80  C   UNL A   1      50.487  26.777  25.891  1.00  0.00     0.002 A 
ATOM     81  C   UNL A   1      49.562  27.334  23.723  1.00  0.00     0.091 A 
ATOM     82  F   UNL A   1      47.294  28.064  23.578  1.00  0.00    -0.205 F 
ATOM     83  C   UNL A   1      50.645  26.925  24.517  1.00  0.00     0.022 A 
BRANCH  81  84
ATOM     84  S   UNL A   1      49.817  27.368  21.944  1.00  0.00     0.127 S 
ATOM     85  O   UNL A   1      51.237  27.043  21.838  1.00  0.00    -0.237 OA
ATOM     86  O   UNL A   1      48.908  26.318  21.487  1.00  0.00    -0.237 OA
ATOM     87  O   UNL A   1      49.439  28.711  21.523  1.00  0.00    -0.744 OA
ENDBRANCH  81  84
ENDBRANCH  53  77
BRANCH  65  88
ATOM     88  C   UNL A   1      45.428  32.933  29.063  1.00  0.00     0.023 A 
ATOM     89  C   UNL A   1      46.142  33.129  30.262  1.00  0.00     0.012 A 
ATOM     90  C   UNL A   1      45.287  34.005  28.160  1.00  0.00     0.148 A 
ATOM     91  C   UNL A   1      46.677  34.377  30.573  1.00  0.00     0.002 A 
ATOM     92  C   UNL A   1      45.864  35.235  28.454  1.00  0.00     0.091 A 
ATOM     93  F   UNL A   1      44.586  33.807  27.033  1.00  0.00    -0.205 F 
ATOM     94  C   UNL A   1      46.549  35.426  29.664  1.00  0.00     0.022 A 
BRANCH  92  95
ATOM     95  S   UNL A   1      45.829  36.608  27.297  1.00  0.00     0.127 S 
ATOM     96  O   UNL A   1      46.476  36.026  26.122  1.00  0.00    -0.237 OA
ATOM     97  O   UNL A   1      44.394  36.854  27.144  1.00  0.00    -0.237 OA
ATOM     98  O   UNL A   1      46.557  37.691  27.945  1.00  0.00    -0.744 OA
ENDBRANCH  92  95
ENDBRANCH  65  88
ENDBRANCH  39  40
ENDBRANCH  31  34
ENDBRANCH  29  30
ENDBRANCH  28  29
ENDBRANCH   1  28
TORSDOF 20
ENDMDL
MODEL 3
REMARK VINA RESULT:     -10.5      5.000     10.019
REMARK SMILES CC[NH2+][C@]1(C(=O)NCCCCNC(=O)c2ccc(-c3c4nc(c(-c5cccc(S(=O)(=O)[O-])c5F)c5ccc([nH]5)c(-c5cccc(S(=O)(=O)[O-])c5F)c5nc(c(-c6cccc(S(=O)(=O)[O-])c6F)c6ccc3[nH]6)C=C5)C=C4)cc2)CC[C@H]([N@H+](C)CC[NH+]2CCCC2)C1
REMARK SMILES IDX 9 1 8 2 7 3 5 4 6 5 4 7 78 8 90 9 79 10 80 11 3 12 2 15 1 16
REMARK SMILES IDX 81 17 82 18 83 20 84 21 85 22 86 23 89 24 87 26 88 27 10 28
REMARK SMILES IDX 11 29 12 30 13 31 14 33 15 34 16 35 77 36 17 37 76 38 18 39
REMARK SMILES IDX 19 40 20 41 70 42 21 43 75 44 69 45 71 46 22 47 74 48 68 49
REMARK SMILES IDX 67 50 23 52 55 53 35 54 54 55 36 56 39 57 53 58 72 59 37 60
REMARK SMILES IDX 38 61 52 63 73 64 40 65 24 66 25 67 33 68 26 69 28 70 34 71
REMARK SMILES IDX 27 72 29 73 30 74 31 75 32 76 56 77 57 78 65 79 58 80 60 81
REMARK SMILES IDX 66 82 59 83 61 84 62 85 63 86 64 87 41 88 42 89 50 90 43 91
REMARK SMILES IDX 45 92 51 93 44 94 46 95 47 96 48 97 49 98
REMARK H PARENT 7 6 3 13 3 14 81 19 85 25 12 32 71 51 39 62
REMARK Flexibility Score: inf
ROOT
ATOM      1  C   UNL A   1      36.788  22.663  24.113  1.00  0.00     0.023 C 
ENDROOT
BRANCH   1   2
ATOM      2  C   UNL A   1      36.037  23.540  25.122  1.00  0.00     0.116 C 
BRANCH   2   3
ATOM      3  N   UNL A   1      34.912  22.820  25.678  1.00  0.00    -0.351 N 
ATOM      4  C   UNL A   1      33.658  23.212  26.032  1.00  0.00     0.281 C 
ATOM      5  O   UNL A   1      33.040  22.416  26.753  1.00  0.00    -0.268 OA
ATOM      6  H   UNL A   1      35.089  21.862  25.830  1.00  0.00     0.163 HD
BRANCH   4   7
ATOM      7  C   UNL A   1      32.958  24.509  25.503  1.00  0.00     0.181 C 
ATOM      8  C   UNL A   1      31.865  24.893  26.533  1.00  0.00     0.085 C 
ATOM      9  C   UNL A   1      33.740  25.825  25.476  1.00  0.00     0.144 C 
ATOM     10  C   UNL A   1      31.489  26.350  26.244  1.00  0.00     0.072 C 
ATOM     11  C   UNL A   1      32.743  26.991  25.615  1.00  0.00     0.191 C 
BRANCH   7  12
ATOM     12  N   UNL A   1      32.289  24.181  24.217  1.00  0.00    -0.334 N 
ATOM     13  H   UNL A   1      32.115  23.176  24.201  1.00  0.00     0.347 HD
ATOM     14  H   UNL A   1      31.441  24.746  24.191  1.00  0.00     0.347 HD
BRANCH  12  15
ATOM     15  C   UNL A   1      33.039  24.526  23.014  1.00  0.00     0.257 C 
ATOM     16  C   UNL A   1      33.520  23.253  22.330  1.00  0.00     0.071 C 
ENDBRANCH  12  15
ENDBRANCH   7  12
BRANCH  11  17
ATOM     17  N   UNL A   1      32.538  27.881  24.454  1.00  0.00    -0.330 N 
ATOM     18  C   UNL A   1      33.730  28.477  23.864  1.00  0.00     0.333 C 
ATOM     19  H   UNL A   1      32.207  27.238  23.735  1.00  0.00     0.348 HD
BRANCH  17  20
ATOM     20  C   UNL A   1      31.494  28.910  24.712  1.00  0.00     0.324 C 
BRANCH  20  21
ATOM     21  C   UNL A   1      30.285  28.961  23.734  1.00  0.00     0.324 C 
BRANCH  21  22
ATOM     22  N   UNL A   1      30.110  30.270  23.086  1.00  0.00    -0.330 N 
ATOM     23  C   UNL A   1      29.183  31.132  23.825  1.00  0.00     0.262 C 
ATOM     24  C   UNL A   1      29.559  30.129  21.730  1.00  0.00     0.262 C 
ATOM     25  H   UNL A   1      31.040  30.686  23.064  1.00  0.00     0.348 HD
ATOM     26  C   UNL A   1      27.818  30.807  23.262  1.00  0.00     0.067 C 
ATOM     27  C   UNL A   1      28.103  30.580  21.791  1.00  0.00     0.067 C 
ENDBRANCH  21  22
ENDBRANCH  20  21
ENDBRANCH  17  20
ENDBRANCH  11  17
ENDBRANCH   4   7
ENDBRANCH   2   3
ENDBRANCH   1   2
BRANCH   1  28
ATOM     28  C   UNL A   1      37.372  21.382  24.717  1.00  0.00     0.023 C 
BRANCH  28  29
ATOM     29  C   UNL A   1      38.402  21.616  25.818  1.00  0.00     0.116 C 
BRANCH  29  30
ATOM     30  N   UNL A   1      39.347  20.520  25.967  1.00  0.00    -0.352 N 
ATOM     31  C   UNL A   1      40.661  20.590  26.369  1.00  0.00     0.251 C 
ATOM     32  H   UNL A   1      39.007  19.622  25.755  1.00  0.00     0.163 HD
ATOM     33  O   UNL A   1      41.370  19.594  26.356  1.00  0.00    -0.269 OA
BRANCH  31  34
ATOM     34  C   UNL A   1      41.211  21.902  26.768  1.00  0.00     0.039 A 
ATOM     35  C   UNL A   1      41.522  22.830  25.772  1.00  0.00     0.014 A 
ATOM     36  C   UNL A   1      41.365  22.230  28.117  1.00  0.00     0.014 A 
ATOM     37  C   UNL A   1      41.940  24.111  26.133  1.00  0.00     0.010 A 
ATOM     38  C   UNL A   1      41.709  23.530  28.475  1.00  0.00     0.010 A 
ATOM     39  C   UNL A   1      42.010  24.478  27.487  1.00  0.00    -0.014 A 
BRANCH  39  40
ATOM     40  C   UNL A   1      42.403  25.853  27.884  1.00  0.00     0.031 A 
ATOM     41  C   UNL A   1      43.840  26.286  27.786  1.00  0.00     0.074 A 
ATOM     42  C   UNL A   1      41.477  26.685  28.401  1.00  0.00     0.049 A 
ATOM     43  N   UNL A   1      44.373  27.441  28.088  1.00  0.00    -0.248 NA
ATOM     44  C   UNL A   1      44.810  25.282  27.318  1.00  0.00     0.031 C 
ATOM     45  C   UNL A   1      40.072  26.347  28.640  1.00  0.00     0.029 A 
ATOM     46  N   UNL A   1      41.585  27.981  28.838  1.00  0.00    -0.354 N 
ATOM     47  C   UNL A   1      45.739  27.294  27.878  1.00  0.00     0.074 A 
ATOM     48  C   UNL A   1      45.959  25.925  27.466  1.00  0.00     0.031 C 
ATOM     49  C   UNL A   1      39.448  27.411  29.169  1.00  0.00     0.029 A 
ATOM     50  C   UNL A   1      40.406  28.501  29.320  1.00  0.00     0.049 A 
ATOM     51  H   UNL A   1      42.426  28.492  28.809  1.00  0.00     0.167 HD
ATOM     52  C   UNL A   1      46.718  28.223  27.981  1.00  0.00     0.034 A 
ATOM     53  C   UNL A   1      40.129  29.722  29.819  1.00  0.00     0.034 A 
ATOM     54  C   UNL A   1      46.486  29.596  28.340  1.00  0.00     0.049 A 
ATOM     55  C   UNL A   1      41.220  30.758  29.852  1.00  0.00     0.074 A 
ATOM     56  C   UNL A   1      47.392  30.641  28.378  1.00  0.00     0.029 A 
ATOM     57  N   UNL A   1      45.260  30.115  28.722  1.00  0.00    -0.354 N 
ATOM     58  N   UNL A   1      42.472  30.651  29.476  1.00  0.00    -0.248 NA
ATOM     59  C   UNL A   1      40.850  32.097  30.335  1.00  0.00     0.031 C 
ATOM     60  C   UNL A   1      46.714  31.791  28.796  1.00  0.00     0.029 A 
ATOM     61  C   UNL A   1      45.382  31.464  29.002  1.00  0.00     0.049 A 
ATOM     62  H   UNL A   1      44.423  29.599  28.785  1.00  0.00     0.167 HD
ATOM     63  C   UNL A   1      43.030  31.913  29.644  1.00  0.00     0.074 A 
ATOM     64  C   UNL A   1      41.972  32.774  30.132  1.00  0.00     0.031 C 
ATOM     65  C   UNL A   1      44.305  32.320  29.433  1.00  0.00     0.034 A 
BRANCH  52  66
ATOM     66  C   UNL A   1      48.121  27.799  27.635  1.00  0.00     0.023 A 
ATOM     67  C   UNL A   1      48.976  27.336  28.658  1.00  0.00     0.012 A 
ATOM     68  C   UNL A   1      48.582  27.812  26.304  1.00  0.00     0.148 A 
ATOM     69  C   UNL A   1      50.277  26.929  28.368  1.00  0.00     0.002 A 
ATOM     70  C   UNL A   1      49.867  27.363  26.018  1.00  0.00     0.091 A 
ATOM     71  F   UNL A   1      47.765  28.277  25.348  1.00  0.00    -0.205 F 
ATOM     72  C   UNL A   1      50.718  26.932  27.049  1.00  0.00     0.022 A 
BRANCH  70  73
ATOM     73  S   UNL A   1      50.503  27.257  24.340  1.00  0.00     0.127 S 
ATOM     74  O   UNL A   1      50.681  28.669  24.004  1.00  0.00    -0.237 OA
ATOM     75  O   UNL A   1      51.749  26.513  24.531  1.00  0.00    -0.237 OA
ATOM     76  O   UNL A   1      49.488  26.551  23.572  1.00  0.00    -0.744 OA
ENDBRANCH  70  73
ENDBRANCH  52  66
BRANCH  53  77
ATOM     77  C   UNL A   1      38.739  30.057  30.237  1.00  0.00     0.023 A 
ATOM     78  C   UNL A   1      38.345  29.828  31.570  1.00  0.00     0.012 A 
ATOM     79  C   UNL A   1      37.817  30.626  29.338  1.00  0.00     0.148 A 
ATOM     80  C   UNL A   1      37.050  30.129  31.993  1.00  0.00     0.002 A 
ATOM     81  C   UNL A   1      36.545  30.973  29.779  1.00  0.00     0.091 A 
ATOM     82  F   UNL A   1      38.206  30.825  28.071  1.00  0.00    -0.205 F 
ATOM     83  C   UNL A   1      36.154  30.710  31.101  1.00  0.00     0.022 A 
BRANCH  81  84
ATOM     84  S   UNL A   1      35.372  31.847  28.735  1.00  0.00     0.127 S 
ATOM     85  O   UNL A   1      36.209  32.895  28.157  1.00  0.00    -0.237 OA
ATOM     86  O   UNL A   1      34.958  30.801  27.801  1.00  0.00    -0.237 OA
ATOM     87  O   UNL A   1      34.315  32.299  29.631  1.00  0.00    -0.744 OA
ENDBRANCH  81  84
ENDBRANCH  53  77
BRANCH  65  88
ATOM     88  C   UNL A   1      44.629  33.765  29.699  1.00  0.00     0.023 A 
ATOM     89  C   UNL A   1      45.089  34.155  30.973  1.00  0.00     0.012 A 
ATOM     90  C   UNL A   1      44.545  34.725  28.671  1.00  0.00     0.148 A 
ATOM     91  C   UNL A   1      45.426  35.483  31.230  1.00  0.00     0.002 A 
ATOM     92  C   UNL A   1      44.927  36.038  28.920  1.00  0.00     0.091 A 
ATOM     93  F   UNL A   1      44.085  34.340  27.471  1.00  0.00    -0.205 F 
ATOM     94  C   UNL A   1      45.357  36.421  30.201  1.00  0.00     0.022 A 
BRANCH  92  95
ATOM     95  S   UNL A   1      44.962  37.285  27.628  1.00  0.00     0.127 S 
ATOM     96  O   UNL A   1      45.949  36.731  26.703  1.00  0.00    -0.237 OA
ATOM     97  O   UNL A   1      43.584  37.264  27.134  1.00  0.00    -0.237 OA
ATOM     98  O   UNL A   1      45.344  38.527  28.286  1.00  0.00    -0.744 OA
ENDBRANCH  92  95
ENDBRANCH  65  88
ENDBRANCH  39  40
ENDBRANCH  31  34
ENDBRANCH  29  30
ENDBRANCH  28  29
ENDBRANCH   1  28
TORSDOF 20
ENDMDL
