MODEL 1
REMARK VINA RESULT:     -12.9      0.000      0.000
REMARK SMILES O=C(NCCCCNC(=O)[C@H]1[C@H]2CC[C@H](C2)[C@@H]1C(=O)N1CC[NH+](C2CCCCC2)CC1)c1ccc(-c2c3nc(c(-c4cccc(S(=O)(=O)[O-])c4F)c4ccc([nH]4)c(-c4cccc(S(=O)(=O)[O-])c4F)c4nc(c(-c5cccc(S(=O)(=O)[O-])c5F)c5ccc2[nH]5)C=C4)C=C3)cc1
REMARK SMILES IDX 5 1 4 2 3 3 1 4 2 5 32 7 33 8 94 9 34 10 93 11 35 12 36 13
REMARK SMILES IDX 37 14 87 15 38 16 92 17 86 18 88 19 39 20 91 21 85 22 84 23
REMARK SMILES IDX 40 25 72 26 52 27 71 28 53 29 56 30 70 31 89 32 54 33 55 34
REMARK SMILES IDX 69 36 90 37 57 38 41 39 42 40 50 41 43 42 45 43 51 44 44 45
REMARK SMILES IDX 46 46 47 47 48 48 49 49 73 50 74 51 82 52 75 53 77 54 83 55
REMARK SMILES IDX 76 56 78 57 79 58 80 59 81 60 58 61 59 62 67 63 60 64 62 65
REMARK SMILES IDX 68 66 61 67 63 68 64 69 65 70 66 71 6 72 7 73 8 74 9 75
REMARK SMILES IDX 10 77 11 78 12 79 17 80 13 81 16 82 15 83 14 84 18 85 19 86
REMARK SMILES IDX 20 87 21 88 31 89 22 90 30 91 23 92 24 94 25 95 29 96 26 97
REMARK SMILES IDX 28 98 27 99
REMARK H PARENT 3 6 88 24 56 35 8 76 23 93
REMARK Flexibility Score: inf
ROOT
ATOM      1  C   UNL A   1      37.858  20.576  25.254  1.00  0.00     0.023 C 
ENDROOT
BRANCH   1   2
ATOM      2  C   UNL A   1      39.144  20.742  26.037  1.00  0.00     0.116 C 
BRANCH   2   3
ATOM      3  N   UNL A   1      40.024  19.578  25.999  1.00  0.00    -0.352 N 
ATOM      4  O   UNL A   1      42.037  18.531  26.032  1.00  0.00    -0.269 OA
ATOM      5  C   UNL A   1      41.395  19.563  26.147  1.00  0.00     0.251 C 
ATOM      6  H   UNL A   1      39.590  18.707  25.851  1.00  0.00     0.163 HD
BRANCH   5   7
ATOM      7  C   UNL A   1      42.052  20.860  26.403  1.00  0.00     0.039 A 
ATOM      8  C   UNL A   1      42.201  21.285  27.724  1.00  0.00     0.014 A 
ATOM      9  C   UNL A   1      42.311  21.718  25.334  1.00  0.00     0.014 A 
ATOM     10  C   UNL A   1      42.410  22.630  27.975  1.00  0.00     0.010 A 
ATOM     11  C   UNL A   1      42.649  23.047  25.597  1.00  0.00     0.010 A 
ATOM     12  C   UNL A   1      42.654  23.524  26.917  1.00  0.00    -0.014 A 
BRANCH  12  13
ATOM     13  C   UNL A   1      42.994  24.932  27.238  1.00  0.00     0.031 A 
ATOM     14  C   UNL A   1      42.019  25.853  27.916  1.00  0.00     0.074 A 
ATOM     15  C   UNL A   1      44.229  25.362  26.912  1.00  0.00     0.049 A 
ATOM     16  N   UNL A   1      42.178  27.109  28.249  1.00  0.00    -0.248 NA
ATOM     17  C   UNL A   1      40.692  25.312  28.255  1.00  0.00     0.031 C 
ATOM     18  C   UNL A   1      45.238  24.557  26.215  1.00  0.00     0.029 A 
ATOM     19  N   UNL A   1      44.856  26.559  27.129  1.00  0.00    -0.354 N 
ATOM     20  C   UNL A   1      40.964  27.525  28.780  1.00  0.00     0.074 A 
ATOM     21  C   UNL A   1      40.074  26.383  28.739  1.00  0.00     0.031 C 
ATOM     22  C   UNL A   1      46.370  25.260  26.111  1.00  0.00     0.029 A 
ATOM     23  C   UNL A   1      46.146  26.591  26.655  1.00  0.00     0.049 A 
ATOM     24  H   UNL A   1      44.425  27.321  27.579  1.00  0.00     0.167 HD
ATOM     25  C   UNL A   1      40.629  28.746  29.264  1.00  0.00     0.034 A 
ATOM     26  C   UNL A   1      47.049  27.589  26.637  1.00  0.00     0.034 A 
ATOM     27  C   UNL A   1      41.545  29.854  29.351  1.00  0.00     0.049 A 
ATOM     28  C   UNL A   1      46.664  28.909  27.230  1.00  0.00     0.074 A 
ATOM     29  C   UNL A   1      41.322  31.115  29.878  1.00  0.00     0.029 A 
ATOM     30  N   UNL A   1      42.858  29.835  28.907  1.00  0.00    -0.354 N 
ATOM     31  N   UNL A   1      45.541  29.251  27.812  1.00  0.00    -0.248 NA
ATOM     32  C   UNL A   1      47.671  29.975  27.180  1.00  0.00     0.031 C 
ATOM     33  C   UNL A   1      42.500  31.859  29.746  1.00  0.00     0.029 A 
ATOM     34  C   UNL A   1      43.458  31.059  29.144  1.00  0.00     0.049 A 
ATOM     35  H   UNL A   1      43.301  29.063  28.485  1.00  0.00     0.167 HD
ATOM     36  C   UNL A   1      45.706  30.571  28.206  1.00  0.00     0.074 A 
ATOM     37  C   UNL A   1      47.053  30.953  27.829  1.00  0.00     0.031 C 
ATOM     38  C   UNL A   1      44.815  31.401  28.800  1.00  0.00     0.034 A 
BRANCH  25  39
ATOM     39  C   UNL A   1      39.228  28.950  29.779  1.00  0.00     0.023 A 
ATOM     40  C   UNL A   1      38.914  28.589  31.104  1.00  0.00     0.012 A 
ATOM     41  C   UNL A   1      38.249  29.587  28.987  1.00  0.00     0.148 A 
ATOM     42  C   UNL A   1      37.646  28.842  31.628  1.00  0.00     0.002 A 
ATOM     43  C   UNL A   1      36.998  29.866  29.528  1.00  0.00     0.091 A 
ATOM     44  F   UNL A   1      38.558  29.904  27.722  1.00  0.00    -0.205 F 
ATOM     45  C   UNL A   1      36.693  29.489  30.846  1.00  0.00     0.022 A 
BRANCH  43  46
ATOM     46  S   UNL A   1      35.729  30.759  28.621  1.00  0.00     0.127 S 
ATOM     47  O   UNL A   1      34.984  29.664  28.002  1.00  0.00    -0.237 OA
ATOM     48  O   UNL A   1      35.013  31.455  29.690  1.00  0.00    -0.237 OA
ATOM     49  O   UNL A   1      36.440  31.635  27.699  1.00  0.00    -0.744 OA
ENDBRANCH  43  46
ENDBRANCH  25  39
BRANCH  26  50
ATOM     50  C   UNL A   1      48.401  27.339  26.069  1.00  0.00     0.023 A 
ATOM     51  C   UNL A   1      49.389  26.740  26.874  1.00  0.00     0.012 A 
ATOM     52  C   UNL A   1      48.682  27.598  24.714  1.00  0.00     0.148 A 
ATOM     53  C   UNL A   1      50.635  26.414  26.339  1.00  0.00     0.002 A 
ATOM     54  C   UNL A   1      49.902  27.209  24.172  1.00  0.00     0.091 A 
ATOM     55  F   UNL A   1      47.738  28.188  23.966  1.00  0.00    -0.205 F 
ATOM     56  C   UNL A   1      50.886  26.632  24.986  1.00  0.00     0.022 A 
BRANCH  54  57
ATOM     57  S   UNL A   1      50.211  27.301  22.404  1.00  0.00     0.127 S 
ATOM     58  O   UNL A   1      51.585  26.817  22.313  1.00  0.00    -0.237 OA
ATOM     59  O   UNL A   1      49.199  26.393  21.861  1.00  0.00    -0.237 OA
ATOM     60  O   UNL A   1      49.995  28.700  22.057  1.00  0.00    -0.744 OA
ENDBRANCH  54  57
ENDBRANCH  26  50
BRANCH  38  61
ATOM     61  C   UNL A   1      45.275  32.804  29.081  1.00  0.00     0.023 A 
ATOM     62  C   UNL A   1      45.857  33.102  30.330  1.00  0.00     0.012 A 
ATOM     63  C   UNL A   1      45.179  33.808  28.100  1.00  0.00     0.148 A 
ATOM     64  C   UNL A   1      46.312  34.390  30.607  1.00  0.00     0.002 A 
ATOM     65  C   UNL A   1      45.672  35.079  28.370  1.00  0.00     0.091 A 
ATOM     66  F   UNL A   1      44.598  33.508  26.929  1.00  0.00    -0.205 F 
ATOM     67  C   UNL A   1      46.230  35.374  29.625  1.00  0.00     0.022 A 
BRANCH  65  68
ATOM     68  S   UNL A   1      45.678  36.379  27.132  1.00  0.00     0.127 S 
ATOM     69  O   UNL A   1      44.251  36.659  26.986  1.00  0.00    -0.237 OA
ATOM     70  O   UNL A   1      46.444  37.438  27.791  1.00  0.00    -0.237 OA
ATOM     71  O   UNL A   1      46.332  35.807  25.962  1.00  0.00    -0.744 OA
ENDBRANCH  65  68
ENDBRANCH  38  61
ENDBRANCH  12  13
ENDBRANCH   5   7
ENDBRANCH   2   3
ENDBRANCH   1   2
BRANCH   1  72
ATOM     72  C   UNL A   1      37.437  21.794  24.461  1.00  0.00     0.023 C 
BRANCH  72  73
ATOM     73  C   UNL A   1      37.364  23.097  25.254  1.00  0.00     0.116 C 
BRANCH  73  74
ATOM     74  N   UNL A   1      36.404  23.017  26.329  1.00  0.00    -0.356 N 
ATOM     75  C   UNL A   1      35.053  23.029  26.364  1.00  0.00     0.224 C 
ATOM     76  H   UNL A   1      36.817  22.938  27.218  1.00  0.00     0.163 HD
ATOM     77  O   UNL A   1      34.550  22.995  27.497  1.00  0.00    -0.275 OA
BRANCH  75  78
ATOM     78  C   UNL A   1      34.119  23.132  25.163  1.00  0.00     0.094 C 
ATOM     79  C   UNL A   1      33.857  21.831  24.362  1.00  0.00     0.002 C 
ATOM     80  C   UNL A   1      32.724  23.787  25.279  1.00  0.00     0.094 C 
ATOM     81  C   UNL A   1      32.963  20.817  25.069  1.00  0.00     0.005 C 
ATOM     82  C   UNL A   1      32.853  22.348  23.336  1.00  0.00     0.009 C 
ATOM     83  C   UNL A   1      31.864  22.846  24.403  1.00  0.00     0.002 C 
ATOM     84  C   UNL A   1      31.604  21.521  25.148  1.00  0.00     0.005 C 
BRANCH  80  85
ATOM     85  C   UNL A   1      32.842  25.289  24.952  1.00  0.00     0.227 C 
ATOM     86  O   UNL A   1      33.970  25.796  24.989  1.00  0.00    -0.275 OA
ATOM     87  N   UNL A   1      31.785  25.995  24.413  1.00  0.00    -0.331 N 
ATOM     88  C   UNL A   1      32.095  27.098  23.497  1.00  0.00     0.181 C 
ATOM     89  C   UNL A   1      30.455  26.093  25.004  1.00  0.00     0.181 C 
ATOM     90  C   UNL A   1      30.949  27.379  22.488  1.00  0.00     0.284 C 
ATOM     91  C   UNL A   1      29.384  26.236  23.918  1.00  0.00     0.284 C 
ATOM     92  N   UNL A   1      29.575  27.397  23.040  1.00  0.00    -0.330 N 
ATOM     93  H   UNL A   1      28.920  27.281  22.267  1.00  0.00     0.348 HD
BRANCH  92  94
ATOM     94  C   UNL A   1      29.080  28.705  23.513  1.00  0.00     0.184 C 
ATOM     95  C   UNL A   1      30.203  29.769  23.551  1.00  0.00     0.065 C 
ATOM     96  C   UNL A   1      27.816  29.255  22.820  1.00  0.00     0.065 C 
ATOM     97  C   UNL A   1      29.732  31.110  24.100  1.00  0.00     0.006 C 
ATOM     98  C   UNL A   1      27.398  30.630  23.344  1.00  0.00     0.006 C 
ATOM     99  C   UNL A   1      28.548  31.626  23.297  1.00  0.00     0.000 C 
ENDBRANCH  92  94
ENDBRANCH  80  85
ENDBRANCH  75  78
ENDBRANCH  73  74
ENDBRANCH  72  73
ENDBRANCH   1  72
TORSDOF 16
ENDMDL
MODEL 2
REMARK VINA RESULT:     -12.7      1.486      7.516
REMARK SMILES O=C(NCCCCNC(=O)[C@H]1[C@H]2CC[C@H](C2)[C@@H]1C(=O)N1CC[NH+](C2CCCCC2)CC1)c1ccc(-c2c3nc(c(-c4cccc(S(=O)(=O)[O-])c4F)c4ccc([nH]4)c(-c4cccc(S(=O)(=O)[O-])c4F)c4nc(c(-c5cccc(S(=O)(=O)[O-])c5F)c5ccc2[nH]5)C=C4)C=C3)cc1
REMARK SMILES IDX 5 1 4 2 3 3 1 4 2 5 32 7 33 8 94 9 34 10 93 11 35 12 36 13
REMARK SMILES IDX 37 14 87 15 38 16 92 17 86 18 88 19 39 20 91 21 85 22 84 23
REMARK SMILES IDX 40 25 72 26 52 27 71 28 53 29 56 30 70 31 89 32 54 33 55 34
REMARK SMILES IDX 69 36 90 37 57 38 41 39 42 40 50 41 43 42 45 43 51 44 44 45
REMARK SMILES IDX 46 46 47 47 48 48 49 49 73 50 74 51 82 52 75 53 77 54 83 55
REMARK SMILES IDX 76 56 78 57 79 58 80 59 81 60 58 61 59 62 67 63 60 64 62 65
REMARK SMILES IDX 68 66 61 67 63 68 64 69 65 70 66 71 6 72 7 73 8 74 9 75
REMARK SMILES IDX 10 77 11 78 12 79 17 80 13 81 16 82 15 83 14 84 18 85 19 86
REMARK SMILES IDX 20 87 21 88 31 89 22 90 30 91 23 92 24 94 25 95 29 96 26 97
REMARK SMILES IDX 28 98 27 99
REMARK H PARENT 3 6 88 24 56 35 8 76 23 93
REMARK Flexibility Score: inf
ROOT
ATOM      1  C   UNL A   1      38.178  20.790  25.593  1.00  0.00     0.023 C 
ENDROOT
BRANCH   1   2
ATOM      2  C   UNL A   1      39.601  20.887  26.103  1.00  0.00     0.116 C 
BRANCH   2   3
ATOM      3  N   UNL A   1      40.357  19.642  26.011  1.00  0.00    -0.352 N 
ATOM      4  O   UNL A   1      42.254  18.399  25.945  1.00  0.00    -0.269 OA
ATOM      5  C   UNL A   1      41.725  19.487  26.102  1.00  0.00     0.251 C 
ATOM      6  H   UNL A   1      39.833  18.821  25.869  1.00  0.00     0.163 HD
BRANCH   5   7
ATOM      7  C   UNL A   1      42.518  20.707  26.349  1.00  0.00     0.039 A 
ATOM      8  C   UNL A   1      42.643  21.169  27.660  1.00  0.00     0.014 A 
ATOM      9  C   UNL A   1      42.940  21.480  25.267  1.00  0.00     0.014 A 
ATOM     10  C   UNL A   1      42.999  22.490  27.873  1.00  0.00     0.010 A 
ATOM     11  C   UNL A   1      43.421  22.769  25.500  1.00  0.00     0.010 A 
ATOM     12  C   UNL A   1      43.409  23.301  26.799  1.00  0.00    -0.014 A 
BRANCH  12  13
ATOM     13  C   UNL A   1      43.899  24.671  27.088  1.00  0.00     0.031 A 
ATOM     14  C   UNL A   1      45.319  25.084  26.817  1.00  0.00     0.074 A 
ATOM     15  C   UNL A   1      43.013  25.553  27.593  1.00  0.00     0.049 A 
ATOM     16  N   UNL A   1      45.886  26.245  27.028  1.00  0.00    -0.248 NA
ATOM     17  C   UNL A   1      46.227  24.073  26.251  1.00  0.00     0.031 C 
ATOM     18  C   UNL A   1      41.621  25.239  27.929  1.00  0.00     0.029 A 
ATOM     19  N   UNL A   1      43.135  26.881  27.899  1.00  0.00    -0.354 N 
ATOM     20  C   UNL A   1      47.221  26.091  26.680  1.00  0.00     0.074 A 
ATOM     21  C   UNL A   1      47.384  24.726  26.229  1.00  0.00     0.031 C 
ATOM     22  C   UNL A   1      41.004  26.352  28.341  1.00  0.00     0.029 A 
ATOM     23  C   UNL A   1      41.973  27.437  28.379  1.00  0.00     0.049 A 
ATOM     24  H   UNL A   1      43.972  27.387  27.787  1.00  0.00     0.167 HD
ATOM     25  C   UNL A   1      48.216  27.012  26.725  1.00  0.00     0.034 A 
ATOM     26  C   UNL A   1      41.716  28.680  28.826  1.00  0.00     0.034 A 
ATOM     27  C   UNL A   1      48.023  28.384  27.121  1.00  0.00     0.049 A 
ATOM     28  C   UNL A   1      42.824  29.687  28.811  1.00  0.00     0.074 A 
ATOM     29  C   UNL A   1      48.953  29.409  27.148  1.00  0.00     0.029 A 
ATOM     30  N   UNL A   1      46.822  28.923  27.554  1.00  0.00    -0.354 N 
ATOM     31  N   UNL A   1      44.056  29.545  28.389  1.00  0.00    -0.248 NA
ATOM     32  C   UNL A   1      42.506  31.027  29.319  1.00  0.00     0.031 C 
ATOM     33  C   UNL A   1      48.313  30.568  27.603  1.00  0.00     0.029 A 
ATOM     34  C   UNL A   1      46.984  30.265  27.852  1.00  0.00     0.049 A 
ATOM     35  H   UNL A   1      45.976  28.425  27.638  1.00  0.00     0.167 HD
ATOM     36  C   UNL A   1      44.662  30.779  28.570  1.00  0.00     0.074 A 
ATOM     37  C   UNL A   1      43.649  31.666  29.107  1.00  0.00     0.031 C 
ATOM     38  C   UNL A   1      45.949  31.139  28.342  1.00  0.00     0.034 A 
BRANCH  25  39
ATOM     39  C   UNL A   1      49.599  26.590  26.301  1.00  0.00     0.023 A 
ATOM     40  C   UNL A   1      50.331  25.695  27.106  1.00  0.00     0.012 A 
ATOM     41  C   UNL A   1      50.134  27.001  25.062  1.00  0.00     0.148 A 
ATOM     42  C   UNL A   1      51.580  25.228  26.694  1.00  0.00     0.002 A 
ATOM     43  C   UNL A   1      51.365  26.503  24.644  1.00  0.00     0.091 A 
ATOM     44  F   UNL A   1      49.434  27.868  24.319  1.00  0.00    -0.205 F 
ATOM     45  C   UNL A   1      52.091  25.623  25.461  1.00  0.00     0.022 A 
BRANCH  43  46
ATOM     46  S   UNL A   1      52.073  26.899  23.039  1.00  0.00     0.127 S 
ATOM     47  O   UNL A   1      50.913  26.757  22.162  1.00  0.00    -0.237 OA
ATOM     48  O   UNL A   1      52.527  28.276  23.231  1.00  0.00    -0.237 OA
ATOM     49  O   UNL A   1      53.143  25.933  22.827  1.00  0.00    -0.744 OA
ENDBRANCH  43  46
ENDBRANCH  25  39
BRANCH  26  50
ATOM     50  C   UNL A   1      40.340  29.021  29.279  1.00  0.00     0.023 A 
ATOM     51  C   UNL A   1      39.366  29.375  28.327  1.00  0.00     0.012 A 
ATOM     52  C   UNL A   1      39.967  28.900  30.632  1.00  0.00     0.148 A 
ATOM     53  C   UNL A   1      38.048  29.613  28.717  1.00  0.00     0.002 A 
ATOM     54  C   UNL A   1      38.638  29.072  31.003  1.00  0.00     0.091 A 
ATOM     55  F   UNL A   1      40.910  28.582  31.530  1.00  0.00    -0.205 F 
ATOM     56  C   UNL A   1      37.680  29.445  30.050  1.00  0.00     0.022 A 
BRANCH  54  57
ATOM     57  S   UNL A   1      38.076  28.695  32.667  1.00  0.00     0.127 S 
ATOM     58  O   UNL A   1      38.223  27.243  32.712  1.00  0.00    -0.237 OA
ATOM     59  O   UNL A   1      39.026  29.438  33.496  1.00  0.00    -0.237 OA
ATOM     60  O   UNL A   1      36.713  29.208  32.728  1.00  0.00    -0.744 OA
ENDBRANCH  54  57
ENDBRANCH  26  50
BRANCH  38  61
ATOM     61  C   UNL A   1      46.326  32.556  28.668  1.00  0.00     0.023 A 
ATOM     62  C   UNL A   1      46.824  32.860  29.951  1.00  0.00     0.012 A 
ATOM     63  C   UNL A   1      46.237  33.571  27.698  1.00  0.00     0.148 A 
ATOM     64  C   UNL A   1      47.202  34.162  30.272  1.00  0.00     0.002 A 
ATOM     65  C   UNL A   1      46.654  34.859  28.013  1.00  0.00     0.091 A 
ATOM     66  F   UNL A   1      45.736  33.265  26.492  1.00  0.00    -0.205 F 
ATOM     67  C   UNL A   1      47.128  35.158  29.302  1.00  0.00     0.022 A 
BRANCH  65  68
ATOM     68  S   UNL A   1      46.667  36.178  26.796  1.00  0.00     0.127 S 
ATOM     69  O   UNL A   1      45.238  36.417  26.599  1.00  0.00    -0.237 OA
ATOM     70  O   UNL A   1      47.373  37.250  27.500  1.00  0.00    -0.237 OA
ATOM     71  O   UNL A   1      47.383  35.647  25.644  1.00  0.00    -0.744 OA
ENDBRANCH  65  68
ENDBRANCH  38  61
ENDBRANCH  12  13
ENDBRANCH   5   7
ENDBRANCH   2   3
ENDBRANCH   1   2
BRANCH   1  72
ATOM     72  C   UNL A   1      37.715  21.977  24.776  1.00  0.00     0.023 C 
BRANCH  72  73
ATOM     73  C   UNL A   1      37.456  23.256  25.569  1.00  0.00     0.116 C 
BRANCH  73  74
ATOM     74  N   UNL A   1      36.416  23.074  26.555  1.00  0.00    -0.356 N 
ATOM     75  C   UNL A   1      35.068  23.031  26.478  1.00  0.00     0.224 C 
ATOM     76  H   UNL A   1      36.760  22.958  27.469  1.00  0.00     0.163 HD
ATOM     77  O   UNL A   1      34.477  22.909  27.561  1.00  0.00    -0.275 OA
BRANCH  75  78
ATOM     78  C   UNL A   1      34.231  23.170  25.211  1.00  0.00     0.094 C 
ATOM     79  C   UNL A   1      34.091  21.910  24.319  1.00  0.00     0.002 C 
ATOM     80  C   UNL A   1      32.804  23.763  25.248  1.00  0.00     0.094 C 
ATOM     81  C   UNL A   1      33.187  20.822  24.891  1.00  0.00     0.005 C 
ATOM     82  C   UNL A   1      33.151  22.449  23.244  1.00  0.00     0.009 C 
ATOM     83  C   UNL A   1      32.059  22.844  24.251  1.00  0.00     0.002 C 
ATOM     84  C   UNL A   1      31.797  21.467  24.896  1.00  0.00     0.005 C 
BRANCH  80  85
ATOM     85  C   UNL A   1      32.883  25.286  25.017  1.00  0.00     0.227 C 
ATOM     86  O   UNL A   1      33.982  25.832  25.177  1.00  0.00    -0.275 OA
ATOM     87  N   UNL A   1      31.844  25.981  24.432  1.00  0.00    -0.331 N 
ATOM     88  C   UNL A   1      32.180  27.148  23.609  1.00  0.00     0.181 C 
ATOM     89  C   UNL A   1      30.467  25.993  24.913  1.00  0.00     0.181 C 
ATOM     90  C   UNL A   1      31.109  27.445  22.525  1.00  0.00     0.284 C 
ATOM     91  C   UNL A   1      29.484  26.158  23.751  1.00  0.00     0.284 C 
ATOM     92  N   UNL A   1      29.695  27.377  22.959  1.00  0.00    -0.330 N 
ATOM     93  H   UNL A   1      29.111  27.282  22.129  1.00  0.00     0.348 HD
BRANCH  92  94
ATOM     94  C   UNL A   1      29.107  28.634  23.462  1.00  0.00     0.184 C 
ATOM     95  C   UNL A   1      30.109  29.811  23.389  1.00  0.00     0.065 C 
ATOM     96  C   UNL A   1      27.736  29.035  22.880  1.00  0.00     0.065 C 
ATOM     97  C   UNL A   1      29.548  31.106  23.965  1.00  0.00     0.006 C 
ATOM     98  C   UNL A   1      27.221  30.367  23.426  1.00  0.00     0.006 C 
ATOM     99  C   UNL A   1      28.249  31.479  23.266  1.00  0.00     0.000 C 
ENDBRANCH  92  94
ENDBRANCH  80  85
ENDBRANCH  75  78
ENDBRANCH  73  74
ENDBRANCH  72  73
ENDBRANCH   1  72
TORSDOF 16
ENDMDL
MODEL 3
REMARK VINA RESULT:     -12.6      1.523      7.535
REMARK SMILES O=C(NCCCCNC(=O)[C@H]1[C@H]2CC[C@H](C2)[C@@H]1C(=O)N1CC[NH+](C2CCCCC2)CC1)c1ccc(-c2c3nc(c(-c4cccc(S(=O)(=O)[O-])c4F)c4ccc([nH]4)c(-c4cccc(S(=O)(=O)[O-])c4F)c4nc(c(-c5cccc(S(=O)(=O)[O-])c5F)c5ccc2[nH]5)C=C4)C=C3)cc1
REMARK SMILES IDX 5 1 4 2 3 3 1 4 2 5 32 7 33 8 94 9 34 10 93 11 35 12 36 13
REMARK SMILES IDX 37 14 87 15 38 16 92 17 86 18 88 19 39 20 91 21 85 22 84 23
REMARK SMILES IDX 40 25 72 26 52 27 71 28 53 29 56 30 70 31 89 32 54 33 55 34
REMARK SMILES IDX 69 36 90 37 57 38 41 39 42 40 50 41 43 42 45 43 51 44 44 45
REMARK SMILES IDX 46 46 47 47 48 48 49 49 73 50 74 51 82 52 75 53 77 54 83 55
REMARK SMILES IDX 76 56 78 57 79 58 80 59 81 60 58 61 59 62 67 63 60 64 62 65
REMARK SMILES IDX 68 66 61 67 63 68 64 69 65 70 66 71 6 72 7 73 8 74 9 75
REMARK SMILES IDX 10 77 11 78 12 79 17 80 13 81 16 82 15 83 14 84 18 85 19 86
REMARK SMILES IDX 20 87 21 88 31 89 22 90 30 91 23 92 24 94 25 95 29 96 26 97
REMARK SMILES IDX 28 98 27 99
REMARK H PARENT 3 6 88 24 56 35 8 76 23 93
REMARK Flexibility Score: inf
ROOT
ATOM      1  C   UNL A   1      36.395  21.732  24.790  1.00  0.00     0.023 C 
ENDROOT
BRANCH   1   2
ATOM      2  C   UNL A   1      37.771  22.143  25.271  1.00  0.00     0.116 C 
BRANCH   2   3
ATOM      3  N   UNL A   1      38.644  21.027  25.615  1.00  0.00    -0.352 N 
ATOM      4  O   UNL A   1      40.465  20.071  26.576  1.00  0.00    -0.269 OA
ATOM      5  C   UNL A   1      39.772  21.062  26.410  1.00  0.00     0.251 C 
ATOM      6  H   UNL A   1      38.402  20.149  25.240  1.00  0.00     0.163 HD
BRANCH   5   7
ATOM      7  C   UNL A   1      40.125  22.365  27.006  1.00  0.00     0.039 A 
ATOM      8  C   UNL A   1      39.565  23.523  26.464  1.00  0.00     0.014 A 
ATOM      9  C   UNL A   1      41.158  22.432  27.942  1.00  0.00     0.014 A 
ATOM     10  C   UNL A   1      40.180  24.740  26.704  1.00  0.00     0.010 A 
ATOM     11  C   UNL A   1      41.689  23.678  28.279  1.00  0.00     0.010 A 
ATOM     12  C   UNL A   1      41.237  24.836  27.627  1.00  0.00    -0.014 A 
BRANCH  12  13
ATOM     13  C   UNL A   1      41.785  26.177  27.946  1.00  0.00     0.031 A 
ATOM     14  C   UNL A   1      43.171  26.590  27.536  1.00  0.00     0.074 A 
ATOM     15  C   UNL A   1      40.983  27.033  28.610  1.00  0.00     0.049 A 
ATOM     16  N   UNL A   1      43.782  27.726  27.755  1.00  0.00    -0.248 NA
ATOM     17  C   UNL A   1      43.986  25.609  26.801  1.00  0.00     0.031 C 
ATOM     18  C   UNL A   1      39.634  26.715  29.088  1.00  0.00     0.029 A 
ATOM     19  N   UNL A   1      41.167  28.335  28.987  1.00  0.00    -0.354 N 
ATOM     20  C   UNL A   1      45.064  27.580  27.241  1.00  0.00     0.074 A 
ATOM     21  C   UNL A   1      45.144  26.247  26.684  1.00  0.00     0.031 C 
ATOM     22  C   UNL A   1      39.092  27.804  29.643  1.00  0.00     0.029 A 
ATOM     23  C   UNL A   1      40.082  28.872  29.638  1.00  0.00     0.049 A 
ATOM     24  H   UNL A   1      41.995  28.838  28.810  1.00  0.00     0.167 HD
ATOM     25  C   UNL A   1      46.076  28.484  27.229  1.00  0.00     0.034 A 
ATOM     26  C   UNL A   1      39.904  30.085  30.194  1.00  0.00     0.034 A 
ATOM     27  C   UNL A   1      45.959  29.827  27.735  1.00  0.00     0.049 A 
ATOM     28  C   UNL A   1      41.023  31.076  30.114  1.00  0.00     0.074 A 
ATOM     29  C   UNL A   1      46.906  30.837  27.718  1.00  0.00     0.029 A 
ATOM     30  N   UNL A   1      44.829  30.351  28.342  1.00  0.00    -0.354 N 
ATOM     31  N   UNL A   1      42.194  30.948  29.539  1.00  0.00    -0.248 NA
ATOM     32  C   UNL A   1      40.794  32.382  30.743  1.00  0.00     0.031 C 
ATOM     33  C   UNL A   1      46.348  31.970  28.322  1.00  0.00     0.029 A 
ATOM     34  C   UNL A   1      45.052  31.667  28.707  1.00  0.00     0.049 A 
ATOM     35  H   UNL A   1      43.988  29.859  28.493  1.00  0.00     0.167 HD
ATOM     36  C   UNL A   1      42.842  32.159  29.729  1.00  0.00     0.074 A 
ATOM     37  C   UNL A   1      41.917  33.021  30.440  1.00  0.00     0.031 C 
ATOM     38  C   UNL A   1      44.099  32.518  29.373  1.00  0.00     0.034 A 
BRANCH  25  39
ATOM     39  C   UNL A   1      47.390  28.075  26.616  1.00  0.00     0.023 A 
ATOM     40  C   UNL A   1      48.459  27.695  27.451  1.00  0.00     0.012 A 
ATOM     41  C   UNL A   1      47.537  27.972  25.217  1.00  0.00     0.148 A 
ATOM     42  C   UNL A   1      49.659  27.236  26.906  1.00  0.00     0.002 A 
ATOM     43  C   UNL A   1      48.725  27.481  24.682  1.00  0.00     0.091 A 
ATOM     44  F   UNL A   1      46.518  28.357  24.436  1.00  0.00    -0.205 F 
ATOM     45  C   UNL A   1      49.788  27.120  25.524  1.00  0.00     0.022 A 
BRANCH  43  46
ATOM     46  S   UNL A   1      48.960  27.228  22.918  1.00  0.00     0.127 S 
ATOM     47  O   UNL A   1      48.273  25.955  22.709  1.00  0.00    -0.237 OA
ATOM     48  O   UNL A   1      48.279  28.389  22.344  1.00  0.00    -0.237 OA
ATOM     49  O   UNL A   1      50.401  27.206  22.706  1.00  0.00    -0.744 OA
ENDBRANCH  43  46
ENDBRANCH  25  39
BRANCH  26  50
ATOM     50  C   UNL A   1      38.598  30.411  30.829  1.00  0.00     0.023 A 
ATOM     51  C   UNL A   1      38.411  30.147  32.199  1.00  0.00     0.012 A 
ATOM     52  C   UNL A   1      37.582  31.069  30.110  1.00  0.00     0.148 A 
ATOM     53  C   UNL A   1      37.229  30.524  32.837  1.00  0.00     0.002 A 
ATOM     54  C   UNL A   1      36.436  31.501  30.768  1.00  0.00     0.091 A 
ATOM     55  F   UNL A   1      37.767  31.295  28.802  1.00  0.00    -0.205 F 
ATOM     56  C   UNL A   1      36.250  31.216  32.128  1.00  0.00     0.022 A 
BRANCH  54  57
ATOM     57  S   UNL A   1      35.228  32.550  29.950  1.00  0.00     0.127 S 
ATOM     58  O   UNL A   1      36.048  33.680  29.525  1.00  0.00    -0.237 OA
ATOM     59  O   UNL A   1      34.751  31.691  28.864  1.00  0.00    -0.237 OA
ATOM     60  O   UNL A   1      34.222  32.828  30.967  1.00  0.00    -0.744 OA
ENDBRANCH  54  57
ENDBRANCH  26  50
BRANCH  38  61
ATOM     61  C   UNL A   1      44.542  33.905  29.746  1.00  0.00     0.023 A 
ATOM     62  C   UNL A   1      45.273  34.100  30.934  1.00  0.00     0.012 A 
ATOM     63  C   UNL A   1      44.279  35.000  28.901  1.00  0.00     0.148 A 
ATOM     64  C   UNL A   1      45.714  35.373  31.291  1.00  0.00     0.002 A 
ATOM     65  C   UNL A   1      44.758  36.259  29.244  1.00  0.00     0.091 A 
ATOM     66  F   UNL A   1      43.559  34.795  27.789  1.00  0.00    -0.205 F 
ATOM     67  C   UNL A   1      45.467  36.450  30.442  1.00  0.00     0.022 A 
BRANCH  65  68
ATOM     68  S   UNL A   1      44.552  37.680  28.166  1.00  0.00     0.127 S 
ATOM     69  O   UNL A   1      43.096  37.790  28.093  1.00  0.00    -0.237 OA
ATOM     70  O   UNL A   1      45.207  38.748  28.923  1.00  0.00    -0.237 OA
ATOM     71  O   UNL A   1      45.222  37.331  26.920  1.00  0.00    -0.744 OA
ENDBRANCH  65  68
ENDBRANCH  38  61
ENDBRANCH  12  13
ENDBRANCH   5   7
ENDBRANCH   2   3
ENDBRANCH   1   2
BRANCH   1  72
ATOM     72  C   UNL A   1      35.258  22.122  25.711  1.00  0.00     0.023 C 
BRANCH  72  73
ATOM     73  C   UNL A   1      35.065  23.624  25.910  1.00  0.00     0.116 C 
BRANCH  73  74
ATOM     74  N   UNL A   1      35.104  24.340  24.657  1.00  0.00    -0.356 N 
ATOM     75  C   UNL A   1      34.152  24.698  23.768  1.00  0.00     0.224 C 
ATOM     76  H   UNL A   1      36.009  24.624  24.397  1.00  0.00     0.163 HD
ATOM     77  O   UNL A   1      34.564  25.273  22.750  1.00  0.00    -0.275 OA
BRANCH  75  78
ATOM     78  C   UNL A   1      32.658  24.416  23.882  1.00  0.00     0.094 C 
ATOM     79  C   UNL A   1      32.107  23.207  23.083  1.00  0.00     0.002 C 
ATOM     80  C   UNL A   1      31.961  24.304  25.257  1.00  0.00     0.094 C 
ATOM     81  C   UNL A   1      32.487  21.842  23.649  1.00  0.00     0.005 C 
ATOM     82  C   UNL A   1      30.646  23.240  23.524  1.00  0.00     0.009 C 
ATOM     83  C   UNL A   1      30.987  23.126  25.018  1.00  0.00     0.002 C 
ATOM     84  C   UNL A   1      31.766  21.793  25.000  1.00  0.00     0.005 C 
BRANCH  80  85
ATOM     85  C   UNL A   1      31.438  25.694  25.672  1.00  0.00     0.227 C 
ATOM     86  O   UNL A   1      31.459  25.978  26.876  1.00  0.00    -0.275 OA
ATOM     87  N   UNL A   1      31.175  26.674  24.736  1.00  0.00    -0.331 N 
ATOM     88  C   UNL A   1      31.389  28.072  25.130  1.00  0.00     0.181 C 
ATOM     89  C   UNL A   1      30.272  26.528  23.600  1.00  0.00     0.181 C 
ATOM     90  C   UNL A   1      31.702  28.994  23.921  1.00  0.00     0.284 C 
ATOM     91  C   UNL A   1      30.743  27.378  22.415  1.00  0.00     0.284 C 
ATOM     92  N   UNL A   1      30.860  28.810  22.717  1.00  0.00    -0.330 N 
ATOM     93  H   UNL A   1      31.345  29.229  21.923  1.00  0.00     0.348 HD
BRANCH  92  94
ATOM     94  C   UNL A   1      29.635  29.630  22.646  1.00  0.00     0.184 C 
ATOM     95  C   UNL A   1      29.558  30.655  23.803  1.00  0.00     0.065 C 
ATOM     96  C   UNL A   1      29.330  30.298  21.290  1.00  0.00     0.065 C 
ATOM     97  C   UNL A   1      28.269  31.468  23.792  1.00  0.00     0.006 C 
ATOM     98  C   UNL A   1      28.066  31.159  21.319  1.00  0.00     0.006 C 
ATOM     99  C   UNL A   1      28.098  32.172  22.454  1.00  0.00     0.000 C 
ENDBRANCH  92  94
ENDBRANCH  80  85
ENDBRANCH  75  78
ENDBRANCH  73  74
ENDBRANCH  72  73
ENDBRANCH   1  72
TORSDOF 16
ENDMDL
