MODEL 1
REMARK VINA RESULT:     -12.4      0.000      0.000
REMARK SMILES COc1ccc(-c2ccc3n(c2=O)C[C@H]2C[C@@H]3CN(C(=O)CCCC(=O)NCCCCNC(=O)c3ccc(-c4c5nc(c(-c6cccc(S(=O)(=O)[O-])c6F)c6ccc([nH]6)c(-c6cccc(S(=O)(=O)[O-])c6F)c6nc(c(-c7cccc(S(=O)(=O)[O-])c7F)c7ccc4[nH]7)C=C6)C=C5)cc3)C2)cc1
REMARK SMILES IDX 28 1 27 2 25 3 26 4 24 6 23 7 22 8 20 9 21 10 19 11 7 12
REMARK SMILES IDX 8 13 12 14 9 15 11 16 13 17 10 18 14 19 17 20 15 21 16 22
REMARK SMILES IDX 18 23 98 24 6 25 3 26 4 27 100 28 5 29 99 30 2 31 1 32 29 33
REMARK SMILES IDX 30 34 31 35 32 36 33 37 34 39 35 40 36 41 97 42 37 43 96 44
REMARK SMILES IDX 38 45 39 46 40 47 90 48 41 49 95 50 89 51 91 52 42 53 94 54
REMARK SMILES IDX 88 55 87 56 43 58 75 59 55 60 74 61 56 62 59 63 73 64 92 65
REMARK SMILES IDX 57 66 58 67 72 69 93 70 60 71 44 72 45 73 53 74 46 75 48 76
REMARK SMILES IDX 54 77 47 78 49 79 50 80 51 81 52 82 76 83 77 84 85 85 78 86
REMARK SMILES IDX 80 87 86 88 79 89 81 90 82 91 83 92 84 93 61 94 62 95 70 96
REMARK SMILES IDX 63 97 65 98 71 99 64 100 66 101 67 102 68 103 69 104
REMARK H PARENT 27 5 32 38 91 57 59 68
REMARK Flexibility Score: inf
ROOT
ATOM      1  C   UNL A   1      36.648  21.081  25.003  1.00  0.00     0.116 C 
ENDROOT
BRANCH   1   2
ATOM      2  N   UNL A   1      35.629  21.058  26.024  1.00  0.00    -0.356 N 
ATOM      3  C   UNL A   1      34.881  22.016  26.620  1.00  0.00     0.220 C 
ATOM      4  O   UNL A   1      33.918  21.603  27.280  1.00  0.00    -0.275 OA
ATOM      5  H   UNL A   1      35.437  20.151  26.359  1.00  0.00     0.163 HD
BRANCH   3   6
ATOM      6  C   UNL A   1      35.077  23.525  26.481  1.00  0.00     0.100 C 
BRANCH   6   7
ATOM      7  C   UNL A   1      34.181  24.362  25.581  1.00  0.00     0.020 C 
BRANCH   7   8
ATOM      8  C   UNL A   1      33.066  25.243  26.139  1.00  0.00     0.101 C 
BRANCH   8   9
ATOM      9  C   UNL A   1      33.063  26.767  25.989  1.00  0.00     0.222 C 
ATOM     10  O   UNL A   1      33.533  27.416  26.934  1.00  0.00    -0.275 OA
BRANCH   9  11
ATOM     11  N   UNL A   1      32.713  27.411  24.806  1.00  0.00    -0.342 N 
ATOM     12  C   UNL A   1      31.856  22.853  22.968  1.00  0.00     0.047 A 
ATOM     13  C   UNL A   1      30.687  23.298  23.459  1.00  0.00     0.016 A 
ATOM     14  C   UNL A   1      32.849  23.855  22.447  1.00  0.00     0.258 A 
ATOM     15  C   UNL A   1      30.366  24.696  23.477  1.00  0.00     0.023 A 
ATOM     16  N   UNL A   1      32.470  25.204  22.510  1.00  0.00    -0.311 N 
ATOM     17  O   UNL A   1      33.927  23.484  21.981  1.00  0.00    -0.269 OA
ATOM     18  C   UNL A   1      31.232  25.611  23.014  1.00  0.00     0.026 A 
ATOM     19  C   UNL A   1      33.415  26.168  21.951  1.00  0.00     0.131 C 
ATOM     20  C   UNL A   1      30.909  27.092  23.121  1.00  0.00     0.056 C 
ATOM     21  C   UNL A   1      33.159  27.634  22.317  1.00  0.00     0.029 C 
ATOM     22  C   UNL A   1      31.682  27.920  22.095  1.00  0.00     0.019 C 
ATOM     23  C   UNL A   1      31.281  27.582  24.532  1.00  0.00     0.129 C 
ATOM     24  C   UNL A   1      33.568  27.981  23.765  1.00  0.00     0.125 C 
BRANCH  12  25
ATOM     25  C   UNL A   1      32.130  21.409  22.921  1.00  0.00    -0.013 A 
ATOM     26  C   UNL A   1      32.591  18.639  22.894  1.00  0.00     0.118 A 
ATOM     27  C   UNL A   1      32.098  19.281  21.758  1.00  0.00     0.047 A 
ATOM     28  C   UNL A   1      32.889  19.384  24.034  1.00  0.00     0.047 A 
ATOM     29  C   UNL A   1      31.858  20.658  21.774  1.00  0.00     0.013 A 
ATOM     30  C   UNL A   1      32.656  20.761  24.049  1.00  0.00     0.013 A 
BRANCH  26  31
ATOM     31  O   UNL A   1      32.783  17.289  22.783  1.00  0.00    -0.497 OA
ATOM     32  C   UNL A   1      33.484  16.702  23.877  1.00  0.00     0.278 C 
ENDBRANCH  26  31
ENDBRANCH  12  25
ENDBRANCH   9  11
ENDBRANCH   8   9
ENDBRANCH   7   8
ENDBRANCH   6   7
ENDBRANCH   3   6
ENDBRANCH   1   2
BRANCH   1  33
ATOM     33  C   UNL A   1      37.914  21.828  25.404  1.00  0.00     0.023 C 
BRANCH  33  34
ATOM     34  C   UNL A   1      38.909  20.958  26.165  1.00  0.00     0.023 C 
BRANCH  34  35
ATOM     35  C   UNL A   1      39.505  19.803  25.361  1.00  0.00     0.116 C 
BRANCH  35  36
ATOM     36  N   UNL A   1      40.495  19.018  26.086  1.00  0.00    -0.352 N 
ATOM     37  C   UNL A   1      41.570  19.479  26.814  1.00  0.00     0.251 C 
ATOM     38  H   UNL A   1      40.384  18.041  26.050  1.00  0.00     0.163 HD
ATOM     39  O   UNL A   1      42.367  18.693  27.318  1.00  0.00    -0.269 OA
BRANCH  37  40
ATOM     40  C   UNL A   1      41.772  20.939  26.949  1.00  0.00     0.039 A 
ATOM     41  C   UNL A   1      41.679  21.523  28.213  1.00  0.00     0.014 A 
ATOM     42  C   UNL A   1      42.132  21.707  25.839  1.00  0.00     0.014 A 
ATOM     43  C   UNL A   1      42.017  22.869  28.375  1.00  0.00     0.010 A 
ATOM     44  C   UNL A   1      42.554  23.021  26.019  1.00  0.00     0.010 A 
ATOM     45  C   UNL A   1      42.491  23.621  27.285  1.00  0.00    -0.014 A 
BRANCH  45  46
ATOM     46  C   UNL A   1      42.917  25.035  27.457  1.00  0.00     0.031 A 
ATOM     47  C   UNL A   1      41.980  26.036  28.081  1.00  0.00     0.074 A 
ATOM     48  C   UNL A   1      44.117  25.438  26.991  1.00  0.00     0.049 A 
ATOM     49  N   UNL A   1      42.170  27.309  28.313  1.00  0.00    -0.248 NA
ATOM     50  C   UNL A   1      40.642  25.554  28.465  1.00  0.00     0.031 C 
ATOM     51  C   UNL A   1      45.075  24.593  26.276  1.00  0.00     0.029 A 
ATOM     52  N   UNL A   1      44.728  26.666  27.035  1.00  0.00    -0.354 N 
ATOM     53  C   UNL A   1      40.973  27.783  28.836  1.00  0.00     0.074 A 
ATOM     54  C   UNL A   1      40.045  26.674  28.841  1.00  0.00     0.031 C 
ATOM     55  C   UNL A   1      46.159  25.323  25.964  1.00  0.00     0.029 A 
ATOM     56  C   UNL A   1      45.969  26.689  26.439  1.00  0.00     0.049 A 
ATOM     57  H   UNL A   1      44.317  27.457  27.453  1.00  0.00     0.167 HD
ATOM     58  C   UNL A   1      40.679  29.017  29.309  1.00  0.00     0.034 A 
ATOM     59  C   UNL A   1      46.854  27.696  26.301  1.00  0.00     0.034 A 
ATOM     60  C   UNL A   1      41.620  30.103  29.358  1.00  0.00     0.049 A 
ATOM     61  C   UNL A   1      46.530  29.041  26.895  1.00  0.00     0.074 A 
ATOM     62  C   UNL A   1      41.455  31.361  29.910  1.00  0.00     0.029 A 
ATOM     63  N   UNL A   1      42.901  30.062  28.829  1.00  0.00    -0.354 N 
ATOM     64  N   UNL A   1      45.459  29.418  27.549  1.00  0.00    -0.248 NA
ATOM     65  C   UNL A   1      47.557  30.087  26.770  1.00  0.00     0.031 C 
ATOM     66  C   UNL A   1      42.632  32.088  29.697  1.00  0.00     0.029 A 
ATOM     67  C   UNL A   1      43.537  31.274  29.034  1.00  0.00     0.049 A 
ATOM     68  H   UNL A   1      43.299  29.285  28.375  1.00  0.00     0.167 HD
ATOM     69  C   UNL A   1      45.693  30.732  27.940  1.00  0.00     0.074 A 
ATOM     70  C   UNL A   1      47.022  31.074  27.475  1.00  0.00     0.031 C 
ATOM     71  C   UNL A   1      44.876  31.585  28.608  1.00  0.00     0.034 A 
BRANCH  58  72
ATOM     72  C   UNL A   1      39.301  29.237  29.877  1.00  0.00     0.023 A 
ATOM     73  C   UNL A   1      39.013  28.799  31.186  1.00  0.00     0.012 A 
ATOM     74  C   UNL A   1      38.308  29.910  29.141  1.00  0.00     0.148 A 
ATOM     75  C   UNL A   1      37.747  28.991  31.739  1.00  0.00     0.002 A 
ATOM     76  C   UNL A   1      37.063  30.140  29.716  1.00  0.00     0.091 A 
ATOM     77  F   UNL A   1      38.593  30.300  27.890  1.00  0.00    -0.205 F 
ATOM     78  C   UNL A   1      36.777  29.670  31.008  1.00  0.00     0.022 A 
BRANCH  76  79
ATOM     79  S   UNL A   1      35.769  31.071  28.888  1.00  0.00     0.127 S 
ATOM     80  O   UNL A   1      36.548  32.069  28.156  1.00  0.00    -0.237 OA
ATOM     81  O   UNL A   1      35.145  30.049  28.048  1.00  0.00    -0.237 OA
ATOM     82  O   UNL A   1      34.915  31.597  29.943  1.00  0.00    -0.744 OA
ENDBRANCH  76  79
ENDBRANCH  58  72
BRANCH  59  83
ATOM     83  C   UNL A   1      48.170  27.449  25.642  1.00  0.00     0.023 A 
ATOM     84  C   UNL A   1      49.267  27.034  26.423  1.00  0.00     0.012 A 
ATOM     85  C   UNL A   1      48.335  27.601  24.252  1.00  0.00     0.148 A 
ATOM     86  C   UNL A   1      50.513  26.809  25.837  1.00  0.00     0.002 A 
ATOM     87  C   UNL A   1      49.566  27.322  23.667  1.00  0.00     0.091 A 
ATOM     88  F   UNL A   1      47.284  28.008  23.528  1.00  0.00    -0.205 F 
ATOM     89  C   UNL A   1      50.660  26.943  24.460  1.00  0.00     0.022 A 
BRANCH  87  90
ATOM     90  S   UNL A   1      49.812  27.340  21.888  1.00  0.00     0.127 S 
ATOM     91  O   UNL A   1      49.642  28.757  21.577  1.00  0.00    -0.237 OA
ATOM     92  O   UNL A   1      51.182  26.841  21.767  1.00  0.00    -0.237 OA
ATOM     93  O   UNL A   1      48.800  26.444  21.345  1.00  0.00    -0.744 OA
ENDBRANCH  87  90
ENDBRANCH  59  83
BRANCH  71  94
ATOM     94  C   UNL A   1      45.401  32.967  28.898  1.00  0.00     0.023 A 
ATOM     95  C   UNL A   1      46.163  33.195  30.061  1.00  0.00     0.012 A 
ATOM     96  C   UNL A   1      45.196  34.022  27.988  1.00  0.00     0.148 A 
ATOM     97  C   UNL A   1      46.682  34.460  30.332  1.00  0.00     0.002 A 
ATOM     98  C   UNL A   1      45.759  35.268  28.239  1.00  0.00     0.091 A 
ATOM     99  F   UNL A   1      44.452  33.791  26.896  1.00  0.00    -0.205 F 
ATOM    100  C   UNL A   1      46.490  35.492  29.416  1.00  0.00     0.022 A 
BRANCH  98 101
ATOM    101  S   UNL A   1      45.646  36.626  27.069  1.00  0.00     0.127 S 
ATOM    102  O   UNL A   1      46.418  37.667  27.744  1.00  0.00    -0.237 OA
ATOM    103  O   UNL A   1      46.286  36.066  25.878  1.00  0.00    -0.237 OA
ATOM    104  O   UNL A   1      44.223  36.900  26.913  1.00  0.00    -0.744 OA
ENDBRANCH  98 101
ENDBRANCH  71  94
ENDBRANCH  45  46
ENDBRANCH  37  40
ENDBRANCH  35  36
ENDBRANCH  34  35
ENDBRANCH  33  34
ENDBRANCH   1  33
TORSDOF 20
ENDMDL
MODEL 2
REMARK VINA RESULT:     -11.8      2.812      7.821
REMARK SMILES COc1ccc(-c2ccc3n(c2=O)C[C@H]2C[C@@H]3CN(C(=O)CCCC(=O)NCCCCNC(=O)c3ccc(-c4c5nc(c(-c6cccc(S(=O)(=O)[O-])c6F)c6ccc([nH]6)c(-c6cccc(S(=O)(=O)[O-])c6F)c6nc(c(-c7cccc(S(=O)(=O)[O-])c7F)c7ccc4[nH]7)C=C6)C=C5)cc3)C2)cc1
REMARK SMILES IDX 28 1 27 2 25 3 26 4 24 6 23 7 22 8 20 9 21 10 19 11 7 12
REMARK SMILES IDX 8 13 12 14 9 15 11 16 13 17 10 18 14 19 17 20 15 21 16 22
REMARK SMILES IDX 18 23 98 24 6 25 3 26 4 27 100 28 5 29 99 30 2 31 1 32 29 33
REMARK SMILES IDX 30 34 31 35 32 36 33 37 34 39 35 40 36 41 97 42 37 43 96 44
REMARK SMILES IDX 38 45 39 46 40 47 90 48 41 49 95 50 89 51 91 52 42 53 94 54
REMARK SMILES IDX 88 55 87 56 43 58 75 59 55 60 74 61 56 62 59 63 73 64 92 65
REMARK SMILES IDX 57 66 58 67 72 69 93 70 60 71 44 72 45 73 53 74 46 75 48 76
REMARK SMILES IDX 54 77 47 78 49 79 50 80 51 81 52 82 76 83 77 84 85 85 78 86
REMARK SMILES IDX 80 87 86 88 79 89 81 90 82 91 83 92 84 93 61 94 62 95 70 96
REMARK SMILES IDX 63 97 65 98 71 99 64 100 66 101 67 102 68 103 69 104
REMARK H PARENT 27 5 32 38 91 57 59 68
REMARK Flexibility Score: inf
ROOT
ATOM      1  C   UNL A   1      36.322  22.463  25.275  1.00  0.00     0.116 C 
ENDROOT
BRANCH   1   2
ATOM      2  N   UNL A   1      35.560  22.365  26.496  1.00  0.00    -0.356 N 
ATOM      3  C   UNL A   1      34.426  22.957  26.941  1.00  0.00     0.220 C 
ATOM      4  O   UNL A   1      33.917  22.442  27.945  1.00  0.00    -0.275 OA
ATOM      5  H   UNL A   1      35.947  21.733  27.145  1.00  0.00     0.163 HD
BRANCH   3   6
ATOM      6  C   UNL A   1      33.702  24.127  26.274  1.00  0.00     0.100 C 
BRANCH   6   7
ATOM      7  C   UNL A   1      32.289  24.518  26.676  1.00  0.00     0.020 C 
BRANCH   7   8
ATOM      8  C   UNL A   1      31.788  25.957  26.585  1.00  0.00     0.101 C 
BRANCH   8   9
ATOM      9  C   UNL A   1      32.657  27.102  26.055  1.00  0.00     0.222 C 
ATOM     10  O   UNL A   1      33.598  27.461  26.777  1.00  0.00    -0.275 OA
BRANCH   9  11
ATOM     11  N   UNL A   1      32.524  27.622  24.771  1.00  0.00    -0.342 N 
ATOM     12  C   UNL A   1      31.875  22.902  23.290  1.00  0.00     0.047 A 
ATOM     13  C   UNL A   1      30.652  23.403  23.529  1.00  0.00     0.016 A 
ATOM     14  C   UNL A   1      32.965  23.837  22.843  1.00  0.00     0.258 A 
ATOM     15  C   UNL A   1      30.366  24.798  23.351  1.00  0.00     0.023 A 
ATOM     16  N   UNL A   1      32.613  25.188  22.705  1.00  0.00    -0.311 N 
ATOM     17  O   UNL A   1      34.096  23.412  22.606  1.00  0.00    -0.269 OA
ATOM     18  C   UNL A   1      31.320  25.654  22.948  1.00  0.00     0.026 A 
ATOM     19  C   UNL A   1      33.662  26.082  22.217  1.00  0.00     0.131 C 
ATOM     20  C   UNL A   1      31.019  27.140  22.848  1.00  0.00     0.056 C 
ATOM     21  C   UNL A   1      33.384  27.580  22.383  1.00  0.00     0.029 C 
ATOM     22  C   UNL A   1      31.972  27.851  21.888  1.00  0.00     0.019 C 
ATOM     23  C   UNL A   1      31.162  27.772  24.244  1.00  0.00     0.129 C 
ATOM     24  C   UNL A   1      33.554  28.074  23.836  1.00  0.00     0.125 C 
BRANCH  12  25
ATOM     25  C   UNL A   1      32.118  21.459  23.437  1.00  0.00    -0.013 A 
ATOM     26  C   UNL A   1      32.652  18.712  23.668  1.00  0.00     0.118 A 
ATOM     27  C   UNL A   1      32.690  19.532  24.795  1.00  0.00     0.047 A 
ATOM     28  C   UNL A   1      32.312  19.254  22.429  1.00  0.00     0.047 A 
ATOM     29  C   UNL A   1      32.435  20.902  24.680  1.00  0.00     0.013 A 
ATOM     30  C   UNL A   1      32.050  20.621  22.315  1.00  0.00     0.013 A 
BRANCH  26  31
ATOM     31  O   UNL A   1      32.926  17.388  23.882  1.00  0.00    -0.497 OA
ATOM     32  C   UNL A   1      34.033  16.889  23.135  1.00  0.00     0.278 C 
ENDBRANCH  26  31
ENDBRANCH  12  25
ENDBRANCH   9  11
ENDBRANCH   8   9
ENDBRANCH   7   8
ENDBRANCH   6   7
ENDBRANCH   3   6
ENDBRANCH   1   2
BRANCH   1  33
ATOM     33  C   UNL A   1      37.805  22.153  25.441  1.00  0.00     0.023 C 
BRANCH  33  34
ATOM     34  C   UNL A   1      38.577  23.266  26.140  1.00  0.00     0.023 C 
BRANCH  34  35
ATOM     35  C   UNL A   1      39.809  22.809  26.920  1.00  0.00     0.116 C 
BRANCH  35  36
ATOM     36  N   UNL A   1      40.857  22.227  26.094  1.00  0.00    -0.352 N 
ATOM     37  C   UNL A   1      42.077  22.777  25.766  1.00  0.00     0.251 C 
ATOM     38  H   UNL A   1      40.672  21.333  25.725  1.00  0.00     0.163 HD
ATOM     39  O   UNL A   1      42.838  22.196  24.997  1.00  0.00    -0.269 OA
BRANCH  37  40
ATOM     40  C   UNL A   1      42.442  24.098  26.324  1.00  0.00     0.039 A 
ATOM     41  C   UNL A   1      42.269  25.237  25.536  1.00  0.00     0.014 A 
ATOM     42  C   UNL A   1      42.873  24.211  27.647  1.00  0.00     0.014 A 
ATOM     43  C   UNL A   1      42.464  26.499  26.102  1.00  0.00     0.010 A 
ATOM     44  C   UNL A   1      42.979  25.469  28.232  1.00  0.00     0.010 A 
ATOM     45  C   UNL A   1      42.787  26.628  27.465  1.00  0.00    -0.014 A 
BRANCH  45  46
ATOM     46  C   UNL A   1      42.932  27.966  28.095  1.00  0.00     0.031 A 
ATOM     47  C   UNL A   1      44.291  28.607  28.204  1.00  0.00     0.074 A 
ATOM     48  C   UNL A   1      41.857  28.578  28.633  1.00  0.00     0.049 A 
ATOM     49  N   UNL A   1      44.618  29.764  28.720  1.00  0.00    -0.248 NA
ATOM     50  C   UNL A   1      45.439  27.836  27.698  1.00  0.00     0.031 C 
ATOM     51  C   UNL A   1      40.504  28.021  28.686  1.00  0.00     0.029 A 
ATOM     52  N   UNL A   1      41.736  29.797  29.252  1.00  0.00    -0.354 N 
ATOM     53  C   UNL A   1      46.003  29.843  28.631  1.00  0.00     0.074 A 
ATOM     54  C   UNL A   1      46.461  28.597  28.058  1.00  0.00     0.031 C 
ATOM     55  C   UNL A   1      39.687  28.901  29.287  1.00  0.00     0.029 A 
ATOM     56  C   UNL A   1      40.458  30.077  29.680  1.00  0.00     0.049 A 
ATOM     57  H   UNL A   1      42.493  30.413  29.380  1.00  0.00     0.167 HD
ATOM     58  C   UNL A   1      46.820  30.872  28.955  1.00  0.00     0.034 A 
ATOM     59  C   UNL A   1      39.963  31.162  30.307  1.00  0.00     0.034 A 
ATOM     60  C   UNL A   1      46.358  32.132  29.471  1.00  0.00     0.049 A 
ATOM     61  C   UNL A   1      40.881  32.320  30.597  1.00  0.00     0.074 A 
ATOM     62  C   UNL A   1      47.092  33.275  29.736  1.00  0.00     0.029 A 
ATOM     63  N   UNL A   1      45.043  32.414  29.804  1.00  0.00    -0.354 N 
ATOM     64  N   UNL A   1      42.159  32.445  30.337  1.00  0.00    -0.248 NA
ATOM     65  C   UNL A   1      40.278  33.504  31.227  1.00  0.00     0.031 C 
ATOM     66  C   UNL A   1      46.221  34.242  30.249  1.00  0.00     0.029 A 
ATOM     67  C   UNL A   1      44.942  33.710  30.280  1.00  0.00     0.049 A 
ATOM     68  H   UNL A   1      44.291  31.786  29.715  1.00  0.00     0.167 HD
ATOM     69  C   UNL A   1      42.508  33.729  30.742  1.00  0.00     0.074 A 
ATOM     70  C   UNL A   1      41.297  34.352  31.237  1.00  0.00     0.031 C 
ATOM     71  C   UNL A   1      43.722  34.333  30.724  1.00  0.00     0.034 A 
BRANCH  58  72
ATOM     72  C   UNL A   1      48.294  30.700  28.697  1.00  0.00     0.023 A 
ATOM     73  C   UNL A   1      49.053  29.864  29.542  1.00  0.00     0.012 A 
ATOM     74  C   UNL A   1      48.920  31.323  27.600  1.00  0.00     0.148 A 
ATOM     75  C   UNL A   1      50.419  29.684  29.326  1.00  0.00     0.002 A 
ATOM     76  C   UNL A   1      50.272  31.101  27.363  1.00  0.00     0.091 A 
ATOM     77  F   UNL A   1      48.188  32.131  26.820  1.00  0.00    -0.205 F 
ATOM     78  C   UNL A   1      51.024  30.293  28.231  1.00  0.00     0.022 A 
BRANCH  76  79
ATOM     79  S   UNL A   1      51.131  31.777  25.938  1.00  0.00     0.127 S 
ATOM     80  O   UNL A   1      51.281  30.592  25.095  1.00  0.00    -0.237 OA
ATOM     81  O   UNL A   1      50.170  32.762  25.441  1.00  0.00    -0.237 OA
ATOM     82  O   UNL A   1      52.372  32.342  26.447  1.00  0.00    -0.744 OA
ENDBRANCH  76  79
ENDBRANCH  58  72
BRANCH  59  83
ATOM     83  C   UNL A   1      38.509  31.241  30.629  1.00  0.00     0.023 A 
ATOM     84  C   UNL A   1      38.028  30.636  31.808  1.00  0.00     0.012 A 
ATOM     85  C   UNL A   1      37.607  31.925  29.792  1.00  0.00     0.148 A 
ATOM     86  C   UNL A   1      36.670  30.681  32.128  1.00  0.00     0.002 A 
ATOM     87  C   UNL A   1      36.265  32.013  30.145  1.00  0.00     0.091 A 
ATOM     88  F   UNL A   1      38.081  32.483  28.669  1.00  0.00    -0.205 F 
ATOM     89  C   UNL A   1      35.792  31.378  31.304  1.00  0.00     0.022 A 
BRANCH  87  90
ATOM     90  S   UNL A   1      35.087  32.999  29.214  1.00  0.00     0.127 S 
ATOM     91  O   UNL A   1      34.740  32.096  28.120  1.00  0.00    -0.237 OA
ATOM     92  O   UNL A   1      34.027  33.213  30.199  1.00  0.00    -0.237 OA
ATOM     93  O   UNL A   1      35.804  34.209  28.835  1.00  0.00    -0.744 OA
ENDBRANCH  87  90
ENDBRANCH  59  83
BRANCH  71  94
ATOM     94  C   UNL A   1      43.804  35.748  31.233  1.00  0.00     0.023 A 
ATOM     95  C   UNL A   1      43.786  36.821  30.320  1.00  0.00     0.012 A 
ATOM     96  C   UNL A   1      43.830  36.017  32.615  1.00  0.00     0.148 A 
ATOM     97  C   UNL A   1      43.832  38.139  30.773  1.00  0.00     0.002 A 
ATOM     98  C   UNL A   1      43.823  37.334  33.061  1.00  0.00     0.091 A 
ATOM     99  F   UNL A   1      43.865  34.984  33.469  1.00  0.00    -0.205 F 
ATOM    100  C   UNL A   1      43.838  38.395  32.142  1.00  0.00     0.022 A 
BRANCH  98 101
ATOM    101  S   UNL A   1      43.732  37.756  34.805  1.00  0.00     0.127 S 
ATOM    102  O   UNL A   1      42.459  37.153  35.192  1.00  0.00    -0.237 OA
ATOM    103  O   UNL A   1      44.915  37.089  35.350  1.00  0.00    -0.237 OA
ATOM    104  O   UNL A   1      43.782  39.211  34.866  1.00  0.00    -0.744 OA
ENDBRANCH  98 101
ENDBRANCH  71  94
ENDBRANCH  45  46
ENDBRANCH  37  40
ENDBRANCH  35  36
ENDBRANCH  34  35
ENDBRANCH  33  34
ENDBRANCH   1  33
TORSDOF 20
ENDMDL
MODEL 3
REMARK VINA RESULT:     -10.9      6.086     15.706
REMARK SMILES COc1ccc(-c2ccc3n(c2=O)C[C@H]2C[C@@H]3CN(C(=O)CCCC(=O)NCCCCNC(=O)c3ccc(-c4c5nc(c(-c6cccc(S(=O)(=O)[O-])c6F)c6ccc([nH]6)c(-c6cccc(S(=O)(=O)[O-])c6F)c6nc(c(-c7cccc(S(=O)(=O)[O-])c7F)c7ccc4[nH]7)C=C6)C=C5)cc3)C2)cc1
REMARK SMILES IDX 28 1 27 2 25 3 26 4 24 6 23 7 22 8 20 9 21 10 19 11 7 12
REMARK SMILES IDX 8 13 12 14 9 15 11 16 13 17 10 18 14 19 17 20 15 21 16 22
REMARK SMILES IDX 18 23 98 24 6 25 3 26 4 27 100 28 5 29 99 30 2 31 1 32 29 33
REMARK SMILES IDX 30 34 31 35 32 36 33 37 34 39 35 40 36 41 97 42 37 43 96 44
REMARK SMILES IDX 38 45 39 46 40 47 90 48 41 49 95 50 89 51 91 52 42 53 94 54
REMARK SMILES IDX 88 55 87 56 43 58 75 59 55 60 74 61 56 62 59 63 73 64 92 65
REMARK SMILES IDX 57 66 58 67 72 69 93 70 60 71 44 72 45 73 53 74 46 75 48 76
REMARK SMILES IDX 54 77 47 78 49 79 50 80 51 81 52 82 76 83 77 84 85 85 78 86
REMARK SMILES IDX 80 87 86 88 79 89 81 90 82 91 83 92 84 93 61 94 62 95 70 96
REMARK SMILES IDX 63 97 65 98 71 99 64 100 66 101 67 102 68 103 69 104
REMARK H PARENT 27 5 32 38 91 57 59 68
REMARK Flexibility Score: inf
ROOT
ATOM      1  C   UNL A   1      41.109  40.678  26.696  1.00  0.00     0.116 C 
ENDROOT
BRANCH   1   2
ATOM      2  N   UNL A   1      41.292  41.106  25.330  1.00  0.00    -0.356 N 
ATOM      3  C   UNL A   1      42.308  41.708  24.667  1.00  0.00     0.220 C 
ATOM      4  O   UNL A   1      42.217  41.697  23.432  1.00  0.00    -0.275 OA
ATOM      5  H   UNL A   1      40.513  40.919  24.757  1.00  0.00     0.163 HD
BRANCH   3   6
ATOM      6  C   UNL A   1      43.561  42.312  25.301  1.00  0.00     0.100 C 
BRANCH   6   7
ATOM      7  C   UNL A   1      44.603  41.441  25.986  1.00  0.00     0.020 C 
BRANCH   7   8
ATOM      8  C   UNL A   1      45.229  41.826  27.323  1.00  0.00     0.101 C 
BRANCH   8   9
ATOM      9  C   UNL A   1      46.742  41.799  27.566  1.00  0.00     0.222 C 
ATOM     10  O   UNL A   1      47.318  40.726  27.340  1.00  0.00    -0.275 OA
BRANCH   9  11
ATOM     11  N   UNL A   1      47.481  42.940  27.864  1.00  0.00    -0.342 N 
ATOM     12  C   UNL A   1      45.766  44.776  23.555  1.00  0.00     0.047 A 
ATOM     13  C   UNL A   1      44.914  45.178  24.512  1.00  0.00     0.016 A 
ATOM     14  C   UNL A   1      47.208  44.547  23.918  1.00  0.00     0.258 A 
ATOM     15  C   UNL A   1      45.355  45.409  25.858  1.00  0.00     0.023 A 
ATOM     16  N   UNL A   1      47.560  44.780  25.256  1.00  0.00    -0.311 N 
ATOM     17  O   UNL A   1      48.018  44.187  23.064  1.00  0.00    -0.269 OA
ATOM     18  C   UNL A   1      46.637  45.218  26.208  1.00  0.00     0.026 A 
ATOM     19  C   UNL A   1      48.973  44.611  25.590  1.00  0.00     0.131 C 
ATOM     20  C   UNL A   1      47.066  45.385  27.656  1.00  0.00     0.056 C 
ATOM     21  C   UNL A   1      49.293  44.538  27.087  1.00  0.00     0.029 C 
ATOM     22  C   UNL A   1      48.561  45.677  27.778  1.00  0.00     0.019 C 
ATOM     23  C   UNL A   1      46.753  44.086  28.422  1.00  0.00     0.129 C 
ATOM     24  C   UNL A   1      48.916  43.184  27.726  1.00  0.00     0.125 C 
BRANCH  12  25
ATOM     25  C   UNL A   1      45.287  44.596  22.176  1.00  0.00    -0.013 A 
ATOM     26  C   UNL A   1      44.453  44.271  19.514  1.00  0.00     0.118 A 
ATOM     27  C   UNL A   1      44.417  43.193  20.398  1.00  0.00     0.047 A 
ATOM     28  C   UNL A   1      44.871  45.522  19.965  1.00  0.00     0.047 A 
ATOM     29  C   UNL A   1      44.842  43.350  21.721  1.00  0.00     0.013 A 
ATOM     30  C   UNL A   1      45.289  45.682  21.288  1.00  0.00     0.013 A 
BRANCH  26  31
ATOM     31  O   UNL A   1      44.027  44.013  18.239  1.00  0.00    -0.497 OA
ATOM     32  C   UNL A   1      42.893  44.775  17.833  1.00  0.00     0.278 C 
ENDBRANCH  26  31
ENDBRANCH  12  25
ENDBRANCH   9  11
ENDBRANCH   8   9
ENDBRANCH   7   8
ENDBRANCH   6   7
ENDBRANCH   3   6
ENDBRANCH   1   2
BRANCH   1  33
ATOM     33  C   UNL A   1      41.908  39.436  27.071  1.00  0.00     0.023 C 
BRANCH  33  34
ATOM     34  C   UNL A   1      42.411  39.459  28.510  1.00  0.00     0.023 C 
BRANCH  34  35
ATOM     35  C   UNL A   1      43.257  38.254  28.919  1.00  0.00     0.116 C 
BRANCH  35  36
ATOM     36  N   UNL A   1      44.679  38.540  29.055  1.00  0.00    -0.352 N 
ATOM     37  C   UNL A   1      45.724  37.642  29.061  1.00  0.00     0.251 C 
ATOM     38  H   UNL A   1      44.923  39.488  29.156  1.00  0.00     0.163 HD
ATOM     39  O   UNL A   1      46.874  38.023  29.256  1.00  0.00    -0.269 OA
BRANCH  37  40
ATOM     40  C   UNL A   1      45.434  36.204  28.869  1.00  0.00     0.039 A 
ATOM     41  C   UNL A   1      45.575  35.333  29.951  1.00  0.00     0.014 A 
ATOM     42  C   UNL A   1      44.947  35.739  27.645  1.00  0.00     0.014 A 
ATOM     43  C   UNL A   1      45.160  34.005  29.822  1.00  0.00     0.010 A 
ATOM     44  C   UNL A   1      44.452  34.442  27.549  1.00  0.00     0.010 A 
ATOM     45  C   UNL A   1      44.562  33.557  28.631  1.00  0.00    -0.014 A 
BRANCH  45  46
ATOM     46  C   UNL A   1      44.056  32.165  28.504  1.00  0.00     0.031 A 
ATOM     47  C   UNL A   1      42.733  31.783  29.115  1.00  0.00     0.074 A 
ATOM     48  C   UNL A   1      44.813  31.225  27.901  1.00  0.00     0.049 A 
ATOM     49  N   UNL A   1      42.127  30.623  29.111  1.00  0.00    -0.248 NA
ATOM     50  C   UNL A   1      42.010  32.830  29.857  1.00  0.00     0.031 C 
ATOM     51  C   UNL A   1      46.155  31.439  27.357  1.00  0.00     0.029 A 
ATOM     52  N   UNL A   1      44.567  29.897  27.658  1.00  0.00    -0.354 N 
ATOM     53  C   UNL A   1      40.977  30.793  29.872  1.00  0.00     0.074 A 
ATOM     54  C   UNL A   1      40.992  32.152  30.365  1.00  0.00     0.031 C 
ATOM     55  C   UNL A   1      46.607  30.289  26.830  1.00  0.00     0.029 A 
ATOM     56  C   UNL A   1      45.597  29.251  27.012  1.00  0.00     0.049 A 
ATOM     57  H   UNL A   1      43.731  29.447  27.921  1.00  0.00     0.167 HD
ATOM     58  C   UNL A   1      39.974  29.914  30.107  1.00  0.00     0.034 A 
ATOM     59  C   UNL A   1      45.710  27.972  26.606  1.00  0.00     0.034 A 
ATOM     60  C   UNL A   1      39.932  28.582  29.569  1.00  0.00     0.049 A 
ATOM     61  C   UNL A   1      44.553  27.032  26.821  1.00  0.00     0.074 A 
ATOM     62  C   UNL A   1      38.915  27.648  29.663  1.00  0.00     0.029 A 
ATOM     63  N   UNL A   1      40.952  27.992  28.840  1.00  0.00    -0.354 N 
ATOM     64  N   UNL A   1      43.393  27.266  27.387  1.00  0.00    -0.248 NA
ATOM     65  C   UNL A   1      44.703  25.664  26.304  1.00  0.00     0.031 C 
ATOM     66  C   UNL A   1      39.331  26.484  29.006  1.00  0.00     0.029 A 
ATOM     67  C   UNL A   1      40.596  26.703  28.482  1.00  0.00     0.049 A 
ATOM     68  H   UNL A   1      41.805  28.426  28.610  1.00  0.00     0.167 HD
ATOM     69  C   UNL A   1      42.665  26.087  27.267  1.00  0.00     0.074 A 
ATOM     70  C   UNL A   1      43.505  25.151  26.547  1.00  0.00     0.031 C 
ATOM     71  C   UNL A   1      41.422  25.799  27.726  1.00  0.00     0.034 A 
BRANCH  58  72
ATOM     72  C   UNL A   1      38.807  30.392  30.932  1.00  0.00     0.023 A 
ATOM     73  C   UNL A   1      38.832  30.222  32.332  1.00  0.00     0.012 A 
ATOM     74  C   UNL A   1      37.712  31.045  30.335  1.00  0.00     0.148 A 
ATOM     75  C   UNL A   1      37.767  30.657  33.120  1.00  0.00     0.002 A 
ATOM     76  C   UNL A   1      36.676  31.518  31.133  1.00  0.00     0.091 A 
ATOM     77  F   UNL A   1      37.695  31.178  29.001  1.00  0.00    -0.205 F 
ATOM     78  C   UNL A   1      36.696  31.314  32.522  1.00  0.00     0.022 A 
BRANCH  76  79
ATOM     79  S   UNL A   1      35.286  32.443  30.470  1.00  0.00     0.127 S 
ATOM     80  O   UNL A   1      35.931  33.691  30.062  1.00  0.00    -0.237 OA
ATOM     81  O   UNL A   1      34.851  31.591  29.363  1.00  0.00    -0.237 OA
ATOM     82  O   UNL A   1      34.327  32.563  31.559  1.00  0.00    -0.744 OA
ENDBRANCH  76  79
ENDBRANCH  58  72
BRANCH  59  83
ATOM     83  C   UNL A   1      46.932  27.523  25.877  1.00  0.00     0.023 A 
ATOM     84  C   UNL A   1      47.906  26.768  26.561  1.00  0.00     0.012 A 
ATOM     85  C   UNL A   1      47.125  27.820  24.515  1.00  0.00     0.148 A 
ATOM     86  C   UNL A   1      49.066  26.347  25.910  1.00  0.00     0.002 A 
ATOM     87  C   UNL A   1      48.258  27.350  23.858  1.00  0.00     0.091 A 
ATOM     88  F   UNL A   1      46.194  28.549  23.885  1.00  0.00    -0.205 F 
ATOM     89  C   UNL A   1      49.237  26.629  24.558  1.00  0.00     0.022 A 
BRANCH  87  90
ATOM     90  S   UNL A   1      48.497  27.552  22.089  1.00  0.00     0.127 S 
ATOM     91  O   UNL A   1      49.707  28.366  22.042  1.00  0.00    -0.237 OA
ATOM     92  O   UNL A   1      48.666  26.167  21.647  1.00  0.00    -0.237 OA
ATOM     93  O   UNL A   1      47.282  28.190  21.601  1.00  0.00    -0.744 OA
ENDBRANCH  87  90
ENDBRANCH  59  83
BRANCH  71  94
ATOM     94  C   UNL A   1      40.879  24.422  27.446  1.00  0.00     0.023 A 
ATOM     95  C   UNL A   1      41.516  23.294  27.999  1.00  0.00     0.012 A 
ATOM     96  C   UNL A   1      39.701  24.251  26.693  1.00  0.00     0.148 A 
ATOM     97  C   UNL A   1      41.011  22.013  27.776  1.00  0.00     0.002 A 
ATOM     98  C   UNL A   1      39.175  22.976  26.517  1.00  0.00     0.091 A 
ATOM     99  F   UNL A   1      39.118  25.334  26.158  1.00  0.00    -0.205 F 
ATOM    100  C   UNL A   1      39.836  21.856  27.046  1.00  0.00     0.022 A 
BRANCH  98 101
ATOM    101  S   UNL A   1      37.614  22.689  25.675  1.00  0.00     0.127 S 
ATOM    102  O   UNL A   1      37.832  23.374  24.402  1.00  0.00    -0.237 OA
ATOM    103  O   UNL A   1      37.572  21.229  25.583  1.00  0.00    -0.237 OA
ATOM    104  O   UNL A   1      36.587  23.267  26.531  1.00  0.00    -0.744 OA
ENDBRANCH  98 101
ENDBRANCH  71  94
ENDBRANCH  45  46
ENDBRANCH  37  40
ENDBRANCH  35  36
ENDBRANCH  34  35
ENDBRANCH  33  34
ENDBRANCH   1  33
TORSDOF 20
ENDMDL
