MODEL 1
REMARK VINA RESULT:     -13.4      0.000      0.000
REMARK SMILES CN1C(=O)/C(=C\c2ccc(-c3ccccc3C(=O)NCCCCNC(=O)c3ccc(-c4c5nc(c(-c6cccc(S(=O)(=O)[O-])c6F)c6ccc([nH]6)c(-c6cccc(S(=O)(=O)[O-])c6F)c6nc(c(-c7cccc(S(=O)(=O)[O-])c7F)c7ccc4[nH]7)C=C6)C=C5)cc3)o2)C(=O)[NH+]=C1S
REMARK SMILES IDX 21 1 20 2 19 3 17 4 18 5 16 7 11 8 12 9 13 10 15 11 14 12
REMARK SMILES IDX 10 13 7 14 8 15 90 16 9 17 6 18 1 19 2 20 3 21 94 22 4 23
REMARK SMILES IDX 5 24 93 25 91 26 92 28 95 29 22 31 23 32 24 33 25 34 26 36
REMARK SMILES IDX 27 37 28 38 89 39 29 40 88 41 30 42 31 43 32 44 82 45 33 46
REMARK SMILES IDX 87 47 81 48 83 49 34 50 86 51 80 52 79 53 35 55 67 56 47 57
REMARK SMILES IDX 66 58 48 59 51 60 65 61 84 62 49 63 50 64 64 66 85 67 52 68
REMARK SMILES IDX 36 69 37 70 45 71 38 72 40 73 46 74 39 75 41 76 42 77 43 78
REMARK SMILES IDX 44 79 68 80 69 81 77 82 70 83 72 84 78 85 71 86 73 87 74 88
REMARK SMILES IDX 75 89 76 90 53 91 54 92 62 93 55 94 57 95 63 96 56 97 58 98
REMARK SMILES IDX 59 99 60 100 61 101
REMARK H PARENT 19 6 93 27 95 30 24 35 83 54 51 65
REMARK Flexibility Score: inf
ROOT
ATOM      1  C   UNL A   1      32.046  27.823  26.707  1.00  0.00     0.023 C 
ENDROOT
BRANCH   1   2
ATOM      2  C   UNL A   1      33.489  27.359  26.599  1.00  0.00     0.116 C 
BRANCH   2   3
ATOM      3  N   UNL A   1      33.880  26.556  25.470  1.00  0.00    -0.352 N 
ATOM      4  C   UNL A   1      33.236  26.367  24.263  1.00  0.00     0.252 C 
ATOM      5  O   UNL A   1      33.865  25.751  23.396  1.00  0.00    -0.269 OA
ATOM      6  H   UNL A   1      34.731  26.072  25.573  1.00  0.00     0.163 HD
BRANCH   4   7
ATOM      7  C   UNL A   1      31.812  26.752  23.941  1.00  0.00     0.050 A 
ATOM      8  C   UNL A   1      30.606  26.124  24.316  1.00  0.00     0.030 A 
ATOM      9  C   UNL A   1      29.371  26.674  23.893  1.00  0.00     0.013 A 
ATOM     10  C   UNL A   1      29.307  27.857  23.165  1.00  0.00     0.001 A 
ATOM     11  C   UNL A   1      31.711  27.963  23.212  1.00  0.00     0.014 A 
ATOM     12  C   UNL A   1      30.482  28.513  22.836  1.00  0.00     0.001 A 
BRANCH   8  13
ATOM     13  C   UNL A   1      30.495  24.967  25.176  1.00  0.00     0.135 A 
ATOM     14  C   UNL A   1      31.025  22.865  25.680  1.00  0.00     0.128 A 
ATOM     15  C   UNL A   1      30.243  23.383  26.712  1.00  0.00     0.051 A 
ATOM     16  O   UNL A   1      31.141  23.851  24.728  1.00  0.00    -0.457 OA
ATOM     17  C   UNL A   1      29.881  24.710  26.376  1.00  0.00     0.051 A 
BRANCH  14  18
ATOM     18  C   UNL A   1      31.716  21.623  25.584  1.00  0.00     0.071 C 
ATOM     19  C   UNL A   1      35.984  23.765  25.661  1.00  0.00     0.301 C 
ATOM     20  N   UNL A   1      35.221  22.523  25.601  1.00  0.00    -0.189 N 
ATOM     21  C   UNL A   1      33.935  22.600  26.079  1.00  0.00     0.349 C 
ATOM     22  C   UNL A   1      35.702  21.303  25.193  1.00  0.00     0.318 C 
ATOM     23  O   UNL A   1      33.558  23.485  26.846  1.00  0.00    -0.240 OA
ATOM     24  C   UNL A   1      33.053  21.498  25.669  1.00  0.00     0.157 C 
ATOM     25  N   UNL A   1      35.023  20.217  25.107  1.00  0.00    -0.200 N 
ATOM     26  C   UNL A   1      33.669  20.203  25.302  1.00  0.00     0.347 C 
ATOM     27  H   UNL A   1      35.488  19.375  24.895  1.00  0.00     0.316 HD
ATOM     28  O   UNL A   1      32.997  19.190  25.185  1.00  0.00    -0.241 OA
BRANCH  22  29
ATOM     29  S   UNL A   1      37.402  21.160  24.813  1.00  0.00    -0.055 SA
ATOM     30  H   UNL A   1      37.621  21.597  23.544  1.00  0.00     0.116 HD
ENDBRANCH  22  29
ENDBRANCH  14  18
ENDBRANCH   8  13
ENDBRANCH   4   7
ENDBRANCH   2   3
ENDBRANCH   1   2
BRANCH   1  31
ATOM     31  C   UNL A   1      31.777  29.288  27.047  1.00  0.00     0.023 C 
BRANCH  31  32
ATOM     32  C   UNL A   1      32.689  30.367  26.464  1.00  0.00     0.116 C 
BRANCH  32  33
ATOM     33  N   UNL A   1      32.632  31.678  27.103  1.00  0.00    -0.352 N 
ATOM     34  C   UNL A   1      33.639  32.392  27.725  1.00  0.00     0.251 C 
ATOM     35  H   UNL A   1      31.752  32.116  27.090  1.00  0.00     0.163 HD
ATOM     36  O   UNL A   1      33.444  33.550  28.090  1.00  0.00    -0.269 OA
BRANCH  34  37
ATOM     37  C   UNL A   1      34.940  31.728  27.988  1.00  0.00     0.039 A 
ATOM     38  C   UNL A   1      36.089  32.509  28.140  1.00  0.00     0.014 A 
ATOM     39  C   UNL A   1      34.993  30.352  28.216  1.00  0.00     0.014 A 
ATOM     40  C   UNL A   1      37.258  31.930  28.650  1.00  0.00     0.010 A 
ATOM     41  C   UNL A   1      36.127  29.800  28.808  1.00  0.00     0.010 A 
ATOM     42  C   UNL A   1      37.265  30.585  29.057  1.00  0.00    -0.014 A 
BRANCH  42  43
ATOM     43  C   UNL A   1      38.416  29.991  29.799  1.00  0.00     0.031 A 
ATOM     44  C   UNL A   1      38.768  30.483  31.179  1.00  0.00     0.074 A 
ATOM     45  C   UNL A   1      39.227  29.103  29.183  1.00  0.00     0.049 A 
ATOM     46  N   UNL A   1      39.788  30.164  31.934  1.00  0.00    -0.248 NA
ATOM     47  C   UNL A   1      37.876  31.491  31.774  1.00  0.00     0.031 C 
ATOM     48  C   UNL A   1      39.063  28.614  27.811  1.00  0.00     0.029 A 
ATOM     49  N   UNL A   1      40.372  28.478  29.618  1.00  0.00    -0.354 N 
ATOM     50  C   UNL A   1      39.685  30.961  33.069  1.00  0.00     0.074 A 
ATOM     51  C   UNL A   1      38.524  31.805  32.887  1.00  0.00     0.031 C 
ATOM     52  C   UNL A   1      40.061  27.764  27.521  1.00  0.00     0.029 A 
ATOM     53  C   UNL A   1      40.957  27.667  28.669  1.00  0.00     0.049 A 
ATOM     54  H   UNL A   1      40.740  28.598  30.522  1.00  0.00     0.167 HD
ATOM     55  C   UNL A   1      40.463  30.969  34.178  1.00  0.00     0.034 A 
ATOM     56  C   UNL A   1      42.087  26.933  28.714  1.00  0.00     0.034 A 
ATOM     57  C   UNL A   1      41.584  30.093  34.385  1.00  0.00     0.049 A 
ATOM     58  C   UNL A   1      42.901  26.915  29.982  1.00  0.00     0.074 A 
ATOM     59  C   UNL A   1      42.373  29.958  35.513  1.00  0.00     0.029 A 
ATOM     60  N   UNL A   1      42.080  29.206  33.442  1.00  0.00    -0.354 N 
ATOM     61  N   UNL A   1      42.687  27.552  31.108  1.00  0.00    -0.248 NA
ATOM     62  C   UNL A   1      44.090  26.049  29.999  1.00  0.00     0.031 C 
ATOM     63  C   UNL A   1      43.357  29.000  35.247  1.00  0.00     0.029 A 
ATOM     64  C   UNL A   1      43.165  28.522  33.961  1.00  0.00     0.049 A 
ATOM     65  H   UNL A   1      41.712  29.080  32.537  1.00  0.00     0.167 HD
ATOM     66  C   UNL A   1      43.689  27.136  31.977  1.00  0.00     0.074 A 
ATOM     67  C   UNL A   1      44.498  26.176  31.254  1.00  0.00     0.031 C 
ATOM     68  C   UNL A   1      43.927  27.525  33.254  1.00  0.00     0.034 A 
BRANCH  55  69
ATOM     69  C   UNL A   1      40.087  31.918  35.287  1.00  0.00     0.023 A 
ATOM     70  C   UNL A   1      40.720  33.177  35.367  1.00  0.00     0.012 A 
ATOM     71  C   UNL A   1      39.077  31.594  36.213  1.00  0.00     0.148 A 
ATOM     72  C   UNL A   1      40.384  34.080  36.374  1.00  0.00     0.002 A 
ATOM     73  C   UNL A   1      38.715  32.519  37.187  1.00  0.00     0.091 A 
ATOM     74  F   UNL A   1      38.499  30.387  36.134  1.00  0.00    -0.205 F 
ATOM     75  C   UNL A   1      39.376  33.755  37.277  1.00  0.00     0.022 A 
BRANCH  73  76
ATOM     76  S   UNL A   1      37.375  32.230  38.348  1.00  0.00     0.127 S 
ATOM     77  O   UNL A   1      37.903  32.847  39.565  1.00  0.00    -0.237 OA
ATOM     78  O   UNL A   1      36.268  32.958  37.727  1.00  0.00    -0.237 OA
ATOM     79  O   UNL A   1      37.197  30.787  38.406  1.00  0.00    -0.744 OA
ENDBRANCH  73  76
ENDBRANCH  55  69
BRANCH  56  80
ATOM     80  C   UNL A   1      42.482  26.092  27.546  1.00  0.00     0.023 A 
ATOM     81  C   UNL A   1      43.282  26.654  26.531  1.00  0.00     0.012 A 
ATOM     82  C   UNL A   1      42.089  24.745  27.439  1.00  0.00     0.148 A 
ATOM     83  C   UNL A   1      43.654  25.902  25.416  1.00  0.00     0.002 A 
ATOM     84  C   UNL A   1      42.509  23.984  26.352  1.00  0.00     0.091 A 
ATOM     85  F   UNL A   1      41.317  24.229  28.407  1.00  0.00    -0.205 F 
ATOM     86  C   UNL A   1      43.277  24.565  25.332  1.00  0.00     0.022 A 
BRANCH  84  87
ATOM     87  S   UNL A   1      42.179  22.222  26.224  1.00  0.00     0.127 S 
ATOM     88  O   UNL A   1      42.728  21.723  27.482  1.00  0.00    -0.237 OA
ATOM     89  O   UNL A   1      40.719  22.194  26.134  1.00  0.00    -0.237 OA
ATOM     90  O   UNL A   1      42.863  21.784  25.014  1.00  0.00    -0.744 OA
ENDBRANCH  84  87
ENDBRANCH  56  80
BRANCH  68  91
ATOM     91  C   UNL A   1      45.085  26.889  33.978  1.00  0.00     0.023 A 
ATOM     92  C   UNL A   1      46.359  27.487  33.927  1.00  0.00     0.012 A 
ATOM     93  C   UNL A   1      44.888  25.745  34.778  1.00  0.00     0.148 A 
ATOM     94  C   UNL A   1      47.427  26.939  34.636  1.00  0.00     0.002 A 
ATOM     95  C   UNL A   1      45.945  25.233  35.521  1.00  0.00     0.091 A 
ATOM     96  F   UNL A   1      43.672  25.181  34.798  1.00  0.00    -0.205 F 
ATOM     97  C   UNL A   1      47.218  25.822  35.442  1.00  0.00     0.022 A 
BRANCH  95  98
ATOM     98  S   UNL A   1      45.744  23.860  36.660  1.00  0.00     0.127 S 
ATOM     99  O   UNL A   1      47.118  23.635  37.103  1.00  0.00    -0.237 OA
ATOM    100  O   UNL A   1      44.859  24.427  37.678  1.00  0.00    -0.237 OA
ATOM    101  O   UNL A   1      45.153  22.777  35.883  1.00  0.00    -0.744 OA
ENDBRANCH  95  98
ENDBRANCH  68  91
ENDBRANCH  42  43
ENDBRANCH  34  37
ENDBRANCH  32  33
ENDBRANCH  31  32
ENDBRANCH   1  31
TORSDOF 17
ENDMDL
MODEL 2
REMARK VINA RESULT:     -13.4      5.010     10.070
REMARK SMILES CN1C(=O)/C(=C\c2ccc(-c3ccccc3C(=O)NCCCCNC(=O)c3ccc(-c4c5nc(c(-c6cccc(S(=O)(=O)[O-])c6F)c6ccc([nH]6)c(-c6cccc(S(=O)(=O)[O-])c6F)c6nc(c(-c7cccc(S(=O)(=O)[O-])c7F)c7ccc4[nH]7)C=C6)C=C5)cc3)o2)C(=O)[NH+]=C1S
REMARK SMILES IDX 21 1 20 2 19 3 17 4 18 5 16 7 11 8 12 9 13 10 15 11 14 12
REMARK SMILES IDX 10 13 7 14 8 15 90 16 9 17 6 18 1 19 2 20 3 21 94 22 4 23
REMARK SMILES IDX 5 24 93 25 91 26 92 28 95 29 22 31 23 32 24 33 25 34 26 36
REMARK SMILES IDX 27 37 28 38 89 39 29 40 88 41 30 42 31 43 32 44 82 45 33 46
REMARK SMILES IDX 87 47 81 48 83 49 34 50 86 51 80 52 79 53 35 55 67 56 47 57
REMARK SMILES IDX 66 58 48 59 51 60 65 61 84 62 49 63 50 64 64 66 85 67 52 68
REMARK SMILES IDX 36 69 37 70 45 71 38 72 40 73 46 74 39 75 41 76 42 77 43 78
REMARK SMILES IDX 44 79 68 80 69 81 77 82 70 83 72 84 78 85 71 86 73 87 74 88
REMARK SMILES IDX 75 89 76 90 53 91 54 92 62 93 55 94 57 95 63 96 56 97 58 98
REMARK SMILES IDX 59 99 60 100 61 101
REMARK H PARENT 19 6 93 27 95 30 24 35 83 54 51 65
REMARK Flexibility Score: inf
ROOT
ATOM      1  C   UNL A   1      35.313  22.932  26.554  1.00  0.00     0.023 C 
ENDROOT
BRANCH   1   2
ATOM      2  C   UNL A   1      34.682  24.140  25.881  1.00  0.00     0.116 C 
BRANCH   2   3
ATOM      3  N   UNL A   1      33.285  24.406  26.098  1.00  0.00    -0.352 N 
ATOM      4  C   UNL A   1      32.180  23.675  25.706  1.00  0.00     0.252 C 
ATOM      5  O   UNL A   1      31.091  24.041  26.159  1.00  0.00    -0.269 OA
ATOM      6  H   UNL A   1      33.087  25.230  26.600  1.00  0.00     0.163 HD
BRANCH   4   7
ATOM      7  C   UNL A   1      32.168  22.543  24.707  1.00  0.00     0.050 A 
ATOM      8  C   UNL A   1      32.202  22.590  23.298  1.00  0.00     0.030 A 
ATOM      9  C   UNL A   1      32.184  21.382  22.558  1.00  0.00     0.013 A 
ATOM     10  C   UNL A   1      32.196  20.139  23.183  1.00  0.00     0.001 A 
ATOM     11  C   UNL A   1      32.195  21.262  25.313  1.00  0.00     0.014 A 
ATOM     12  C   UNL A   1      32.217  20.079  24.567  1.00  0.00     0.001 A 
BRANCH   8  13
ATOM     13  C   UNL A   1      32.323  23.790  22.500  1.00  0.00     0.135 A 
ATOM     14  C   UNL A   1      31.742  25.892  22.057  1.00  0.00     0.128 A 
ATOM     15  C   UNL A   1      32.780  25.530  21.199  1.00  0.00     0.051 A 
ATOM     16  O   UNL A   1      31.456  24.791  22.830  1.00  0.00    -0.457 OA
ATOM     17  C   UNL A   1      33.129  24.184  21.462  1.00  0.00     0.051 A 
BRANCH  14  18
ATOM     18  C   UNL A   1      31.113  27.154  22.259  1.00  0.00     0.071 C 
ATOM     19  C   UNL A   1      33.870  28.143  26.032  1.00  0.00     0.301 C 
ATOM     20  N   UNL A   1      32.805  28.567  25.129  1.00  0.00    -0.189 N 
ATOM     21  C   UNL A   1      32.785  27.936  23.909  1.00  0.00     0.349 C 
ATOM     22  C   UNL A   1      31.903  29.574  25.368  1.00  0.00     0.318 C 
ATOM     23  O   UNL A   1      33.765  27.366  23.433  1.00  0.00    -0.240 OA
ATOM     24  C   UNL A   1      31.521  28.060  23.168  1.00  0.00     0.157 C 
ATOM     25  N   UNL A   1      30.944  29.926  24.590  1.00  0.00    -0.200 N 
ATOM     26  C   UNL A   1      30.643  29.215  23.460  1.00  0.00     0.347 C 
ATOM     27  H   UNL A   1      30.413  30.725  24.813  1.00  0.00     0.316 HD
ATOM     28  O   UNL A   1      29.710  29.506  22.728  1.00  0.00    -0.241 OA
BRANCH  22  29
ATOM     29  S   UNL A   1      32.084  30.532  26.819  1.00  0.00    -0.055 SA
ATOM     30  H   UNL A   1      31.194  31.561  26.796  1.00  0.00     0.116 HD
ENDBRANCH  22  29
ENDBRANCH  14  18
ENDBRANCH   8  13
ENDBRANCH   4   7
ENDBRANCH   2   3
ENDBRANCH   1   2
BRANCH   1  31
ATOM     31  C   UNL A   1      35.769  21.767  25.677  1.00  0.00     0.023 C 
BRANCH  31  32
ATOM     32  C   UNL A   1      37.035  21.921  24.834  1.00  0.00     0.116 C 
BRANCH  32  33
ATOM     33  N   UNL A   1      38.098  20.952  25.080  1.00  0.00    -0.352 N 
ATOM     34  C   UNL A   1      39.183  21.041  25.933  1.00  0.00     0.251 C 
ATOM     35  H   UNL A   1      38.034  20.116  24.567  1.00  0.00     0.163 HD
ATOM     36  O   UNL A   1      39.909  20.066  26.117  1.00  0.00    -0.269 OA
BRANCH  34  37
ATOM     37  C   UNL A   1      39.486  22.340  26.583  1.00  0.00     0.039 A 
ATOM     38  C   UNL A   1      40.500  22.405  27.543  1.00  0.00     0.014 A 
ATOM     39  C   UNL A   1      38.862  23.509  26.144  1.00  0.00     0.014 A 
ATOM     40  C   UNL A   1      40.977  23.653  27.963  1.00  0.00     0.010 A 
ATOM     41  C   UNL A   1      39.400  24.745  26.494  1.00  0.00     0.010 A 
ATOM     42  C   UNL A   1      40.480  24.834  27.388  1.00  0.00    -0.014 A 
BRANCH  42  43
ATOM     43  C   UNL A   1      41.106  26.164  27.649  1.00  0.00     0.031 A 
ATOM     44  C   UNL A   1      42.523  26.437  27.214  1.00  0.00     0.074 A 
ATOM     45  C   UNL A   1      40.451  27.081  28.392  1.00  0.00     0.049 A 
ATOM     46  N   UNL A   1      43.269  27.488  27.441  1.00  0.00    -0.248 NA
ATOM     47  C   UNL A   1      43.202  25.375  26.454  1.00  0.00     0.031 C 
ATOM     48  C   UNL A   1      39.112  26.911  28.964  1.00  0.00     0.029 A 
ATOM     49  N   UNL A   1      40.834  28.329  28.824  1.00  0.00    -0.354 N 
ATOM     50  C   UNL A   1      44.513  27.197  26.894  1.00  0.00     0.074 A 
ATOM     51  C   UNL A   1      44.433  25.857  26.356  1.00  0.00     0.031 C 
ATOM     52  C   UNL A   1      38.785  28.010  29.662  1.00  0.00     0.029 A 
ATOM     53  C   UNL A   1      39.897  28.954  29.619  1.00  0.00     0.049 A 
ATOM     54  H   UNL A   1      41.697  28.738  28.589  1.00  0.00     0.167 HD
ATOM     55  C   UNL A   1      45.614  27.982  26.814  1.00  0.00     0.034 A 
ATOM     56  C   UNL A   1      39.929  30.148  30.246  1.00  0.00     0.034 A 
ATOM     57  C   UNL A   1      45.678  29.335  27.299  1.00  0.00     0.049 A 
ATOM     58  C   UNL A   1      41.144  31.026  30.090  1.00  0.00     0.074 A 
ATOM     59  C   UNL A   1      46.714  30.244  27.177  1.00  0.00     0.029 A 
ATOM     60  N   UNL A   1      44.668  29.972  28.002  1.00  0.00    -0.354 N 
ATOM     61  N   UNL A   1      42.247  30.796  29.422  1.00  0.00    -0.248 NA
ATOM     62  C   UNL A   1      41.102  32.344  30.743  1.00  0.00     0.031 C 
ATOM     63  C   UNL A   1      46.337  31.426  27.822  1.00  0.00     0.029 A 
ATOM     64  C   UNL A   1      45.056  31.261  28.324  1.00  0.00     0.049 A 
ATOM     65  H   UNL A   1      43.802  29.568  28.236  1.00  0.00     0.167 HD
ATOM     66  C   UNL A   1      43.013  31.950  29.542  1.00  0.00     0.074 A 
ATOM     67  C   UNL A   1      42.238  32.887  30.329  1.00  0.00     0.031 C 
ATOM     68  C   UNL A   1      44.253  32.206  29.056  1.00  0.00     0.034 A 
BRANCH  55  69
ATOM     69  C   UNL A   1      46.825  27.418  26.117  1.00  0.00     0.023 A 
ATOM     70  C   UNL A   1      46.966  27.589  24.723  1.00  0.00     0.012 A 
ATOM     71  C   UNL A   1      47.845  26.769  26.838  1.00  0.00     0.148 A 
ATOM     72  C   UNL A   1      48.081  27.089  24.053  1.00  0.00     0.002 A 
ATOM     73  C   UNL A   1      48.977  26.313  26.170  1.00  0.00     0.091 A 
ATOM     74  F   UNL A   1      47.687  26.598  28.158  1.00  0.00    -0.205 F 
ATOM     75  C   UNL A   1      49.089  26.460  24.777  1.00  0.00     0.022 A 
BRANCH  73  76
ATOM     76  S   UNL A   1      50.369  25.560  27.020  1.00  0.00     0.127 S 
ATOM     77  O   UNL A   1      50.772  26.632  27.929  1.00  0.00    -0.237 OA
ATOM     78  O   UNL A   1      49.744  24.409  27.673  1.00  0.00    -0.237 OA
ATOM     79  O   UNL A   1      51.336  25.221  25.986  1.00  0.00    -0.744 OA
ENDBRANCH  73  76
ENDBRANCH  55  69
BRANCH  56  80
ATOM     80  C   UNL A   1      38.744  30.620  31.022  1.00  0.00     0.023 A 
ATOM     81  C   UNL A   1      38.709  30.419  32.416  1.00  0.00     0.012 A 
ATOM     82  C   UNL A   1      37.667  31.275  30.398  1.00  0.00     0.148 A 
ATOM     83  C   UNL A   1      37.610  30.830  33.169  1.00  0.00     0.002 A 
ATOM     84  C   UNL A   1      36.598  31.733  31.162  1.00  0.00     0.091 A 
ATOM     85  F   UNL A   1      37.711  31.447  29.069  1.00  0.00    -0.205 F 
ATOM     86  C   UNL A   1      36.559  31.496  32.544  1.00  0.00     0.022 A 
BRANCH  84  87
ATOM     87  S   UNL A   1      35.263  32.713  30.463  1.00  0.00     0.127 S 
ATOM     88  O   UNL A   1      34.372  32.866  31.610  1.00  0.00    -0.237 OA
ATOM     89  O   UNL A   1      35.963  33.932  30.058  1.00  0.00    -0.237 OA
ATOM     90  O   UNL A   1      34.741  31.926  29.353  1.00  0.00    -0.744 OA
ENDBRANCH  84  87
ENDBRANCH  56  80
BRANCH  68  91
ATOM     91  C   UNL A   1      44.845  33.565  29.321  1.00  0.00     0.023 A 
ATOM     92  C   UNL A   1      45.585  33.792  30.498  1.00  0.00     0.012 A 
ATOM     93  C   UNL A   1      44.737  34.593  28.362  1.00  0.00     0.148 A 
ATOM     94  C   UNL A   1      46.184  35.030  30.730  1.00  0.00     0.002 A 
ATOM     95  C   UNL A   1      45.377  35.808  28.578  1.00  0.00     0.091 A 
ATOM     96  F   UNL A   1      44.012  34.363  27.258  1.00  0.00    -0.205 F 
ATOM     97  C   UNL A   1      46.091  36.031  29.767  1.00  0.00     0.022 A 
BRANCH  95  98
ATOM     98  S   UNL A   1      45.394  37.118  27.350  1.00  0.00     0.127 S 
ATOM     99  O   UNL A   1      46.152  38.161  28.036  1.00  0.00    -0.237 OA
ATOM    100  O   UNL A   1      46.097  36.487  26.232  1.00  0.00    -0.237 OA
ATOM    101  O   UNL A   1      43.996  37.434  27.081  1.00  0.00    -0.744 OA
ENDBRANCH  95  98
ENDBRANCH  68  91
ENDBRANCH  42  43
ENDBRANCH  34  37
ENDBRANCH  32  33
ENDBRANCH  31  32
ENDBRANCH   1  31
TORSDOF 17
ENDMDL
MODEL 3
REMARK VINA RESULT:     -13.1      5.089      8.023
REMARK SMILES CN1C(=O)/C(=C\c2ccc(-c3ccccc3C(=O)NCCCCNC(=O)c3ccc(-c4c5nc(c(-c6cccc(S(=O)(=O)[O-])c6F)c6ccc([nH]6)c(-c6cccc(S(=O)(=O)[O-])c6F)c6nc(c(-c7cccc(S(=O)(=O)[O-])c7F)c7ccc4[nH]7)C=C6)C=C5)cc3)o2)C(=O)[NH+]=C1S
REMARK SMILES IDX 21 1 20 2 19 3 17 4 18 5 16 7 11 8 12 9 13 10 15 11 14 12
REMARK SMILES IDX 10 13 7 14 8 15 90 16 9 17 6 18 1 19 2 20 3 21 94 22 4 23
REMARK SMILES IDX 5 24 93 25 91 26 92 28 95 29 22 31 23 32 24 33 25 34 26 36
REMARK SMILES IDX 27 37 28 38 89 39 29 40 88 41 30 42 31 43 32 44 82 45 33 46
REMARK SMILES IDX 87 47 81 48 83 49 34 50 86 51 80 52 79 53 35 55 67 56 47 57
REMARK SMILES IDX 66 58 48 59 51 60 65 61 84 62 49 63 50 64 64 66 85 67 52 68
REMARK SMILES IDX 36 69 37 70 45 71 38 72 40 73 46 74 39 75 41 76 42 77 43 78
REMARK SMILES IDX 44 79 68 80 69 81 77 82 70 83 72 84 78 85 71 86 73 87 74 88
REMARK SMILES IDX 75 89 76 90 53 91 54 92 62 93 55 94 57 95 63 96 56 97 58 98
REMARK SMILES IDX 59 99 60 100 61 101
REMARK H PARENT 19 6 93 27 95 30 24 35 83 54 51 65
REMARK Flexibility Score: inf
ROOT
ATOM      1  C   UNL A   1      35.339  22.650  26.528  1.00  0.00     0.023 C 
ENDROOT
BRANCH   1   2
ATOM      2  C   UNL A   1      34.823  23.973  25.988  1.00  0.00     0.116 C 
BRANCH   2   3
ATOM      3  N   UNL A   1      33.437  24.310  26.181  1.00  0.00    -0.352 N 
ATOM      4  C   UNL A   1      32.304  23.626  25.784  1.00  0.00     0.252 C 
ATOM      5  O   UNL A   1      31.227  24.051  26.217  1.00  0.00    -0.269 OA
ATOM      6  H   UNL A   1      33.273  25.150  26.667  1.00  0.00     0.163 HD
BRANCH   4   7
ATOM      7  C   UNL A   1      32.250  22.480  24.804  1.00  0.00     0.050 A 
ATOM      8  C   UNL A   1      32.267  22.504  23.394  1.00  0.00     0.030 A 
ATOM      9  C   UNL A   1      32.209  21.286  22.673  1.00  0.00     0.013 A 
ATOM     10  C   UNL A   1      32.198  20.053  23.317  1.00  0.00     0.001 A 
ATOM     11  C   UNL A   1      32.253  21.208  25.429  1.00  0.00     0.014 A 
ATOM     12  C   UNL A   1      32.236  20.014  24.701  1.00  0.00     0.001 A 
BRANCH   8  13
ATOM     13  C   UNL A   1      32.409  23.689  22.576  1.00  0.00     0.135 A 
ATOM     14  C   UNL A   1      31.842  25.783  22.080  1.00  0.00     0.128 A 
ATOM     15  C   UNL A   1      32.898  25.402  21.252  1.00  0.00     0.051 A 
ATOM     16  O   UNL A   1      31.536  24.697  22.867  1.00  0.00    -0.457 OA
ATOM     17  C   UNL A   1      33.238  24.061  21.548  1.00  0.00     0.051 A 
BRANCH  14  18
ATOM     18  C   UNL A   1      31.211  27.049  22.244  1.00  0.00     0.071 C 
ATOM     19  C   UNL A   1      33.816  28.064  26.116  1.00  0.00     0.301 C 
ATOM     20  N   UNL A   1      32.791  28.484  25.167  1.00  0.00    -0.189 N 
ATOM     21  C   UNL A   1      32.817  27.841  23.953  1.00  0.00     0.349 C 
ATOM     22  C   UNL A   1      31.884  29.497  25.359  1.00  0.00     0.318 C 
ATOM     23  O   UNL A   1      33.814  27.261  23.523  1.00  0.00    -0.240 OA
ATOM     24  C   UNL A   1      31.585  27.962  23.159  1.00  0.00     0.157 C 
ATOM     25  N   UNL A   1      30.960  29.845  24.539  1.00  0.00    -0.200 N 
ATOM     26  C   UNL A   1      30.702  29.124  23.404  1.00  0.00     0.347 C 
ATOM     27  H   UNL A   1      30.423  30.648  24.731  1.00  0.00     0.316 HD
ATOM     28  O   UNL A   1      29.801  29.412  22.632  1.00  0.00    -0.241 OA
BRANCH  22  29
ATOM     29  S   UNL A   1      32.010  30.468  26.807  1.00  0.00    -0.055 SA
ATOM     30  H   UNL A   1      33.284  30.931  26.932  1.00  0.00     0.116 HD
ENDBRANCH  22  29
ENDBRANCH  14  18
ENDBRANCH   8  13
ENDBRANCH   4   7
ENDBRANCH   2   3
ENDBRANCH   1   2
BRANCH   1  31
ATOM     31  C   UNL A   1      35.885  21.623  25.536  1.00  0.00     0.023 C 
BRANCH  31  32
ATOM     32  C   UNL A   1      37.257  21.856  24.903  1.00  0.00     0.116 C 
BRANCH  32  33
ATOM     33  N   UNL A   1      38.266  20.831  25.150  1.00  0.00    -0.352 N 
ATOM     34  C   UNL A   1      39.332  20.847  26.029  1.00  0.00     0.251 C 
ATOM     35  H   UNL A   1      38.174  20.011  24.614  1.00  0.00     0.163 HD
ATOM     36  O   UNL A   1      40.005  19.833  26.207  1.00  0.00    -0.269 OA
BRANCH  34  37
ATOM     37  C   UNL A   1      39.681  22.114  26.718  1.00  0.00     0.039 A 
ATOM     38  C   UNL A   1      40.705  22.115  27.670  1.00  0.00     0.014 A 
ATOM     39  C   UNL A   1      39.091  23.315  26.323  1.00  0.00     0.014 A 
ATOM     40  C   UNL A   1      41.224  23.334  28.127  1.00  0.00     0.010 A 
ATOM     41  C   UNL A   1      39.671  24.522  26.708  1.00  0.00     0.010 A 
ATOM     42  C   UNL A   1      40.760  24.548  27.594  1.00  0.00    -0.014 A 
BRANCH  42  43
ATOM     43  C   UNL A   1      41.430  25.848  27.892  1.00  0.00     0.031 A 
ATOM     44  C   UNL A   1      40.696  26.930  28.642  1.00  0.00     0.074 A 
ATOM     45  C   UNL A   1      42.651  26.109  27.375  1.00  0.00     0.049 A 
ATOM     46  N   UNL A   1      41.073  28.155  28.903  1.00  0.00    -0.248 NA
ATOM     47  C   UNL A   1      39.348  26.601  29.132  1.00  0.00     0.031 C 
ATOM     48  C   UNL A   1      43.435  25.190  26.545  1.00  0.00     0.029 A 
ATOM     49  N   UNL A   1      43.434  27.237  27.444  1.00  0.00    -0.354 N 
ATOM     50  C   UNL A   1      39.996  28.755  29.546  1.00  0.00     0.074 A 
ATOM     51  C   UNL A   1      38.938  27.771  29.602  1.00  0.00     0.031 C 
ATOM     52  C   UNL A   1      44.585  25.786  26.189  1.00  0.00     0.029 A 
ATOM     53  C   UNL A   1      44.612  27.140  26.735  1.00  0.00     0.049 A 
ATOM     54  H   UNL A   1      43.178  28.040  27.951  1.00  0.00     0.167 HD
ATOM     55  C   UNL A   1      39.904  30.000  30.073  1.00  0.00     0.034 A 
ATOM     56  C   UNL A   1      45.600  28.037  26.540  1.00  0.00     0.034 A 
ATOM     57  C   UNL A   1      40.973  30.960  30.068  1.00  0.00     0.049 A 
ATOM     58  C   UNL A   1      45.498  29.393  27.188  1.00  0.00     0.074 A 
ATOM     59  C   UNL A   1      41.011  32.210  30.661  1.00  0.00     0.029 A 
ATOM     60  N   UNL A   1      42.193  30.783  29.434  1.00  0.00    -0.354 N 
ATOM     61  N   UNL A   1      44.538  29.879  27.937  1.00  0.00    -0.248 NA
ATOM     62  C   UNL A   1      46.631  30.311  26.996  1.00  0.00     0.031 C 
ATOM     63  C   UNL A   1      42.248  32.795  30.372  1.00  0.00     0.029 A 
ATOM     64  C   UNL A   1      42.989  31.900  29.619  1.00  0.00     0.049 A 
ATOM     65  H   UNL A   1      42.455  29.980  28.928  1.00  0.00     0.167 HD
ATOM     66  C   UNL A   1      44.966  31.140  28.335  1.00  0.00     0.074 A 
ATOM     67  C   UNL A   1      46.282  31.335  27.763  1.00  0.00     0.031 C 
ATOM     68  C   UNL A   1      44.321  32.060  29.095  1.00  0.00     0.034 A 
BRANCH  55  69
ATOM     69  C   UNL A   1      38.615  30.372  30.761  1.00  0.00     0.023 A 
ATOM     70  C   UNL A   1      38.422  30.014  32.112  1.00  0.00     0.012 A 
ATOM     71  C   UNL A   1      37.623  31.118  30.096  1.00  0.00     0.148 A 
ATOM     72  C   UNL A   1      37.246  30.356  32.777  1.00  0.00     0.002 A 
ATOM     73  C   UNL A   1      36.472  31.496  30.781  1.00  0.00     0.091 A 
ATOM     74  F   UNL A   1      37.815  31.435  28.808  1.00  0.00    -0.205 F 
ATOM     75  C   UNL A   1      36.277  31.104  32.115  1.00  0.00     0.022 A 
BRANCH  73  76
ATOM     76  S   UNL A   1      35.199  32.527  30.044  1.00  0.00     0.127 S 
ATOM     77  O   UNL A   1      34.272  32.693  31.163  1.00  0.00    -0.237 OA
ATOM     78  O   UNL A   1      35.948  33.733  29.689  1.00  0.00    -0.237 OA
ATOM     79  O   UNL A   1      34.681  31.776  28.910  1.00  0.00    -0.744 OA
ENDBRANCH  73  76
ENDBRANCH  55  69
BRANCH  56  80
ATOM     80  C   UNL A   1      46.812  27.660  25.755  1.00  0.00     0.023 A 
ATOM     81  C   UNL A   1      46.814  27.848  24.358  1.00  0.00     0.012 A 
ATOM     82  C   UNL A   1      47.961  27.134  26.376  1.00  0.00     0.148 A 
ATOM     83  C   UNL A   1      47.923  27.489  23.591  1.00  0.00     0.002 A 
ATOM     84  C   UNL A   1      49.084  26.830  25.612  1.00  0.00     0.091 A 
ATOM     85  F   UNL A   1      47.937  26.949  27.703  1.00  0.00    -0.205 F 
ATOM     86  C   UNL A   1      49.061  26.990  24.218  1.00  0.00     0.022 A 
BRANCH  84  87
ATOM     87  S   UNL A   1      50.636  26.304  26.348  1.00  0.00     0.127 S 
ATOM     88  O   UNL A   1      50.317  24.945  26.779  1.00  0.00    -0.237 OA
ATOM     89  O   UNL A   1      51.554  26.391  25.213  1.00  0.00    -0.237 OA
ATOM     90  O   UNL A   1      50.908  27.261  27.413  1.00  0.00    -0.744 OA
ENDBRANCH  84  87
ENDBRANCH  56  80
BRANCH  68  91
ATOM     91  C   UNL A   1      45.037  33.351  29.393  1.00  0.00     0.023 A 
ATOM     92  C   UNL A   1      45.858  33.453  30.532  1.00  0.00     0.012 A 
ATOM     93  C   UNL A   1      44.959  34.437  28.497  1.00  0.00     0.148 A 
ATOM     94  C   UNL A   1      46.568  34.624  30.792  1.00  0.00     0.002 A 
ATOM     95  C   UNL A   1      45.708  35.583  28.736  1.00  0.00     0.091 A 
ATOM     96  F   UNL A   1      44.156  34.328  27.429  1.00  0.00    -0.205 F 
ATOM     97  C   UNL A   1      46.504  35.682  29.889  1.00  0.00     0.022 A 
BRANCH  95  98
ATOM     98  S   UNL A   1      45.762  36.955  27.578  1.00  0.00     0.127 S 
ATOM     99  O   UNL A   1      46.682  37.873  28.247  1.00  0.00    -0.237 OA
ATOM    100  O   UNL A   1      46.299  36.323  26.372  1.00  0.00    -0.237 OA
ATOM    101  O   UNL A   1      44.389  37.428  27.451  1.00  0.00    -0.744 OA
ENDBRANCH  95  98
ENDBRANCH  68  91
ENDBRANCH  42  43
ENDBRANCH  34  37
ENDBRANCH  32  33
ENDBRANCH  31  32
ENDBRANCH   1  31
TORSDOF 17
ENDMDL
