MODEL 1
REMARK VINA RESULT:     -12.5      0.000      0.000
REMARK SMILES COc1ccc(-n2ccnc2C[N@@H+]2CCn3nc(C(=O)NCCCCNC(=O)c4ccc(-c5c6nc(c(-c7cccc(S(=O)(=O)[O-])c7F)c7ccc([nH]7)c(-c7cccc(S(=O)(=O)[O-])c7F)c7nc(c(-c8cccc(S(=O)(=O)[O-])c8F)c8ccc5[nH]8)C=C7)C=C6)cc4)cc3C2)cc1
REMARK SMILES IDX 23 1 22 2 21 3 19 4 20 5 18 7 13 8 14 9 94 10 15 12 93 13
REMARK SMILES IDX 16 14 92 15 17 16 12 17 11 18 7 19 8 20 9 21 10 22 6 23 3 24
REMARK SMILES IDX 4 25 96 26 5 27 95 28 2 29 1 30 24 31 25 32 26 33 27 34
REMARK SMILES IDX 28 36 29 37 30 38 91 39 31 40 90 41 32 42 33 43 34 44 84 45
REMARK SMILES IDX 35 46 89 47 83 48 85 49 36 50 88 51 82 52 81 53 37 55 69 56
REMARK SMILES IDX 49 57 68 58 50 59 53 60 67 61 86 62 51 63 52 64 66 66 87 67
REMARK SMILES IDX 54 68 38 69 39 70 47 71 40 72 42 73 48 74 41 75 43 76 44 77
REMARK SMILES IDX 45 78 46 79 70 80 71 81 79 82 72 83 74 84 80 85 73 86 75 87
REMARK SMILES IDX 76 88 77 89 78 90 55 91 56 92 64 93 57 94 59 95 65 96 58 97
REMARK SMILES IDX 60 98 61 99 62 100 63 101
REMARK H PARENT 21 6 13 11 26 35 85 54 53 65
REMARK Flexibility Score: inf
ROOT
ATOM      1  C   UNL A   1      33.924  29.526  26.974  1.00  0.00     0.023 C 
ENDROOT
BRANCH   1   2
ATOM      2  C   UNL A   1      33.040  28.822  25.941  1.00  0.00     0.116 C 
BRANCH   2   3
ATOM      3  N   UNL A   1      32.747  27.503  26.436  1.00  0.00    -0.351 N 
ATOM      4  C   UNL A   1      31.789  26.649  25.960  1.00  0.00     0.271 C 
ATOM      5  O   UNL A   1      31.252  25.910  26.790  1.00  0.00    -0.267 OA
ATOM      6  H   UNL A   1      33.290  27.183  27.192  1.00  0.00     0.163 HD
BRANCH   4   7
ATOM      7  C   UNL A   1      31.477  26.497  24.507  1.00  0.00     0.150 A 
ATOM      8  N   UNL A   1      32.155  22.766  23.576  1.00  0.00    -0.322 N 
ATOM      9  C   UNL A   1      33.022  23.119  22.449  1.00  0.00     0.286 C 
ATOM     10  C   UNL A   1      30.794  23.332  23.315  1.00  0.00     0.319 C 
ATOM     11  H   UNL A   1      32.126  21.749  23.634  1.00  0.00     0.348 HD
ATOM     12  C   UNL A   1      32.978  24.597  21.991  1.00  0.00     0.206 C 
ATOM     13  C   UNL A   1      30.887  24.821  23.275  1.00  0.00     0.094 A 
ATOM     14  N   UNL A   1      32.029  25.391  22.770  1.00  0.00    -0.257 N 
ATOM     15  C   UNL A   1      30.312  25.779  24.086  1.00  0.00     0.065 A 
ATOM     16  N   UNL A   1      32.400  26.470  23.514  1.00  0.00    -0.167 NA
BRANCH   8  17
ATOM     17  C   UNL A   1      32.668  23.208  24.909  1.00  0.00     0.339 C 
BRANCH  17  18
ATOM     18  C   UNL A   1      33.958  22.689  25.528  1.00  0.00     0.168 A 
ATOM     19  N   UNL A   1      34.581  21.419  25.463  1.00  0.00    -0.299 N 
ATOM     20  C   UNL A   1      35.883  21.612  25.877  1.00  0.00     0.113 A 
ATOM     21  C   UNL A   1      36.000  22.931  26.208  1.00  0.00     0.132 A 
ATOM     22  N   UNL A   1      34.811  23.571  26.048  1.00  0.00    -0.236 NA
BRANCH  19  23
ATOM     23  C   UNL A   1      34.171  20.122  25.046  1.00  0.00     0.047 A 
ATOM     24  C   UNL A   1      33.416  17.450  24.529  1.00  0.00     0.119 A 
ATOM     25  C   UNL A   1      34.740  17.842  24.395  1.00  0.00     0.048 A 
ATOM     26  C   UNL A   1      32.493  18.343  25.064  1.00  0.00     0.048 A 
ATOM     27  C   UNL A   1      35.117  19.164  24.694  1.00  0.00     0.030 A 
ATOM     28  C   UNL A   1      32.871  19.674  25.329  1.00  0.00     0.030 A 
BRANCH  24  29
ATOM     29  O   UNL A   1      33.072  16.152  24.267  1.00  0.00    -0.497 OA
ATOM     30  C   UNL A   1      32.827  15.422  25.469  1.00  0.00     0.278 C 
ENDBRANCH  24  29
ENDBRANCH  19  23
ENDBRANCH  17  18
ENDBRANCH   8  17
ENDBRANCH   4   7
ENDBRANCH   2   3
ENDBRANCH   1   2
BRANCH   1  31
ATOM     31  C   UNL A   1      33.378  30.887  27.442  1.00  0.00     0.023 C 
BRANCH  31  32
ATOM     32  C   UNL A   1      34.482  31.869  27.815  1.00  0.00     0.116 C 
BRANCH  32  33
ATOM     33  N   UNL A   1      34.400  32.251  29.221  1.00  0.00    -0.352 N 
ATOM     34  C   UNL A   1      35.196  31.862  30.277  1.00  0.00     0.251 C 
ATOM     35  H   UNL A   1      33.673  32.875  29.446  1.00  0.00     0.163 HD
ATOM     36  O   UNL A   1      34.835  32.052  31.422  1.00  0.00    -0.269 OA
BRANCH  34  37
ATOM     37  C   UNL A   1      36.480  31.198  29.992  1.00  0.00     0.039 A 
ATOM     38  C   UNL A   1      37.639  31.967  29.867  1.00  0.00     0.014 A 
ATOM     39  C   UNL A   1      36.521  29.809  29.864  1.00  0.00     0.014 A 
ATOM     40  C   UNL A   1      38.858  31.322  29.690  1.00  0.00     0.010 A 
ATOM     41  C   UNL A   1      37.736  29.167  29.786  1.00  0.00     0.010 A 
ATOM     42  C   UNL A   1      38.902  29.920  29.675  1.00  0.00    -0.014 A 
BRANCH  42  43
ATOM     43  C   UNL A   1      40.190  29.237  29.719  1.00  0.00     0.031 A 
ATOM     44  C   UNL A   1      40.708  29.007  31.095  1.00  0.00     0.074 A 
ATOM     45  C   UNL A   1      40.762  28.664  28.638  1.00  0.00     0.049 A 
ATOM     46  N   UNL A   1      41.753  29.540  31.638  1.00  0.00    -0.248 NA
ATOM     47  C   UNL A   1      39.889  28.221  32.031  1.00  0.00     0.031 C 
ATOM     48  C   UNL A   1      40.202  28.551  27.287  1.00  0.00     0.029 A 
ATOM     49  N   UNL A   1      41.900  27.919  28.557  1.00  0.00    -0.354 N 
ATOM     50  C   UNL A   1      41.863  28.954  32.899  1.00  0.00     0.074 A 
ATOM     51  C   UNL A   1      40.588  28.341  33.162  1.00  0.00     0.031 C 
ATOM     52  C   UNL A   1      40.854  27.580  26.613  1.00  0.00     0.029 A 
ATOM     53  C   UNL A   1      41.966  27.115  27.420  1.00  0.00     0.049 A 
ATOM     54  H   UNL A   1      42.611  27.945  29.239  1.00  0.00     0.167 HD
ATOM     55  C   UNL A   1      43.079  28.791  33.492  1.00  0.00     0.034 A 
ATOM     56  C   UNL A   1      42.836  26.101  27.187  1.00  0.00     0.034 A 
ATOM     57  C   UNL A   1      44.088  29.578  32.823  1.00  0.00     0.049 A 
ATOM     58  C   UNL A   1      43.995  26.309  28.084  1.00  0.00     0.074 A 
ATOM     59  C   UNL A   1      44.255  30.915  32.525  1.00  0.00     0.029 A 
ATOM     60  N   UNL A   1      44.954  28.894  32.004  1.00  0.00    -0.354 N 
ATOM     61  N   UNL A   1      44.834  27.296  27.955  1.00  0.00    -0.248 NA
ATOM     62  C   UNL A   1      43.994  25.650  29.379  1.00  0.00     0.031 C 
ATOM     63  C   UNL A   1      44.856  30.930  31.232  1.00  0.00     0.029 A 
ATOM     64  C   UNL A   1      45.091  29.609  30.848  1.00  0.00     0.049 A 
ATOM     65  H   UNL A   1      45.396  28.041  32.213  1.00  0.00     0.167 HD
ATOM     66  C   UNL A   1      45.090  27.691  29.261  1.00  0.00     0.074 A 
ATOM     67  C   UNL A   1      44.664  26.563  30.087  1.00  0.00     0.031 C 
ATOM     68  C   UNL A   1      45.332  29.001  29.558  1.00  0.00     0.034 A 
BRANCH  55  69
ATOM     69  C   UNL A   1      43.477  27.635  34.392  1.00  0.00     0.023 A 
ATOM     70  C   UNL A   1      44.024  27.973  35.655  1.00  0.00     0.012 A 
ATOM     71  C   UNL A   1      43.632  26.294  33.975  1.00  0.00     0.148 A 
ATOM     72  C   UNL A   1      44.768  27.058  36.408  1.00  0.00     0.002 A 
ATOM     73  C   UNL A   1      44.307  25.366  34.764  1.00  0.00     0.091 A 
ATOM     74  F   UNL A   1      43.243  25.917  32.757  1.00  0.00    -0.205 F 
ATOM     75  C   UNL A   1      44.911  25.753  35.961  1.00  0.00     0.022 A 
BRANCH  73  76
ATOM     76  S   UNL A   1      44.484  23.650  34.260  1.00  0.00     0.127 S 
ATOM     77  O   UNL A   1      43.091  23.255  34.073  1.00  0.00    -0.237 OA
ATOM     78  O   UNL A   1      45.265  23.781  33.029  1.00  0.00    -0.237 OA
ATOM     79  O   UNL A   1      45.195  22.990  35.349  1.00  0.00    -0.744 OA
ENDBRANCH  73  76
ENDBRANCH  55  69
BRANCH  56  80
ATOM     80  C   UNL A   1      42.678  24.856  26.399  1.00  0.00     0.023 A 
ATOM     81  C   UNL A   1      43.677  24.495  25.471  1.00  0.00     0.012 A 
ATOM     82  C   UNL A   1      41.720  23.882  26.754  1.00  0.00     0.148 A 
ATOM     83  C   UNL A   1      43.751  23.196  24.954  1.00  0.00     0.002 A 
ATOM     84  C   UNL A   1      41.794  22.591  26.234  1.00  0.00     0.091 A 
ATOM     85  F   UNL A   1      40.797  24.185  27.675  1.00  0.00    -0.205 F 
ATOM     86  C   UNL A   1      42.817  22.241  25.345  1.00  0.00     0.022 A 
BRANCH  84  87
ATOM     87  S   UNL A   1      40.643  21.299  26.723  1.00  0.00     0.127 S 
ATOM     88  O   UNL A   1      41.182  20.127  26.030  1.00  0.00    -0.237 OA
ATOM     89  O   UNL A   1      40.808  21.280  28.175  1.00  0.00    -0.237 OA
ATOM     90  O   UNL A   1      39.336  21.727  26.241  1.00  0.00    -0.744 OA
ENDBRANCH  84  87
ENDBRANCH  56  80
BRANCH  68  91
ATOM     91  C   UNL A   1      45.619  29.949  28.421  1.00  0.00     0.023 A 
ATOM     92  C   UNL A   1      44.600  30.612  27.706  1.00  0.00     0.012 A 
ATOM     93  C   UNL A   1      46.957  30.309  28.186  1.00  0.00     0.148 A 
ATOM     94  C   UNL A   1      44.911  31.592  26.760  1.00  0.00     0.002 A 
ATOM     95  C   UNL A   1      47.259  31.319  27.284  1.00  0.00     0.091 A 
ATOM     96  F   UNL A   1      47.916  29.669  28.874  1.00  0.00    -0.205 F 
ATOM     97  C   UNL A   1      46.241  31.957  26.560  1.00  0.00     0.022 A 
BRANCH  95  98
ATOM     98  S   UNL A   1      48.938  31.920  27.091  1.00  0.00     0.127 S 
ATOM     99  O   UNL A   1      49.280  32.314  28.456  1.00  0.00    -0.237 OA
ATOM    100  O   UNL A   1      49.644  30.735  26.601  1.00  0.00    -0.237 OA
ATOM    101  O   UNL A   1      48.863  33.006  26.121  1.00  0.00    -0.744 OA
ENDBRANCH  95  98
ENDBRANCH  68  91
ENDBRANCH  42  43
ENDBRANCH  34  37
ENDBRANCH  32  33
ENDBRANCH  31  32
ENDBRANCH   1  31
TORSDOF 18
ENDMDL
MODEL 2
REMARK VINA RESULT:     -12.3      3.229      7.101
REMARK SMILES COc1ccc(-n2ccnc2C[N@@H+]2CCn3nc(C(=O)NCCCCNC(=O)c4ccc(-c5c6nc(c(-c7cccc(S(=O)(=O)[O-])c7F)c7ccc([nH]7)c(-c7cccc(S(=O)(=O)[O-])c7F)c7nc(c(-c8cccc(S(=O)(=O)[O-])c8F)c8ccc5[nH]8)C=C7)C=C6)cc4)cc3C2)cc1
REMARK SMILES IDX 23 1 22 2 21 3 19 4 20 5 18 7 13 8 14 9 94 10 15 12 93 13
REMARK SMILES IDX 16 14 92 15 17 16 12 17 11 18 7 19 8 20 9 21 10 22 6 23 3 24
REMARK SMILES IDX 4 25 96 26 5 27 95 28 2 29 1 30 24 31 25 32 26 33 27 34
REMARK SMILES IDX 28 36 29 37 30 38 91 39 31 40 90 41 32 42 33 43 34 44 84 45
REMARK SMILES IDX 35 46 89 47 83 48 85 49 36 50 88 51 82 52 81 53 37 55 69 56
REMARK SMILES IDX 49 57 68 58 50 59 53 60 67 61 86 62 51 63 52 64 66 66 87 67
REMARK SMILES IDX 54 68 38 69 39 70 47 71 40 72 42 73 48 74 41 75 43 76 44 77
REMARK SMILES IDX 45 78 46 79 70 80 71 81 79 82 72 83 74 84 80 85 73 86 75 87
REMARK SMILES IDX 76 88 77 89 78 90 55 91 56 92 64 93 57 94 59 95 65 96 58 97
REMARK SMILES IDX 60 98 61 99 62 100 63 101
REMARK H PARENT 21 6 13 11 26 35 85 54 53 65
REMARK Flexibility Score: inf
ROOT
ATOM      1  C   UNL A   1      31.624  30.120  27.077  1.00  0.00     0.023 C 
ENDROOT
BRANCH   1   2
ATOM      2  C   UNL A   1      31.903  29.259  25.843  1.00  0.00     0.116 C 
BRANCH   2   3
ATOM      3  N   UNL A   1      32.106  27.905  26.286  1.00  0.00    -0.351 N 
ATOM      4  C   UNL A   1      31.447  26.794  25.833  1.00  0.00     0.271 C 
ATOM      5  O   UNL A   1      31.256  25.895  26.657  1.00  0.00    -0.267 OA
ATOM      6  H   UNL A   1      32.785  27.764  26.984  1.00  0.00     0.163 HD
BRANCH   4   7
ATOM      7  C   UNL A   1      31.082  26.586  24.399  1.00  0.00     0.150 A 
ATOM      8  N   UNL A   1      32.401  23.053  23.384  1.00  0.00    -0.322 N 
ATOM      9  C   UNL A   1      33.116  23.566  22.212  1.00  0.00     0.286 C 
ATOM     10  C   UNL A   1      30.943  23.350  23.211  1.00  0.00     0.319 C 
ATOM     11  H   UNL A   1      32.570  22.049  23.432  1.00  0.00     0.348 HD
ATOM     12  C   UNL A   1      32.764  25.008  21.776  1.00  0.00     0.206 C 
ATOM     13  C   UNL A   1      30.749  24.829  23.183  1.00  0.00     0.094 A 
ATOM     14  N   UNL A   1      31.730  25.606  22.619  1.00  0.00    -0.257 N 
ATOM     15  C   UNL A   1      30.053  25.659  24.039  1.00  0.00     0.065 A 
ATOM     16  N   UNL A   1      31.932  26.736  23.352  1.00  0.00    -0.167 NA
BRANCH   8  17
ATOM     17  C   UNL A   1      32.900  23.583  24.690  1.00  0.00     0.339 C 
BRANCH  17  18
ATOM     18  C   UNL A   1      34.143  23.057  25.392  1.00  0.00     0.168 A 
ATOM     19  N   UNL A   1      34.714  21.762  25.436  1.00  0.00    -0.299 N 
ATOM     20  C   UNL A   1      36.007  21.930  25.887  1.00  0.00     0.113 A 
ATOM     21  C   UNL A   1      36.167  23.262  26.135  1.00  0.00     0.132 A 
ATOM     22  N   UNL A   1      35.013  23.937  25.886  1.00  0.00    -0.236 NA
BRANCH  19  23
ATOM     23  C   UNL A   1      34.264  20.456  25.089  1.00  0.00     0.047 A 
ATOM     24  C   UNL A   1      33.458  17.776  24.707  1.00  0.00     0.119 A 
ATOM     25  C   UNL A   1      34.767  18.158  24.450  1.00  0.00     0.048 A 
ATOM     26  C   UNL A   1      32.588  18.688  25.297  1.00  0.00     0.048 A 
ATOM     27  C   UNL A   1      35.173  19.485  24.681  1.00  0.00     0.030 A 
ATOM     28  C   UNL A   1      32.992  20.023  25.495  1.00  0.00     0.030 A 
BRANCH  24  29
ATOM     29  O   UNL A   1      33.088  16.474  24.510  1.00  0.00    -0.497 OA
ATOM     30  C   UNL A   1      33.804  15.590  25.372  1.00  0.00     0.278 C 
ENDBRANCH  24  29
ENDBRANCH  19  23
ENDBRANCH  17  18
ENDBRANCH   8  17
ENDBRANCH   4   7
ENDBRANCH   2   3
ENDBRANCH   1   2
BRANCH   1  31
ATOM     31  C   UNL A   1      31.432  31.616  26.767  1.00  0.00     0.023 C 
BRANCH  31  32
ATOM     32  C   UNL A   1      32.703  32.430  26.977  1.00  0.00     0.116 C 
BRANCH  32  33
ATOM     33  N   UNL A   1      32.409  33.730  27.571  1.00  0.00    -0.352 N 
ATOM     34  C   UNL A   1      33.073  34.399  28.576  1.00  0.00     0.251 C 
ATOM     35  H   UNL A   1      31.625  34.195  27.200  1.00  0.00     0.163 HD
ATOM     36  O   UNL A   1      32.550  35.339  29.140  1.00  0.00    -0.269 OA
BRANCH  34  37
ATOM     37  C   UNL A   1      34.420  33.942  28.964  1.00  0.00     0.039 A 
ATOM     38  C   UNL A   1      34.579  33.174  30.120  1.00  0.00     0.014 A 
ATOM     39  C   UNL A   1      35.514  34.271  28.164  1.00  0.00     0.014 A 
ATOM     40  C   UNL A   1      35.838  32.672  30.426  1.00  0.00     0.010 A 
ATOM     41  C   UNL A   1      36.739  33.695  28.412  1.00  0.00     0.010 A 
ATOM     42  C   UNL A   1      36.910  32.916  29.554  1.00  0.00    -0.014 A 
BRANCH  42  43
ATOM     43  C   UNL A   1      38.172  32.209  29.744  1.00  0.00     0.031 A 
ATOM     44  C   UNL A   1      38.186  30.831  29.180  1.00  0.00     0.074 A 
ATOM     45  C   UNL A   1      39.297  32.809  30.185  1.00  0.00     0.049 A 
ATOM     46  N   UNL A   1      38.262  29.718  29.833  1.00  0.00    -0.248 NA
ATOM     47  C   UNL A   1      37.928  30.659  27.742  1.00  0.00     0.031 C 
ATOM     48  C   UNL A   1      39.493  34.233  30.478  1.00  0.00     0.029 A 
ATOM     49  N   UNL A   1      40.554  32.298  30.315  1.00  0.00    -0.354 N 
ATOM     50  C   UNL A   1      38.320  28.717  28.865  1.00  0.00     0.074 A 
ATOM     51  C   UNL A   1      37.888  29.329  27.636  1.00  0.00     0.031 C 
ATOM     52  C   UNL A   1      40.815  34.510  30.487  1.00  0.00     0.029 A 
ATOM     53  C   UNL A   1      41.554  33.269  30.358  1.00  0.00     0.049 A 
ATOM     54  H   UNL A   1      40.740  31.333  30.373  1.00  0.00     0.167 HD
ATOM     55  C   UNL A   1      38.980  27.549  29.103  1.00  0.00     0.034 A 
ATOM     56  C   UNL A   1      42.890  33.070  30.235  1.00  0.00     0.034 A 
ATOM     57  C   UNL A   1      39.263  27.396  30.511  1.00  0.00     0.049 A 
ATOM     58  C   UNL A   1      43.147  31.647  30.549  1.00  0.00     0.074 A 
ATOM     59  C   UNL A   1      38.511  27.372  31.668  1.00  0.00     0.029 A 
ATOM     60  N   UNL A   1      40.559  27.628  30.903  1.00  0.00    -0.354 N 
ATOM     61  N   UNL A   1      43.000  31.136  31.738  1.00  0.00    -0.248 NA
ATOM     62  C   UNL A   1      43.178  30.691  29.455  1.00  0.00     0.031 C 
ATOM     63  C   UNL A   1      39.307  28.053  32.636  1.00  0.00     0.029 A 
ATOM     64  C   UNL A   1      40.525  28.385  32.040  1.00  0.00     0.049 A 
ATOM     65  H   UNL A   1      41.369  27.306  30.446  1.00  0.00     0.167 HD
ATOM     66  C   UNL A   1      42.432  29.892  31.501  1.00  0.00     0.074 A 
ATOM     67  C   UNL A   1      42.696  29.619  30.090  1.00  0.00     0.031 C 
ATOM     68  C   UNL A   1      41.544  29.351  32.386  1.00  0.00     0.034 A 
BRANCH  55  69
ATOM     69  C   UNL A   1      39.744  26.737  28.073  1.00  0.00     0.023 A 
ATOM     70  C   UNL A   1      39.587  25.330  28.130  1.00  0.00     0.012 A 
ATOM     71  C   UNL A   1      40.808  27.221  27.279  1.00  0.00     0.148 A 
ATOM     72  C   UNL A   1      40.493  24.457  27.518  1.00  0.00     0.002 A 
ATOM     73  C   UNL A   1      41.663  26.351  26.609  1.00  0.00     0.091 A 
ATOM     74  F   UNL A   1      41.093  28.523  27.256  1.00  0.00    -0.205 F 
ATOM     75  C   UNL A   1      41.534  24.969  26.758  1.00  0.00     0.022 A 
BRANCH  73  76
ATOM     76  S   UNL A   1      43.001  26.955  25.571  1.00  0.00     0.127 S 
ATOM     77  O   UNL A   1      43.902  27.534  26.563  1.00  0.00    -0.237 OA
ATOM     78  O   UNL A   1      43.473  25.718  24.947  1.00  0.00    -0.237 OA
ATOM     79  O   UNL A   1      42.385  27.895  24.641  1.00  0.00    -0.744 OA
ENDBRANCH  73  76
ENDBRANCH  55  69
BRANCH  56  80
ATOM     80  C   UNL A   1      43.950  33.946  29.682  1.00  0.00     0.023 A 
ATOM     81  C   UNL A   1      44.781  34.665  30.565  1.00  0.00     0.012 A 
ATOM     82  C   UNL A   1      44.340  33.857  28.328  1.00  0.00     0.148 A 
ATOM     83  C   UNL A   1      45.984  35.231  30.128  1.00  0.00     0.002 A 
ATOM     84  C   UNL A   1      45.535  34.426  27.896  1.00  0.00     0.091 A 
ATOM     85  F   UNL A   1      43.594  33.132  27.484  1.00  0.00    -0.205 F 
ATOM     86  C   UNL A   1      46.368  35.102  28.797  1.00  0.00     0.022 A 
BRANCH  84  87
ATOM     87  S   UNL A   1      46.109  34.266  26.199  1.00  0.00     0.127 S 
ATOM     88  O   UNL A   1      45.003  34.854  25.442  1.00  0.00    -0.237 OA
ATOM     89  O   UNL A   1      47.332  35.066  26.216  1.00  0.00    -0.237 OA
ATOM     90  O   UNL A   1      46.292  32.838  25.974  1.00  0.00    -0.744 OA
ENDBRANCH  84  87
ENDBRANCH  56  80
BRANCH  68  91
ATOM     91  C   UNL A   1      41.429  29.977  33.753  1.00  0.00     0.023 A 
ATOM     92  C   UNL A   1      42.319  29.679  34.805  1.00  0.00     0.012 A 
ATOM     93  C   UNL A   1      40.503  31.020  33.923  1.00  0.00     0.148 A 
ATOM     94  C   UNL A   1      42.269  30.387  36.008  1.00  0.00     0.002 A 
ATOM     95  C   UNL A   1      40.490  31.756  35.099  1.00  0.00     0.091 A 
ATOM     96  F   UNL A   1      39.661  31.292  32.913  1.00  0.00    -0.205 F 
ATOM     97  C   UNL A   1      41.364  31.437  36.149  1.00  0.00     0.022 A 
BRANCH  95  98
ATOM     98  S   UNL A   1      39.442  33.200  35.280  1.00  0.00     0.127 S 
ATOM     99  O   UNL A   1      39.824  33.692  36.601  1.00  0.00    -0.237 OA
ATOM    100  O   UNL A   1      39.872  34.045  34.165  1.00  0.00    -0.237 OA
ATOM    101  O   UNL A   1      38.072  32.715  35.160  1.00  0.00    -0.744 OA
ENDBRANCH  95  98
ENDBRANCH  68  91
ENDBRANCH  42  43
ENDBRANCH  34  37
ENDBRANCH  32  33
ENDBRANCH  31  32
ENDBRANCH   1  31
TORSDOF 18
ENDMDL
MODEL 3
REMARK VINA RESULT:     -12.3      2.866      8.256
REMARK SMILES COc1ccc(-n2ccnc2C[N@@H+]2CCn3nc(C(=O)NCCCCNC(=O)c4ccc(-c5c6nc(c(-c7cccc(S(=O)(=O)[O-])c7F)c7ccc([nH]7)c(-c7cccc(S(=O)(=O)[O-])c7F)c7nc(c(-c8cccc(S(=O)(=O)[O-])c8F)c8ccc5[nH]8)C=C7)C=C6)cc4)cc3C2)cc1
REMARK SMILES IDX 23 1 22 2 21 3 19 4 20 5 18 7 13 8 14 9 94 10 15 12 93 13
REMARK SMILES IDX 16 14 92 15 17 16 12 17 11 18 7 19 8 20 9 21 10 22 6 23 3 24
REMARK SMILES IDX 4 25 96 26 5 27 95 28 2 29 1 30 24 31 25 32 26 33 27 34
REMARK SMILES IDX 28 36 29 37 30 38 91 39 31 40 90 41 32 42 33 43 34 44 84 45
REMARK SMILES IDX 35 46 89 47 83 48 85 49 36 50 88 51 82 52 81 53 37 55 69 56
REMARK SMILES IDX 49 57 68 58 50 59 53 60 67 61 86 62 51 63 52 64 66 66 87 67
REMARK SMILES IDX 54 68 38 69 39 70 47 71 40 72 42 73 48 74 41 75 43 76 44 77
REMARK SMILES IDX 45 78 46 79 70 80 71 81 79 82 72 83 74 84 80 85 73 86 75 87
REMARK SMILES IDX 76 88 77 89 78 90 55 91 56 92 64 93 57 94 59 95 65 96 58 97
REMARK SMILES IDX 60 98 61 99 62 100 63 101
REMARK H PARENT 21 6 13 11 26 35 85 54 53 65
REMARK Flexibility Score: inf
ROOT
ATOM      1  C   UNL A   1      37.010  20.442  25.021  1.00  0.00     0.023 C 
ENDROOT
BRANCH   1   2
ATOM      2  C   UNL A   1      37.321  21.910  25.322  1.00  0.00     0.116 C 
BRANCH   2   3
ATOM      3  N   UNL A   1      36.262  22.425  26.148  1.00  0.00    -0.351 N 
ATOM      4  C   UNL A   1      35.088  22.980  25.714  1.00  0.00     0.271 C 
ATOM      5  O   UNL A   1      34.615  23.880  26.414  1.00  0.00    -0.267 OA
ATOM      6  H   UNL A   1      36.395  22.375  27.122  1.00  0.00     0.163 HD
BRANCH   4   7
ATOM      7  C   UNL A   1      34.323  22.462  24.540  1.00  0.00     0.150 A 
ATOM      8  N   UNL A   1      32.243  25.448  23.123  1.00  0.00    -0.322 N 
ATOM      9  C   UNL A   1      30.986  24.695  23.156  1.00  0.00     0.286 C 
ATOM     10  C   UNL A   1      33.191  24.739  22.207  1.00  0.00     0.319 C 
ATOM     11  H   UNL A   1      32.031  26.385  22.782  1.00  0.00     0.348 HD
ATOM     12  C   UNL A   1      31.112  23.166  23.361  1.00  0.00     0.206 C 
ATOM     13  C   UNL A   1      33.494  23.391  22.772  1.00  0.00     0.094 A 
ATOM     14  N   UNL A   1      32.504  22.733  23.459  1.00  0.00    -0.257 N 
ATOM     15  C   UNL A   1      34.685  22.849  23.210  1.00  0.00     0.065 A 
ATOM     16  N   UNL A   1      33.012  22.113  24.560  1.00  0.00    -0.167 NA
BRANCH   8  17
ATOM     17  C   UNL A   1      32.864  25.667  24.466  1.00  0.00     0.339 C 
BRANCH  17  18
ATOM     18  C   UNL A   1      32.650  26.923  25.297  1.00  0.00     0.168 A 
ATOM     19  N   UNL A   1      31.682  27.953  25.203  1.00  0.00    -0.299 N 
ATOM     20  C   UNL A   1      31.720  28.622  26.409  1.00  0.00     0.113 A 
ATOM     21  C   UNL A   1      32.697  28.033  27.157  1.00  0.00     0.132 A 
ATOM     22  N   UNL A   1      33.299  27.036  26.456  1.00  0.00    -0.236 NA
BRANCH  19  23
ATOM     23  C   UNL A   1      30.739  28.354  24.216  1.00  0.00     0.047 A 
ATOM     24  C   UNL A   1      28.701  29.296  22.502  1.00  0.00     0.119 A 
ATOM     25  C   UNL A   1      28.571  28.069  23.137  1.00  0.00     0.048 A 
ATOM     26  C   UNL A   1      29.770  30.123  22.833  1.00  0.00     0.048 A 
ATOM     27  C   UNL A   1      29.571  27.624  24.021  1.00  0.00     0.030 A 
ATOM     28  C   UNL A   1      30.783  29.657  23.694  1.00  0.00     0.030 A 
BRANCH  24  29
ATOM     29  O   UNL A   1      27.704  29.730  21.672  1.00  0.00    -0.497 OA
ATOM     30  C   UNL A   1      28.053  30.956  21.030  1.00  0.00     0.278 C 
ENDBRANCH  24  29
ENDBRANCH  19  23
ENDBRANCH  17  18
ENDBRANCH   8  17
ENDBRANCH   4   7
ENDBRANCH   2   3
ENDBRANCH   1   2
BRANCH   1  31
ATOM     31  C   UNL A   1      38.257  19.541  24.945  1.00  0.00     0.023 C 
BRANCH  31  32
ATOM     32  C   UNL A   1      39.355  19.972  25.910  1.00  0.00     0.116 C 
BRANCH  32  33
ATOM     33  N   UNL A   1      40.547  19.144  25.761  1.00  0.00    -0.352 N 
ATOM     34  C   UNL A   1      41.873  19.492  25.905  1.00  0.00     0.251 C 
ATOM     35  H   UNL A   1      40.381  18.204  25.524  1.00  0.00     0.163 HD
ATOM     36  O   UNL A   1      42.750  18.764  25.485  1.00  0.00    -0.269 OA
BRANCH  34  37
ATOM     37  C   UNL A   1      42.204  20.770  26.561  1.00  0.00     0.039 A 
ATOM     38  C   UNL A   1      42.553  21.874  25.779  1.00  0.00     0.014 A 
ATOM     39  C   UNL A   1      42.152  20.861  27.952  1.00  0.00     0.014 A 
ATOM     40  C   UNL A   1      42.773  23.096  26.403  1.00  0.00     0.010 A 
ATOM     41  C   UNL A   1      42.275  22.090  28.560  1.00  0.00     0.010 A 
ATOM     42  C   UNL A   1      42.609  23.203  27.792  1.00  0.00    -0.014 A 
BRANCH  42  43
ATOM     43  C   UNL A   1      42.614  24.519  28.422  1.00  0.00     0.031 A 
ATOM     44  C   UNL A   1      41.377  25.311  28.181  1.00  0.00     0.074 A 
ATOM     45  C   UNL A   1      43.543  24.906  29.321  1.00  0.00     0.049 A 
ATOM     46  N   UNL A   1      41.266  26.403  27.498  1.00  0.00    -0.248 NA
ATOM     47  C   UNL A   1      40.088  24.748  28.611  1.00  0.00     0.031 C 
ATOM     48  C   UNL A   1      44.637  24.101  29.876  1.00  0.00     0.029 A 
ATOM     49  N   UNL A   1      43.612  26.055  30.051  1.00  0.00    -0.354 N 
ATOM     50  C   UNL A   1      39.936  26.798  27.632  1.00  0.00     0.074 A 
ATOM     51  C   UNL A   1      39.229  25.645  28.123  1.00  0.00     0.031 C 
ATOM     52  C   UNL A   1      45.078  24.674  31.017  1.00  0.00     0.029 A 
ATOM     53  C   UNL A   1      44.414  25.952  31.187  1.00  0.00     0.049 A 
ATOM     54  H   UNL A   1      43.140  26.882  29.800  1.00  0.00     0.167 HD
ATOM     55  C   UNL A   1      39.589  28.115  27.589  1.00  0.00     0.034 A 
ATOM     56  C   UNL A   1      44.481  26.827  32.220  1.00  0.00     0.034 A 
ATOM     57  C   UNL A   1      40.671  28.917  27.068  1.00  0.00     0.049 A 
ATOM     58  C   UNL A   1      43.961  28.122  31.726  1.00  0.00     0.074 A 
ATOM     59  C   UNL A   1      41.415  28.929  25.906  1.00  0.00     0.029 A 
ATOM     60  N   UNL A   1      41.384  29.650  27.985  1.00  0.00    -0.354 N 
ATOM     61  N   UNL A   1      44.575  28.850  30.838  1.00  0.00    -0.248 NA
ATOM     62  C   UNL A   1      42.552  28.421  31.917  1.00  0.00     0.031 C 
ATOM     63  C   UNL A   1      42.738  29.262  26.321  1.00  0.00     0.029 A 
ATOM     64  C   UNL A   1      42.712  29.508  27.695  1.00  0.00     0.049 A 
ATOM     65  H   UNL A   1      41.006  30.183  28.721  1.00  0.00     0.167 HD
ATOM     66  C   UNL A   1      43.552  29.329  30.032  1.00  0.00     0.074 A 
ATOM     67  C   UNL A   1      42.335  29.152  30.820  1.00  0.00     0.031 C 
ATOM     68  C   UNL A   1      43.755  29.533  28.697  1.00  0.00     0.034 A 
BRANCH  55  69
ATOM     69  C   UNL A   1      38.465  28.761  28.380  1.00  0.00     0.023 A 
ATOM     70  C   UNL A   1      37.612  29.641  27.668  1.00  0.00     0.012 A 
ATOM     71  C   UNL A   1      38.380  28.801  29.789  1.00  0.00     0.148 A 
ATOM     72  C   UNL A   1      36.801  30.575  28.321  1.00  0.00     0.002 A 
ATOM     73  C   UNL A   1      37.515  29.680  30.435  1.00  0.00     0.091 A 
ATOM     74  F   UNL A   1      39.220  28.086  30.537  1.00  0.00    -0.205 F 
ATOM     75  C   UNL A   1      36.753  30.595  29.707  1.00  0.00     0.022 A 
BRANCH  73  76
ATOM     76  S   UNL A   1      37.374  29.719  32.227  1.00  0.00     0.127 S 
ATOM     77  O   UNL A   1      36.135  30.471  32.406  1.00  0.00    -0.237 OA
ATOM     78  O   UNL A   1      37.290  28.294  32.550  1.00  0.00    -0.237 OA
ATOM     79  O   UNL A   1      38.589  30.368  32.705  1.00  0.00    -0.744 OA
ENDBRANCH  73  76
ENDBRANCH  55  69
BRANCH  56  80
ATOM     80  C   UNL A   1      44.770  26.605  33.657  1.00  0.00     0.023 A 
ATOM     81  C   UNL A   1      46.053  26.906  34.157  1.00  0.00     0.012 A 
ATOM     82  C   UNL A   1      43.730  26.383  34.587  1.00  0.00     0.148 A 
ATOM     83  C   UNL A   1      46.283  27.034  35.532  1.00  0.00     0.002 A 
ATOM     84  C   UNL A   1      43.964  26.506  35.954  1.00  0.00     0.091 A 
ATOM     85  F   UNL A   1      42.492  26.151  34.132  1.00  0.00    -0.205 F 
ATOM     86  C   UNL A   1      45.237  26.846  36.430  1.00  0.00     0.022 A 
BRANCH  84  87
ATOM     87  S   UNL A   1      42.651  26.313  37.168  1.00  0.00     0.127 S 
ATOM     88  O   UNL A   1      42.161  24.964  36.881  1.00  0.00    -0.237 OA
ATOM     89  O   UNL A   1      43.381  26.445  38.427  1.00  0.00    -0.237 OA
ATOM     90  O   UNL A   1      41.688  27.370  36.883  1.00  0.00    -0.744 OA
ENDBRANCH  84  87
ENDBRANCH  56  80
BRANCH  68  91
ATOM     91  C   UNL A   1      45.171  29.525  28.181  1.00  0.00     0.023 A 
ATOM     92  C   UNL A   1      46.014  30.654  28.251  1.00  0.00     0.012 A 
ATOM     93  C   UNL A   1      45.716  28.296  27.774  1.00  0.00     0.148 A 
ATOM     94  C   UNL A   1      47.363  30.563  27.897  1.00  0.00     0.002 A 
ATOM     95  C   UNL A   1      47.068  28.198  27.474  1.00  0.00     0.091 A 
ATOM     96  F   UNL A   1      44.902  27.231  27.712  1.00  0.00    -0.205 F 
ATOM     97  C   UNL A   1      47.893  29.331  27.523  1.00  0.00     0.022 A 
BRANCH  95  98
ATOM     98  S   UNL A   1      47.828  26.611  27.121  1.00  0.00     0.127 S 
ATOM     99  O   UNL A   1      47.820  25.971  28.434  1.00  0.00    -0.237 OA
ATOM    100  O   UNL A   1      46.902  26.027  26.150  1.00  0.00    -0.237 OA
ATOM    101  O   UNL A   1      49.145  26.915  26.575  1.00  0.00    -0.744 OA
ENDBRANCH  95  98
ENDBRANCH  68  91
ENDBRANCH  42  43
ENDBRANCH  34  37
ENDBRANCH  32  33
ENDBRANCH  31  32
ENDBRANCH   1  31
TORSDOF 18
ENDMDL
