MODEL 1
REMARK VINA RESULT:     -12.2      0.000      0.000
REMARK SMILES CS(=O)(=O)c1ccc(/C=C(/C(=O)NCCCCNC(=O)c2ccc(-c3c4nc(c(-c5cccc(S(=O)(=O)[O-])c5F)c5ccc([nH]5)c(-c5cccc(S(=O)(=O)[O-])c5F)c5nc(c(-c6cccc(S(=O)(=O)[O-])c6F)c6ccc3[nH]6)C=C5)C=C4)cc2)c2ccc(F)cc2)cc1
REMARK SMILES IDX 16 1 15 2 14 3 13 4 11 5 12 6 10 8 9 9 8 10 5 11 6 12 92 13
REMARK SMILES IDX 7 14 91 15 2 16 1 17 3 18 4 19 84 20 85 21 90 22 86 23 89 24
REMARK SMILES IDX 87 25 88 26 17 27 18 28 19 29 20 31 21 32 22 33 83 34 23 35
REMARK SMILES IDX 82 36 24 37 25 38 26 39 76 40 27 41 81 42 75 43 77 44 28 45
REMARK SMILES IDX 80 46 74 47 73 48 29 50 61 51 41 52 60 53 42 54 45 55 59 56
REMARK SMILES IDX 78 57 43 58 44 59 58 61 79 62 46 63 30 64 31 65 39 66 32 67
REMARK SMILES IDX 34 68 40 69 33 70 35 71 36 72 37 73 38 74 62 75 63 76 71 77
REMARK SMILES IDX 64 78 66 79 72 80 65 81 67 82 68 83 69 84 70 85 47 86 48 87
REMARK SMILES IDX 56 88 49 89 51 90 57 91 50 92 52 93 53 94 54 95 55 96
REMARK H PARENT 13 7 18 30 77 49 45 60
REMARK Flexibility Score: inf
ROOT
ATOM      1  C   UNL A   1      32.859  27.926  25.587  1.00  0.00     0.023 C 
ENDROOT
BRANCH   1   2
ATOM      2  C   UNL A   1      32.451  26.632  26.305  1.00  0.00     0.023 C 
BRANCH   2   3
ATOM      3  C   UNL A   1      31.437  25.776  25.542  1.00  0.00     0.116 C 
BRANCH   3   4
ATOM      4  N   UNL A   1      31.696  25.838  24.117  1.00  0.00    -0.352 N 
ATOM      5  C   UNL A   1      32.322  25.013  23.237  1.00  0.00     0.251 C 
ATOM      6  O   UNL A   1      32.394  25.413  22.072  1.00  0.00    -0.269 OA
ATOM      7  H   UNL A   1      31.341  26.656  23.695  1.00  0.00     0.163 HD
BRANCH   5   8
ATOM      8  C   UNL A   1      32.840  23.637  23.598  1.00  0.00     0.047 C 
ATOM      9  C   UNL A   1      32.023  22.565  23.702  1.00  0.00     0.022 C 
BRANCH   9  10
ATOM     10  C   UNL A   1      32.348  21.143  23.945  1.00  0.00    -0.025 A 
ATOM     11  C   UNL A   1      33.006  18.426  24.231  1.00  0.00     0.067 A 
ATOM     12  C   UNL A   1      33.040  19.271  25.341  1.00  0.00     0.021 A 
ATOM     13  C   UNL A   1      32.615  18.919  22.984  1.00  0.00     0.021 A 
ATOM     14  C   UNL A   1      32.692  20.621  25.196  1.00  0.00     0.009 A 
ATOM     15  C   UNL A   1      32.285  20.270  22.847  1.00  0.00     0.009 A 
BRANCH  11  16
ATOM     16  S   UNL A   1      33.477  16.717  24.343  1.00  0.00     0.175 S 
ATOM     17  C   UNL A   1      35.055  16.670  25.144  1.00  0.00     0.163 C 
ATOM     18  O   UNL A   1      33.683  16.249  22.987  1.00  0.00    -0.224 OA
ATOM     19  O   UNL A   1      32.511  16.078  25.219  1.00  0.00    -0.224 OA
ENDBRANCH  11  16
ENDBRANCH   9  10
BRANCH   8  20
ATOM     20  C   UNL A   1      34.265  23.545  24.005  1.00  0.00    -0.013 A 
ATOM     21  C   UNL A   1      34.610  23.867  25.333  1.00  0.00     0.012 A 
ATOM     22  C   UNL A   1      35.265  23.090  23.135  1.00  0.00     0.012 A 
ATOM     23  C   UNL A   1      35.919  23.716  25.788  1.00  0.00     0.040 A 
ATOM     24  C   UNL A   1      36.575  22.926  23.598  1.00  0.00     0.040 A 
ATOM     25  C   UNL A   1      36.887  23.235  24.919  1.00  0.00     0.123 A 
ATOM     26  F   UNL A   1      38.138  23.055  25.361  1.00  0.00    -0.207 F 
ENDBRANCH   8  20
ENDBRANCH   5   8
ENDBRANCH   3   4
ENDBRANCH   2   3
ENDBRANCH   1   2
BRANCH   1  27
ATOM     27  C   UNL A   1      34.088  28.626  26.161  1.00  0.00     0.116 C 
BRANCH  27  28
ATOM     28  N   UNL A   1      33.796  29.957  26.669  1.00  0.00    -0.352 N 
ATOM     29  C   UNL A   1      34.510  30.711  27.565  1.00  0.00     0.251 C 
ATOM     30  H   UNL A   1      32.973  30.373  26.323  1.00  0.00     0.163 HD
ATOM     31  O   UNL A   1      34.046  31.772  27.972  1.00  0.00    -0.269 OA
BRANCH  29  32
ATOM     32  C   UNL A   1      35.818  30.231  28.058  1.00  0.00     0.039 A 
ATOM     33  C   UNL A   1      35.881  29.641  29.325  1.00  0.00     0.014 A 
ATOM     34  C   UNL A   1      36.977  30.371  27.290  1.00  0.00     0.014 A 
ATOM     35  C   UNL A   1      37.101  29.156  29.804  1.00  0.00     0.010 A 
ATOM     36  C   UNL A   1      38.177  29.829  27.741  1.00  0.00     0.010 A 
ATOM     37  C   UNL A   1      38.255  29.232  29.009  1.00  0.00    -0.014 A 
BRANCH  37  38
ATOM     38  C   UNL A   1      39.560  28.718  29.495  1.00  0.00     0.031 A 
ATOM     39  C   UNL A   1      40.277  29.429  30.611  1.00  0.00     0.074 A 
ATOM     40  C   UNL A   1      40.133  27.664  28.884  1.00  0.00     0.049 A 
ATOM     41  N   UNL A   1      41.443  29.166  31.141  1.00  0.00    -0.248 NA
ATOM     42  C   UNL A   1      39.611  30.610  31.187  1.00  0.00     0.031 C 
ATOM     43  C   UNL A   1      39.575  26.943  27.738  1.00  0.00     0.029 A 
ATOM     44  N   UNL A   1      41.327  27.032  29.124  1.00  0.00    -0.354 N 
ATOM     45  C   UNL A   1      41.668  30.165  32.080  1.00  0.00     0.074 A 
ATOM     46  C   UNL A   1      40.534  31.061  32.024  1.00  0.00     0.031 C 
ATOM     47  C   UNL A   1      40.424  25.966  27.378  1.00  0.00     0.029 A 
ATOM     48  C   UNL A   1      41.592  26.003  28.252  1.00  0.00     0.049 A 
ATOM     49  H   UNL A   1      41.936  27.291  29.853  1.00  0.00     0.167 HD
ATOM     50  C   UNL A   1      42.707  30.308  32.936  1.00  0.00     0.034 A 
ATOM     51  C   UNL A   1      42.657  25.179  28.170  1.00  0.00     0.034 A 
ATOM     52  C   UNL A   1      43.801  29.380  33.032  1.00  0.00     0.049 A 
ATOM     53  C   UNL A   1      43.761  25.313  29.183  1.00  0.00     0.074 A 
ATOM     54  C   UNL A   1      44.855  29.382  33.927  1.00  0.00     0.029 A 
ATOM     55  N   UNL A   1      43.978  28.281  32.206  1.00  0.00    -0.354 N 
ATOM     56  N   UNL A   1      43.877  26.168  30.171  1.00  0.00    -0.248 NA
ATOM     57  C   UNL A   1      44.863  24.343  29.097  1.00  0.00     0.031 C 
ATOM     58  C   UNL A   1      45.676  28.285  33.637  1.00  0.00     0.029 A 
ATOM     59  C   UNL A   1      45.123  27.595  32.571  1.00  0.00     0.049 A 
ATOM     60  H   UNL A   1      43.378  28.027  31.469  1.00  0.00     0.167 HD
ATOM     61  C   UNL A   1      45.039  25.814  30.848  1.00  0.00     0.074 A 
ATOM     62  C   UNL A   1      45.582  24.656  30.169  1.00  0.00     0.031 C 
ATOM     63  C   UNL A   1      45.613  26.404  31.925  1.00  0.00     0.034 A 
BRANCH  50  64
ATOM     64  C   UNL A   1      42.673  31.475  33.888  1.00  0.00     0.023 A 
ATOM     65  C   UNL A   1      43.231  32.707  33.490  1.00  0.00     0.012 A 
ATOM     66  C   UNL A   1      42.049  31.373  35.146  1.00  0.00     0.148 A 
ATOM     67  C   UNL A   1      43.204  33.809  34.343  1.00  0.00     0.002 A 
ATOM     68  C   UNL A   1      41.987  32.490  35.974  1.00  0.00     0.091 A 
ATOM     69  F   UNL A   1      41.543  30.189  35.517  1.00  0.00    -0.205 F 
ATOM     70  C   UNL A   1      42.574  33.704  35.579  1.00  0.00     0.022 A 
BRANCH  68  71
ATOM     71  S   UNL A   1      41.132  32.475  37.554  1.00  0.00     0.127 S 
ATOM     72  O   UNL A   1      41.992  31.598  38.347  1.00  0.00    -0.237 OA
ATOM     73  O   UNL A   1      41.176  33.885  37.942  1.00  0.00    -0.237 OA
ATOM     74  O   UNL A   1      39.797  31.964  37.280  1.00  0.00    -0.744 OA
ENDBRANCH  68  71
ENDBRANCH  50  64
BRANCH  51  75
ATOM     75  C   UNL A   1      42.681  24.096  27.148  1.00  0.00     0.023 A 
ATOM     76  C   UNL A   1      43.413  24.288  25.960  1.00  0.00     0.012 A 
ATOM     77  C   UNL A   1      42.015  22.872  27.353  1.00  0.00     0.148 A 
ATOM     78  C   UNL A   1      43.455  23.296  24.980  1.00  0.00     0.002 A 
ATOM     79  C   UNL A   1      42.104  21.867  26.395  1.00  0.00     0.091 A 
ATOM     80  F   UNL A   1      41.313  22.712  28.483  1.00  0.00    -0.205 F 
ATOM     81  C   UNL A   1      42.810  22.082  25.202  1.00  0.00     0.022 A 
BRANCH  79  82
ATOM     82  S   UNL A   1      41.412  20.229  26.656  1.00  0.00     0.127 S 
ATOM     83  O   UNL A   1      42.062  19.826  27.901  1.00  0.00    -0.237 OA
ATOM     84  O   UNL A   1      39.982  20.518  26.774  1.00  0.00    -0.237 OA
ATOM     85  O   UNL A   1      41.770  19.462  25.471  1.00  0.00    -0.744 OA
ENDBRANCH  79  82
ENDBRANCH  51  75
BRANCH  63  86
ATOM     86  C   UNL A   1      46.875  25.791  32.469  1.00  0.00     0.023 A 
ATOM     87  C   UNL A   1      48.126  26.227  31.991  1.00  0.00     0.012 A 
ATOM     88  C   UNL A   1      46.824  24.845  33.512  1.00  0.00     0.148 A 
ATOM     89  C   UNL A   1      49.307  25.711  32.523  1.00  0.00     0.002 A 
ATOM     90  C   UNL A   1      48.004  24.369  34.069  1.00  0.00     0.091 A 
ATOM     91  F   UNL A   1      45.623  24.427  33.939  1.00  0.00    -0.205 F 
ATOM     92  C   UNL A   1      49.246  24.792  33.569  1.00  0.00     0.022 A 
BRANCH  90  93
ATOM     93  S   UNL A   1      48.016  23.259  35.481  1.00  0.00     0.127 S 
ATOM     94  O   UNL A   1      47.530  22.015  34.889  1.00  0.00    -0.237 OA
ATOM     95  O   UNL A   1      49.430  23.244  35.858  1.00  0.00    -0.237 OA
ATOM     96  O   UNL A   1      47.138  23.869  36.473  1.00  0.00    -0.744 OA
ENDBRANCH  90  93
ENDBRANCH  63  86
ENDBRANCH  37  38
ENDBRANCH  29  32
ENDBRANCH  27  28
ENDBRANCH   1  27
TORSDOF 17
ENDMDL
MODEL 2
REMARK VINA RESULT:     -12.1      1.956      2.645
REMARK SMILES CS(=O)(=O)c1ccc(/C=C(/C(=O)NCCCCNC(=O)c2ccc(-c3c4nc(c(-c5cccc(S(=O)(=O)[O-])c5F)c5ccc([nH]5)c(-c5cccc(S(=O)(=O)[O-])c5F)c5nc(c(-c6cccc(S(=O)(=O)[O-])c6F)c6ccc3[nH]6)C=C5)C=C4)cc2)c2ccc(F)cc2)cc1
REMARK SMILES IDX 16 1 15 2 14 3 13 4 11 5 12 6 10 8 9 9 8 10 5 11 6 12 92 13
REMARK SMILES IDX 7 14 91 15 2 16 1 17 3 18 4 19 84 20 85 21 90 22 86 23 89 24
REMARK SMILES IDX 87 25 88 26 17 27 18 28 19 29 20 31 21 32 22 33 83 34 23 35
REMARK SMILES IDX 82 36 24 37 25 38 26 39 76 40 27 41 81 42 75 43 77 44 28 45
REMARK SMILES IDX 80 46 74 47 73 48 29 50 61 51 41 52 60 53 42 54 45 55 59 56
REMARK SMILES IDX 78 57 43 58 44 59 58 61 79 62 46 63 30 64 31 65 39 66 32 67
REMARK SMILES IDX 34 68 40 69 33 70 35 71 36 72 37 73 38 74 62 75 63 76 71 77
REMARK SMILES IDX 64 78 66 79 72 80 65 81 67 82 68 83 69 84 70 85 47 86 48 87
REMARK SMILES IDX 56 88 49 89 51 90 57 91 50 92 52 93 53 94 54 95 55 96
REMARK H PARENT 13 7 18 30 77 49 45 60
REMARK Flexibility Score: inf
ROOT
ATOM      1  C   UNL A   1      31.846  28.244  25.970  1.00  0.00     0.023 C 
ENDROOT
BRANCH   1   2
ATOM      2  C   UNL A   1      32.404  26.849  26.284  1.00  0.00     0.023 C 
BRANCH   2   3
ATOM      3  C   UNL A   1      31.602  25.694  25.680  1.00  0.00     0.116 C 
BRANCH   3   4
ATOM      4  N   UNL A   1      31.685  25.725  24.233  1.00  0.00    -0.352 N 
ATOM      5  C   UNL A   1      32.254  24.912  23.305  1.00  0.00     0.251 C 
ATOM      6  O   UNL A   1      32.161  25.277  22.129  1.00  0.00    -0.269 OA
ATOM      7  H   UNL A   1      31.230  26.505  23.837  1.00  0.00     0.163 HD
BRANCH   5   8
ATOM      8  C   UNL A   1      32.900  23.583  23.635  1.00  0.00     0.047 C 
ATOM      9  C   UNL A   1      32.191  22.434  23.697  1.00  0.00     0.022 C 
BRANCH   9  10
ATOM     10  C   UNL A   1      32.651  21.044  23.906  1.00  0.00    -0.025 A 
ATOM     11  C   UNL A   1      33.485  18.370  24.129  1.00  0.00     0.067 A 
ATOM     12  C   UNL A   1      33.965  19.325  25.025  1.00  0.00     0.021 A 
ATOM     13  C   UNL A   1      32.567  18.732  23.141  1.00  0.00     0.021 A 
ATOM     14  C   UNL A   1      33.530  20.653  24.921  1.00  0.00     0.009 A 
ATOM     15  C   UNL A   1      32.152  20.062  23.035  1.00  0.00     0.009 A 
BRANCH  11  16
ATOM     16  S   UNL A   1      34.030  16.681  24.183  1.00  0.00     0.175 S 
ATOM     17  C   UNL A   1      32.809  15.775  25.090  1.00  0.00     0.163 C 
ATOM     18  O   UNL A   1      35.243  16.655  24.976  1.00  0.00    -0.224 OA
ATOM     19  O   UNL A   1      34.020  16.198  22.814  1.00  0.00    -0.224 OA
ENDBRANCH  11  16
ENDBRANCH   9  10
BRANCH   8  20
ATOM     20  C   UNL A   1      34.323  23.619  24.060  1.00  0.00    -0.013 A 
ATOM     21  C   UNL A   1      34.620  23.958  25.394  1.00  0.00     0.012 A 
ATOM     22  C   UNL A   1      35.371  23.266  23.199  1.00  0.00     0.012 A 
ATOM     23  C   UNL A   1      35.932  23.924  25.865  1.00  0.00     0.040 A 
ATOM     24  C   UNL A   1      36.684  23.219  23.677  1.00  0.00     0.040 A 
ATOM     25  C   UNL A   1      36.950  23.543  25.005  1.00  0.00     0.123 A 
ATOM     26  F   UNL A   1      38.207  23.475  25.462  1.00  0.00    -0.207 F 
ENDBRANCH   8  20
ENDBRANCH   5   8
ENDBRANCH   3   4
ENDBRANCH   2   3
ENDBRANCH   1   2
BRANCH   1  27
ATOM     27  C   UNL A   1      32.889  29.289  25.582  1.00  0.00     0.116 C 
BRANCH  27  28
ATOM     28  N   UNL A   1      32.514  30.637  25.977  1.00  0.00    -0.352 N 
ATOM     29  C   UNL A   1      33.091  31.449  26.920  1.00  0.00     0.251 C 
ATOM     30  H   UNL A   1      31.739  31.018  25.504  1.00  0.00     0.163 HD
ATOM     31  O   UNL A   1      32.563  32.520  27.205  1.00  0.00    -0.269 OA
BRANCH  29  32
ATOM     32  C   UNL A   1      34.328  31.021  27.608  1.00  0.00     0.039 A 
ATOM     33  C   UNL A   1      35.361  31.949  27.769  1.00  0.00     0.014 A 
ATOM     34  C   UNL A   1      34.477  29.713  28.078  1.00  0.00     0.014 A 
ATOM     35  C   UNL A   1      36.530  31.576  28.438  1.00  0.00     0.010 A 
ATOM     36  C   UNL A   1      35.614  29.363  28.801  1.00  0.00     0.010 A 
ATOM     37  C   UNL A   1      36.659  30.285  28.973  1.00  0.00    -0.014 A 
BRANCH  37  38
ATOM     38  C   UNL A   1      37.889  29.869  29.692  1.00  0.00     0.031 A 
ATOM     39  C   UNL A   1      38.157  30.384  31.080  1.00  0.00     0.074 A 
ATOM     40  C   UNL A   1      38.798  29.095  29.069  1.00  0.00     0.049 A 
ATOM     41  N   UNL A   1      39.193  30.178  31.850  1.00  0.00    -0.248 NA
ATOM     42  C   UNL A   1      37.143  31.276  31.668  1.00  0.00     0.031 C 
ATOM     43  C   UNL A   1      38.689  28.600  27.695  1.00  0.00     0.029 A 
ATOM     44  N   UNL A   1      40.005  28.609  29.502  1.00  0.00    -0.354 N 
ATOM     45  C   UNL A   1      38.976  30.939  32.992  1.00  0.00     0.074 A 
ATOM     46  C   UNL A   1      37.727  31.642  32.801  1.00  0.00     0.031 C 
ATOM     47  C   UNL A   1      39.784  27.880  27.399  1.00  0.00     0.029 A 
ATOM     48  C   UNL A   1      40.678  27.876  28.553  1.00  0.00     0.049 A 
ATOM     49  H   UNL A   1      40.357  28.770  30.407  1.00  0.00     0.167 HD
ATOM     50  C   UNL A   1      39.730  31.022  34.114  1.00  0.00     0.034 A 
ATOM     51  C   UNL A   1      41.880  27.266  28.609  1.00  0.00     0.034 A 
ATOM     52  C   UNL A   1      40.939  30.273  34.325  1.00  0.00     0.049 A 
ATOM     53  C   UNL A   1      42.660  27.313  29.895  1.00  0.00     0.074 A 
ATOM     54  C   UNL A   1      41.727  30.214  35.460  1.00  0.00     0.029 A 
ATOM     55  N   UNL A   1      41.532  29.449  33.382  1.00  0.00    -0.354 N 
ATOM     56  N   UNL A   1      42.358  27.907  31.024  1.00  0.00    -0.248 NA
ATOM     57  C   UNL A   1      43.929  26.569  29.930  1.00  0.00     0.031 C 
ATOM     58  C   UNL A   1      42.803  29.357  35.200  1.00  0.00     0.029 A 
ATOM     59  C   UNL A   1      42.675  28.874  33.907  1.00  0.00     0.049 A 
ATOM     60  H   UNL A   1      41.190  29.296  32.472  1.00  0.00     0.167 HD
ATOM     61  C   UNL A   1      43.374  27.576  31.915  1.00  0.00     0.074 A 
ATOM     62  C   UNL A   1      44.292  26.714  31.198  1.00  0.00     0.031 C 
ATOM     63  C   UNL A   1      43.541  27.964  33.202  1.00  0.00     0.034 A 
BRANCH  50  64
ATOM     64  C   UNL A   1      39.229  31.902  35.229  1.00  0.00     0.023 A 
ATOM     65  C   UNL A   1      38.269  31.396  36.130  1.00  0.00     0.012 A 
ATOM     66  C   UNL A   1      39.736  33.201  35.418  1.00  0.00     0.148 A 
ATOM     67  C   UNL A   1      37.795  32.181  37.179  1.00  0.00     0.002 A 
ATOM     68  C   UNL A   1      39.290  33.963  36.494  1.00  0.00     0.091 A 
ATOM     69  F   UNL A   1      40.632  33.674  34.539  1.00  0.00    -0.205 F 
ATOM     70  C   UNL A   1      38.312  33.460  37.367  1.00  0.00     0.022 A 
BRANCH  68  71
ATOM     71  S   UNL A   1      39.951  35.593  36.863  1.00  0.00     0.127 S 
ATOM     72  O   UNL A   1      39.276  35.907  38.121  1.00  0.00    -0.237 OA
ATOM     73  O   UNL A   1      41.384  35.323  36.992  1.00  0.00    -0.237 OA
ATOM     74  O   UNL A   1      39.593  36.434  35.731  1.00  0.00    -0.744 OA
ENDBRANCH  68  71
ENDBRANCH  50  64
BRANCH  51  75
ATOM     75  C   UNL A   1      42.370  26.482  27.442  1.00  0.00     0.023 A 
ATOM     76  C   UNL A   1      43.148  27.126  26.460  1.00  0.00     0.012 A 
ATOM     77  C   UNL A   1      42.102  25.106  27.312  1.00  0.00     0.148 A 
ATOM     78  C   UNL A   1      43.622  26.422  25.352  1.00  0.00     0.002 A 
ATOM     79  C   UNL A   1      42.621  24.399  26.232  1.00  0.00     0.091 A 
ATOM     80  F   UNL A   1      41.350  24.513  28.249  1.00  0.00    -0.205 F 
ATOM     81  C   UNL A   1      43.368  25.058  25.243  1.00  0.00     0.022 A 
BRANCH  79  82
ATOM     82  S   UNL A   1      42.451  22.616  26.081  1.00  0.00     0.127 S 
ATOM     83  O   UNL A   1      43.119  22.149  27.293  1.00  0.00    -0.237 OA
ATOM     84  O   UNL A   1      40.997  22.449  26.075  1.00  0.00    -0.237 OA
ATOM     85  O   UNL A   1      43.097  22.269  24.822  1.00  0.00    -0.744 OA
ENDBRANCH  79  82
ENDBRANCH  51  75
BRANCH  63  86
ATOM     86  C   UNL A   1      44.738  27.433  33.944  1.00  0.00     0.023 A 
ATOM     87  C   UNL A   1      45.921  28.194  33.999  1.00  0.00     0.012 A 
ATOM     88  C   UNL A   1      44.663  26.220  34.656  1.00  0.00     0.148 A 
ATOM     89  C   UNL A   1      47.021  27.744  34.728  1.00  0.00     0.002 A 
ATOM     90  C   UNL A   1      45.746  25.799  35.417  1.00  0.00     0.091 A 
ATOM     91  F   UNL A   1      43.535  25.498  34.574  1.00  0.00    -0.205 F 
ATOM     92  C   UNL A   1      46.929  26.554  35.446  1.00  0.00     0.022 A 
BRANCH  90  93
ATOM     93  S   UNL A   1      45.677  24.329  36.448  1.00  0.00     0.127 S 
ATOM     94  O   UNL A   1      44.519  24.611  37.294  1.00  0.00    -0.237 OA
ATOM     95  O   UNL A   1      45.471  23.264  35.466  1.00  0.00    -0.237 OA
ATOM     96  O   UNL A   1      46.960  24.268  37.138  1.00  0.00    -0.744 OA
ENDBRANCH  90  93
ENDBRANCH  63  86
ENDBRANCH  37  38
ENDBRANCH  29  32
ENDBRANCH  27  28
ENDBRANCH   1  27
TORSDOF 17
ENDMDL
MODEL 3
REMARK VINA RESULT:     -11.9      2.181      7.636
REMARK SMILES CS(=O)(=O)c1ccc(/C=C(/C(=O)NCCCCNC(=O)c2ccc(-c3c4nc(c(-c5cccc(S(=O)(=O)[O-])c5F)c5ccc([nH]5)c(-c5cccc(S(=O)(=O)[O-])c5F)c5nc(c(-c6cccc(S(=O)(=O)[O-])c6F)c6ccc3[nH]6)C=C5)C=C4)cc2)c2ccc(F)cc2)cc1
REMARK SMILES IDX 16 1 15 2 14 3 13 4 11 5 12 6 10 8 9 9 8 10 5 11 6 12 92 13
REMARK SMILES IDX 7 14 91 15 2 16 1 17 3 18 4 19 84 20 85 21 90 22 86 23 89 24
REMARK SMILES IDX 87 25 88 26 17 27 18 28 19 29 20 31 21 32 22 33 83 34 23 35
REMARK SMILES IDX 82 36 24 37 25 38 26 39 76 40 27 41 81 42 75 43 77 44 28 45
REMARK SMILES IDX 80 46 74 47 73 48 29 50 61 51 41 52 60 53 42 54 45 55 59 56
REMARK SMILES IDX 78 57 43 58 44 59 58 61 79 62 46 63 30 64 31 65 39 66 32 67
REMARK SMILES IDX 34 68 40 69 33 70 35 71 36 72 37 73 38 74 62 75 63 76 71 77
REMARK SMILES IDX 64 78 66 79 72 80 65 81 67 82 68 83 69 84 70 85 47 86 48 87
REMARK SMILES IDX 56 88 49 89 51 90 57 91 50 92 52 93 53 94 54 95 55 96
REMARK H PARENT 13 7 18 30 77 49 45 60
REMARK Flexibility Score: inf
ROOT
ATOM      1  C   UNL A   1      33.161  27.671  25.422  1.00  0.00     0.023 C 
ENDROOT
BRANCH   1   2
ATOM      2  C   UNL A   1      31.676  27.322  25.254  1.00  0.00     0.023 C 
BRANCH   2   3
ATOM      3  C   UNL A   1      31.413  25.979  24.568  1.00  0.00     0.116 C 
BRANCH   3   4
ATOM      4  N   UNL A   1      31.998  25.967  23.242  1.00  0.00    -0.352 N 
ATOM      5  C   UNL A   1      32.801  25.096  22.576  1.00  0.00     0.251 C 
ATOM      6  O   UNL A   1      33.148  25.434  21.441  1.00  0.00    -0.269 OA
ATOM      7  H   UNL A   1      31.763  26.762  22.709  1.00  0.00     0.163 HD
BRANCH   5   8
ATOM      8  C   UNL A   1      33.201  23.739  23.116  1.00  0.00     0.047 C 
ATOM      9  C   UNL A   1      32.336  22.702  23.169  1.00  0.00     0.022 C 
BRANCH   9  10
ATOM     10  C   UNL A   1      32.563  21.296  23.566  1.00  0.00    -0.025 A 
ATOM     11  C   UNL A   1      33.002  18.582  24.145  1.00  0.00     0.067 A 
ATOM     12  C   UNL A   1      33.296  19.553  25.102  1.00  0.00     0.021 A 
ATOM     13  C   UNL A   1      32.461  18.950  22.912  1.00  0.00     0.021 A 
ATOM     14  C   UNL A   1      33.056  20.904  24.815  1.00  0.00     0.009 A 
ATOM     15  C   UNL A   1      32.240  20.301  22.629  1.00  0.00     0.009 A 
BRANCH  11  16
ATOM     16  S   UNL A   1      33.324  16.859  24.434  1.00  0.00     0.175 S 
ATOM     17  C   UNL A   1      34.921  16.754  25.191  1.00  0.00     0.163 C 
ATOM     18  O   UNL A   1      33.437  16.228  23.134  1.00  0.00    -0.224 OA
ATOM     19  O   UNL A   1      32.340  16.410  25.402  1.00  0.00    -0.224 OA
ENDBRANCH  11  16
ENDBRANCH   9  10
BRANCH   8  20
ATOM     20  C   UNL A   1      34.541  23.641  23.749  1.00  0.00    -0.013 A 
ATOM     21  C   UNL A   1      34.727  24.205  25.026  1.00  0.00     0.012 A 
ATOM     22  C   UNL A   1      35.605  22.954  23.148  1.00  0.00     0.012 A 
ATOM     23  C   UNL A   1      35.940  24.067  25.699  1.00  0.00     0.040 A 
ATOM     24  C   UNL A   1      36.816  22.804  23.831  1.00  0.00     0.040 A 
ATOM     25  C   UNL A   1      36.969  23.356  25.100  1.00  0.00     0.123 A 
ATOM     26  F   UNL A   1      38.124  23.191  25.757  1.00  0.00    -0.207 F 
ENDBRANCH   8  20
ENDBRANCH   5   8
ENDBRANCH   3   4
ENDBRANCH   2   3
ENDBRANCH   1   2
BRANCH   1  27
ATOM     27  C   UNL A   1      33.561  29.060  24.933  1.00  0.00     0.116 C 
BRANCH  27  28
ATOM     28  N   UNL A   1      32.731  30.116  25.488  1.00  0.00    -0.352 N 
ATOM     29  C   UNL A   1      32.920  30.847  26.634  1.00  0.00     0.251 C 
ATOM     30  H   UNL A   1      31.922  30.337  24.972  1.00  0.00     0.163 HD
ATOM     31  O   UNL A   1      32.047  31.622  27.012  1.00  0.00    -0.269 OA
BRANCH  29  32
ATOM     32  C   UNL A   1      34.159  30.677  27.423  1.00  0.00     0.039 A 
ATOM     33  C   UNL A   1      34.429  29.424  27.984  1.00  0.00     0.014 A 
ATOM     34  C   UNL A   1      35.041  31.742  27.623  1.00  0.00     0.014 A 
ATOM     35  C   UNL A   1      35.605  29.231  28.712  1.00  0.00     0.010 A 
ATOM     36  C   UNL A   1      36.243  31.529  28.293  1.00  0.00     0.010 A 
ATOM     37  C   UNL A   1      36.529  30.277  28.859  1.00  0.00    -0.014 A 
BRANCH  37  38
ATOM     38  C   UNL A   1      37.787  30.092  29.624  1.00  0.00     0.031 A 
ATOM     39  C   UNL A   1      38.900  29.260  29.048  1.00  0.00     0.074 A 
ATOM     40  C   UNL A   1      37.896  30.603  30.866  1.00  0.00     0.049 A 
ATOM     41  N   UNL A   1      40.052  28.941  29.579  1.00  0.00    -0.248 NA
ATOM     42  C   UNL A   1      38.679  28.685  27.710  1.00  0.00     0.031 C 
ATOM     43  C   UNL A   1      36.854  31.357  31.565  1.00  0.00     0.029 A 
ATOM     44  N   UNL A   1      38.926  30.544  31.769  1.00  0.00    -0.354 N 
ATOM     45  C   UNL A   1      40.673  28.100  28.663  1.00  0.00     0.074 A 
ATOM     46  C   UNL A   1      39.758  27.929  27.557  1.00  0.00     0.031 C 
ATOM     47  C   UNL A   1      37.299  31.692  32.788  1.00  0.00     0.029 A 
ATOM     48  C   UNL A   1      38.648  31.162  32.965  1.00  0.00     0.049 A 
ATOM     49  H   UNL A   1      39.785  30.101  31.579  1.00  0.00     0.167 HD
ATOM     50  C   UNL A   1      41.908  27.547  28.720  1.00  0.00     0.034 A 
ATOM     51  C   UNL A   1      39.398  31.292  34.078  1.00  0.00     0.034 A 
ATOM     52  C   UNL A   1      42.839  27.772  29.792  1.00  0.00     0.049 A 
ATOM     53  C   UNL A   1      40.795  30.731  34.084  1.00  0.00     0.074 A 
ATOM     54  C   UNL A   1      44.146  27.334  29.902  1.00  0.00     0.029 A 
ATOM     55  N   UNL A   1      42.562  28.500  30.938  1.00  0.00    -0.354 N 
ATOM     56  N   UNL A   1      41.426  30.076  33.140  1.00  0.00    -0.248 NA
ATOM     57  C   UNL A   1      41.600  30.964  35.293  1.00  0.00     0.031 C 
ATOM     58  C   UNL A   1      44.659  27.793  31.121  1.00  0.00     0.029 A 
ATOM     59  C   UNL A   1      43.674  28.528  31.761  1.00  0.00     0.049 A 
ATOM     60  H   UNL A   1      41.701  28.934  31.137  1.00  0.00     0.167 HD
ATOM     61  C   UNL A   1      42.712  29.854  33.621  1.00  0.00     0.074 A 
ATOM     62  C   UNL A   1      42.775  30.461  34.935  1.00  0.00     0.031 C 
ATOM     63  C   UNL A   1      43.741  29.194  33.036  1.00  0.00     0.034 A 
BRANCH  50  64
ATOM     64  C   UNL A   1      42.348  26.702  27.554  1.00  0.00     0.023 A 
ATOM     65  C   UNL A   1      43.072  27.301  26.502  1.00  0.00     0.012 A 
ATOM     66  C   UNL A   1      42.096  25.318  27.518  1.00  0.00     0.148 A 
ATOM     67  C   UNL A   1      43.506  26.543  25.415  1.00  0.00     0.002 A 
ATOM     68  C   UNL A   1      42.569  24.560  26.451  1.00  0.00     0.091 A 
ATOM     69  F   UNL A   1      41.387  24.770  28.515  1.00  0.00    -0.205 F 
ATOM     70  C   UNL A   1      43.263  25.173  25.394  1.00  0.00     0.022 A 
BRANCH  68  71
ATOM     71  S   UNL A   1      42.371  22.776  26.370  1.00  0.00     0.127 S 
ATOM     72  O   UNL A   1      40.970  22.616  26.753  1.00  0.00    -0.237 OA
ATOM     73  O   UNL A   1      42.653  22.498  24.960  1.00  0.00    -0.237 OA
ATOM     74  O   UNL A   1      43.344  22.224  27.301  1.00  0.00    -0.744 OA
ENDBRANCH  68  71
ENDBRANCH  50  64
BRANCH  51  75
ATOM     75  C   UNL A   1      38.877  32.062  35.241  1.00  0.00     0.023 A 
ATOM     76  C   UNL A   1      38.888  33.470  35.193  1.00  0.00     0.012 A 
ATOM     77  C   UNL A   1      38.344  31.419  36.374  1.00  0.00     0.148 A 
ATOM     78  C   UNL A   1      38.409  34.223  36.265  1.00  0.00     0.002 A 
ATOM     79  C   UNL A   1      37.821  32.176  37.418  1.00  0.00     0.091 A 
ATOM     80  F   UNL A   1      38.354  30.079  36.408  1.00  0.00    -0.205 F 
ATOM     81  C   UNL A   1      37.866  33.577  37.372  1.00  0.00     0.022 A 
BRANCH  79  82
ATOM     82  S   UNL A   1      36.987  31.426  38.822  1.00  0.00     0.127 S 
ATOM     83  O   UNL A   1      37.982  31.584  39.879  1.00  0.00    -0.237 OA
ATOM     84  O   UNL A   1      35.802  32.274  38.960  1.00  0.00    -0.237 OA
ATOM     85  O   UNL A   1      36.697  30.057  38.417  1.00  0.00    -0.744 OA
ENDBRANCH  79  82
ENDBRANCH  51  75
BRANCH  63  86
ATOM     86  C   UNL A   1      45.043  29.123  33.787  1.00  0.00     0.023 A 
ATOM     87  C   UNL A   1      46.007  30.135  33.614  1.00  0.00     0.012 A 
ATOM     88  C   UNL A   1      45.277  28.099  34.727  1.00  0.00     0.148 A 
ATOM     89  C   UNL A   1      47.195  30.116  34.344  1.00  0.00     0.002 A 
ATOM     90  C   UNL A   1      46.442  28.110  35.483  1.00  0.00     0.091 A 
ATOM     91  F   UNL A   1      44.357  27.132  34.862  1.00  0.00    -0.205 F 
ATOM     92  C   UNL A   1      47.406  29.111  35.285  1.00  0.00     0.022 A 
BRANCH  90  93
ATOM     93  S   UNL A   1      46.749  26.911  36.784  1.00  0.00     0.127 S 
ATOM     94  O   UNL A   1      46.760  25.655  36.037  1.00  0.00    -0.237 OA
ATOM     95  O   UNL A   1      48.056  27.328  37.295  1.00  0.00    -0.237 OA
ATOM     96  O   UNL A   1      45.656  27.068  37.735  1.00  0.00    -0.744 OA
ENDBRANCH  90  93
ENDBRANCH  63  86
ENDBRANCH  37  38
ENDBRANCH  29  32
ENDBRANCH  27  28
ENDBRANCH   1  27
TORSDOF 17
ENDMDL
