MODEL 1
REMARK VINA RESULT:     -12.0      0.000      0.000
REMARK SMILES COc1cc2c[nH]nc2cc1C(=O)NCCCCNC(=O)c1ccc(-c2c3nc(c(-c4cccc(S(=O)(=O)[O-])c4F)c4ccc([nH]4)c(-c4cccc(S(=O)(=O)[O-])c4F)c4nc(c(-c5cccc(S(=O)(=O)[O-])c5F)c5ccc2[nH]5)C=C4)C=C3)cc1
REMARK SMILES IDX 17 1 16 2 15 3 14 4 12 5 13 6 11 8 3 9 4 10 5 11 10 12 6 13
REMARK SMILES IDX 9 14 7 15 8 16 2 18 1 19 18 20 19 21 20 22 21 24 22 25 23 26
REMARK SMILES IDX 84 27 24 28 83 29 25 30 26 31 27 32 77 33 28 34 82 35 76 36
REMARK SMILES IDX 78 37 29 38 81 39 75 40 74 41 30 43 62 44 42 45 61 46 43 47
REMARK SMILES IDX 46 48 60 49 79 50 44 51 45 52 59 54 80 55 47 56 31 57 32 58
REMARK SMILES IDX 40 59 33 60 35 61 41 62 34 63 36 64 37 65 38 66 39 67 63 68
REMARK SMILES IDX 64 69 72 70 65 71 67 72 73 73 66 74 68 75 69 76 70 77 71 78
REMARK SMILES IDX 48 79 49 80 57 81 50 82 52 83 58 84 51 85 53 86 54 87 55 88
REMARK SMILES IDX 56 89
REMARK H PARENT 14 7 7 17 19 23 78 42 46 53
REMARK Flexibility Score: inf
ROOT
ATOM      1  C   UNL A   1      31.401  29.119  26.673  1.00  0.00     0.023 C 
ENDROOT
BRANCH   1   2
ATOM      2  C   UNL A   1      31.844  27.754  27.203  1.00  0.00     0.023 C 
BRANCH   2   3
ATOM      3  C   UNL A   1      32.664  26.892  26.247  1.00  0.00     0.116 C 
BRANCH   3   4
ATOM      4  N   UNL A   1      31.954  25.750  25.707  1.00  0.00    -0.352 N 
ATOM      5  C   UNL A   1      31.116  25.670  24.620  1.00  0.00     0.255 C 
ATOM      6  O   UNL A   1      30.670  24.568  24.300  1.00  0.00    -0.269 OA
ATOM      7  H   UNL A   1      32.094  24.903  26.190  1.00  0.00     0.163 HD
BRANCH   5   8
ATOM      8  C   UNL A   1      30.668  26.863  23.854  1.00  0.00     0.084 A 
ATOM      9  C   UNL A   1      31.557  27.764  23.167  1.00  0.00     0.132 A 
ATOM     10  C   UNL A   1      31.140  28.951  22.519  1.00  0.00     0.059 A 
ATOM     11  C   UNL A   1      29.759  29.073  22.540  1.00  0.00     0.023 A 
ATOM     12  C   UNL A   1      29.253  27.022  23.817  1.00  0.00     0.048 A 
ATOM     13  C   UNL A   1      29.044  30.095  21.983  1.00  0.00     0.114 A 
ATOM     14  C   UNL A   1      28.814  28.166  23.134  1.00  0.00     0.093 A 
ATOM     15  N   UNL A   1      27.740  29.768  22.223  1.00  0.00    -0.285 N 
ATOM     16  N   UNL A   1      27.570  28.623  22.912  1.00  0.00    -0.176 NA
ATOM     17  H   UNL A   1      26.987  30.323  21.918  1.00  0.00     0.189 HD
BRANCH   9  18
ATOM     18  O   UNL A   1      32.918  27.564  23.118  1.00  0.00    -0.496 OA
ATOM     19  C   UNL A   1      33.580  28.606  22.399  1.00  0.00     0.278 C 
ENDBRANCH   9  18
ENDBRANCH   5   8
ENDBRANCH   3   4
ENDBRANCH   2   3
ENDBRANCH   1   2
BRANCH   1  20
ATOM     20  C   UNL A   1      32.484  30.017  26.082  1.00  0.00     0.116 C 
BRANCH  20  21
ATOM     21  N   UNL A   1      32.400  31.406  26.510  1.00  0.00    -0.352 N 
ATOM     22  C   UNL A   1      33.247  32.150  27.302  1.00  0.00     0.251 C 
ATOM     23  H   UNL A   1      31.610  31.893  26.179  1.00  0.00     0.163 HD
ATOM     24  O   UNL A   1      32.944  33.299  27.603  1.00  0.00    -0.269 OA
BRANCH  22  25
ATOM     25  C   UNL A   1      34.501  31.558  27.826  1.00  0.00     0.039 A 
ATOM     26  C   UNL A   1      35.614  32.388  28.001  1.00  0.00     0.014 A 
ATOM     27  C   UNL A   1      34.586  30.204  28.156  1.00  0.00     0.014 A 
ATOM     28  C   UNL A   1      36.773  31.883  28.600  1.00  0.00     0.010 A 
ATOM     29  C   UNL A   1      35.712  29.723  28.824  1.00  0.00     0.010 A 
ATOM     30  C   UNL A   1      36.814  30.558  29.065  1.00  0.00    -0.014 A 
BRANCH  30  31
ATOM     31  C   UNL A   1      37.978  30.036  29.832  1.00  0.00     0.031 A 
ATOM     32  C   UNL A   1      38.253  30.531  31.228  1.00  0.00     0.074 A 
ATOM     33  C   UNL A   1      38.847  29.192  29.237  1.00  0.00     0.049 A 
ATOM     34  N   UNL A   1      39.270  30.272  32.009  1.00  0.00    -0.248 NA
ATOM     35  C   UNL A   1      37.271  31.459  31.813  1.00  0.00     0.031 C 
ATOM     36  C   UNL A   1      38.740  28.694  27.864  1.00  0.00     0.029 A 
ATOM     37  N   UNL A   1      40.009  28.626  29.703  1.00  0.00    -0.354 N 
ATOM     38  C   UNL A   1      39.070  31.028  33.159  1.00  0.00     0.074 A 
ATOM     39  C   UNL A   1      37.851  31.781  32.961  1.00  0.00     0.031 C 
ATOM     40  C   UNL A   1      39.790  27.898  27.600  1.00  0.00     0.029 A 
ATOM     41  C   UNL A   1      40.659  27.848  28.771  1.00  0.00     0.049 A 
ATOM     42  H   UNL A   1      40.345  28.762  30.618  1.00  0.00     0.167 HD
ATOM     43  C   UNL A   1      39.810  31.066  34.293  1.00  0.00     0.034 A 
ATOM     44  C   UNL A   1      41.826  27.179  28.846  1.00  0.00     0.034 A 
ATOM     45  C   UNL A   1      40.992  30.276  34.515  1.00  0.00     0.049 A 
ATOM     46  C   UNL A   1      42.603  27.203  30.137  1.00  0.00     0.074 A 
ATOM     47  C   UNL A   1      41.776  30.201  35.653  1.00  0.00     0.029 A 
ATOM     48  N   UNL A   1      41.554  29.416  33.586  1.00  0.00    -0.354 N 
ATOM     49  N   UNL A   1      42.317  27.813  31.261  1.00  0.00    -0.248 NA
ATOM     50  C   UNL A   1      43.844  26.414  30.182  1.00  0.00     0.031 C 
ATOM     51  C   UNL A   1      42.813  29.294  35.412  1.00  0.00     0.029 A 
ATOM     52  C   UNL A   1      42.667  28.797  34.128  1.00  0.00     0.049 A 
ATOM     53  H   UNL A   1      41.212  29.266  32.674  1.00  0.00     0.167 HD
ATOM     54  C   UNL A   1      43.316  27.448  32.157  1.00  0.00     0.074 A 
ATOM     55  C   UNL A   1      44.202  26.546  31.452  1.00  0.00     0.031 C 
ATOM     56  C   UNL A   1      43.494  27.839  33.442  1.00  0.00     0.034 A 
BRANCH  43  57
ATOM     57  C   UNL A   1      39.320  31.933  35.423  1.00  0.00     0.023 A 
ATOM     58  C   UNL A   1      38.425  31.386  36.366  1.00  0.00     0.012 A 
ATOM     59  C   UNL A   1      39.795  33.246  35.601  1.00  0.00     0.148 A 
ATOM     60  C   UNL A   1      37.989  32.139  37.453  1.00  0.00     0.002 A 
ATOM     61  C   UNL A   1      39.387  33.979  36.711  1.00  0.00     0.091 A 
ATOM     62  F   UNL A   1      40.633  33.753  34.686  1.00  0.00    -0.205 F 
ATOM     63  C   UNL A   1      38.477  33.431  37.631  1.00  0.00     0.022 A 
BRANCH  61  64
ATOM     64  S   UNL A   1      40.011  35.623  37.075  1.00  0.00     0.127 S 
ATOM     65  O   UNL A   1      39.308  35.936  38.319  1.00  0.00    -0.237 OA
ATOM     66  O   UNL A   1      41.446  35.379  37.231  1.00  0.00    -0.237 OA
ATOM     67  O   UNL A   1      39.655  36.453  35.933  1.00  0.00    -0.744 OA
ENDBRANCH  61  64
ENDBRANCH  43  57
BRANCH  44  68
ATOM     68  C   UNL A   1      42.304  26.358  27.695  1.00  0.00     0.023 A 
ATOM     69  C   UNL A   1      43.146  26.950  26.733  1.00  0.00     0.012 A 
ATOM     70  C   UNL A   1      41.931  25.010  27.541  1.00  0.00     0.148 A 
ATOM     71  C   UNL A   1      43.573  26.228  25.618  1.00  0.00     0.002 A 
ATOM     72  C   UNL A   1      42.404  24.280  26.455  1.00  0.00     0.091 A 
ATOM     73  F   UNL A   1      41.114  24.464  28.454  1.00  0.00    -0.205 F 
ATOM     74  C   UNL A   1      43.210  24.892  25.483  1.00  0.00     0.022 A 
BRANCH  72  75
ATOM     75  S   UNL A   1      42.084  22.521  26.284  1.00  0.00     0.127 S 
ATOM     76  O   UNL A   1      42.720  22.222  25.004  1.00  0.00    -0.237 OA
ATOM     77  O   UNL A   1      42.763  21.965  27.455  1.00  0.00    -0.237 OA
ATOM     78  O   UNL A   1      40.632  22.394  26.325  1.00  0.00    -0.744 OA
ENDBRANCH  72  75
ENDBRANCH  44  68
BRANCH  56  79
ATOM     79  C   UNL A   1      44.661  27.259  34.197  1.00  0.00     0.023 A 
ATOM     80  C   UNL A   1      45.920  27.886  34.127  1.00  0.00     0.012 A 
ATOM     81  C   UNL A   1      44.489  26.140  35.037  1.00  0.00     0.148 A 
ATOM     82  C   UNL A   1      46.998  27.393  34.858  1.00  0.00     0.002 A 
ATOM     83  C   UNL A   1      45.557  25.682  35.798  1.00  0.00     0.091 A 
ATOM     84  F   UNL A   1      43.288  25.546  35.074  1.00  0.00    -0.205 F 
ATOM     85  C   UNL A   1      46.814  26.299  35.702  1.00  0.00     0.022 A 
BRANCH  83  86
ATOM     86  S   UNL A   1      45.385  24.338  36.979  1.00  0.00     0.127 S 
ATOM     87  O   UNL A   1      46.688  24.356  37.642  1.00  0.00    -0.237 OA
ATOM     88  O   UNL A   1      44.271  24.795  37.811  1.00  0.00    -0.237 OA
ATOM     89  O   UNL A   1      45.097  23.148  36.190  1.00  0.00    -0.744 OA
ENDBRANCH  83  86
ENDBRANCH  56  79
ENDBRANCH  30  31
ENDBRANCH  22  25
ENDBRANCH  20  21
ENDBRANCH   1  20
TORSDOF 15
ENDMDL
MODEL 2
REMARK VINA RESULT:     -12.0      5.297     10.333
REMARK SMILES COc1cc2c[nH]nc2cc1C(=O)NCCCCNC(=O)c1ccc(-c2c3nc(c(-c4cccc(S(=O)(=O)[O-])c4F)c4ccc([nH]4)c(-c4cccc(S(=O)(=O)[O-])c4F)c4nc(c(-c5cccc(S(=O)(=O)[O-])c5F)c5ccc2[nH]5)C=C4)C=C3)cc1
REMARK SMILES IDX 17 1 16 2 15 3 14 4 12 5 13 6 11 8 3 9 4 10 5 11 10 12 6 13
REMARK SMILES IDX 9 14 7 15 8 16 2 18 1 19 18 20 19 21 20 22 21 24 22 25 23 26
REMARK SMILES IDX 84 27 24 28 83 29 25 30 26 31 27 32 77 33 28 34 82 35 76 36
REMARK SMILES IDX 78 37 29 38 81 39 75 40 74 41 30 43 62 44 42 45 61 46 43 47
REMARK SMILES IDX 46 48 60 49 79 50 44 51 45 52 59 54 80 55 47 56 31 57 32 58
REMARK SMILES IDX 40 59 33 60 35 61 41 62 34 63 36 64 37 65 38 66 39 67 63 68
REMARK SMILES IDX 64 69 72 70 65 71 67 72 73 73 66 74 68 75 69 76 70 77 71 78
REMARK SMILES IDX 48 79 49 80 57 81 50 82 52 83 58 84 51 85 53 86 54 87 55 88
REMARK SMILES IDX 56 89
REMARK H PARENT 14 7 7 17 19 23 78 42 46 53
REMARK Flexibility Score: inf
ROOT
ATOM      1  C   UNL A   1      36.010  20.951  25.320  1.00  0.00     0.023 C 
ENDROOT
BRANCH   1   2
ATOM      2  C   UNL A   1      35.367  21.924  26.309  1.00  0.00     0.023 C 
BRANCH   2   3
ATOM      3  C   UNL A   1      34.084  21.451  26.985  1.00  0.00     0.116 C 
BRANCH   3   4
ATOM      4  N   UNL A   1      33.377  20.406  26.272  1.00  0.00    -0.352 N 
ATOM      5  C   UNL A   1      32.631  20.480  25.120  1.00  0.00     0.255 C 
ATOM      6  O   UNL A   1      32.169  19.440  24.649  1.00  0.00    -0.269 OA
ATOM      7  H   UNL A   1      33.441  19.509  26.672  1.00  0.00     0.163 HD
BRANCH   5   8
ATOM      8  C   UNL A   1      32.297  21.766  24.452  1.00  0.00     0.084 A 
ATOM      9  C   UNL A   1      31.258  22.661  24.895  1.00  0.00     0.132 A 
ATOM     10  C   UNL A   1      30.876  23.837  24.206  1.00  0.00     0.059 A 
ATOM     11  C   UNL A   1      31.703  24.069  23.118  1.00  0.00     0.023 A 
ATOM     12  C   UNL A   1      33.136  22.072  23.343  1.00  0.00     0.048 A 
ATOM     13  C   UNL A   1      31.611  25.130  22.262  1.00  0.00     0.114 A 
ATOM     14  C   UNL A   1      32.808  23.261  22.676  1.00  0.00     0.093 A 
ATOM     15  N   UNL A   1      32.642  24.952  21.386  1.00  0.00    -0.285 N 
ATOM     16  N   UNL A   1      33.374  23.842  21.605  1.00  0.00    -0.176 NA
ATOM     17  H   UNL A   1      32.836  25.582  20.655  1.00  0.00     0.189 HD
BRANCH   9  18
ATOM     18  O   UNL A   1      30.507  22.420  26.023  1.00  0.00    -0.496 OA
ATOM     19  C   UNL A   1      30.854  23.305  27.088  1.00  0.00     0.278 C 
ENDBRANCH   9  18
ENDBRANCH   5   8
ENDBRANCH   3   4
ENDBRANCH   2   3
ENDBRANCH   1   2
BRANCH   1  20
ATOM     20  C   UNL A   1      37.444  21.250  24.887  1.00  0.00     0.116 C 
BRANCH  20  21
ATOM     21  N   UNL A   1      38.421  20.284  25.369  1.00  0.00    -0.352 N 
ATOM     22  C   UNL A   1      39.566  20.467  26.113  1.00  0.00     0.251 C 
ATOM     23  H   UNL A   1      38.233  19.350  25.123  1.00  0.00     0.163 HD
ATOM     24  O   UNL A   1      40.295  19.510  26.350  1.00  0.00    -0.269 OA
BRANCH  22  25
ATOM     25  C   UNL A   1      39.943  21.817  26.595  1.00  0.00     0.039 A 
ATOM     26  C   UNL A   1      40.975  21.931  27.533  1.00  0.00     0.014 A 
ATOM     27  C   UNL A   1      39.303  22.965  26.125  1.00  0.00     0.014 A 
ATOM     28  C   UNL A   1      41.430  23.196  27.920  1.00  0.00     0.010 A 
ATOM     29  C   UNL A   1      39.808  24.223  26.451  1.00  0.00     0.010 A 
ATOM     30  C   UNL A   1      40.884  24.355  27.341  1.00  0.00    -0.014 A 
BRANCH  30  31
ATOM     31  C   UNL A   1      41.443  25.705  27.625  1.00  0.00     0.031 A 
ATOM     32  C   UNL A   1      42.866  26.033  27.253  1.00  0.00     0.074 A 
ATOM     33  C   UNL A   1      40.704  26.604  28.307  1.00  0.00     0.049 A 
ATOM     34  N   UNL A   1      43.557  27.114  27.511  1.00  0.00    -0.248 NA
ATOM     35  C   UNL A   1      43.619  25.003  26.519  1.00  0.00     0.031 C 
ATOM     36  C   UNL A   1      39.339  26.387  28.794  1.00  0.00     0.029 A 
ATOM     37  N   UNL A   1      41.008  27.874  28.738  1.00  0.00    -0.354 N 
ATOM     38  C   UNL A   1      44.830  26.882  27.004  1.00  0.00     0.074 A 
ATOM     39  C   UNL A   1      44.827  25.545  26.453  1.00  0.00     0.031 C 
ATOM     40  C   UNL A   1      38.925  27.483  29.452  1.00  0.00     0.029 A 
ATOM     41  C   UNL A   1      39.999  28.470  29.461  1.00  0.00     0.049 A 
ATOM     42  H   UNL A   1      41.866  28.316  28.546  1.00  0.00     0.167 HD
ATOM     43  C   UNL A   1      45.897  27.717  26.967  1.00  0.00     0.034 A 
ATOM     44  C   UNL A   1      39.947  29.672  30.069  1.00  0.00     0.034 A 
ATOM     45  C   UNL A   1      45.886  29.067  27.464  1.00  0.00     0.049 A 
ATOM     46  C   UNL A   1      41.133  30.596  29.968  1.00  0.00     0.074 A 
ATOM     47  C   UNL A   1      46.898  30.009  27.416  1.00  0.00     0.029 A 
ATOM     48  N   UNL A   1      44.807  29.671  28.089  1.00  0.00    -0.354 N 
ATOM     49  N   UNL A   1      42.277  30.407  29.359  1.00  0.00    -0.248 NA
ATOM     50  C   UNL A   1      41.005  31.916  30.607  1.00  0.00     0.031 C 
ATOM     51  C   UNL A   1      46.431  31.186  28.012  1.00  0.00     0.029 A 
ATOM     52  C   UNL A   1      45.124  30.977  28.421  1.00  0.00     0.049 A 
ATOM     53  H   UNL A   1      43.942  29.236  28.269  1.00  0.00     0.167 HD
ATOM     54  C   UNL A   1      42.986  31.595  29.502  1.00  0.00     0.074 A 
ATOM     55  C   UNL A   1      42.133  32.505  30.238  1.00  0.00     0.031 C 
ATOM     56  C   UNL A   1      44.237  31.899  29.080  1.00  0.00     0.034 A 
BRANCH  43  57
ATOM     57  C   UNL A   1      47.149  27.225  26.290  1.00  0.00     0.023 A 
ATOM     58  C   UNL A   1      47.377  27.569  24.941  1.00  0.00     0.012 A 
ATOM     59  C   UNL A   1      48.130  26.501  26.995  1.00  0.00     0.148 A 
ATOM     60  C   UNL A   1      48.547  27.176  24.295  1.00  0.00     0.002 A 
ATOM     61  C   UNL A   1      49.313  26.147  26.355  1.00  0.00     0.091 A 
ATOM     62  F   UNL A   1      47.887  26.171  28.271  1.00  0.00    -0.205 F 
ATOM     63  C   UNL A   1      49.518  26.475  25.005  1.00  0.00     0.022 A 
BRANCH  61  64
ATOM     64  S   UNL A   1      50.660  25.308  27.196  1.00  0.00     0.127 S 
ATOM     65  O   UNL A   1      51.499  24.896  26.070  1.00  0.00    -0.237 OA
ATOM     66  O   UNL A   1      51.226  26.380  28.016  1.00  0.00    -0.237 OA
ATOM     67  O   UNL A   1      50.052  24.221  27.949  1.00  0.00    -0.744 OA
ENDBRANCH  61  64
ENDBRANCH  43  57
BRANCH  44  68
ATOM     68  C   UNL A   1      38.703  30.115  30.764  1.00  0.00     0.023 A 
ATOM     69  C   UNL A   1      38.510  29.764  32.115  1.00  0.00     0.012 A 
ATOM     70  C   UNL A   1      37.716  30.870  30.105  1.00  0.00     0.148 A 
ATOM     71  C   UNL A   1      37.338  30.119  32.784  1.00  0.00     0.002 A 
ATOM     72  C   UNL A   1      36.573  31.267  30.794  1.00  0.00     0.091 A 
ATOM     73  F   UNL A   1      37.903  31.182  28.815  1.00  0.00    -0.205 F 
ATOM     74  C   UNL A   1      36.374  30.877  32.127  1.00  0.00     0.022 A 
BRANCH  72  75
ATOM     75  S   UNL A   1      35.350  32.353  30.053  1.00  0.00     0.127 S 
ATOM     76  O   UNL A   1      36.155  33.518  29.699  1.00  0.00    -0.237 OA
ATOM     77  O   UNL A   1      34.878  31.561  28.916  1.00  0.00    -0.237 OA
ATOM     78  O   UNL A   1      34.346  32.557  31.090  1.00  0.00    -0.744 OA
ENDBRANCH  72  75
ENDBRANCH  44  68
BRANCH  56  79
ATOM     79  C   UNL A   1      44.752  33.287  29.352  1.00  0.00     0.023 A 
ATOM     80  C   UNL A   1      45.421  33.561  30.561  1.00  0.00     0.012 A 
ATOM     81  C   UNL A   1      44.642  34.298  28.376  1.00  0.00     0.148 A 
ATOM     82  C   UNL A   1      45.948  34.827  30.808  1.00  0.00     0.002 A 
ATOM     83  C   UNL A   1      45.209  35.544  28.611  1.00  0.00     0.091 A 
ATOM     84  F   UNL A   1      43.984  34.023  27.241  1.00  0.00    -0.205 F 
ATOM     85  C   UNL A   1      45.853  35.814  29.829  1.00  0.00     0.022 A 
BRANCH  83  86
ATOM     86  S   UNL A   1      45.215  36.844  27.369  1.00  0.00     0.127 S 
ATOM     87  O   UNL A   1      45.898  36.189  26.256  1.00  0.00    -0.237 OA
ATOM     88  O   UNL A   1      43.786  37.079  27.156  1.00  0.00    -0.237 OA
ATOM     89  O   UNL A   1      45.925  37.965  27.970  1.00  0.00    -0.744 OA
ENDBRANCH  83  86
ENDBRANCH  56  79
ENDBRANCH  30  31
ENDBRANCH  22  25
ENDBRANCH  20  21
ENDBRANCH   1  20
TORSDOF 15
ENDMDL
MODEL 3
REMARK VINA RESULT:     -11.9      1.658      2.964
REMARK SMILES COc1cc2c[nH]nc2cc1C(=O)NCCCCNC(=O)c1ccc(-c2c3nc(c(-c4cccc(S(=O)(=O)[O-])c4F)c4ccc([nH]4)c(-c4cccc(S(=O)(=O)[O-])c4F)c4nc(c(-c5cccc(S(=O)(=O)[O-])c5F)c5ccc2[nH]5)C=C4)C=C3)cc1
REMARK SMILES IDX 17 1 16 2 15 3 14 4 12 5 13 6 11 8 3 9 4 10 5 11 10 12 6 13
REMARK SMILES IDX 9 14 7 15 8 16 2 18 1 19 18 20 19 21 20 22 21 24 22 25 23 26
REMARK SMILES IDX 84 27 24 28 83 29 25 30 26 31 27 32 77 33 28 34 82 35 76 36
REMARK SMILES IDX 78 37 29 38 81 39 75 40 74 41 30 43 62 44 42 45 61 46 43 47
REMARK SMILES IDX 46 48 60 49 79 50 44 51 45 52 59 54 80 55 47 56 31 57 32 58
REMARK SMILES IDX 40 59 33 60 35 61 41 62 34 63 36 64 37 65 38 66 39 67 63 68
REMARK SMILES IDX 64 69 72 70 65 71 67 72 73 73 66 74 68 75 69 76 70 77 71 78
REMARK SMILES IDX 48 79 49 80 57 81 50 82 52 83 58 84 51 85 53 86 54 87 55 88
REMARK SMILES IDX 56 89
REMARK H PARENT 14 7 7 17 19 23 78 42 46 53
REMARK Flexibility Score: inf
ROOT
ATOM      1  C   UNL A   1      31.756  28.813  26.775  1.00  0.00     0.023 C 
ENDROOT
BRANCH   1   2
ATOM      2  C   UNL A   1      32.270  27.373  26.759  1.00  0.00     0.023 C 
BRANCH   2   3
ATOM      3  C   UNL A   1      31.411  26.357  26.012  1.00  0.00     0.116 C 
BRANCH   3   4
ATOM      4  N   UNL A   1      31.235  25.094  26.701  1.00  0.00    -0.352 N 
ATOM      5  C   UNL A   1      32.030  23.973  26.697  1.00  0.00     0.255 C 
ATOM      6  O   UNL A   1      31.717  23.025  27.418  1.00  0.00    -0.269 OA
ATOM      7  H   UNL A   1      30.424  25.030  27.256  1.00  0.00     0.163 HD
BRANCH   5   8
ATOM      8  C   UNL A   1      33.214  23.823  25.809  1.00  0.00     0.084 A 
ATOM      9  C   UNL A   1      33.159  23.885  24.370  1.00  0.00     0.132 A 
ATOM     10  C   UNL A   1      34.267  23.648  23.522  1.00  0.00     0.059 A 
ATOM     11  C   UNL A   1      35.427  23.459  24.258  1.00  0.00     0.023 A 
ATOM     12  C   UNL A   1      34.441  23.656  26.512  1.00  0.00     0.048 A 
ATOM     13  C   UNL A   1      36.669  23.228  23.737  1.00  0.00     0.114 A 
ATOM     14  C   UNL A   1      35.562  23.471  25.690  1.00  0.00     0.093 A 
ATOM     15  N   UNL A   1      37.485  23.143  24.827  1.00  0.00    -0.285 N 
ATOM     16  N   UNL A   1      36.853  23.281  26.009  1.00  0.00    -0.176 NA
ATOM     17  H   UNL A   1      38.456  22.995  24.756  1.00  0.00     0.189 HD
BRANCH   9  18
ATOM     18  O   UNL A   1      31.993  24.143  23.686  1.00  0.00    -0.496 OA
ATOM     19  C   UNL A   1      32.248  24.732  22.410  1.00  0.00     0.278 C 
ENDBRANCH   9  18
ENDBRANCH   5   8
ENDBRANCH   3   4
ENDBRANCH   2   3
ENDBRANCH   1   2
BRANCH   1  20
ATOM     20  C   UNL A   1      32.557  29.843  25.982  1.00  0.00     0.116 C 
BRANCH  20  21
ATOM     21  N   UNL A   1      32.401  31.210  26.460  1.00  0.00    -0.352 N 
ATOM     22  C   UNL A   1      33.201  31.962  27.291  1.00  0.00     0.251 C 
ATOM     23  H   UNL A   1      31.593  31.670  26.135  1.00  0.00     0.163 HD
ATOM     24  O   UNL A   1      32.839  33.084  27.629  1.00  0.00    -0.269 OA
BRANCH  22  25
ATOM     25  C   UNL A   1      34.474  31.411  27.813  1.00  0.00     0.039 A 
ATOM     26  C   UNL A   1      35.538  32.288  28.049  1.00  0.00     0.014 A 
ATOM     27  C   UNL A   1      34.624  30.050  28.080  1.00  0.00     0.014 A 
ATOM     28  C   UNL A   1      36.712  31.816  28.647  1.00  0.00     0.010 A 
ATOM     29  C   UNL A   1      35.762  29.595  28.747  1.00  0.00     0.010 A 
ATOM     30  C   UNL A   1      36.813  30.474  29.050  1.00  0.00    -0.014 A 
BRANCH  30  31
ATOM     31  C   UNL A   1      37.989  29.977  29.816  1.00  0.00     0.031 A 
ATOM     32  C   UNL A   1      38.283  30.513  31.193  1.00  0.00     0.074 A 
ATOM     33  C   UNL A   1      38.850  29.116  29.234  1.00  0.00     0.049 A 
ATOM     34  N   UNL A   1      39.312  30.279  31.966  1.00  0.00    -0.248 NA
ATOM     35  C   UNL A   1      37.308  31.456  31.764  1.00  0.00     0.031 C 
ATOM     36  C   UNL A   1      38.726  28.577  27.877  1.00  0.00     0.029 A 
ATOM     37  N   UNL A   1      40.021  28.565  29.699  1.00  0.00    -0.354 N 
ATOM     38  C   UNL A   1      39.127  31.068  33.096  1.00  0.00     0.074 A 
ATOM     39  C   UNL A   1      37.904  31.813  32.893  1.00  0.00     0.031 C 
ATOM     40  C   UNL A   1      39.773  27.775  27.622  1.00  0.00     0.029 A 
ATOM     41  C   UNL A   1      40.658  27.761  28.781  1.00  0.00     0.049 A 
ATOM     42  H   UNL A   1      40.370  28.729  30.604  1.00  0.00     0.167 HD
ATOM     43  C   UNL A   1      39.883  31.140  34.217  1.00  0.00     0.034 A 
ATOM     44  C   UNL A   1      41.828  27.096  28.860  1.00  0.00     0.034 A 
ATOM     45  C   UNL A   1      41.070  30.359  34.445  1.00  0.00     0.049 A 
ATOM     46  C   UNL A   1      42.622  27.159  30.138  1.00  0.00     0.074 A 
ATOM     47  C   UNL A   1      41.869  30.319  35.574  1.00  0.00     0.029 A 
ATOM     48  N   UNL A   1      41.620  29.472  33.534  1.00  0.00    -0.354 N 
ATOM     49  N   UNL A   1      42.352  27.802  31.247  1.00  0.00    -0.248 NA
ATOM     50  C   UNL A   1      43.866  26.373  30.189  1.00  0.00     0.031 C 
ATOM     51  C   UNL A   1      42.904  29.406  35.345  1.00  0.00     0.029 A 
ATOM     52  C   UNL A   1      42.742  28.871  34.079  1.00  0.00     0.049 A 
ATOM     53  H   UNL A   1      41.265  29.295  32.633  1.00  0.00     0.167 HD
ATOM     54  C   UNL A   1      43.364  27.465  32.140  1.00  0.00     0.074 A 
ATOM     55  C   UNL A   1      44.242  26.543  31.448  1.00  0.00     0.031 C 
ATOM     56  C   UNL A   1      43.559  27.894  33.410  1.00  0.00     0.034 A 
BRANCH  43  57
ATOM     57  C   UNL A   1      39.408  32.039  35.327  1.00  0.00     0.023 A 
ATOM     58  C   UNL A   1      38.497  31.531  36.277  1.00  0.00     0.012 A 
ATOM     59  C   UNL A   1      39.912  33.345  35.483  1.00  0.00     0.148 A 
ATOM     60  C   UNL A   1      38.073  32.315  37.347  1.00  0.00     0.002 A 
ATOM     61  C   UNL A   1      39.515  34.108  36.576  1.00  0.00     0.091 A 
ATOM     62  F   UNL A   1      40.765  33.816  34.562  1.00  0.00    -0.205 F 
ATOM     63  C   UNL A   1      38.590  33.599  37.502  1.00  0.00     0.022 A 
BRANCH  61  64
ATOM     64  S   UNL A   1      40.175  35.745  36.912  1.00  0.00     0.127 S 
ATOM     65  O   UNL A   1      39.625  36.018  38.239  1.00  0.00    -0.237 OA
ATOM     66  O   UNL A   1      41.618  35.505  36.888  1.00  0.00    -0.237 OA
ATOM     67  O   UNL A   1      39.682  36.605  35.845  1.00  0.00    -0.744 OA
ENDBRANCH  61  64
ENDBRANCH  43  57
BRANCH  44  68
ATOM     68  C   UNL A   1      42.290  26.242  27.726  1.00  0.00     0.023 A 
ATOM     69  C   UNL A   1      43.185  26.781  26.782  1.00  0.00     0.012 A 
ATOM     70  C   UNL A   1      41.851  24.914  27.573  1.00  0.00     0.148 A 
ATOM     71  C   UNL A   1      43.601  26.029  25.683  1.00  0.00     0.002 A 
ATOM     72  C   UNL A   1      42.312  24.151  26.504  1.00  0.00     0.091 A 
ATOM     73  F   UNL A   1      40.984  24.419  28.468  1.00  0.00    -0.205 F 
ATOM     74  C   UNL A   1      43.173  24.712  25.548  1.00  0.00     0.022 A 
BRANCH  72  75
ATOM     75  S   UNL A   1      41.905  22.409  26.337  1.00  0.00     0.127 S 
ATOM     76  O   UNL A   1      42.388  21.865  27.602  1.00  0.00    -0.237 OA
ATOM     77  O   UNL A   1      40.449  22.443  26.195  1.00  0.00    -0.237 OA
ATOM     78  O   UNL A   1      42.607  21.969  25.138  1.00  0.00    -0.744 OA
ENDBRANCH  72  75
ENDBRANCH  44  68
BRANCH  56  79
ATOM     79  C   UNL A   1      44.738  27.338  34.164  1.00  0.00     0.023 A 
ATOM     80  C   UNL A   1      45.975  28.012  34.124  1.00  0.00     0.012 A 
ATOM     81  C   UNL A   1      44.597  26.194  34.976  1.00  0.00     0.148 A 
ATOM     82  C   UNL A   1      47.062  27.539  34.857  1.00  0.00     0.002 A 
ATOM     83  C   UNL A   1      45.673  25.756  35.738  1.00  0.00     0.091 A 
ATOM     84  F   UNL A   1      43.418  25.557  34.984  1.00  0.00    -0.205 F 
ATOM     85  C   UNL A   1      46.908  26.420  35.672  1.00  0.00     0.022 A 
BRANCH  83  86
ATOM     86  S   UNL A   1      45.537  24.379  36.886  1.00  0.00     0.127 S 
ATOM     87  O   UNL A   1      45.140  23.289  35.997  1.00  0.00    -0.237 OA
ATOM     88  O   UNL A   1      46.899  24.274  37.411  1.00  0.00    -0.237 OA
ATOM     89  O   UNL A   1      44.542  24.780  37.872  1.00  0.00    -0.744 OA
ENDBRANCH  83  86
ENDBRANCH  56  79
ENDBRANCH  30  31
ENDBRANCH  22  25
ENDBRANCH  20  21
ENDBRANCH   1  20
TORSDOF 15
ENDMDL
