MODEL 1
REMARK VINA RESULT:     -13.1      0.000      0.000
REMARK SMILES Cc1ccccc1NC(=O)CSc1nc(C(=O)NCCCCNC(=O)c2ccc(-c3c4nc(c(-c5cccc(S(=O)(=O)[O-])c5F)c5ccc([nH]5)c(-c5cccc(S(=O)(=O)[O-])c5F)c5nc(c(-c6cccc(S(=O)(=O)[O-])c6F)c6ccc3[nH]6)C=C5)C=C4)cc2)c2ccccc2n1
REMARK SMILES IDX 20 1 19 2 18 3 16 4 17 5 15 7 13 8 14 9 95 10 94 11 89 12
REMARK SMILES IDX 93 13 90 14 92 15 91 16 12 17 11 18 9 19 8 20 10 22 7 23
REMARK SMILES IDX 1 24 2 25 3 26 4 27 6 28 5 29 21 30 22 31 23 32 24 33 25 35
REMARK SMILES IDX 26 36 27 37 88 38 28 39 87 40 29 41 30 42 31 43 81 44 32 45
REMARK SMILES IDX 86 46 80 47 82 48 33 49 85 50 79 51 78 52 34 54 66 55 46 56
REMARK SMILES IDX 65 57 47 58 50 59 64 60 83 61 48 62 49 63 63 65 84 66 51 67
REMARK SMILES IDX 35 68 36 69 44 70 37 71 39 72 45 73 38 74 40 75 41 76 42 77
REMARK SMILES IDX 43 78 67 79 68 80 76 81 69 82 71 83 77 84 70 85 72 86 73 87
REMARK SMILES IDX 74 88 75 89 52 90 53 91 61 92 54 93 56 94 62 95 55 96 57 97
REMARK SMILES IDX 58 98 59 99 60 100
REMARK H PARENT 18 6 8 21 23 34 82 53 50 64
REMARK Flexibility Score: inf
ROOT
ATOM      1  C   UNL A   1      35.905  21.985  25.186  1.00  0.00     0.023 C 
ENDROOT
BRANCH   1   2
ATOM      2  C   UNL A   1      35.542  23.225  25.994  1.00  0.00     0.116 C 
BRANCH   2   3
ATOM      3  N   UNL A   1      34.626  23.032  27.108  1.00  0.00    -0.351 N 
ATOM      4  C   UNL A   1      33.342  22.504  27.133  1.00  0.00     0.270 C 
ATOM      5  O   UNL A   1      32.803  22.338  28.227  1.00  0.00    -0.267 OA
ATOM      6  H   UNL A   1      34.971  23.323  27.983  1.00  0.00     0.163 HD
BRANCH   4   7
ATOM      7  C   UNL A   1      32.556  22.254  25.878  1.00  0.00     0.140 A 
ATOM      8  C   UNL A   1      31.541  23.299  24.131  1.00  0.00     0.189 A 
ATOM      9  N   UNL A   1      32.044  23.396  25.355  1.00  0.00    -0.217 NA
ATOM     10  N   UNL A   1      31.621  22.214  23.353  1.00  0.00    -0.222 NA
ATOM     11  C   UNL A   1      32.108  21.096  23.898  1.00  0.00     0.076 A 
ATOM     12  C   UNL A   1      32.502  21.012  25.234  1.00  0.00     0.032 A 
ATOM     13  C   UNL A   1      32.275  19.980  23.088  1.00  0.00     0.029 A 
ATOM     14  C   UNL A   1      32.859  19.749  25.777  1.00  0.00     0.013 A 
ATOM     15  C   UNL A   1      32.760  18.769  23.591  1.00  0.00     0.002 A 
ATOM     16  C   UNL A   1      33.016  18.642  24.949  1.00  0.00     0.001 A 
BRANCH   8  17
ATOM     17  S   UNL A   1      30.857  24.754  23.400  1.00  0.00    -0.076 SA
BRANCH  17  18
ATOM     18  C   UNL A   1      32.282  25.302  22.413  1.00  0.00     0.178 C 
BRANCH  18  19
ATOM     19  C   UNL A   1      33.609  25.212  23.137  1.00  0.00     0.234 C 
ATOM     20  N   UNL A   1      34.001  26.000  24.175  1.00  0.00    -0.325 N 
ATOM     21  H   UNL A   1      34.921  25.802  24.462  1.00  0.00     0.169 HD
ATOM     22  O   UNL A   1      34.449  24.383  22.758  1.00  0.00    -0.274 OA
BRANCH  20  23
ATOM     23  C   UNL A   1      33.420  27.029  24.943  1.00  0.00     0.044 A 
ATOM     24  C   UNL A   1      33.935  28.761  23.077  1.00  0.00     0.046 C 
ATOM     25  C   UNL A   1      33.453  28.355  24.448  1.00  0.00    -0.027 A 
ATOM     26  C   UNL A   1      33.030  29.415  25.280  1.00  0.00     0.005 A 
ATOM     27  C   UNL A   1      32.535  29.176  26.556  1.00  0.00     0.000 A 
ATOM     28  C   UNL A   1      32.828  26.810  26.189  1.00  0.00     0.026 A 
ATOM     29  C   UNL A   1      32.407  27.870  26.999  1.00  0.00     0.002 A 
ENDBRANCH  20  23
ENDBRANCH  18  19
ENDBRANCH  17  18
ENDBRANCH   8  17
ENDBRANCH   4   7
ENDBRANCH   2   3
ENDBRANCH   1   2
BRANCH   1  30
ATOM     30  C   UNL A   1      37.243  21.329  25.481  1.00  0.00     0.023 C 
BRANCH  30  31
ATOM     31  C   UNL A   1      38.465  22.233  25.452  1.00  0.00     0.116 C 
BRANCH  31  32
ATOM     32  N   UNL A   1      39.492  21.928  26.434  1.00  0.00    -0.352 N 
ATOM     33  C   UNL A   1      40.303  22.783  27.164  1.00  0.00     0.251 C 
ATOM     34  H   UNL A   1      39.631  20.969  26.607  1.00  0.00     0.163 HD
ATOM     35  O   UNL A   1      41.211  22.282  27.827  1.00  0.00    -0.269 OA
BRANCH  33  36
ATOM     36  C   UNL A   1      40.002  24.239  27.277  1.00  0.00     0.039 A 
ATOM     37  C   UNL A   1      40.779  25.143  26.533  1.00  0.00     0.014 A 
ATOM     38  C   UNL A   1      39.141  24.737  28.248  1.00  0.00     0.014 A 
ATOM     39  C   UNL A   1      40.907  26.467  26.956  1.00  0.00     0.010 A 
ATOM     40  C   UNL A   1      39.347  26.001  28.741  1.00  0.00     0.010 A 
ATOM     41  C   UNL A   1      40.290  26.838  28.142  1.00  0.00    -0.014 A 
BRANCH  41  42
ATOM     42  C   UNL A   1      40.569  28.030  28.923  1.00  0.00     0.031 A 
ATOM     43  C   UNL A   1      39.688  29.206  28.791  1.00  0.00     0.074 A 
ATOM     44  C   UNL A   1      41.362  27.865  30.006  1.00  0.00     0.049 A 
ATOM     45  N   UNL A   1      39.846  30.308  29.437  1.00  0.00    -0.248 NA
ATOM     46  C   UNL A   1      38.546  29.228  27.884  1.00  0.00     0.031 C 
ATOM     47  C   UNL A   1      41.368  28.652  31.232  1.00  0.00     0.029 A 
ATOM     48  N   UNL A   1      42.494  27.047  30.129  1.00  0.00    -0.354 N 
ATOM     49  C   UNL A   1      38.686  31.038  29.293  1.00  0.00     0.074 A 
ATOM     50  C   UNL A   1      37.978  30.389  28.220  1.00  0.00     0.031 C 
ATOM     51  C   UNL A   1      42.564  28.514  31.826  1.00  0.00     0.029 A 
ATOM     52  C   UNL A   1      43.409  27.807  30.879  1.00  0.00     0.049 A 
ATOM     53  H   UNL A   1      42.620  26.139  29.769  1.00  0.00     0.167 HD
ATOM     54  C   UNL A   1      38.413  32.004  30.217  1.00  0.00     0.034 A 
ATOM     55  C   UNL A   1      44.570  28.302  30.355  1.00  0.00     0.034 A 
ATOM     56  C   UNL A   1      39.602  32.258  31.052  1.00  0.00     0.049 A 
ATOM     57  C   UNL A   1      44.680  29.818  30.445  1.00  0.00     0.074 A 
ATOM     58  C   UNL A   1      39.960  31.915  32.345  1.00  0.00     0.029 A 
ATOM     59  N   UNL A   1      40.757  32.738  30.442  1.00  0.00    -0.354 N 
ATOM     60  N   UNL A   1      43.703  30.611  30.789  1.00  0.00    -0.248 NA
ATOM     61  C   UNL A   1      45.902  30.560  30.152  1.00  0.00     0.031 C 
ATOM     62  C   UNL A   1      41.370  32.090  32.468  1.00  0.00     0.029 A 
ATOM     63  C   UNL A   1      41.859  32.577  31.266  1.00  0.00     0.049 A 
ATOM     64  H   UNL A   1      40.787  33.139  29.544  1.00  0.00     0.167 HD
ATOM     65  C   UNL A   1      44.085  31.923  30.665  1.00  0.00     0.074 A 
ATOM     66  C   UNL A   1      45.500  31.830  30.340  1.00  0.00     0.031 C 
ATOM     67  C   UNL A   1      43.188  32.957  30.788  1.00  0.00     0.034 A 
BRANCH  54  68
ATOM     68  C   UNL A   1      37.039  32.584  30.548  1.00  0.00     0.023 A 
ATOM     69  C   UNL A   1      36.526  32.323  31.841  1.00  0.00     0.012 A 
ATOM     70  C   UNL A   1      36.160  33.275  29.677  1.00  0.00     0.148 A 
ATOM     71  C   UNL A   1      35.224  32.669  32.226  1.00  0.00     0.002 A 
ATOM     72  C   UNL A   1      34.862  33.632  30.061  1.00  0.00     0.091 A 
ATOM     73  F   UNL A   1      36.544  33.592  28.444  1.00  0.00    -0.205 F 
ATOM     74  C   UNL A   1      34.386  33.319  31.334  1.00  0.00     0.022 A 
BRANCH  72  75
ATOM     75  S   UNL A   1      33.717  34.477  28.948  1.00  0.00     0.127 S 
ATOM     76  O   UNL A   1      34.549  35.557  28.416  1.00  0.00    -0.237 OA
ATOM     77  O   UNL A   1      33.390  33.429  27.982  1.00  0.00    -0.237 OA
ATOM     78  O   UNL A   1      32.594  34.924  29.763  1.00  0.00    -0.744 OA
ENDBRANCH  72  75
ENDBRANCH  54  68
BRANCH  55  79
ATOM     79  C   UNL A   1      45.150  27.441  29.278  1.00  0.00     0.023 A 
ATOM     80  C   UNL A   1      45.597  26.155  29.674  1.00  0.00     0.012 A 
ATOM     81  C   UNL A   1      44.892  27.677  27.915  1.00  0.00     0.148 A 
ATOM     82  C   UNL A   1      45.638  25.096  28.765  1.00  0.00     0.002 A 
ATOM     83  C   UNL A   1      44.947  26.614  27.010  1.00  0.00     0.091 A 
ATOM     84  F   UNL A   1      44.523  28.907  27.538  1.00  0.00    -0.205 F 
ATOM     85  C   UNL A   1      45.276  25.318  27.443  1.00  0.00     0.022 A 
BRANCH  83  86
ATOM     86  S   UNL A   1      44.477  26.799  25.283  1.00  0.00     0.127 S 
ATOM     87  O   UNL A   1      45.770  27.049  24.654  1.00  0.00    -0.237 OA
ATOM     88  O   UNL A   1      43.885  25.496  24.981  1.00  0.00    -0.237 OA
ATOM     89  O   UNL A   1      43.527  27.901  25.268  1.00  0.00    -0.744 OA
ENDBRANCH  83  86
ENDBRANCH  55  79
BRANCH  67  90
ATOM     90  C   UNL A   1      43.443  34.422  30.440  1.00  0.00     0.023 A 
ATOM     91  C   UNL A   1      43.889  35.364  31.387  1.00  0.00     0.012 A 
ATOM     92  C   UNL A   1      43.379  34.876  29.093  1.00  0.00     0.148 A 
ATOM     93  C   UNL A   1      44.206  36.684  31.038  1.00  0.00     0.002 A 
ATOM     94  C   UNL A   1      43.808  36.153  28.733  1.00  0.00     0.091 A 
ATOM     95  F   UNL A   1      42.878  34.081  28.138  1.00  0.00    -0.205 F 
ATOM     96  C   UNL A   1      44.192  37.072  29.707  1.00  0.00     0.022 A 
BRANCH  94  97
ATOM     97  S   UNL A   1      44.039  36.596  27.004  1.00  0.00     0.127 S 
ATOM     98  O   UNL A   1      44.592  37.943  27.103  1.00  0.00    -0.237 OA
ATOM     99  O   UNL A   1      44.989  35.581  26.541  1.00  0.00    -0.237 OA
ATOM    100  O   UNL A   1      42.714  36.480  26.410  1.00  0.00    -0.744 OA
ENDBRANCH  94  97
ENDBRANCH  67  90
ENDBRANCH  41  42
ENDBRANCH  33  36
ENDBRANCH  31  32
ENDBRANCH  30  31
ENDBRANCH   1  30
TORSDOF 18
ENDMDL
MODEL 2
REMARK VINA RESULT:     -13.0      3.773      9.324
REMARK SMILES Cc1ccccc1NC(=O)CSc1nc(C(=O)NCCCCNC(=O)c2ccc(-c3c4nc(c(-c5cccc(S(=O)(=O)[O-])c5F)c5ccc([nH]5)c(-c5cccc(S(=O)(=O)[O-])c5F)c5nc(c(-c6cccc(S(=O)(=O)[O-])c6F)c6ccc3[nH]6)C=C5)C=C4)cc2)c2ccccc2n1
REMARK SMILES IDX 20 1 19 2 18 3 16 4 17 5 15 7 13 8 14 9 95 10 94 11 89 12
REMARK SMILES IDX 93 13 90 14 92 15 91 16 12 17 11 18 9 19 8 20 10 22 7 23
REMARK SMILES IDX 1 24 2 25 3 26 4 27 6 28 5 29 21 30 22 31 23 32 24 33 25 35
REMARK SMILES IDX 26 36 27 37 88 38 28 39 87 40 29 41 30 42 31 43 81 44 32 45
REMARK SMILES IDX 86 46 80 47 82 48 33 49 85 50 79 51 78 52 34 54 66 55 46 56
REMARK SMILES IDX 65 57 47 58 50 59 64 60 83 61 48 62 49 63 63 65 84 66 51 67
REMARK SMILES IDX 35 68 36 69 44 70 37 71 39 72 45 73 38 74 40 75 41 76 42 77
REMARK SMILES IDX 43 78 67 79 68 80 76 81 69 82 71 83 77 84 70 85 72 86 73 87
REMARK SMILES IDX 74 88 75 89 52 90 53 91 61 92 54 93 56 94 62 95 55 96 57 97
REMARK SMILES IDX 58 98 59 99 60 100
REMARK H PARENT 18 6 8 21 23 34 82 53 50 64
REMARK Flexibility Score: inf
ROOT
ATOM      1  C   UNL A   1      31.513  29.283  27.411  1.00  0.00     0.023 C 
ENDROOT
BRANCH   1   2
ATOM      2  C   UNL A   1      32.175  27.958  27.054  1.00  0.00     0.116 C 
BRANCH   2   3
ATOM      3  N   UNL A   1      31.302  26.797  26.960  1.00  0.00    -0.351 N 
ATOM      4  C   UNL A   1      31.516  25.559  26.370  1.00  0.00     0.270 C 
ATOM      5  O   UNL A   1      30.660  24.688  26.519  1.00  0.00    -0.267 OA
ATOM      6  H   UNL A   1      30.420  26.908  27.382  1.00  0.00     0.163 HD
BRANCH   4   7
ATOM      7  C   UNL A   1      32.683  25.296  25.462  1.00  0.00     0.140 A 
ATOM      8  C   UNL A   1      34.654  24.170  25.316  1.00  0.00     0.189 A 
ATOM      9  N   UNL A   1      33.692  24.648  26.096  1.00  0.00    -0.217 NA
ATOM     10  N   UNL A   1      34.630  24.173  23.979  1.00  0.00    -0.222 NA
ATOM     11  C   UNL A   1      33.639  24.837  23.379  1.00  0.00     0.076 A 
ATOM     12  C   UNL A   1      32.661  25.542  24.084  1.00  0.00     0.032 A 
ATOM     13  C   UNL A   1      33.547  24.788  21.994  1.00  0.00     0.029 A 
ATOM     14  C   UNL A   1      31.736  26.351  23.372  1.00  0.00     0.013 A 
ATOM     15  C   UNL A   1      32.550  25.473  21.295  1.00  0.00     0.002 A 
ATOM     16  C   UNL A   1      31.665  26.289  21.984  1.00  0.00     0.001 A 
BRANCH   8  17
ATOM     17  S   UNL A   1      35.996  23.319  26.086  1.00  0.00    -0.076 SA
BRANCH  17  18
ATOM     18  C   UNL A   1      35.541  21.604  25.691  1.00  0.00     0.178 C 
BRANCH  18  19
ATOM     19  C   UNL A   1      34.351  21.083  26.469  1.00  0.00     0.234 C 
ATOM     20  N   UNL A   1      33.417  20.211  26.000  1.00  0.00    -0.325 N 
ATOM     21  H   UNL A   1      32.704  20.045  26.658  1.00  0.00     0.169 HD
ATOM     22  O   UNL A   1      34.162  21.486  27.626  1.00  0.00    -0.274 OA
BRANCH  20  23
ATOM     23  C   UNL A   1      33.213  19.488  24.808  1.00  0.00     0.044 A 
ATOM     24  C   UNL A   1      32.110  21.560  23.696  1.00  0.00     0.046 C 
ATOM     25  C   UNL A   1      32.527  20.111  23.737  1.00  0.00    -0.027 A 
ATOM     26  C   UNL A   1      32.168  19.344  22.607  1.00  0.00     0.005 A 
ATOM     27  C   UNL A   1      32.518  18.004  22.504  1.00  0.00     0.000 A 
ATOM     28  C   UNL A   1      33.636  18.167  24.635  1.00  0.00     0.026 A 
ATOM     29  C   UNL A   1      33.277  17.423  23.507  1.00  0.00     0.002 A 
ENDBRANCH  20  23
ENDBRANCH  18  19
ENDBRANCH  17  18
ENDBRANCH   8  17
ENDBRANCH   4   7
ENDBRANCH   2   3
ENDBRANCH   1   2
BRANCH   1  30
ATOM     30  C   UNL A   1      32.241  30.555  27.013  1.00  0.00     0.023 C 
BRANCH  30  31
ATOM     31  C   UNL A   1      33.751  30.457  26.870  1.00  0.00     0.116 C 
BRANCH  31  32
ATOM     32  N   UNL A   1      34.504  31.575  27.415  1.00  0.00    -0.352 N 
ATOM     33  C   UNL A   1      35.665  31.577  28.173  1.00  0.00     0.251 C 
ATOM     34  H   UNL A   1      34.132  32.464  27.216  1.00  0.00     0.163 HD
ATOM     35  O   UNL A   1      36.033  32.649  28.652  1.00  0.00    -0.269 OA
BRANCH  33  36
ATOM     36  C   UNL A   1      36.530  30.366  28.279  1.00  0.00     0.039 A 
ATOM     37  C   UNL A   1      36.651  29.738  29.529  1.00  0.00     0.014 A 
ATOM     38  C   UNL A   1      37.382  29.981  27.250  1.00  0.00     0.014 A 
ATOM     39  C   UNL A   1      37.780  28.970  29.820  1.00  0.00     0.010 A 
ATOM     40  C   UNL A   1      38.548  29.326  27.557  1.00  0.00     0.010 A 
ATOM     41  C   UNL A   1      38.781  28.891  28.863  1.00  0.00    -0.014 A 
BRANCH  41  42
ATOM     42  C   UNL A   1      40.147  28.449  29.079  1.00  0.00     0.031 A 
ATOM     43  C   UNL A   1      40.481  27.020  28.922  1.00  0.00     0.074 A 
ATOM     44  C   UNL A   1      41.103  29.404  29.016  1.00  0.00     0.049 A 
ATOM     45  N   UNL A   1      41.658  26.527  29.089  1.00  0.00    -0.248 NA
ATOM     46  C   UNL A   1      39.479  26.019  28.573  1.00  0.00     0.031 C 
ATOM     47  C   UNL A   1      42.500  29.240  28.634  1.00  0.00     0.029 A 
ATOM     48  N   UNL A   1      41.041  30.719  29.497  1.00  0.00    -0.354 N 
ATOM     49  C   UNL A   1      41.645  25.251  28.565  1.00  0.00     0.074 A 
ATOM     50  C   UNL A   1      40.250  24.943  28.388  1.00  0.00     0.031 C 
ATOM     51  C   UNL A   1      43.209  30.255  29.153  1.00  0.00     0.029 A 
ATOM     52  C   UNL A   1      42.311  30.962  30.048  1.00  0.00     0.049 A 
ATOM     53  H   UNL A   1      40.275  31.336  29.457  1.00  0.00     0.167 HD
ATOM     54  C   UNL A   1      42.836  24.691  28.207  1.00  0.00     0.034 A 
ATOM     55  C   UNL A   1      42.520  31.125  31.390  1.00  0.00     0.034 A 
ATOM     56  C   UNL A   1      43.955  25.495  28.731  1.00  0.00     0.049 A 
ATOM     57  C   UNL A   1      43.498  30.116  31.979  1.00  0.00     0.074 A 
ATOM     58  C   UNL A   1      44.847  26.388  28.162  1.00  0.00     0.029 A 
ATOM     59  N   UNL A   1      44.089  25.635  30.109  1.00  0.00    -0.354 N 
ATOM     60  N   UNL A   1      43.947  29.066  31.347  1.00  0.00    -0.248 NA
ATOM     61  C   UNL A   1      44.044  30.212  33.328  1.00  0.00     0.031 C 
ATOM     62  C   UNL A   1      45.437  27.147  29.215  1.00  0.00     0.029 A 
ATOM     63  C   UNL A   1      44.935  26.687  30.422  1.00  0.00     0.049 A 
ATOM     64  H   UNL A   1      43.641  25.064  30.773  1.00  0.00     0.167 HD
ATOM     65  C   UNL A   1      44.719  28.299  32.183  1.00  0.00     0.074 A 
ATOM     66  C   UNL A   1      44.811  29.108  33.388  1.00  0.00     0.031 C 
ATOM     67  C   UNL A   1      45.160  27.049  31.822  1.00  0.00     0.034 A 
BRANCH  54  68
ATOM     68  C   UNL A   1      43.041  23.554  27.207  1.00  0.00     0.023 A 
ATOM     69  C   UNL A   1      43.764  23.857  26.028  1.00  0.00     0.012 A 
ATOM     70  C   UNL A   1      42.505  22.243  27.267  1.00  0.00     0.148 A 
ATOM     71  C   UNL A   1      43.900  22.953  24.966  1.00  0.00     0.002 A 
ATOM     72  C   UNL A   1      42.648  21.332  26.212  1.00  0.00     0.091 A 
ATOM     73  F   UNL A   1      41.826  21.840  28.336  1.00  0.00    -0.205 F 
ATOM     74  C   UNL A   1      43.336  21.690  25.053  1.00  0.00     0.022 A 
BRANCH  72  75
ATOM     75  S   UNL A   1      41.937  19.672  26.259  1.00  0.00     0.127 S 
ATOM     76  O   UNL A   1      42.340  19.205  27.585  1.00  0.00    -0.237 OA
ATOM     77  O   UNL A   1      40.507  19.941  26.117  1.00  0.00    -0.237 OA
ATOM     78  O   UNL A   1      42.529  18.932  25.151  1.00  0.00    -0.744 OA
ENDBRANCH  72  75
ENDBRANCH  54  68
BRANCH  55  79
ATOM     79  C   UNL A   1      41.360  31.743  32.102  1.00  0.00     0.023 A 
ATOM     80  C   UNL A   1      41.019  33.065  31.720  1.00  0.00     0.012 A 
ATOM     81  C   UNL A   1      40.400  30.966  32.777  1.00  0.00     0.148 A 
ATOM     82  C   UNL A   1      39.717  33.544  31.868  1.00  0.00     0.002 A 
ATOM     83  C   UNL A   1      39.101  31.458  32.931  1.00  0.00     0.091 A 
ATOM     84  F   UNL A   1      40.742  29.738  33.183  1.00  0.00    -0.205 F 
ATOM     85  C   UNL A   1      38.750  32.726  32.438  1.00  0.00     0.022 A 
BRANCH  83  86
ATOM     86  S   UNL A   1      37.777  30.466  33.637  1.00  0.00     0.127 S 
ATOM     87  O   UNL A   1      37.920  30.759  35.060  1.00  0.00    -0.237 OA
ATOM     88  O   UNL A   1      36.588  31.039  33.005  1.00  0.00    -0.237 OA
ATOM     89  O   UNL A   1      38.069  29.101  33.226  1.00  0.00    -0.744 OA
ENDBRANCH  83  86
ENDBRANCH  55  79
BRANCH  67  90
ATOM     90  C   UNL A   1      45.813  26.019  32.741  1.00  0.00     0.023 A 
ATOM     91  C   UNL A   1      47.208  25.921  32.907  1.00  0.00     0.012 A 
ATOM     92  C   UNL A   1      45.025  25.197  33.595  1.00  0.00     0.148 A 
ATOM     93  C   UNL A   1      47.793  25.034  33.821  1.00  0.00     0.002 A 
ATOM     94  C   UNL A   1      45.608  24.404  34.583  1.00  0.00     0.091 A 
ATOM     95  F   UNL A   1      43.694  25.153  33.446  1.00  0.00    -0.205 F 
ATOM     96  C   UNL A   1      46.993  24.294  34.680  1.00  0.00     0.022 A 
BRANCH  94  97
ATOM     97  S   UNL A   1      44.601  23.638  35.863  1.00  0.00     0.127 S 
ATOM     98  O   UNL A   1      44.089  24.797  36.587  1.00  0.00    -0.237 OA
ATOM     99  O   UNL A   1      43.593  22.914  35.084  1.00  0.00    -0.237 OA
ATOM    100  O   UNL A   1      45.520  22.772  36.591  1.00  0.00    -0.744 OA
ENDBRANCH  94  97
ENDBRANCH  67  90
ENDBRANCH  41  42
ENDBRANCH  33  36
ENDBRANCH  31  32
ENDBRANCH  30  31
ENDBRANCH   1  30
TORSDOF 18
ENDMDL
MODEL 3
REMARK VINA RESULT:     -12.5      4.157      9.785
REMARK SMILES Cc1ccccc1NC(=O)CSc1nc(C(=O)NCCCCNC(=O)c2ccc(-c3c4nc(c(-c5cccc(S(=O)(=O)[O-])c5F)c5ccc([nH]5)c(-c5cccc(S(=O)(=O)[O-])c5F)c5nc(c(-c6cccc(S(=O)(=O)[O-])c6F)c6ccc3[nH]6)C=C5)C=C4)cc2)c2ccccc2n1
REMARK SMILES IDX 20 1 19 2 18 3 16 4 17 5 15 7 13 8 14 9 95 10 94 11 89 12
REMARK SMILES IDX 93 13 90 14 92 15 91 16 12 17 11 18 9 19 8 20 10 22 7 23
REMARK SMILES IDX 1 24 2 25 3 26 4 27 6 28 5 29 21 30 22 31 23 32 24 33 25 35
REMARK SMILES IDX 26 36 27 37 88 38 28 39 87 40 29 41 30 42 31 43 81 44 32 45
REMARK SMILES IDX 86 46 80 47 82 48 33 49 85 50 79 51 78 52 34 54 66 55 46 56
REMARK SMILES IDX 65 57 47 58 50 59 64 60 83 61 48 62 49 63 63 65 84 66 51 67
REMARK SMILES IDX 35 68 36 69 44 70 37 71 39 72 45 73 38 74 40 75 41 76 42 77
REMARK SMILES IDX 43 78 67 79 68 80 76 81 69 82 71 83 77 84 70 85 72 86 73 87
REMARK SMILES IDX 74 88 75 89 52 90 53 91 61 92 54 93 56 94 62 95 55 96 57 97
REMARK SMILES IDX 58 98 59 99 60 100
REMARK H PARENT 18 6 8 21 23 34 82 53 50 64
REMARK Flexibility Score: inf
ROOT
ATOM      1  C   UNL A   1      32.662  30.703  27.060  1.00  0.00     0.023 C 
ENDROOT
BRANCH   1   2
ATOM      2  C   UNL A   1      32.083  29.904  25.899  1.00  0.00     0.116 C 
BRANCH   2   3
ATOM      3  N   UNL A   1      32.961  29.679  24.761  1.00  0.00    -0.351 N 
ATOM      4  C   UNL A   1      32.728  29.011  23.566  1.00  0.00     0.270 C 
ATOM      5  O   UNL A   1      33.600  29.051  22.698  1.00  0.00    -0.267 OA
ATOM      6  H   UNL A   1      33.864  30.061  24.852  1.00  0.00     0.163 HD
BRANCH   4   7
ATOM      7  C   UNL A   1      31.517  28.149  23.354  1.00  0.00     0.140 A 
ATOM      8  C   UNL A   1      30.643  26.100  23.814  1.00  0.00     0.189 A 
ATOM      9  N   UNL A   1      31.724  26.867  23.745  1.00  0.00    -0.217 NA
ATOM     10  N   UNL A   1      29.386  26.529  23.655  1.00  0.00    -0.222 NA
ATOM     11  C   UNL A   1      29.210  27.790  23.248  1.00  0.00     0.076 A 
ATOM     12  C   UNL A   1      30.270  28.650  22.960  1.00  0.00     0.032 A 
ATOM     13  C   UNL A   1      27.915  28.282  23.153  1.00  0.00     0.029 A 
ATOM     14  C   UNL A   1      30.000  29.919  22.382  1.00  0.00     0.013 A 
ATOM     15  C   UNL A   1      27.650  29.583  22.716  1.00  0.00     0.002 A 
ATOM     16  C   UNL A   1      28.695  30.392  22.292  1.00  0.00     0.001 A 
BRANCH   8  17
ATOM     17  S   UNL A   1      30.852  24.419  24.314  1.00  0.00    -0.076 SA
BRANCH  17  18
ATOM     18  C   UNL A   1      30.733  24.617  26.117  1.00  0.00     0.178 C 
BRANCH  18  19
ATOM     19  C   UNL A   1      30.702  23.312  26.884  1.00  0.00     0.234 C 
ATOM     20  N   UNL A   1      31.702  22.389  26.920  1.00  0.00    -0.325 N 
ATOM     21  H   UNL A   1      31.450  21.593  27.441  1.00  0.00     0.169 HD
ATOM     22  O   UNL A   1      29.682  23.009  27.520  1.00  0.00    -0.274 OA
BRANCH  20  23
ATOM     23  C   UNL A   1      33.007  22.287  26.399  1.00  0.00     0.044 A 
ATOM     24  C   UNL A   1      32.239  20.439  24.743  1.00  0.00     0.046 C 
ATOM     25  C   UNL A   1      33.275  21.308  25.411  1.00  0.00    -0.027 A 
ATOM     26  C   UNL A   1      34.608  21.081  25.007  1.00  0.00     0.005 A 
ATOM     27  C   UNL A   1      35.656  21.834  25.522  1.00  0.00     0.000 A 
ATOM     28  C   UNL A   1      34.065  23.093  26.826  1.00  0.00     0.026 A 
ATOM     29  C   UNL A   1      35.380  22.860  26.411  1.00  0.00     0.002 A 
ENDBRANCH  20  23
ENDBRANCH  18  19
ENDBRANCH  17  18
ENDBRANCH   8  17
ENDBRANCH   4   7
ENDBRANCH   2   3
ENDBRANCH   1   2
BRANCH   1  30
ATOM     30  C   UNL A   1      34.093  30.401  27.469  1.00  0.00     0.023 C 
BRANCH  30  31
ATOM     31  C   UNL A   1      35.019  31.595  27.636  1.00  0.00     0.116 C 
BRANCH  31  32
ATOM     32  N   UNL A   1      34.384  32.818  28.096  1.00  0.00    -0.352 N 
ATOM     33  C   UNL A   1      34.715  33.644  29.160  1.00  0.00     0.251 C 
ATOM     34  H   UNL A   1      33.601  33.104  27.573  1.00  0.00     0.163 HD
ATOM     35  O   UNL A   1      33.930  34.547  29.448  1.00  0.00    -0.269 OA
BRANCH  33  36
ATOM     36  C   UNL A   1      36.041  33.551  29.837  1.00  0.00     0.039 A 
ATOM     37  C   UNL A   1      37.196  33.824  29.086  1.00  0.00     0.014 A 
ATOM     38  C   UNL A   1      36.181  32.994  31.102  1.00  0.00     0.014 A 
ATOM     39  C   UNL A   1      38.423  33.281  29.469  1.00  0.00     0.010 A 
ATOM     40  C   UNL A   1      37.353  32.360  31.429  1.00  0.00     0.010 A 
ATOM     41  C   UNL A   1      38.451  32.438  30.570  1.00  0.00    -0.014 A 
BRANCH  41  42
ATOM     42  C   UNL A   1      39.517  31.519  30.926  1.00  0.00     0.031 A 
ATOM     43  C   UNL A   1      39.540  30.169  30.332  1.00  0.00     0.074 A 
ATOM     44  C   UNL A   1      40.632  32.072  31.457  1.00  0.00     0.049 A 
ATOM     45  N   UNL A   1      40.439  29.281  30.581  1.00  0.00    -0.248 NA
ATOM     46  C   UNL A   1      38.513  29.706  29.406  1.00  0.00     0.031 C 
ATOM     47  C   UNL A   1      41.996  31.562  31.389  1.00  0.00     0.029 A 
ATOM     48  N   UNL A   1      40.718  33.137  32.364  1.00  0.00    -0.354 N 
ATOM     49  C   UNL A   1      40.309  28.289  29.633  1.00  0.00     0.074 A 
ATOM     50  C   UNL A   1      39.027  28.534  29.023  1.00  0.00     0.031 C 
ATOM     51  C   UNL A   1      42.701  32.088  32.404  1.00  0.00     0.029 A 
ATOM     52  C   UNL A   1      41.743  32.771  33.254  1.00  0.00     0.049 A 
ATOM     53  H   UNL A   1      40.179  33.961  32.374  1.00  0.00     0.167 HD
ATOM     54  C   UNL A   1      41.384  27.486  29.388  1.00  0.00     0.034 A 
ATOM     55  C   UNL A   1      41.513  32.466  34.567  1.00  0.00     0.034 A 
ATOM     56  C   UNL A   1      42.411  27.682  30.428  1.00  0.00     0.049 A 
ATOM     57  C   UNL A   1      41.966  31.064  34.953  1.00  0.00     0.074 A 
ATOM     58  C   UNL A   1      43.627  28.345  30.466  1.00  0.00     0.029 A 
ATOM     59  N   UNL A   1      42.095  27.372  31.747  1.00  0.00    -0.354 N 
ATOM     60  N   UNL A   1      42.345  30.149  34.103  1.00  0.00    -0.248 NA
ATOM     61  C   UNL A   1      42.025  30.582  36.329  1.00  0.00     0.031 C 
ATOM     62  C   UNL A   1      43.981  28.529  31.835  1.00  0.00     0.029 A 
ATOM     63  C   UNL A   1      43.004  27.943  32.624  1.00  0.00     0.049 A 
ATOM     64  H   UNL A   1      41.327  26.822  32.021  1.00  0.00     0.167 HD
ATOM     65  C   UNL A   1      42.583  28.963  34.751  1.00  0.00     0.074 A 
ATOM     66  C   UNL A   1      42.444  29.316  36.155  1.00  0.00     0.031 C 
ATOM     67  C   UNL A   1      42.815  27.795  34.067  1.00  0.00     0.034 A 
BRANCH  54  68
ATOM     68  C   UNL A   1      41.646  26.680  28.118  1.00  0.00     0.023 A 
ATOM     69  C   UNL A   1      41.305  27.292  26.887  1.00  0.00     0.012 A 
ATOM     70  C   UNL A   1      42.099  25.340  28.021  1.00  0.00     0.148 A 
ATOM     71  C   UNL A   1      41.357  26.614  25.661  1.00  0.00     0.002 A 
ATOM     72  C   UNL A   1      42.163  24.663  26.798  1.00  0.00     0.091 A 
ATOM     73  F   UNL A   1      42.466  24.673  29.111  1.00  0.00    -0.205 F 
ATOM     74  C   UNL A   1      41.779  25.295  25.615  1.00  0.00     0.022 A 
BRANCH  72  75
ATOM     75  S   UNL A   1      42.701  22.944  26.666  1.00  0.00     0.127 S 
ATOM     76  O   UNL A   1      42.369  22.626  25.277  1.00  0.00    -0.237 OA
ATOM     77  O   UNL A   1      44.134  23.043  26.941  1.00  0.00    -0.237 OA
ATOM     78  O   UNL A   1      41.943  22.190  27.657  1.00  0.00    -0.744 OA
ENDBRANCH  72  75
ENDBRANCH  54  68
BRANCH  55  79
ATOM     79  C   UNL A   1      40.358  33.210  35.157  1.00  0.00     0.023 A 
ATOM     80  C   UNL A   1      39.086  32.597  35.031  1.00  0.00     0.012 A 
ATOM     81  C   UNL A   1      40.534  34.207  36.134  1.00  0.00     0.148 A 
ATOM     82  C   UNL A   1      38.067  32.859  35.948  1.00  0.00     0.002 A 
ATOM     83  C   UNL A   1      39.505  34.471  37.040  1.00  0.00     0.091 A 
ATOM     84  F   UNL A   1      41.720  34.821  36.215  1.00  0.00    -0.205 F 
ATOM     85  C   UNL A   1      38.290  33.767  36.975  1.00  0.00     0.022 A 
BRANCH  83  86
ATOM     86  S   UNL A   1      39.707  35.614  38.416  1.00  0.00     0.127 S 
ATOM     87  O   UNL A   1      39.607  36.904  37.740  1.00  0.00    -0.237 OA
ATOM     88  O   UNL A   1      38.569  35.275  39.271  1.00  0.00    -0.237 OA
ATOM     89  O   UNL A   1      41.002  35.284  38.991  1.00  0.00    -0.744 OA
ENDBRANCH  83  86
ENDBRANCH  55  79
BRANCH  67  90
ATOM     90  C   UNL A   1      42.855  26.389  34.663  1.00  0.00     0.023 A 
ATOM     91  C   UNL A   1      41.802  25.856  35.431  1.00  0.00     0.012 A 
ATOM     92  C   UNL A   1      43.911  25.489  34.345  1.00  0.00     0.148 A 
ATOM     93  C   UNL A   1      41.809  24.534  35.897  1.00  0.00     0.002 A 
ATOM     94  C   UNL A   1      43.857  24.145  34.710  1.00  0.00     0.091 A 
ATOM     95  F   UNL A   1      44.999  25.931  33.700  1.00  0.00    -0.205 F 
ATOM     96  C   UNL A   1      42.824  23.669  35.514  1.00  0.00     0.022 A 
BRANCH  94  97
ATOM     97  S   UNL A   1      45.018  22.954  34.021  1.00  0.00     0.127 S 
ATOM     98  O   UNL A   1      44.796  23.104  32.586  1.00  0.00    -0.237 OA
ATOM     99  O   UNL A   1      46.309  23.461  34.492  1.00  0.00    -0.237 OA
ATOM    100  O   UNL A   1      44.634  21.677  34.608  1.00  0.00    -0.744 OA
ENDBRANCH  94  97
ENDBRANCH  67  90
ENDBRANCH  41  42
ENDBRANCH  33  36
ENDBRANCH  31  32
ENDBRANCH  30  31
ENDBRANCH   1  30
TORSDOF 18
ENDMDL
