MODEL 1
REMARK VINA RESULT:     -12.5      0.000      0.000
REMARK SMILES O=C(NCCCCNC(=O)[C@@]1(Cc2cn3ccccc3n2)CCC[NH2+]C1)c1ccc(-c2c3nc(c(-c4cccc(S(=O)(=O)[O-])c4F)c4ccc([nH]4)c(-c4cccc(S(=O)(=O)[O-])c4F)c4nc(c(-c5cccc(S(=O)(=O)[O-])c5F)c5ccc2[nH]5)C=C4)C=C3)cc1
REMARK SMILES IDX 5 1 4 2 3 3 1 4 2 5 27 7 28 8 89 9 29 10 88 11 30 12 31 13
REMARK SMILES IDX 32 14 82 15 33 16 87 17 81 18 83 19 34 20 86 21 80 22 79 23
REMARK SMILES IDX 35 25 67 26 47 27 66 28 48 29 51 30 65 31 84 32 49 33 50 34
REMARK SMILES IDX 64 36 85 37 52 38 36 39 37 40 45 41 38 42 40 43 46 44 39 45
REMARK SMILES IDX 41 46 42 47 43 48 44 49 68 50 69 51 77 52 70 53 72 54 78 55
REMARK SMILES IDX 71 56 73 57 74 58 75 59 76 60 53 61 54 62 62 63 55 64 57 65
REMARK SMILES IDX 63 66 56 67 58 68 59 69 60 70 61 71 6 72 7 73 8 74 9 75
REMARK SMILES IDX 10 77 11 78 22 79 26 80 23 81 25 82 24 83 12 86 13 87 14 88
REMARK SMILES IDX 21 89 15 90 20 91 16 92 19 93 17 94 18 95
REMARK H PARENT 3 6 83 24 51 35 8 76 25 84 25 85
REMARK Flexibility Score: inf
ROOT
ATOM      1  C   UNL A   1      35.561  21.457  24.766  1.00  0.00     0.023 C 
ENDROOT
BRANCH   1   2
ATOM      2  C   UNL A   1      36.982  21.959  25.013  1.00  0.00     0.116 C 
BRANCH   2   3
ATOM      3  N   UNL A   1      37.932  20.908  25.356  1.00  0.00    -0.352 N 
ATOM      4  O   UNL A   1      39.825  19.975  26.141  1.00  0.00    -0.269 OA
ATOM      5  C   UNL A   1      39.137  20.978  26.021  1.00  0.00     0.251 C 
ATOM      6  H   UNL A   1      37.672  20.004  25.065  1.00  0.00     0.163 HD
BRANCH   5   7
ATOM      7  C   UNL A   1      39.603  22.281  26.539  1.00  0.00     0.039 A 
ATOM      8  C   UNL A   1      39.012  23.468  26.108  1.00  0.00     0.014 A 
ATOM      9  C   UNL A   1      40.679  22.309  27.429  1.00  0.00     0.014 A 
ATOM     10  C   UNL A   1      39.622  24.681  26.399  1.00  0.00     0.010 A 
ATOM     11  C   UNL A   1      41.226  23.537  27.806  1.00  0.00     0.010 A 
ATOM     12  C   UNL A   1      40.737  24.730  27.252  1.00  0.00    -0.014 A 
BRANCH  12  13
ATOM     13  C   UNL A   1      41.339  26.043  27.592  1.00  0.00     0.031 A 
ATOM     14  C   UNL A   1      42.739  26.394  27.171  1.00  0.00     0.074 A 
ATOM     15  C   UNL A   1      40.605  26.922  28.300  1.00  0.00     0.049 A 
ATOM     16  N   UNL A   1      43.413  27.493  27.398  1.00  0.00    -0.248 NA
ATOM     17  C   UNL A   1      43.488  25.383  26.408  1.00  0.00     0.031 C 
ATOM     18  C   UNL A   1      39.253  26.669  28.805  1.00  0.00     0.029 A 
ATOM     19  N   UNL A   1      40.888  28.192  28.730  1.00  0.00    -0.354 N 
ATOM     20  C   UNL A   1      44.676  27.290  26.854  1.00  0.00     0.074 A 
ATOM     21  C   UNL A   1      44.677  25.959  26.283  1.00  0.00     0.031 C 
ATOM     22  C   UNL A   1      38.821  27.751  29.465  1.00  0.00     0.029 A 
ATOM     23  C   UNL A   1      39.882  28.751  29.481  1.00  0.00     0.049 A 
ATOM     24  H   UNL A   1      41.730  28.659  28.521  1.00  0.00     0.167 HD
ATOM     25  C   UNL A   1      45.730  28.140  26.820  1.00  0.00     0.034 A 
ATOM     26  C   UNL A   1      39.824  29.924  30.138  1.00  0.00     0.034 A 
ATOM     27  C   UNL A   1      45.703  29.479  27.347  1.00  0.00     0.049 A 
ATOM     28  C   UNL A   1      40.990  30.863  30.049  1.00  0.00     0.074 A 
ATOM     29  C   UNL A   1      46.687  30.450  27.281  1.00  0.00     0.029 A 
ATOM     30  N   UNL A   1      44.641  30.036  28.044  1.00  0.00    -0.354 N 
ATOM     31  N   UNL A   1      42.122  30.707  29.407  1.00  0.00    -0.248 NA
ATOM     32  C   UNL A   1      40.862  32.148  30.748  1.00  0.00     0.031 C 
ATOM     33  C   UNL A   1      46.227  31.586  27.955  1.00  0.00     0.029 A 
ATOM     34  C   UNL A   1      44.950  31.329  28.428  1.00  0.00     0.049 A 
ATOM     35  H   UNL A   1      43.791  29.577  28.239  1.00  0.00     0.167 HD
ATOM     36  C   UNL A   1      42.840  31.878  29.612  1.00  0.00     0.074 A 
ATOM     37  C   UNL A   1      42.000  32.745  30.415  1.00  0.00     0.031 C 
ATOM     38  C   UNL A   1      44.088  32.197  29.191  1.00  0.00     0.034 A 
BRANCH  25  39
ATOM     39  C   UNL A   1      46.997  27.664  26.156  1.00  0.00     0.023 A 
ATOM     40  C   UNL A   1      47.945  26.938  26.905  1.00  0.00     0.012 A 
ATOM     41  C   UNL A   1      47.222  27.881  24.782  1.00  0.00     0.148 A 
ATOM     42  C   UNL A   1      49.110  26.461  26.304  1.00  0.00     0.002 A 
ATOM     43  C   UNL A   1      48.368  27.370  24.183  1.00  0.00     0.091 A 
ATOM     44  F   UNL A   1      46.324  28.596  24.089  1.00  0.00    -0.205 F 
ATOM     45  C   UNL A   1      49.317  26.668  24.943  1.00  0.00     0.022 A 
BRANCH  43  46
ATOM     46  S   UNL A   1      48.678  27.529  22.420  1.00  0.00     0.127 S 
ATOM     47  O   UNL A   1      49.969  28.215  22.406  1.00  0.00    -0.237 OA
ATOM     48  O   UNL A   1      48.726  26.134  21.981  1.00  0.00    -0.237 OA
ATOM     49  O   UNL A   1      47.553  28.287  21.890  1.00  0.00    -0.744 OA
ENDBRANCH  43  46
ENDBRANCH  25  39
BRANCH  26  50
ATOM     50  C   UNL A   1      38.592  30.262  30.900  1.00  0.00     0.023 A 
ATOM     51  C   UNL A   1      38.518  29.960  32.273  1.00  0.00     0.012 A 
ATOM     52  C   UNL A   1      37.542  30.980  30.293  1.00  0.00     0.148 A 
ATOM     53  C   UNL A   1      37.414  30.362  33.026  1.00  0.00     0.002 A 
ATOM     54  C   UNL A   1      36.478  31.432  31.063  1.00  0.00     0.091 A 
ATOM     55  F   UNL A   1      37.628  31.245  28.982  1.00  0.00    -0.205 F 
ATOM     56  C   UNL A   1      36.404  31.110  32.426  1.00  0.00     0.022 A 
BRANCH  54  57
ATOM     57  S   UNL A   1      35.226  32.539  30.405  1.00  0.00     0.127 S 
ATOM     58  O   UNL A   1      34.300  32.647  31.529  1.00  0.00    -0.237 OA
ATOM     59  O   UNL A   1      36.004  33.748  30.128  1.00  0.00    -0.237 OA
ATOM     60  O   UNL A   1      34.707  31.879  29.214  1.00  0.00    -0.744 OA
ENDBRANCH  54  57
ENDBRANCH  26  50
BRANCH  38  61
ATOM     61  C   UNL A   1      44.627  33.545  29.584  1.00  0.00     0.023 A 
ATOM     62  C   UNL A   1      45.347  33.680  30.788  1.00  0.00     0.012 A 
ATOM     63  C   UNL A   1      44.488  34.656  28.730  1.00  0.00     0.148 A 
ATOM     64  C   UNL A   1      45.899  34.906  31.148  1.00  0.00     0.002 A 
ATOM     65  C   UNL A   1      45.078  35.866  29.076  1.00  0.00     0.091 A 
ATOM     66  F   UNL A   1      43.781  34.511  27.600  1.00  0.00    -0.205 F 
ATOM     67  C   UNL A   1      45.776  35.995  30.288  1.00  0.00     0.022 A 
BRANCH  65  68
ATOM     68  S   UNL A   1      45.044  37.296  27.989  1.00  0.00     0.127 S 
ATOM     69  O   UNL A   1      45.884  38.244  28.718  1.00  0.00    -0.237 OA
ATOM     70  O   UNL A   1      45.644  36.769  26.761  1.00  0.00    -0.237 OA
ATOM     71  O   UNL A   1      43.642  37.669  27.862  1.00  0.00    -0.744 OA
ENDBRANCH  65  68
ENDBRANCH  38  61
ENDBRANCH  12  13
ENDBRANCH   5   7
ENDBRANCH   2   3
ENDBRANCH   1   2
BRANCH   1  72
ATOM     72  C   UNL A   1      34.674  21.297  25.997  1.00  0.00     0.023 C 
BRANCH  72  73
ATOM     73  C   UNL A   1      33.184  21.171  25.720  1.00  0.00     0.116 C 
BRANCH  73  74
ATOM     74  N   UNL A   1      32.307  21.911  26.610  1.00  0.00    -0.355 N 
ATOM     75  C   UNL A   1      31.492  22.988  26.351  1.00  0.00     0.232 C 
ATOM     76  H   UNL A   1      32.293  21.592  27.542  1.00  0.00     0.163 HD
ATOM     77  O   UNL A   1      30.723  23.316  27.259  1.00  0.00    -0.274 OA
BRANCH  75  78
ATOM     78  C   UNL A   1      31.576  23.794  25.023  1.00  0.00     0.104 C 
ATOM     79  C   UNL A   1      32.892  24.619  25.086  1.00  0.00     0.029 C 
ATOM     80  C   UNL A   1      31.504  22.815  23.818  1.00  0.00     0.277 C 
ATOM     81  C   UNL A   1      33.516  24.934  23.732  1.00  0.00     0.063 C 
ATOM     82  N   UNL A   1      32.145  23.255  22.575  1.00  0.00    -0.345 N 
ATOM     83  C   UNL A   1      33.500  23.744  22.787  1.00  0.00     0.260 C 
ATOM     84  H   UNL A   1      32.180  22.466  21.928  1.00  0.00     0.346 HD
ATOM     85  H   UNL A   1      31.594  24.025  22.198  1.00  0.00     0.346 HD
BRANCH  78  86
ATOM     86  C   UNL A   1      30.338  24.774  24.982  1.00  0.00     0.080 C 
BRANCH  86  87
ATOM     87  C   UNL A   1      30.639  26.188  25.377  1.00  0.00     0.061 A 
ATOM     88  C   UNL A   1      30.796  27.283  24.547  1.00  0.00     0.116 A 
ATOM     89  N   UNL A   1      30.906  26.538  26.684  1.00  0.00    -0.234 NA
ATOM     90  N   UNL A   1      31.479  28.197  25.303  1.00  0.00    -0.307 N 
ATOM     91  C   UNL A   1      31.421  27.751  26.616  1.00  0.00     0.136 A 
ATOM     92  C   UNL A   1      32.187  29.325  24.896  1.00  0.00     0.093 A 
ATOM     93  C   UNL A   1      32.008  28.592  27.604  1.00  0.00     0.048 A 
ATOM     94  C   UNL A   1      32.820  30.065  25.822  1.00  0.00     0.018 A 
ATOM     95  C   UNL A   1      32.685  29.695  27.225  1.00  0.00     0.005 A 
ENDBRANCH  86  87
ENDBRANCH  78  86
ENDBRANCH  75  78
ENDBRANCH  73  74
ENDBRANCH  72  73
ENDBRANCH   1  72
TORSDOF 16
ENDMDL
MODEL 2
REMARK VINA RESULT:     -12.5      4.998     10.230
REMARK SMILES O=C(NCCCCNC(=O)[C@@]1(Cc2cn3ccccc3n2)CCC[NH2+]C1)c1ccc(-c2c3nc(c(-c4cccc(S(=O)(=O)[O-])c4F)c4ccc([nH]4)c(-c4cccc(S(=O)(=O)[O-])c4F)c4nc(c(-c5cccc(S(=O)(=O)[O-])c5F)c5ccc2[nH]5)C=C4)C=C3)cc1
REMARK SMILES IDX 5 1 4 2 3 3 1 4 2 5 27 7 28 8 89 9 29 10 88 11 30 12 31 13
REMARK SMILES IDX 32 14 82 15 33 16 87 17 81 18 83 19 34 20 86 21 80 22 79 23
REMARK SMILES IDX 35 25 67 26 47 27 66 28 48 29 51 30 65 31 84 32 49 33 50 34
REMARK SMILES IDX 64 36 85 37 52 38 36 39 37 40 45 41 38 42 40 43 46 44 39 45
REMARK SMILES IDX 41 46 42 47 43 48 44 49 68 50 69 51 77 52 70 53 72 54 78 55
REMARK SMILES IDX 71 56 73 57 74 58 75 59 76 60 53 61 54 62 62 63 55 64 57 65
REMARK SMILES IDX 63 66 56 67 58 68 59 69 60 70 61 71 6 72 7 73 8 74 9 75
REMARK SMILES IDX 10 77 11 78 22 79 26 80 23 81 25 82 24 83 12 86 13 87 14 88
REMARK SMILES IDX 21 89 15 90 20 91 16 92 19 93 17 94 18 95
REMARK H PARENT 3 6 83 24 51 35 8 76 25 84 25 85
REMARK Flexibility Score: inf
ROOT
ATOM      1  C   UNL A   1      31.398  29.518  25.016  1.00  0.00     0.023 C 
ENDROOT
BRANCH   1   2
ATOM      2  C   UNL A   1      32.367  29.997  26.095  1.00  0.00     0.116 C 
BRANCH   2   3
ATOM      3  N   UNL A   1      32.190  31.392  26.476  1.00  0.00    -0.352 N 
ATOM      4  O   UNL A   1      32.609  33.345  27.516  1.00  0.00    -0.269 OA
ATOM      5  C   UNL A   1      32.981  32.211  27.253  1.00  0.00     0.251 C 
ATOM      6  H   UNL A   1      31.376  31.818  26.123  1.00  0.00     0.163 HD
BRANCH   5   7
ATOM      7  C   UNL A   1      34.249  31.686  27.799  1.00  0.00     0.039 A 
ATOM      8  C   UNL A   1      34.373  30.338  28.135  1.00  0.00     0.014 A 
ATOM      9  C   UNL A   1      35.307  32.570  28.023  1.00  0.00     0.014 A 
ATOM     10  C   UNL A   1      35.467  29.916  28.879  1.00  0.00     0.010 A 
ATOM     11  C   UNL A   1      36.454  32.118  28.679  1.00  0.00     0.010 A 
ATOM     12  C   UNL A   1      36.520  30.801  29.159  1.00  0.00    -0.014 A 
BRANCH  12  13
ATOM     13  C   UNL A   1      37.703  30.313  29.910  1.00  0.00     0.031 A 
ATOM     14  C   UNL A   1      37.973  30.758  31.321  1.00  0.00     0.074 A 
ATOM     15  C   UNL A   1      38.547  29.462  29.297  1.00  0.00     0.049 A 
ATOM     16  N   UNL A   1      38.967  30.432  32.109  1.00  0.00    -0.248 NA
ATOM     17  C   UNL A   1      37.016  31.697  31.928  1.00  0.00     0.031 C 
ATOM     18  C   UNL A   1      38.412  29.002  27.912  1.00  0.00     0.029 A 
ATOM     19  N   UNL A   1      39.686  28.843  29.743  1.00  0.00    -0.354 N 
ATOM     20  C   UNL A   1      38.786  31.160  33.279  1.00  0.00     0.074 A 
ATOM     21  C   UNL A   1      37.583  31.947  33.100  1.00  0.00     0.031 C 
ATOM     22  C   UNL A   1      39.420  28.167  27.626  1.00  0.00     0.029 A 
ATOM     23  C   UNL A   1      40.302  28.077  28.783  1.00  0.00     0.049 A 
ATOM     24  H   UNL A   1      40.028  28.938  30.662  1.00  0.00     0.167 HD
ATOM     25  C   UNL A   1      39.542  31.159  34.403  1.00  0.00     0.034 A 
ATOM     26  C   UNL A   1      41.464  27.399  28.813  1.00  0.00     0.034 A 
ATOM     27  C   UNL A   1      40.708  30.336  34.588  1.00  0.00     0.049 A 
ATOM     28  C   UNL A   1      42.261  27.382  30.083  1.00  0.00     0.074 A 
ATOM     29  C   UNL A   1      41.490  30.194  35.722  1.00  0.00     0.029 A 
ATOM     30  N   UNL A   1      41.266  29.520  33.615  1.00  0.00    -0.354 N 
ATOM     31  N   UNL A   1      41.995  27.965  31.227  1.00  0.00    -0.248 NA
ATOM     32  C   UNL A   1      43.501  26.595  30.080  1.00  0.00     0.031 C 
ATOM     33  C   UNL A   1      42.531  29.308  35.427  1.00  0.00     0.029 A 
ATOM     34  C   UNL A   1      42.390  28.885  34.115  1.00  0.00     0.049 A 
ATOM     35  H   UNL A   1      40.915  29.410  32.702  1.00  0.00     0.167 HD
ATOM     36  C   UNL A   1      43.025  27.606  32.086  1.00  0.00     0.074 A 
ATOM     37  C   UNL A   1      43.905  26.730  31.336  1.00  0.00     0.031 C 
ATOM     38  C   UNL A   1      43.234  27.984  33.371  1.00  0.00     0.034 A 
BRANCH  25  39
ATOM     39  C   UNL A   1      39.114  32.049  35.541  1.00  0.00     0.023 A 
ATOM     40  C   UNL A   1      38.202  31.563  36.500  1.00  0.00     0.012 A 
ATOM     41  C   UNL A   1      39.656  33.340  35.696  1.00  0.00     0.148 A 
ATOM     42  C   UNL A   1      37.816  32.357  37.579  1.00  0.00     0.002 A 
ATOM     43  C   UNL A   1      39.294  34.112  36.795  1.00  0.00     0.091 A 
ATOM     44  F   UNL A   1      40.501  33.799  34.762  1.00  0.00    -0.205 F 
ATOM     45  C   UNL A   1      38.368  33.627  37.732  1.00  0.00     0.022 A 
BRANCH  43  46
ATOM     46  S   UNL A   1      40.013  35.729  37.107  1.00  0.00     0.127 S 
ATOM     47  O   UNL A   1      39.653  36.453  35.888  1.00  0.00    -0.237 OA
ATOM     48  O   UNL A   1      39.297  36.166  38.306  1.00  0.00    -0.237 OA
ATOM     49  O   UNL A   1      41.435  35.495  37.309  1.00  0.00    -0.744 OA
ENDBRANCH  43  46
ENDBRANCH  25  39
BRANCH  26  50
ATOM     50  C   UNL A   1      41.900  26.663  27.596  1.00  0.00     0.023 A 
ATOM     51  C   UNL A   1      42.683  27.319  26.628  1.00  0.00     0.012 A 
ATOM     52  C   UNL A   1      41.634  25.286  27.452  1.00  0.00     0.148 A 
ATOM     53  C   UNL A   1      43.187  26.617  25.532  1.00  0.00     0.002 A 
ATOM     54  C   UNL A   1      42.192  24.581  26.393  1.00  0.00     0.091 A 
ATOM     55  F   UNL A   1      40.876  24.685  28.379  1.00  0.00    -0.205 F 
ATOM     56  C   UNL A   1      42.956  25.248  25.424  1.00  0.00     0.022 A 
BRANCH  54  57
ATOM     57  S   UNL A   1      42.082  22.792  26.274  1.00  0.00     0.127 S 
ATOM     58  O   UNL A   1      42.803  22.367  27.471  1.00  0.00    -0.237 OA
ATOM     59  O   UNL A   1      40.635  22.572  26.315  1.00  0.00    -0.237 OA
ATOM     60  O   UNL A   1      42.701  22.447  25.001  1.00  0.00    -0.744 OA
ENDBRANCH  54  57
ENDBRANCH  26  50
BRANCH  38  61
ATOM     61  C   UNL A   1      44.460  27.449  34.058  1.00  0.00     0.023 A 
ATOM     62  C   UNL A   1      45.658  28.189  34.012  1.00  0.00     0.012 A 
ATOM     63  C   UNL A   1      44.408  26.259  34.809  1.00  0.00     0.148 A 
ATOM     64  C   UNL A   1      46.793  27.740  34.684  1.00  0.00     0.002 A 
ATOM     65  C   UNL A   1      45.532  25.840  35.511  1.00  0.00     0.091 A 
ATOM     66  F   UNL A   1      43.264  25.559  34.821  1.00  0.00    -0.205 F 
ATOM     67  C   UNL A   1      46.727  26.574  35.443  1.00  0.00     0.022 A 
BRANCH  65  68
ATOM     68  S   UNL A   1      45.512  24.398  36.582  1.00  0.00     0.127 S 
ATOM     69  O   UNL A   1      45.225  23.325  35.631  1.00  0.00    -0.237 OA
ATOM     70  O   UNL A   1      46.873  24.389  37.120  1.00  0.00    -0.237 OA
ATOM     71  O   UNL A   1      44.475  24.650  37.573  1.00  0.00    -0.744 OA
ENDBRANCH  65  68
ENDBRANCH  38  61
ENDBRANCH  12  13
ENDBRANCH   5   7
ENDBRANCH   2   3
ENDBRANCH   1   2
BRANCH   1  72
ATOM     72  C   UNL A   1      32.008  29.174  23.660  1.00  0.00     0.023 C 
BRANCH  72  73
ATOM     73  C   UNL A   1      33.251  28.301  23.702  1.00  0.00     0.116 C 
BRANCH  73  74
ATOM     74  N   UNL A   1      33.513  27.509  22.512  1.00  0.00    -0.355 N 
ATOM     75  C   UNL A   1      33.015  26.283  22.142  1.00  0.00     0.232 C 
ATOM     76  H   UNL A   1      34.144  27.914  21.873  1.00  0.00     0.163 HD
ATOM     77  O   UNL A   1      33.278  25.915  20.994  1.00  0.00    -0.274 OA
BRANCH  75  78
ATOM     78  C   UNL A   1      32.224  25.374  23.127  1.00  0.00     0.104 C 
ATOM     79  C   UNL A   1      32.987  25.415  24.481  1.00  0.00     0.029 C 
ATOM     80  C   UNL A   1      30.753  25.868  23.220  1.00  0.00     0.277 C 
ATOM     81  C   UNL A   1      32.121  25.190  25.713  1.00  0.00     0.063 C 
ATOM     82  N   UNL A   1      30.038  25.574  24.465  1.00  0.00    -0.345 N 
ATOM     83  C   UNL A   1      30.802  25.943  25.649  1.00  0.00     0.260 C 
ATOM     84  H   UNL A   1      29.160  26.093  24.468  1.00  0.00     0.346 HD
ATOM     85  H   UNL A   1      29.880  24.567  24.501  1.00  0.00     0.346 HD
BRANCH  78  86
ATOM     86  C   UNL A   1      32.253  23.905  22.548  1.00  0.00     0.080 C 
BRANCH  86  87
ATOM     87  C   UNL A   1      33.406  23.067  23.010  1.00  0.00     0.061 A 
ATOM     88  C   UNL A   1      33.376  21.997  23.886  1.00  0.00     0.116 A 
ATOM     89  N   UNL A   1      34.707  23.363  22.663  1.00  0.00    -0.234 NA
ATOM     90  N   UNL A   1      34.666  21.870  24.324  1.00  0.00    -0.307 N 
ATOM     91  C   UNL A   1      35.452  22.637  23.475  1.00  0.00     0.136 A 
ATOM     92  C   UNL A   1      35.156  21.196  25.439  1.00  0.00     0.093 A 
ATOM     93  C   UNL A   1      36.859  22.598  23.695  1.00  0.00     0.048 A 
ATOM     94  C   UNL A   1      36.474  21.238  25.699  1.00  0.00     0.018 A 
ATOM     95  C   UNL A   1      37.349  21.936  24.764  1.00  0.00     0.005 A 
ENDBRANCH  86  87
ENDBRANCH  78  86
ENDBRANCH  75  78
ENDBRANCH  73  74
ENDBRANCH  72  73
ENDBRANCH   1  72
TORSDOF 16
ENDMDL
MODEL 3
REMARK VINA RESULT:     -12.5      5.107     10.350
REMARK SMILES O=C(NCCCCNC(=O)[C@@]1(Cc2cn3ccccc3n2)CCC[NH2+]C1)c1ccc(-c2c3nc(c(-c4cccc(S(=O)(=O)[O-])c4F)c4ccc([nH]4)c(-c4cccc(S(=O)(=O)[O-])c4F)c4nc(c(-c5cccc(S(=O)(=O)[O-])c5F)c5ccc2[nH]5)C=C4)C=C3)cc1
REMARK SMILES IDX 5 1 4 2 3 3 1 4 2 5 27 7 28 8 89 9 29 10 88 11 30 12 31 13
REMARK SMILES IDX 32 14 82 15 33 16 87 17 81 18 83 19 34 20 86 21 80 22 79 23
REMARK SMILES IDX 35 25 67 26 47 27 66 28 48 29 51 30 65 31 84 32 49 33 50 34
REMARK SMILES IDX 64 36 85 37 52 38 36 39 37 40 45 41 38 42 40 43 46 44 39 45
REMARK SMILES IDX 41 46 42 47 43 48 44 49 68 50 69 51 77 52 70 53 72 54 78 55
REMARK SMILES IDX 71 56 73 57 74 58 75 59 76 60 53 61 54 62 62 63 55 64 57 65
REMARK SMILES IDX 63 66 56 67 58 68 59 69 60 70 61 71 6 72 7 73 8 74 9 75
REMARK SMILES IDX 10 77 11 78 22 79 26 80 23 81 25 82 24 83 12 86 13 87 14 88
REMARK SMILES IDX 21 89 15 90 20 91 16 92 19 93 17 94 18 95
REMARK H PARENT 3 6 83 24 51 35 8 76 25 84 25 85
REMARK Flexibility Score: inf
ROOT
ATOM      1  C   UNL A   1      31.426  29.177  25.171  1.00  0.00     0.023 C 
ENDROOT
BRANCH   1   2
ATOM      2  C   UNL A   1      32.610  29.811  25.898  1.00  0.00     0.116 C 
BRANCH   2   3
ATOM      3  N   UNL A   1      32.358  31.164  26.378  1.00  0.00    -0.352 N 
ATOM      4  O   UNL A   1      32.661  33.051  27.568  1.00  0.00    -0.269 OA
ATOM      5  C   UNL A   1      33.093  31.959  27.230  1.00  0.00     0.251 C 
ATOM      6  H   UNL A   1      31.530  31.576  26.038  1.00  0.00     0.163 HD
BRANCH   5   7
ATOM      7  C   UNL A   1      34.375  31.455  27.765  1.00  0.00     0.039 A 
ATOM      8  C   UNL A   1      34.529  30.107  28.084  1.00  0.00     0.014 A 
ATOM      9  C   UNL A   1      35.414  32.359  27.994  1.00  0.00     0.014 A 
ATOM     10  C   UNL A   1      35.636  29.700  28.818  1.00  0.00     0.010 A 
ATOM     11  C   UNL A   1      36.573  31.925  28.639  1.00  0.00     0.010 A 
ATOM     12  C   UNL A   1      36.671  30.604  29.104  1.00  0.00    -0.014 A 
BRANCH  12  13
ATOM     13  C   UNL A   1      37.868  30.133  29.844  1.00  0.00     0.031 A 
ATOM     14  C   UNL A   1      38.147  30.586  31.250  1.00  0.00     0.074 A 
ATOM     15  C   UNL A   1      38.715  29.290  29.224  1.00  0.00     0.049 A 
ATOM     16  N   UNL A   1      39.154  30.275  32.028  1.00  0.00    -0.248 NA
ATOM     17  C   UNL A   1      37.185  31.515  31.864  1.00  0.00     0.031 C 
ATOM     18  C   UNL A   1      38.571  28.824  27.842  1.00  0.00     0.029 A 
ATOM     19  N   UNL A   1      39.866  28.687  29.660  1.00  0.00    -0.354 N 
ATOM     20  C   UNL A   1      38.976  31.005  33.197  1.00  0.00     0.074 A 
ATOM     21  C   UNL A   1      37.762  31.777  33.030  1.00  0.00     0.031 C 
ATOM     22  C   UNL A   1      39.586  28.001  27.548  1.00  0.00     0.029 A 
ATOM     23  C   UNL A   1      40.481  27.925  28.696  1.00  0.00     0.049 A 
ATOM     24  H   UNL A   1      40.217  28.790  30.575  1.00  0.00     0.167 HD
ATOM     25  C   UNL A   1      39.744  31.017  34.314  1.00  0.00     0.034 A 
ATOM     26  C   UNL A   1      41.652  27.262  28.716  1.00  0.00     0.034 A 
ATOM     27  C   UNL A   1      40.922  30.209  34.489  1.00  0.00     0.049 A 
ATOM     28  C   UNL A   1      42.463  27.259  29.977  1.00  0.00     0.074 A 
ATOM     29  C   UNL A   1      41.718  30.081  35.615  1.00  0.00     0.029 A 
ATOM     30  N   UNL A   1      41.480  29.397  33.513  1.00  0.00    -0.354 N 
ATOM     31  N   UNL A   1      42.201  27.843  31.122  1.00  0.00    -0.248 NA
ATOM     32  C   UNL A   1      43.712  26.487  29.963  1.00  0.00     0.031 C 
ATOM     33  C   UNL A   1      42.767  29.206  35.311  1.00  0.00     0.029 A 
ATOM     34  C   UNL A   1      42.617  28.777  34.003  1.00  0.00     0.049 A 
ATOM     35  H   UNL A   1      41.120  29.279  32.604  1.00  0.00     0.167 HD
ATOM     36  C   UNL A   1      43.246  27.499  31.971  1.00  0.00     0.074 A 
ATOM     37  C   UNL A   1      44.128  26.632  31.215  1.00  0.00     0.031 C 
ATOM     38  C   UNL A   1      43.464  27.884  33.252  1.00  0.00     0.034 A 
BRANCH  25  39
ATOM     39  C   UNL A   1      39.317  31.906  35.453  1.00  0.00     0.023 A 
ATOM     40  C   UNL A   1      39.651  33.275  35.431  1.00  0.00     0.012 A 
ATOM     41  C   UNL A   1      38.536  31.402  36.512  1.00  0.00     0.148 A 
ATOM     42  C   UNL A   1      39.239  34.123  36.460  1.00  0.00     0.002 A 
ATOM     43  C   UNL A   1      38.098  32.262  37.515  1.00  0.00     0.091 A 
ATOM     44  F   UNL A   1      38.249  30.093  36.533  1.00  0.00    -0.205 F 
ATOM     45  C   UNL A   1      38.456  33.619  37.495  1.00  0.00     0.022 A 
BRANCH  43  46
ATOM     46  S   UNL A   1      37.025  31.710  38.846  1.00  0.00     0.127 S 
ATOM     47  O   UNL A   1      37.900  31.852  40.010  1.00  0.00    -0.237 OA
ATOM     48  O   UNL A   1      35.929  32.678  38.789  1.00  0.00    -0.237 OA
ATOM     49  O   UNL A   1      36.642  30.348  38.504  1.00  0.00    -0.744 OA
ENDBRANCH  43  46
ENDBRANCH  25  39
BRANCH  26  50
ATOM     50  C   UNL A   1      42.084  26.527  27.496  1.00  0.00     0.023 A 
ATOM     51  C   UNL A   1      42.858  27.186  26.524  1.00  0.00     0.012 A 
ATOM     52  C   UNL A   1      41.823  25.149  27.354  1.00  0.00     0.148 A 
ATOM     53  C   UNL A   1      43.359  26.486  25.425  1.00  0.00     0.002 A 
ATOM     54  C   UNL A   1      42.377  24.446  26.293  1.00  0.00     0.091 A 
ATOM     55  F   UNL A   1      41.072  24.545  28.286  1.00  0.00    -0.205 F 
ATOM     56  C   UNL A   1      43.133  25.115  25.319  1.00  0.00     0.022 A 
BRANCH  54  57
ATOM     57  S   UNL A   1      42.273  22.657  26.175  1.00  0.00     0.127 S 
ATOM     58  O   UNL A   1      40.829  22.442  26.134  1.00  0.00    -0.237 OA
ATOM     59  O   UNL A   1      42.972  22.393  24.915  1.00  0.00    -0.237 OA
ATOM     60  O   UNL A   1      42.960  22.147  27.354  1.00  0.00    -0.744 OA
ENDBRANCH  54  57
ENDBRANCH  26  50
BRANCH  38  61
ATOM     61  C   UNL A   1      44.704  27.366  33.928  1.00  0.00     0.023 A 
ATOM     62  C   UNL A   1      45.870  28.157  33.935  1.00  0.00     0.012 A 
ATOM     63  C   UNL A   1      44.693  26.140  34.618  1.00  0.00     0.148 A 
ATOM     64  C   UNL A   1      47.015  27.722  34.597  1.00  0.00     0.002 A 
ATOM     65  C   UNL A   1      45.826  25.732  35.312  1.00  0.00     0.091 A 
ATOM     66  F   UNL A   1      43.580  25.393  34.581  1.00  0.00    -0.205 F 
ATOM     67  C   UNL A   1      46.990  26.517  35.296  1.00  0.00     0.022 A 
BRANCH  65  68
ATOM     68  S   UNL A   1      45.855  24.238  36.311  1.00  0.00     0.127 S 
ATOM     69  O   UNL A   1      44.779  24.499  37.266  1.00  0.00    -0.237 OA
ATOM     70  O   UNL A   1      45.556  23.198  35.325  1.00  0.00    -0.237 OA
ATOM     71  O   UNL A   1      47.193  24.163  36.879  1.00  0.00    -0.744 OA
ENDBRANCH  65  68
ENDBRANCH  38  61
ENDBRANCH  12  13
ENDBRANCH   5   7
ENDBRANCH   2   3
ENDBRANCH   1   2
BRANCH   1  72
ATOM     72  C   UNL A   1      31.443  29.257  23.647  1.00  0.00     0.023 C 
BRANCH  72  73
ATOM     73  C   UNL A   1      30.770  28.102  22.923  1.00  0.00     0.116 C 
BRANCH  73  74
ATOM     74  N   UNL A   1      31.608  27.353  22.004  1.00  0.00    -0.355 N 
ATOM     75  C   UNL A   1      31.959  26.023  22.014  1.00  0.00     0.232 C 
ATOM     76  H   UNL A   1      31.982  27.877  21.259  1.00  0.00     0.163 HD
ATOM     77  O   UNL A   1      32.551  25.611  21.013  1.00  0.00    -0.274 OA
BRANCH  75  78
ATOM     78  C   UNL A   1      31.691  25.102  23.239  1.00  0.00     0.104 C 
ATOM     79  C   UNL A   1      32.779  25.441  24.297  1.00  0.00     0.029 C 
ATOM     80  C   UNL A   1      30.237  25.318  23.742  1.00  0.00     0.277 C 
ATOM     81  C   UNL A   1      32.365  25.201  25.743  1.00  0.00     0.063 C 
ATOM     82  N   UNL A   1      29.982  25.040  25.158  1.00  0.00    -0.345 N 
ATOM     83  C   UNL A   1      30.952  25.681  26.037  1.00  0.00     0.260 C 
ATOM     84  H   UNL A   1      29.051  25.382  25.396  1.00  0.00     0.346 HD
ATOM     85  H   UNL A   1      30.060  24.032  25.295  1.00  0.00     0.346 HD
BRANCH  78  86
ATOM     86  C   UNL A   1      31.869  23.608  22.759  1.00  0.00     0.080 C 
BRANCH  86  87
ATOM     87  C   UNL A   1      33.146  22.953  23.190  1.00  0.00     0.061 A 
ATOM     88  C   UNL A   1      33.319  22.010  24.187  1.00  0.00     0.116 A 
ATOM     89  N   UNL A   1      34.368  23.326  22.669  1.00  0.00    -0.234 NA
ATOM     90  N   UNL A   1      34.651  22.068  24.493  1.00  0.00    -0.307 N 
ATOM     91  C   UNL A   1      35.263  22.789  23.477  1.00  0.00     0.136 A 
ATOM     92  C   UNL A   1      35.318  21.597  25.621  1.00  0.00     0.093 A 
ATOM     93  C   UNL A   1      36.680  22.915  23.544  1.00  0.00     0.048 A 
ATOM     94  C   UNL A   1      36.642  21.801  25.727  1.00  0.00     0.018 A 
ATOM     95  C   UNL A   1      37.340  22.451  24.625  1.00  0.00     0.005 A 
ENDBRANCH  86  87
ENDBRANCH  78  86
ENDBRANCH  75  78
ENDBRANCH  73  74
ENDBRANCH  72  73
ENDBRANCH   1  72
TORSDOF 16
ENDMDL
