MODEL 1
REMARK VINA RESULT:     -11.9      0.000      0.000
REMARK SMILES Cc1cccc(-c2cc(C(=O)NCCCCNC(=O)c3ccc(-c4c5nc(c(-c6cccc(S(=O)(=O)[O-])c6F)c6ccc([nH]6)c(-c6cccc(S(=O)(=O)[O-])c6F)c6nc(c(-c7cccc(S(=O)(=O)[O-])c7F)c7ccc4[nH]7)C=C6)C=C5)cc3)ccn2)c1
REMARK SMILES IDX 15 1 14 2 13 3 12 4 10 5 11 6 9 8 7 9 8 10 85 11 84 12 83 13
REMARK SMILES IDX 6 14 1 15 2 16 3 17 86 18 4 19 5 20 16 21 17 22 18 23 19 25
REMARK SMILES IDX 20 26 21 27 82 28 22 29 81 30 23 31 24 32 25 33 75 34 26 35
REMARK SMILES IDX 80 36 74 37 76 38 27 39 79 40 73 41 72 42 28 44 60 45 40 46
REMARK SMILES IDX 59 47 41 48 44 49 58 50 77 51 42 52 43 53 57 55 78 56 45 57
REMARK SMILES IDX 29 58 30 59 38 60 31 61 33 62 39 63 32 64 34 65 35 66 36 67
REMARK SMILES IDX 37 68 61 69 62 70 70 71 63 72 65 73 71 74 64 75 66 76 67 77
REMARK SMILES IDX 68 78 69 79 46 80 47 81 55 82 48 83 50 84 56 85 49 86 51 87
REMARK SMILES IDX 52 88 53 89 54 90
REMARK H PARENT 12 7 17 24 76 43 44 54
REMARK Flexibility Score: inf
ROOT
ATOM      1  C   UNL A   1      34.015  29.344  26.035  1.00  0.00     0.023 C 
ENDROOT
BRANCH   1   2
ATOM      2  C   UNL A   1      33.820  27.825  26.203  1.00  0.00     0.023 C 
BRANCH   2   3
ATOM      3  C   UNL A   1      32.447  27.369  26.717  1.00  0.00     0.116 C 
BRANCH   3   4
ATOM      4  N   UNL A   1      31.527  27.067  25.633  1.00  0.00    -0.352 N 
ATOM      5  C   UNL A   1      31.261  25.955  24.874  1.00  0.00     0.251 C 
ATOM      6  O   UNL A   1      30.411  26.077  23.989  1.00  0.00    -0.269 OA
ATOM      7  H   UNL A   1      30.967  27.837  25.386  1.00  0.00     0.163 HD
BRANCH   5   8
ATOM      8  C   UNL A   1      31.892  24.617  25.057  1.00  0.00     0.043 A 
ATOM      9  C   UNL A   1      33.737  23.082  25.220  1.00  0.00     0.071 A 
ATOM     10  C   UNL A   1      33.244  24.350  24.920  1.00  0.00     0.042 A 
ATOM     11  N   UNL A   1      32.940  22.044  25.548  1.00  0.00    -0.256 NA
ATOM     12  C   UNL A   1      31.617  22.302  25.630  1.00  0.00     0.112 A 
ATOM     13  C   UNL A   1      31.058  23.551  25.412  1.00  0.00     0.034 A 
BRANCH   9  14
ATOM     14  C   UNL A   1      35.186  22.874  25.258  1.00  0.00     0.000 A 
ATOM     15  C   UNL A   1      37.610  19.945  24.836  1.00  0.00     0.044 C 
ATOM     16  C   UNL A   1      37.073  21.316  25.127  1.00  0.00    -0.050 A 
ATOM     17  C   UNL A   1      37.923  22.329  25.580  1.00  0.00     0.003 A 
ATOM     18  C   UNL A   1      35.714  21.600  24.963  1.00  0.00     0.013 A 
ATOM     19  C   UNL A   1      37.422  23.605  25.849  1.00  0.00     0.001 A 
ATOM     20  C   UNL A   1      36.062  23.879  25.684  1.00  0.00     0.010 A 
ENDBRANCH   9  14
ENDBRANCH   5   8
ENDBRANCH   3   4
ENDBRANCH   2   3
ENDBRANCH   1   2
BRANCH   1  21
ATOM     21  C   UNL A   1      34.004  30.163  27.319  1.00  0.00     0.116 C 
BRANCH  21  22
ATOM     22  N   UNL A   1      35.065  31.171  27.333  1.00  0.00    -0.352 N 
ATOM     23  C   UNL A   1      36.250  31.219  28.035  1.00  0.00     0.251 C 
ATOM     24  H   UNL A   1      34.906  31.943  26.742  1.00  0.00     0.163 HD
ATOM     25  O   UNL A   1      36.642  32.332  28.411  1.00  0.00    -0.269 OA
BRANCH  23  26
ATOM     26  C   UNL A   1      37.070  30.012  28.246  1.00  0.00     0.039 A 
ATOM     27  C   UNL A   1      36.990  29.250  29.418  1.00  0.00     0.014 A 
ATOM     28  C   UNL A   1      38.112  29.766  27.366  1.00  0.00     0.014 A 
ATOM     29  C   UNL A   1      38.074  28.443  29.766  1.00  0.00     0.010 A 
ATOM     30  C   UNL A   1      38.965  28.731  27.531  1.00  0.00     0.010 A 
ATOM     31  C   UNL A   1      39.094  28.296  28.836  1.00  0.00    -0.014 A 
BRANCH  31  32
ATOM     32  C   UNL A   1      40.460  27.892  29.085  1.00  0.00     0.031 A 
ATOM     33  C   UNL A   1      40.823  26.504  28.852  1.00  0.00     0.074 A 
ATOM     34  C   UNL A   1      41.357  28.910  29.068  1.00  0.00     0.049 A 
ATOM     35  N   UNL A   1      41.994  26.033  29.078  1.00  0.00    -0.248 NA
ATOM     36  C   UNL A   1      39.870  25.514  28.356  1.00  0.00     0.031 C 
ATOM     37  C   UNL A   1      42.723  28.921  28.558  1.00  0.00     0.029 A 
ATOM     38  N   UNL A   1      41.179  30.224  29.472  1.00  0.00    -0.354 N 
ATOM     39  C   UNL A   1      42.048  24.839  28.403  1.00  0.00     0.074 A 
ATOM     40  C   UNL A   1      40.675  24.460  28.195  1.00  0.00     0.031 C 
ATOM     41  C   UNL A   1      43.314  30.084  28.902  1.00  0.00     0.029 A 
ATOM     42  C   UNL A   1      42.412  30.776  29.809  1.00  0.00     0.049 A 
ATOM     43  H   UNL A   1      40.315  30.694  29.516  1.00  0.00     0.167 HD
ATOM     44  C   UNL A   1      43.249  24.448  27.902  1.00  0.00     0.034 A 
ATOM     45  C   UNL A   1      42.675  31.016  31.136  1.00  0.00     0.034 A 
ATOM     46  C   UNL A   1      44.329  25.315  28.420  1.00  0.00     0.049 A 
ATOM     47  C   UNL A   1      43.674  30.024  31.721  1.00  0.00     0.074 A 
ATOM     48  C   UNL A   1      45.122  26.299  27.855  1.00  0.00     0.029 A 
ATOM     49  N   UNL A   1      44.477  25.454  29.802  1.00  0.00    -0.354 N 
ATOM     50  N   UNL A   1      44.188  29.017  31.067  1.00  0.00    -0.248 NA
ATOM     51  C   UNL A   1      44.193  30.101  33.083  1.00  0.00     0.031 C 
ATOM     52  C   UNL A   1      45.626  27.118  28.914  1.00  0.00     0.029 A 
ATOM     53  C   UNL A   1      45.188  26.603  30.125  1.00  0.00     0.049 A 
ATOM     54  H   UNL A   1      44.121  24.819  30.464  1.00  0.00     0.167 HD
ATOM     55  C   UNL A   1      44.928  28.228  31.903  1.00  0.00     0.074 A 
ATOM     56  C   UNL A   1      44.987  29.016  33.127  1.00  0.00     0.031 C 
ATOM     57  C   UNL A   1      45.372  26.981  31.534  1.00  0.00     0.034 A 
BRANCH  44  58
ATOM     58  C   UNL A   1      43.437  23.433  26.785  1.00  0.00     0.023 A 
ATOM     59  C   UNL A   1      44.069  23.893  25.611  1.00  0.00     0.012 A 
ATOM     60  C   UNL A   1      42.980  22.086  26.754  1.00  0.00     0.148 A 
ATOM     61  C   UNL A   1      44.245  23.077  24.484  1.00  0.00     0.002 A 
ATOM     62  C   UNL A   1      43.226  21.250  25.660  1.00  0.00     0.091 A 
ATOM     63  F   UNL A   1      42.205  21.609  27.728  1.00  0.00    -0.205 F 
ATOM     64  C   UNL A   1      43.845  21.749  24.516  1.00  0.00     0.022 A 
BRANCH  62  65
ATOM     65  S   UNL A   1      42.782  19.499  25.659  1.00  0.00     0.127 S 
ATOM     66  O   UNL A   1      43.245  19.063  26.977  1.00  0.00    -0.237 OA
ATOM     67  O   UNL A   1      41.328  19.545  25.510  1.00  0.00    -0.237 OA
ATOM     68  O   UNL A   1      43.482  18.898  24.530  1.00  0.00    -0.744 OA
ENDBRANCH  62  65
ENDBRANCH  44  58
BRANCH  45  69
ATOM     69  C   UNL A   1      41.457  31.571  31.830  1.00  0.00     0.023 A 
ATOM     70  C   UNL A   1      40.924  32.770  31.289  1.00  0.00     0.012 A 
ATOM     71  C   UNL A   1      40.606  30.739  32.579  1.00  0.00     0.148 A 
ATOM     72  C   UNL A   1      39.548  33.016  31.304  1.00  0.00     0.002 A 
ATOM     73  C   UNL A   1      39.233  30.997  32.600  1.00  0.00     0.091 A 
ATOM     74  F   UNL A   1      41.129  29.673  33.201  1.00  0.00    -0.205 F 
ATOM     75  C   UNL A   1      38.698  32.100  31.914  1.00  0.00     0.022 A 
BRANCH  73  76
ATOM     76  S   UNL A   1      38.092  29.863  33.405  1.00  0.00     0.127 S 
ATOM     77  O   UNL A   1      38.277  30.210  34.811  1.00  0.00    -0.237 OA
ATOM     78  O   UNL A   1      36.794  30.250  32.853  1.00  0.00    -0.237 OA
ATOM     79  O   UNL A   1      38.536  28.536  33.005  1.00  0.00    -0.744 OA
ENDBRANCH  73  76
ENDBRANCH  45  69
BRANCH  57  80
ATOM     80  C   UNL A   1      46.006  25.969  32.482  1.00  0.00     0.023 A 
ATOM     81  C   UNL A   1      47.385  25.949  32.769  1.00  0.00     0.012 A 
ATOM     82  C   UNL A   1      45.201  25.065  33.227  1.00  0.00     0.148 A 
ATOM     83  C   UNL A   1      47.949  25.036  33.667  1.00  0.00     0.002 A 
ATOM     84  C   UNL A   1      45.747  24.259  34.222  1.00  0.00     0.091 A 
ATOM     85  F   UNL A   1      43.892  24.954  32.961  1.00  0.00    -0.205 F 
ATOM     86  C   UNL A   1      47.127  24.207  34.413  1.00  0.00     0.022 A 
BRANCH  84  87
ATOM     87  S   UNL A   1      44.698  23.397  35.400  1.00  0.00     0.127 S 
ATOM     88  O   UNL A   1      45.640  23.077  36.469  1.00  0.00    -0.237 OA
ATOM     89  O   UNL A   1      43.710  24.421  35.746  1.00  0.00    -0.237 OA
ATOM     90  O   UNL A   1      44.147  22.264  34.667  1.00  0.00    -0.744 OA
ENDBRANCH  84  87
ENDBRANCH  57  80
ENDBRANCH  31  32
ENDBRANCH  23  26
ENDBRANCH  21  22
ENDBRANCH   1  21
TORSDOF 15
ENDMDL
MODEL 2
REMARK VINA RESULT:     -11.6      2.853      3.756
REMARK SMILES Cc1cccc(-c2cc(C(=O)NCCCCNC(=O)c3ccc(-c4c5nc(c(-c6cccc(S(=O)(=O)[O-])c6F)c6ccc([nH]6)c(-c6cccc(S(=O)(=O)[O-])c6F)c6nc(c(-c7cccc(S(=O)(=O)[O-])c7F)c7ccc4[nH]7)C=C6)C=C5)cc3)ccn2)c1
REMARK SMILES IDX 15 1 14 2 13 3 12 4 10 5 11 6 9 8 7 9 8 10 85 11 84 12 83 13
REMARK SMILES IDX 6 14 1 15 2 16 3 17 86 18 4 19 5 20 16 21 17 22 18 23 19 25
REMARK SMILES IDX 20 26 21 27 82 28 22 29 81 30 23 31 24 32 25 33 75 34 26 35
REMARK SMILES IDX 80 36 74 37 76 38 27 39 79 40 73 41 72 42 28 44 60 45 40 46
REMARK SMILES IDX 59 47 41 48 44 49 58 50 77 51 42 52 43 53 57 55 78 56 45 57
REMARK SMILES IDX 29 58 30 59 38 60 31 61 33 62 39 63 32 64 34 65 35 66 36 67
REMARK SMILES IDX 37 68 61 69 62 70 70 71 63 72 65 73 71 74 64 75 66 76 67 77
REMARK SMILES IDX 68 78 69 79 46 80 47 81 55 82 48 83 50 84 56 85 49 86 51 87
REMARK SMILES IDX 52 88 53 89 54 90
REMARK H PARENT 12 7 17 24 76 43 44 54
REMARK Flexibility Score: inf
ROOT
ATOM      1  C   UNL A   1      33.723  29.396  26.743  1.00  0.00     0.023 C 
ENDROOT
BRANCH   1   2
ATOM      2  C   UNL A   1      32.797  28.298  27.299  1.00  0.00     0.023 C 
BRANCH   2   3
ATOM      3  C   UNL A   1      31.920  27.565  26.272  1.00  0.00     0.116 C 
BRANCH   3   4
ATOM      4  N   UNL A   1      31.358  26.336  26.807  1.00  0.00    -0.352 N 
ATOM      5  C   UNL A   1      31.485  25.004  26.503  1.00  0.00     0.251 C 
ATOM      6  O   UNL A   1      30.807  24.216  27.167  1.00  0.00    -0.269 OA
ATOM      7  H   UNL A   1      30.745  26.496  27.560  1.00  0.00     0.163 HD
BRANCH   5   8
ATOM      8  C   UNL A   1      32.393  24.441  25.463  1.00  0.00     0.043 A 
ATOM      9  C   UNL A   1      34.452  23.505  24.643  1.00  0.00     0.071 A 
ATOM     10  C   UNL A   1      33.727  24.128  25.658  1.00  0.00     0.042 A 
ATOM     11  N   UNL A   1      33.943  23.274  23.415  1.00  0.00    -0.256 NA
ATOM     12  C   UNL A   1      32.655  23.629  23.219  1.00  0.00     0.112 A 
ATOM     13  C   UNL A   1      31.850  24.190  24.198  1.00  0.00     0.034 A 
BRANCH   9  14
ATOM     14  C   UNL A   1      35.798  23.008  24.934  1.00  0.00     0.000 A 
ATOM     15  C   UNL A   1      37.654  19.669  24.752  1.00  0.00     0.044 C 
ATOM     16  C   UNL A   1      37.341  21.108  25.040  1.00  0.00    -0.050 A 
ATOM     17  C   UNL A   1      38.263  21.912  25.717  1.00  0.00     0.003 A 
ATOM     18  C   UNL A   1      36.121  21.666  24.648  1.00  0.00     0.013 A 
ATOM     19  C   UNL A   1      37.972  23.252  25.983  1.00  0.00     0.001 A 
ATOM     20  C   UNL A   1      36.748  23.800  25.589  1.00  0.00     0.010 A 
ENDBRANCH   9  14
ENDBRANCH   5   8
ENDBRANCH   3   4
ENDBRANCH   2   3
ENDBRANCH   1   2
BRANCH   1  21
ATOM     21  C   UNL A   1      34.583  30.123  27.767  1.00  0.00     0.116 C 
BRANCH  21  22
ATOM     22  N   UNL A   1      34.288  31.556  27.811  1.00  0.00    -0.352 N 
ATOM     23  C   UNL A   1      34.599  32.509  28.757  1.00  0.00     0.251 C 
ATOM     24  H   UNL A   1      33.783  31.896  27.037  1.00  0.00     0.163 HD
ATOM     25  O   UNL A   1      33.772  33.410  28.950  1.00  0.00    -0.269 OA
BRANCH  23  26
ATOM     26  C   UNL A   1      35.906  32.517  29.441  1.00  0.00     0.039 A 
ATOM     27  C   UNL A   1      37.049  33.082  28.860  1.00  0.00     0.014 A 
ATOM     28  C   UNL A   1      36.056  31.738  30.578  1.00  0.00     0.014 A 
ATOM     29  C   UNL A   1      38.302  32.657  29.303  1.00  0.00     0.010 A 
ATOM     30  C   UNL A   1      37.240  31.622  31.219  1.00  0.00     0.010 A 
ATOM     31  C   UNL A   1      38.348  31.838  30.423  1.00  0.00    -0.014 A 
BRANCH  31  32
ATOM     32  C   UNL A   1      39.417  30.949  30.819  1.00  0.00     0.031 A 
ATOM     33  C   UNL A   1      39.487  29.634  30.204  1.00  0.00     0.074 A 
ATOM     34  C   UNL A   1      40.491  31.575  31.366  1.00  0.00     0.049 A 
ATOM     35  N   UNL A   1      40.371  28.757  30.512  1.00  0.00    -0.248 NA
ATOM     36  C   UNL A   1      38.536  29.189  29.189  1.00  0.00     0.031 C 
ATOM     37  C   UNL A   1      41.908  31.263  31.219  1.00  0.00     0.029 A 
ATOM     38  N   UNL A   1      40.517  32.716  32.153  1.00  0.00    -0.354 N 
ATOM     39  C   UNL A   1      40.349  27.838  29.493  1.00  0.00     0.074 A 
ATOM     40  C   UNL A   1      39.069  28.010  28.858  1.00  0.00     0.031 C 
ATOM     41  C   UNL A   1      42.619  32.026  32.074  1.00  0.00     0.029 A 
ATOM     42  C   UNL A   1      41.670  32.713  32.935  1.00  0.00     0.049 A 
ATOM     43  H   UNL A   1      39.827  33.418  32.160  1.00  0.00     0.167 HD
ATOM     44  C   UNL A   1      41.514  27.216  29.175  1.00  0.00     0.034 A 
ATOM     45  C   UNL A   1      41.538  32.491  34.283  1.00  0.00     0.034 A 
ATOM     46  C   UNL A   1      42.544  27.501  30.196  1.00  0.00     0.049 A 
ATOM     47  C   UNL A   1      42.021  31.105  34.696  1.00  0.00     0.074 A 
ATOM     48  C   UNL A   1      43.692  28.276  30.209  1.00  0.00     0.029 A 
ATOM     49  N   UNL A   1      42.265  27.211  31.534  1.00  0.00    -0.354 N 
ATOM     50  N   UNL A   1      42.458  30.195  33.866  1.00  0.00    -0.248 NA
ATOM     51  C   UNL A   1      42.073  30.640  36.078  1.00  0.00     0.031 C 
ATOM     52  C   UNL A   1      44.008  28.568  31.573  1.00  0.00     0.029 A 
ATOM     53  C   UNL A   1      43.091  27.927  32.393  1.00  0.00     0.049 A 
ATOM     54  H   UNL A   1      41.571  26.581  31.832  1.00  0.00     0.167 HD
ATOM     55  C   UNL A   1      42.672  29.013  34.518  1.00  0.00     0.074 A 
ATOM     56  C   UNL A   1      42.521  29.381  35.919  1.00  0.00     0.031 C 
ATOM     57  C   UNL A   1      42.894  27.834  33.847  1.00  0.00     0.034 A 
BRANCH  44  58
ATOM     58  C   UNL A   1      41.801  26.530  27.848  1.00  0.00     0.023 A 
ATOM     59  C   UNL A   1      41.745  27.337  26.693  1.00  0.00     0.012 A 
ATOM     60  C   UNL A   1      42.044  25.147  27.623  1.00  0.00     0.148 A 
ATOM     61  C   UNL A   1      41.925  26.817  25.404  1.00  0.00     0.002 A 
ATOM     62  C   UNL A   1      42.302  24.641  26.345  1.00  0.00     0.091 A 
ATOM     63  F   UNL A   1      41.928  24.266  28.618  1.00  0.00    -0.205 F 
ATOM     64  C   UNL A   1      42.226  25.474  25.230  1.00  0.00     0.022 A 
BRANCH  62  65
ATOM     65  S   UNL A   1      42.755  22.918  26.056  1.00  0.00     0.127 S 
ATOM     66  O   UNL A   1      41.533  22.210  26.436  1.00  0.00    -0.237 OA
ATOM     67  O   UNL A   1      43.044  22.906  24.623  1.00  0.00    -0.237 OA
ATOM     68  O   UNL A   1      43.912  22.650  26.902  1.00  0.00    -0.744 OA
ENDBRANCH  62  65
ENDBRANCH  44  58
BRANCH  45  69
ATOM     69  C   UNL A   1      40.335  33.216  34.830  1.00  0.00     0.023 A 
ATOM     70  C   UNL A   1      39.101  32.519  34.752  1.00  0.00     0.012 A 
ATOM     71  C   UNL A   1      40.473  34.227  35.798  1.00  0.00     0.148 A 
ATOM     72  C   UNL A   1      38.127  32.669  35.743  1.00  0.00     0.002 A 
ATOM     73  C   UNL A   1      39.490  34.379  36.780  1.00  0.00     0.091 A 
ATOM     74  F   UNL A   1      41.584  34.975  35.795  1.00  0.00    -0.205 F 
ATOM     75  C   UNL A   1      38.348  33.561  36.787  1.00  0.00     0.022 A 
BRANCH  73  76
ATOM     76  S   UNL A   1      39.709  35.543  38.133  1.00  0.00     0.127 S 
ATOM     77  O   UNL A   1      38.573  35.214  38.990  1.00  0.00    -0.237 OA
ATOM     78  O   UNL A   1      41.011  35.169  38.686  1.00  0.00    -0.237 OA
ATOM     79  O   UNL A   1      39.685  36.857  37.507  1.00  0.00    -0.744 OA
ENDBRANCH  73  76
ENDBRANCH  45  69
BRANCH  57  80
ATOM     80  C   UNL A   1      42.921  26.456  34.498  1.00  0.00     0.023 A 
ATOM     81  C   UNL A   1      41.857  25.955  35.274  1.00  0.00     0.012 A 
ATOM     82  C   UNL A   1      43.987  25.551  34.242  1.00  0.00     0.148 A 
ATOM     83  C   UNL A   1      41.881  24.674  35.838  1.00  0.00     0.002 A 
ATOM     84  C   UNL A   1      43.939  24.232  34.686  1.00  0.00     0.091 A 
ATOM     85  F   UNL A   1      45.080  25.966  33.587  1.00  0.00    -0.205 F 
ATOM     86  C   UNL A   1      42.911  23.802  35.524  1.00  0.00     0.022 A 
BRANCH  84  87
ATOM     87  S   UNL A   1      45.092  23.000  34.063  1.00  0.00     0.127 S 
ATOM     88  O   UNL A   1      44.607  21.780  34.703  1.00  0.00    -0.237 OA
ATOM     89  O   UNL A   1      44.864  23.062  32.618  1.00  0.00    -0.237 OA
ATOM     90  O   UNL A   1      46.410  23.463  34.478  1.00  0.00    -0.744 OA
ENDBRANCH  84  87
ENDBRANCH  57  80
ENDBRANCH  31  32
ENDBRANCH  23  26
ENDBRANCH  21  22
ENDBRANCH   1  21
TORSDOF 15
ENDMDL
MODEL 3
REMARK VINA RESULT:     -11.5      3.822      9.323
REMARK SMILES Cc1cccc(-c2cc(C(=O)NCCCCNC(=O)c3ccc(-c4c5nc(c(-c6cccc(S(=O)(=O)[O-])c6F)c6ccc([nH]6)c(-c6cccc(S(=O)(=O)[O-])c6F)c6nc(c(-c7cccc(S(=O)(=O)[O-])c7F)c7ccc4[nH]7)C=C6)C=C5)cc3)ccn2)c1
REMARK SMILES IDX 15 1 14 2 13 3 12 4 10 5 11 6 9 8 7 9 8 10 85 11 84 12 83 13
REMARK SMILES IDX 6 14 1 15 2 16 3 17 86 18 4 19 5 20 16 21 17 22 18 23 19 25
REMARK SMILES IDX 20 26 21 27 82 28 22 29 81 30 23 31 24 32 25 33 75 34 26 35
REMARK SMILES IDX 80 36 74 37 76 38 27 39 79 40 73 41 72 42 28 44 60 45 40 46
REMARK SMILES IDX 59 47 41 48 44 49 58 50 77 51 42 52 43 53 57 55 78 56 45 57
REMARK SMILES IDX 29 58 30 59 38 60 31 61 33 62 39 63 32 64 34 65 35 66 36 67
REMARK SMILES IDX 37 68 61 69 62 70 70 71 63 72 65 73 71 74 64 75 66 76 67 77
REMARK SMILES IDX 68 78 69 79 46 80 47 81 55 82 48 83 50 84 56 85 49 86 51 87
REMARK SMILES IDX 52 88 53 89 54 90
REMARK H PARENT 12 7 17 24 76 43 44 54
REMARK Flexibility Score: inf
ROOT
ATOM      1  C   UNL A   1      39.559  21.293  25.942  1.00  0.00     0.023 C 
ENDROOT
BRANCH   1   2
ATOM      2  C   UNL A   1      38.507  22.417  25.989  1.00  0.00     0.023 C 
BRANCH   2   3
ATOM      3  C   UNL A   1      37.213  22.169  25.199  1.00  0.00     0.116 C 
BRANCH   3   4
ATOM      4  N   UNL A   1      36.151  21.641  26.038  1.00  0.00    -0.352 N 
ATOM      5  C   UNL A   1      34.847  21.992  26.281  1.00  0.00     0.251 C 
ATOM      6  O   UNL A   1      34.234  21.314  27.110  1.00  0.00    -0.269 OA
ATOM      7  H   UNL A   1      36.431  20.849  26.551  1.00  0.00     0.163 HD
BRANCH   5   8
ATOM      8  C   UNL A   1      34.113  23.100  25.605  1.00  0.00     0.043 A 
ATOM      9  C   UNL A   1      33.128  25.290  25.456  1.00  0.00     0.071 A 
ATOM     10  C   UNL A   1      33.713  24.277  26.214  1.00  0.00     0.042 A 
ATOM     11  N   UNL A   1      32.831  25.147  24.148  1.00  0.00    -0.256 NA
ATOM     12  C   UNL A   1      33.179  23.976  23.574  1.00  0.00     0.112 A 
ATOM     13  C   UNL A   1      33.824  22.948  24.244  1.00  0.00     0.034 A 
BRANCH   9  14
ATOM     14  C   UNL A   1      32.891  26.595  26.077  1.00  0.00     0.000 A 
ATOM     15  C   UNL A   1      34.985  29.609  27.152  1.00  0.00     0.044 C 
ATOM     16  C   UNL A   1      33.821  28.683  26.959  1.00  0.00    -0.050 A 
ATOM     17  C   UNL A   1      32.571  28.993  27.504  1.00  0.00     0.003 A 
ATOM     18  C   UNL A   1      33.967  27.490  26.245  1.00  0.00     0.013 A 
ATOM     19  C   UNL A   1      31.487  28.131  27.323  1.00  0.00     0.001 A 
ATOM     20  C   UNL A   1      31.644  26.940  26.608  1.00  0.00     0.010 A 
ENDBRANCH   9  14
ENDBRANCH   5   8
ENDBRANCH   3   4
ENDBRANCH   2   3
ENDBRANCH   1   2
BRANCH   1  21
ATOM     21  C   UNL A   1      40.411  21.126  27.192  1.00  0.00     0.116 C 
BRANCH  21  22
ATOM     22  N   UNL A   1      41.788  21.576  26.980  1.00  0.00    -0.352 N 
ATOM     23  C   UNL A   1      42.278  22.762  26.477  1.00  0.00     0.251 C 
ATOM     24  H   UNL A   1      42.478  20.925  27.242  1.00  0.00     0.163 HD
ATOM     25  O   UNL A   1      43.314  22.707  25.800  1.00  0.00    -0.269 OA
BRANCH  23  26
ATOM     26  C   UNL A   1      41.656  24.057  26.811  1.00  0.00     0.039 A 
ATOM     27  C   UNL A   1      41.548  25.096  25.878  1.00  0.00     0.014 A 
ATOM     28  C   UNL A   1      41.389  24.332  28.143  1.00  0.00     0.014 A 
ATOM     29  C   UNL A   1      41.405  26.402  26.347  1.00  0.00     0.010 A 
ATOM     30  C   UNL A   1      40.897  25.524  28.547  1.00  0.00     0.010 A 
ATOM     31  C   UNL A   1      41.190  26.580  27.707  1.00  0.00    -0.014 A 
BRANCH  31  32
ATOM     32  C   UNL A   1      41.425  27.776  28.486  1.00  0.00     0.031 A 
ATOM     33  C   UNL A   1      40.470  28.867  28.383  1.00  0.00     0.074 A 
ATOM     34  C   UNL A   1      42.236  27.594  29.560  1.00  0.00     0.049 A 
ATOM     35  N   UNL A   1      40.605  29.983  29.000  1.00  0.00    -0.248 NA
ATOM     36  C   UNL A   1      39.277  28.791  27.544  1.00  0.00     0.031 C 
ATOM     37  C   UNL A   1      42.154  28.197  30.885  1.00  0.00     0.029 A 
ATOM     38  N   UNL A   1      43.315  26.733  29.690  1.00  0.00    -0.354 N 
ATOM     39  C   UNL A   1      39.369  30.579  28.958  1.00  0.00     0.074 A 
ATOM     40  C   UNL A   1      38.679  29.941  27.867  1.00  0.00     0.031 C 
ATOM     41  C   UNL A   1      43.262  27.876  31.585  1.00  0.00     0.029 A 
ATOM     42  C   UNL A   1      44.179  27.217  30.669  1.00  0.00     0.049 A 
ATOM     43  H   UNL A   1      43.450  25.907  29.170  1.00  0.00     0.167 HD
ATOM     44  C   UNL A   1      39.009  31.367  30.005  1.00  0.00     0.034 A 
ATOM     45  C   UNL A   1      45.386  27.735  30.269  1.00  0.00     0.034 A 
ATOM     46  C   UNL A   1      40.171  31.613  30.885  1.00  0.00     0.049 A 
ATOM     47  C   UNL A   1      45.433  29.256  30.377  1.00  0.00     0.074 A 
ATOM     48  C   UNL A   1      40.524  31.175  32.150  1.00  0.00     0.029 A 
ATOM     49  N   UNL A   1      41.334  32.155  30.332  1.00  0.00    -0.354 N 
ATOM     50  N   UNL A   1      44.428  30.004  30.747  1.00  0.00    -0.248 NA
ATOM     51  C   UNL A   1      46.623  30.054  30.098  1.00  0.00     0.031 C 
ATOM     52  C   UNL A   1      41.940  31.326  32.287  1.00  0.00     0.029 A 
ATOM     53  C   UNL A   1      42.442  31.907  31.132  1.00  0.00     0.049 A 
ATOM     54  H   UNL A   1      41.364  32.650  29.482  1.00  0.00     0.167 HD
ATOM     55  C   UNL A   1      44.733  31.328  30.598  1.00  0.00     0.074 A 
ATOM     56  C   UNL A   1      46.157  31.301  30.294  1.00  0.00     0.031 C 
ATOM     57  C   UNL A   1      43.780  32.314  30.679  1.00  0.00     0.034 A 
BRANCH  44  58
ATOM     58  C   UNL A   1      37.579  31.742  30.361  1.00  0.00     0.023 A 
ATOM     59  C   UNL A   1      37.081  31.247  31.584  1.00  0.00     0.012 A 
ATOM     60  C   UNL A   1      36.652  32.473  29.567  1.00  0.00     0.148 A 
ATOM     61  C   UNL A   1      35.760  31.465  32.000  1.00  0.00     0.002 A 
ATOM     62  C   UNL A   1      35.359  32.757  30.017  1.00  0.00     0.091 A 
ATOM     63  F   UNL A   1      36.955  32.820  28.316  1.00  0.00    -0.205 F 
ATOM     64  C   UNL A   1      34.905  32.239  31.228  1.00  0.00     0.022 A 
BRANCH  62  65
ATOM     65  S   UNL A   1      34.218  33.804  29.090  1.00  0.00     0.127 S 
ATOM     66  O   UNL A   1      33.638  32.860  28.135  1.00  0.00    -0.237 OA
ATOM     67  O   UNL A   1      33.295  34.259  30.130  1.00  0.00    -0.237 OA
ATOM     68  O   UNL A   1      35.022  34.866  28.497  1.00  0.00    -0.744 OA
ENDBRANCH  62  65
ENDBRANCH  44  58
BRANCH  45  69
ATOM     69  C   UNL A   1      45.989  26.899  29.169  1.00  0.00     0.023 A 
ATOM     70  C   UNL A   1      46.297  25.556  29.506  1.00  0.00     0.012 A 
ATOM     71  C   UNL A   1      45.777  27.218  27.815  1.00  0.00     0.148 A 
ATOM     72  C   UNL A   1      46.177  24.532  28.561  1.00  0.00     0.002 A 
ATOM     73  C   UNL A   1      45.670  26.191  26.874  1.00  0.00     0.091 A 
ATOM     74  F   UNL A   1      45.613  28.503  27.474  1.00  0.00    -0.205 F 
ATOM     75  C   UNL A   1      45.810  24.847  27.257  1.00  0.00     0.022 A 
BRANCH  73  76
ATOM     76  S   UNL A   1      45.232  26.546  25.166  1.00  0.00     0.127 S 
ATOM     77  O   UNL A   1      44.325  27.680  25.326  1.00  0.00    -0.237 OA
ATOM     78  O   UNL A   1      46.517  26.883  24.556  1.00  0.00    -0.237 OA
ATOM     79  O   UNL A   1      44.641  25.314  24.666  1.00  0.00    -0.744 OA
ENDBRANCH  73  76
ENDBRANCH  45  69
BRANCH  57  80
ATOM     80  C   UNL A   1      44.009  33.776  30.308  1.00  0.00     0.023 A 
ATOM     81  C   UNL A   1      44.450  34.740  31.236  1.00  0.00     0.012 A 
ATOM     82  C   UNL A   1      43.906  34.209  28.959  1.00  0.00     0.148 A 
ATOM     83  C   UNL A   1      44.688  36.071  30.874  1.00  0.00     0.002 A 
ATOM     84  C   UNL A   1      44.282  35.495  28.580  1.00  0.00     0.091 A 
ATOM     85  F   UNL A   1      43.413  33.385  28.023  1.00  0.00    -0.205 F 
ATOM     86  C   UNL A   1      44.629  36.444  29.541  1.00  0.00     0.022 A 
BRANCH  84  87
ATOM     87  S   UNL A   1      44.500  35.928  26.848  1.00  0.00     0.127 S 
ATOM     88  O   UNL A   1      44.917  37.324  26.934  1.00  0.00    -0.237 OA
ATOM     89  O   UNL A   1      45.554  35.002  26.426  1.00  0.00    -0.237 OA
ATOM     90  O   UNL A   1      43.207  35.679  26.225  1.00  0.00    -0.744 OA
ENDBRANCH  84  87
ENDBRANCH  57  80
ENDBRANCH  31  32
ENDBRANCH  23  26
ENDBRANCH  21  22
ENDBRANCH   1  21
TORSDOF 15
ENDMDL
