MODEL 1
REMARK VINA RESULT:     -12.1      0.000      0.000
REMARK SMILES C[C@@H](C(=O)NCCCCNC(=O)c1ccc(-c2c3nc(c(-c4cccc(S(=O)(=O)[O-])c4F)c4ccc([nH]4)c(-c4cccc(S(=O)(=O)[O-])c4F)c4nc(c(-c5cccc(S(=O)(=O)[O-])c5F)c5ccc2[nH]5)C=C4)C=C3)cc1)c1ccc(C[C@@H]2CCC[C@@H]2O)cc1F
REMARK SMILES IDX 7 1 6 2 5 3 3 4 4 5 2 7 1 8 76 9 77 10 88 11 78 12 87 13
REMARK SMILES IDX 89 14 79 15 80 16 81 17 82 18 85 19 83 20 84 21 86 22 8 24
REMARK SMILES IDX 9 25 10 26 11 27 12 29 13 30 14 31 75 32 15 33 74 34 16 35
REMARK SMILES IDX 17 36 18 37 68 38 19 39 73 40 67 41 69 42 20 43 72 44 66 45
REMARK SMILES IDX 65 46 21 48 53 49 33 50 52 51 34 52 37 53 51 54 70 55 35 56
REMARK SMILES IDX 36 57 50 59 71 60 38 61 22 62 23 63 31 64 24 65 26 66 32 67
REMARK SMILES IDX 25 68 27 69 28 70 29 71 30 72 54 73 55 74 63 75 56 76 58 77
REMARK SMILES IDX 64 78 57 79 59 80 60 81 61 82 62 83 39 84 40 85 48 86 41 87
REMARK SMILES IDX 43 88 49 89 42 90 44 91 45 92 46 93 47 94
REMARK H PARENT 5 6 86 23 10 28 69 47 37 58
REMARK Flexibility Score: inf
ROOT
ATOM      1  C   UNL A   1      32.046  28.459  27.189  1.00  0.00     0.023 C 
ENDROOT
BRANCH   1   2
ATOM      2  C   UNL A   1      31.437  27.248  26.481  1.00  0.00     0.116 C 
BRANCH   2   3
ATOM      3  N   UNL A   1      30.955  27.570  25.154  1.00  0.00    -0.356 N 
ATOM      4  C   UNL A   1      31.629  27.715  23.975  1.00  0.00     0.227 C 
ATOM      5  O   UNL A   1      30.939  27.820  22.958  1.00  0.00    -0.274 OA
ATOM      6  H   UNL A   1      29.982  27.705  25.092  1.00  0.00     0.163 HD
BRANCH   4   7
ATOM      7  C   UNL A   1      33.166  27.653  23.946  1.00  0.00     0.108 C 
ATOM      8  C   UNL A   1      33.786  28.358  22.734  1.00  0.00     0.023 C 
BRANCH   7   9
ATOM      9  C   UNL A   1      33.706  26.229  23.990  1.00  0.00    -0.000 A 
ATOM     10  C   UNL A   1      33.540  25.371  22.894  1.00  0.00     0.008 A 
ATOM     11  C   UNL A   1      34.308  25.715  25.144  1.00  0.00     0.127 A 
ATOM     12  C   UNL A   1      33.911  24.026  22.985  1.00  0.00     0.004 A 
ATOM     13  C   UNL A   1      34.694  24.381  25.232  1.00  0.00     0.043 A 
ATOM     14  F   UNL A   1      34.461  26.489  26.228  1.00  0.00    -0.207 F 
ATOM     15  C   UNL A   1      34.446  23.506  24.170  1.00  0.00    -0.045 A 
BRANCH  15  16
ATOM     16  C   UNL A   1      34.718  22.030  24.326  1.00  0.00     0.041 C 
BRANCH  16  17
ATOM     17  C   UNL A   1      33.651  21.176  25.049  1.00  0.00     0.022 C 
ATOM     18  C   UNL A   1      32.198  21.499  24.682  1.00  0.00     0.007 C 
ATOM     19  C   UNL A   1      33.617  21.219  26.581  1.00  0.00     0.117 C 
ATOM     20  C   UNL A   1      31.640  22.375  25.809  1.00  0.00     0.003 C 
ATOM     21  C   UNL A   1      32.676  22.368  26.926  1.00  0.00     0.032 C 
BRANCH  19  22
ATOM     22  O   UNL A   1      34.892  21.322  27.175  1.00  0.00    -0.393 OA
ATOM     23  H   UNL A   1      35.535  20.819  26.652  1.00  0.00     0.210 HD
ENDBRANCH  19  22
ENDBRANCH  16  17
ENDBRANCH  15  16
ENDBRANCH   7   9
ENDBRANCH   4   7
ENDBRANCH   2   3
ENDBRANCH   1   2
BRANCH   1  24
ATOM     24  C   UNL A   1      31.450  29.813  26.793  1.00  0.00     0.023 C 
BRANCH  24  25
ATOM     25  C   UNL A   1      32.429  30.822  26.203  1.00  0.00     0.116 C 
BRANCH  25  26
ATOM     26  N   UNL A   1      32.245  32.170  26.722  1.00  0.00    -0.352 N 
ATOM     27  C   UNL A   1      33.065  32.898  27.552  1.00  0.00     0.251 C 
ATOM     28  H   UNL A   1      31.418  32.623  26.441  1.00  0.00     0.163 HD
ATOM     29  O   UNL A   1      32.694  33.989  27.978  1.00  0.00    -0.269 OA
BRANCH  27  30
ATOM     30  C   UNL A   1      34.375  32.347  27.959  1.00  0.00     0.039 A 
ATOM     31  C   UNL A   1      35.465  33.214  28.070  1.00  0.00     0.014 A 
ATOM     32  C   UNL A   1      34.515  30.992  28.273  1.00  0.00     0.014 A 
ATOM     33  C   UNL A   1      36.675  32.741  28.586  1.00  0.00     0.010 A 
ATOM     34  C   UNL A   1      35.703  30.536  28.841  1.00  0.00     0.010 A 
ATOM     35  C   UNL A   1      36.786  31.410  29.022  1.00  0.00    -0.014 A 
BRANCH  35  36
ATOM     36  C   UNL A   1      37.991  30.934  29.751  1.00  0.00     0.031 A 
ATOM     37  C   UNL A   1      38.895  29.897  29.146  1.00  0.00     0.074 A 
ATOM     38  C   UNL A   1      38.196  31.350  31.018  1.00  0.00     0.049 A 
ATOM     39  N   UNL A   1      39.935  29.305  29.674  1.00  0.00    -0.248 NA
ATOM     40  C   UNL A   1      38.580  29.449  27.779  1.00  0.00     0.031 C 
ATOM     41  C   UNL A   1      37.338  32.286  31.749  1.00  0.00     0.029 A 
ATOM     42  N   UNL A   1      39.163  31.009  31.930  1.00  0.00    -0.354 N 
ATOM     43  C   UNL A   1      40.376  28.390  28.726  1.00  0.00     0.074 A 
ATOM     44  C   UNL A   1      39.482  28.494  27.593  1.00  0.00     0.031 C 
ATOM     45  C   UNL A   1      37.806  32.430  32.999  1.00  0.00     0.029 A 
ATOM     46  C   UNL A   1      38.979  31.579  33.169  1.00  0.00     0.049 A 
ATOM     47  H   UNL A   1      39.918  30.413  31.718  1.00  0.00     0.167 HD
ATOM     48  C   UNL A   1      41.442  27.558  28.788  1.00  0.00     0.034 A 
ATOM     49  C   UNL A   1      39.662  31.421  34.321  1.00  0.00     0.034 A 
ATOM     50  C   UNL A   1      42.360  27.497  29.893  1.00  0.00     0.049 A 
ATOM     51  C   UNL A   1      40.862  30.514  34.342  1.00  0.00     0.074 A 
ATOM     52  C   UNL A   1      43.541  26.783  29.988  1.00  0.00     0.029 A 
ATOM     53  N   UNL A   1      42.194  28.157  31.098  1.00  0.00    -0.354 N 
ATOM     54  N   UNL A   1      41.382  29.813  33.364  1.00  0.00    -0.248 NA
ATOM     55  C   UNL A   1      41.588  30.399  35.616  1.00  0.00     0.031 C 
ATOM     56  C   UNL A   1      44.079  26.993  31.261  1.00  0.00     0.029 A 
ATOM     57  C   UNL A   1      43.239  27.849  31.954  1.00  0.00     0.049 A 
ATOM     58  H   UNL A   1      41.445  28.756  31.316  1.00  0.00     0.167 HD
ATOM     59  C   UNL A   1      42.506  29.193  33.898  1.00  0.00     0.074 A 
ATOM     60  C   UNL A   1      42.609  29.627  35.276  1.00  0.00     0.031 C 
ATOM     61  C   UNL A   1      43.361  28.324  33.307  1.00  0.00     0.034 A 
BRANCH  48  62
ATOM     62  C   UNL A   1      41.726  26.682  27.597  1.00  0.00     0.023 A 
ATOM     63  C   UNL A   1      42.463  27.206  26.517  1.00  0.00     0.012 A 
ATOM     64  C   UNL A   1      41.361  25.321  27.595  1.00  0.00     0.148 A 
ATOM     65  C   UNL A   1      42.820  26.393  25.442  1.00  0.00     0.002 A 
ATOM     66  C   UNL A   1      41.752  24.509  26.536  1.00  0.00     0.091 A 
ATOM     67  F   UNL A   1      40.645  24.850  28.624  1.00  0.00    -0.205 F 
ATOM     68  C   UNL A   1      42.476  25.044  25.458  1.00  0.00     0.022 A 
BRANCH  66  69
ATOM     69  S   UNL A   1      41.420  22.744  26.492  1.00  0.00     0.127 S 
ATOM     70  O   UNL A   1      42.175  22.332  25.309  1.00  0.00    -0.237 OA
ATOM     71  O   UNL A   1      41.987  22.293  27.763  1.00  0.00    -0.237 OA
ATOM     72  O   UNL A   1      39.975  22.607  26.385  1.00  0.00    -0.744 OA
ENDBRANCH  66  69
ENDBRANCH  48  62
BRANCH  49  73
ATOM     73  C   UNL A   1      39.253  32.171  35.541  1.00  0.00     0.023 A 
ATOM     74  C   UNL A   1      39.608  33.528  35.669  1.00  0.00     0.012 A 
ATOM     75  C   UNL A   1      38.509  31.558  36.567  1.00  0.00     0.148 A 
ATOM     76  C   UNL A   1      39.257  34.251  36.809  1.00  0.00     0.002 A 
ATOM     77  C   UNL A   1      38.115  32.300  37.675  1.00  0.00     0.091 A 
ATOM     78  F   UNL A   1      38.198  30.260  36.442  1.00  0.00    -0.205 F 
ATOM     79  C   UNL A   1      38.502  33.641  37.808  1.00  0.00     0.022 A 
BRANCH  77  80
ATOM     80  S   UNL A   1      37.024  31.618  38.930  1.00  0.00     0.127 S 
ATOM     81  O   UNL A   1      36.908  30.227  38.503  1.00  0.00    -0.237 OA
ATOM     82  O   UNL A   1      37.793  31.825  40.158  1.00  0.00    -0.237 OA
ATOM     83  O   UNL A   1      35.808  32.419  38.851  1.00  0.00    -0.744 OA
ENDBRANCH  77  80
ENDBRANCH  49  73
BRANCH  61  84
ATOM     84  C   UNL A   1      44.492  27.781  34.140  1.00  0.00     0.023 A 
ATOM     85  C   UNL A   1      45.713  28.482  34.188  1.00  0.00     0.012 A 
ATOM     86  C   UNL A   1      44.323  26.628  34.930  1.00  0.00     0.148 A 
ATOM     87  C   UNL A   1      46.759  28.030  34.990  1.00  0.00     0.002 A 
ATOM     88  C   UNL A   1      45.356  26.207  35.761  1.00  0.00     0.091 A 
ATOM     89  F   UNL A   1      43.161  25.965  34.856  1.00  0.00    -0.205 F 
ATOM     90  C   UNL A   1      46.577  26.901  35.785  1.00  0.00     0.022 A 
BRANCH  88  91
ATOM     91  S   UNL A   1      45.181  24.817  36.886  1.00  0.00     0.127 S 
ATOM     92  O   UNL A   1      44.416  23.871  36.074  1.00  0.00    -0.237 OA
ATOM     93  O   UNL A   1      46.572  24.431  37.125  1.00  0.00    -0.237 OA
ATOM     94  O   UNL A   1      44.490  25.336  38.060  1.00  0.00    -0.744 OA
ENDBRANCH  88  91
ENDBRANCH  61  84
ENDBRANCH  35  36
ENDBRANCH  27  30
ENDBRANCH  25  26
ENDBRANCH  24  25
ENDBRANCH   1  24
TORSDOF 18
ENDMDL
MODEL 2
REMARK VINA RESULT:     -12.1      1.947      2.505
REMARK SMILES C[C@@H](C(=O)NCCCCNC(=O)c1ccc(-c2c3nc(c(-c4cccc(S(=O)(=O)[O-])c4F)c4ccc([nH]4)c(-c4cccc(S(=O)(=O)[O-])c4F)c4nc(c(-c5cccc(S(=O)(=O)[O-])c5F)c5ccc2[nH]5)C=C4)C=C3)cc1)c1ccc(C[C@@H]2CCC[C@@H]2O)cc1F
REMARK SMILES IDX 7 1 6 2 5 3 3 4 4 5 2 7 1 8 76 9 77 10 88 11 78 12 87 13
REMARK SMILES IDX 89 14 79 15 80 16 81 17 82 18 85 19 83 20 84 21 86 22 8 24
REMARK SMILES IDX 9 25 10 26 11 27 12 29 13 30 14 31 75 32 15 33 74 34 16 35
REMARK SMILES IDX 17 36 18 37 68 38 19 39 73 40 67 41 69 42 20 43 72 44 66 45
REMARK SMILES IDX 65 46 21 48 53 49 33 50 52 51 34 52 37 53 51 54 70 55 35 56
REMARK SMILES IDX 36 57 50 59 71 60 38 61 22 62 23 63 31 64 24 65 26 66 32 67
REMARK SMILES IDX 25 68 27 69 28 70 29 71 30 72 54 73 55 74 63 75 56 76 58 77
REMARK SMILES IDX 64 78 57 79 59 80 60 81 61 82 62 83 39 84 40 85 48 86 41 87
REMARK SMILES IDX 43 88 49 89 42 90 44 91 45 92 46 93 47 94
REMARK H PARENT 5 6 86 23 10 28 69 47 37 58
REMARK Flexibility Score: inf
ROOT
ATOM      1  C   UNL A   1      31.844  28.879  23.497  1.00  0.00     0.023 C 
ENDROOT
BRANCH   1   2
ATOM      2  C   UNL A   1      31.261  27.599  22.898  1.00  0.00     0.116 C 
BRANCH   2   3
ATOM      3  N   UNL A   1      32.245  26.837  22.159  1.00  0.00    -0.356 N 
ATOM      4  C   UNL A   1      32.982  25.747  22.524  1.00  0.00     0.227 C 
ATOM      5  O   UNL A   1      33.622  25.192  21.628  1.00  0.00    -0.274 OA
ATOM      6  H   UNL A   1      32.410  27.158  21.243  1.00  0.00     0.163 HD
BRANCH   4   7
ATOM      7  C   UNL A   1      32.918  25.213  23.965  1.00  0.00     0.108 C 
ATOM      8  C   UNL A   1      34.133  25.598  24.817  1.00  0.00     0.023 C 
BRANCH   7   9
ATOM      9  C   UNL A   1      32.754  23.700  24.035  1.00  0.00    -0.000 A 
ATOM     10  C   UNL A   1      33.755  22.902  24.605  1.00  0.00     0.008 A 
ATOM     11  C   UNL A   1      31.646  23.062  23.465  1.00  0.00     0.127 A 
ATOM     12  C   UNL A   1      33.669  21.507  24.545  1.00  0.00     0.004 A 
ATOM     13  C   UNL A   1      31.550  21.675  23.418  1.00  0.00     0.043 A 
ATOM     14  F   UNL A   1      30.678  23.782  22.881  1.00  0.00    -0.207 F 
ATOM     15  C   UNL A   1      32.591  20.880  23.908  1.00  0.00    -0.045 A 
BRANCH  15  16
ATOM     16  C   UNL A   1      32.558  19.384  23.714  1.00  0.00     0.041 C 
BRANCH  16  17
ATOM     17  C   UNL A   1      33.699  18.553  24.346  1.00  0.00     0.022 C 
ATOM     18  C   UNL A   1      34.281  17.454  23.449  1.00  0.00     0.007 C 
ATOM     19  C   UNL A   1      33.394  17.789  25.640  1.00  0.00     0.117 C 
ATOM     20  C   UNL A   1      33.649  16.133  23.898  1.00  0.00     0.003 C 
ATOM     21  C   UNL A   1      32.889  16.423  25.187  1.00  0.00     0.032 C 
BRANCH  19  22
ATOM     22  O   UNL A   1      32.514  18.468  26.508  1.00  0.00    -0.393 OA
ATOM     23  H   UNL A   1      33.010  19.118  27.029  1.00  0.00     0.210 HD
ENDBRANCH  19  22
ENDBRANCH  16  17
ENDBRANCH  15  16
ENDBRANCH   7   9
ENDBRANCH   4   7
ENDBRANCH   2   3
ENDBRANCH   1   2
BRANCH   1  24
ATOM     24  C   UNL A   1      31.593  29.072  24.994  1.00  0.00     0.023 C 
BRANCH  24  25
ATOM     25  C   UNL A   1      32.740  29.689  25.787  1.00  0.00     0.116 C 
BRANCH  25  26
ATOM     26  N   UNL A   1      32.421  31.003  26.327  1.00  0.00    -0.352 N 
ATOM     27  C   UNL A   1      33.142  31.777  27.206  1.00  0.00     0.251 C 
ATOM     28  H   UNL A   1      31.571  31.392  26.021  1.00  0.00     0.163 HD
ATOM     29  O   UNL A   1      32.664  32.822  27.641  1.00  0.00    -0.269 OA
BRANCH  27  30
ATOM     30  C   UNL A   1      34.478  31.327  27.656  1.00  0.00     0.039 A 
ATOM     31  C   UNL A   1      35.491  32.277  27.809  1.00  0.00     0.014 A 
ATOM     32  C   UNL A   1      34.715  29.985  27.966  1.00  0.00     0.014 A 
ATOM     33  C   UNL A   1      36.716  31.898  28.364  1.00  0.00     0.010 A 
ATOM     34  C   UNL A   1      35.915  29.621  28.572  1.00  0.00     0.010 A 
ATOM     35  C   UNL A   1      36.918  30.576  28.796  1.00  0.00    -0.014 A 
BRANCH  35  36
ATOM     36  C   UNL A   1      38.132  30.191  29.563  1.00  0.00     0.031 A 
ATOM     37  C   UNL A   1      39.113  29.200  29.003  1.00  0.00     0.074 A 
ATOM     38  C   UNL A   1      38.278  30.645  30.825  1.00  0.00     0.049 A 
ATOM     39  N   UNL A   1      40.174  28.686  29.569  1.00  0.00    -0.248 NA
ATOM     40  C   UNL A   1      38.861  28.706  27.640  1.00  0.00     0.031 C 
ATOM     41  C   UNL A   1      37.346  31.541  31.515  1.00  0.00     0.029 A 
ATOM     42  N   UNL A   1      39.242  30.383  31.768  1.00  0.00    -0.354 N 
ATOM     43  C   UNL A   1      40.694  27.781  28.652  1.00  0.00     0.074 A 
ATOM     44  C   UNL A   1      39.825  27.806  27.495  1.00  0.00     0.031 C 
ATOM     45  C   UNL A   1      37.773  31.739  32.773  1.00  0.00     0.029 A 
ATOM     46  C   UNL A   1      38.991  30.966  32.990  1.00  0.00     0.049 A 
ATOM     47  H   UNL A   1      40.037  29.832  31.587  1.00  0.00     0.167 HD
ATOM     48  C   UNL A   1      41.808  27.018  28.756  1.00  0.00     0.034 A 
ATOM     49  C   UNL A   1      39.654  30.874  34.160  1.00  0.00     0.034 A 
ATOM     50  C   UNL A   1      42.700  27.037  29.884  1.00  0.00     0.049 A 
ATOM     51  C   UNL A   1      40.907  30.045  34.230  1.00  0.00     0.074 A 
ATOM     52  C   UNL A   1      43.921  26.400  30.023  1.00  0.00     0.029 A 
ATOM     53  N   UNL A   1      42.463  27.710  31.071  1.00  0.00    -0.354 N 
ATOM     54  N   UNL A   1      41.494  29.358  33.280  1.00  0.00    -0.248 NA
ATOM     55  C   UNL A   1      41.606  30.001  35.523  1.00  0.00     0.031 C 
ATOM     56  C   UNL A   1      44.413  26.670  31.303  1.00  0.00     0.029 A 
ATOM     57  C   UNL A   1      43.503  27.485  31.958  1.00  0.00     0.049 A 
ATOM     58  H   UNL A   1      41.673  28.265  31.257  1.00  0.00     0.167 HD
ATOM     59  C   UNL A   1      42.640  28.820  33.854  1.00  0.00     0.074 A 
ATOM     60  C   UNL A   1      42.682  29.287  35.224  1.00  0.00     0.031 C 
ATOM     61  C   UNL A   1      43.562  27.994  33.302  1.00  0.00     0.034 A 
BRANCH  48  62
ATOM     62  C   UNL A   1      42.175  26.138  27.592  1.00  0.00     0.023 A 
ATOM     63  C   UNL A   1      43.015  26.646  26.582  1.00  0.00     0.012 A 
ATOM     64  C   UNL A   1      41.783  24.785  27.554  1.00  0.00     0.148 A 
ATOM     65  C   UNL A   1      43.446  25.827  25.540  1.00  0.00     0.002 A 
ATOM     66  C   UNL A   1      42.247  23.965  26.531  1.00  0.00     0.091 A 
ATOM     67  F   UNL A   1      40.969  24.329  28.516  1.00  0.00    -0.205 F 
ATOM     68  C   UNL A   1      43.072  24.486  25.522  1.00  0.00     0.022 A 
BRANCH  66  69
ATOM     69  S   UNL A   1      41.882  22.208  26.453  1.00  0.00     0.127 S 
ATOM     70  O   UNL A   1      40.435  22.217  26.237  1.00  0.00    -0.237 OA
ATOM     71  O   UNL A   1      42.668  21.783  25.295  1.00  0.00    -0.237 OA
ATOM     72  O   UNL A   1      42.316  21.648  27.725  1.00  0.00    -0.744 OA
ENDBRANCH  66  69
ENDBRANCH  48  62
BRANCH  49  73
ATOM     73  C   UNL A   1      39.169  31.622  35.354  1.00  0.00     0.023 A 
ATOM     74  C   UNL A   1      38.215  31.027  36.202  1.00  0.00     0.012 A 
ATOM     75  C   UNL A   1      39.654  32.908  35.662  1.00  0.00     0.148 A 
ATOM     76  C   UNL A   1      37.728  31.712  37.316  1.00  0.00     0.002 A 
ATOM     77  C   UNL A   1      39.205  33.562  36.805  1.00  0.00     0.091 A 
ATOM     78  F   UNL A   1      40.545  33.470  34.834  1.00  0.00    -0.205 F 
ATOM     79  C   UNL A   1      38.230  32.974  37.623  1.00  0.00     0.022 A 
BRANCH  77  80
ATOM     80  S   UNL A   1      39.911  35.125  37.338  1.00  0.00     0.127 S 
ATOM     81  O   UNL A   1      39.274  36.070  36.425  1.00  0.00    -0.237 OA
ATOM     82  O   UNL A   1      39.460  35.213  38.728  1.00  0.00    -0.237 OA
ATOM     83  O   UNL A   1      41.352  34.960  37.192  1.00  0.00    -0.744 OA
ENDBRANCH  77  80
ENDBRANCH  49  73
BRANCH  61  84
ATOM     84  C   UNL A   1      44.703  27.540  34.173  1.00  0.00     0.023 A 
ATOM     85  C   UNL A   1      45.874  28.320  34.241  1.00  0.00     0.012 A 
ATOM     86  C   UNL A   1      44.589  26.391  34.980  1.00  0.00     0.148 A 
ATOM     87  C   UNL A   1      46.925  27.950  35.077  1.00  0.00     0.002 A 
ATOM     88  C   UNL A   1      45.624  26.052  35.844  1.00  0.00     0.091 A 
ATOM     89  F   UNL A   1      43.474  25.652  34.888  1.00  0.00    -0.205 F 
ATOM     90  C   UNL A   1      46.796  26.825  35.887  1.00  0.00     0.022 A 
BRANCH  88  91
ATOM     91  S   UNL A   1      45.509  24.672  36.989  1.00  0.00     0.127 S 
ATOM     92  O   UNL A   1      45.580  23.527  36.084  1.00  0.00    -0.237 OA
ATOM     93  O   UNL A   1      46.694  24.862  37.827  1.00  0.00    -0.237 OA
ATOM     94  O   UNL A   1      44.243  24.838  37.691  1.00  0.00    -0.744 OA
ENDBRANCH  88  91
ENDBRANCH  61  84
ENDBRANCH  35  36
ENDBRANCH  27  30
ENDBRANCH  25  26
ENDBRANCH  24  25
ENDBRANCH   1  24
TORSDOF 18
ENDMDL
MODEL 3
REMARK VINA RESULT:     -12.1      2.015      7.828
REMARK SMILES C[C@@H](C(=O)NCCCCNC(=O)c1ccc(-c2c3nc(c(-c4cccc(S(=O)(=O)[O-])c4F)c4ccc([nH]4)c(-c4cccc(S(=O)(=O)[O-])c4F)c4nc(c(-c5cccc(S(=O)(=O)[O-])c5F)c5ccc2[nH]5)C=C4)C=C3)cc1)c1ccc(C[C@@H]2CCC[C@@H]2O)cc1F
REMARK SMILES IDX 7 1 6 2 5 3 3 4 4 5 2 7 1 8 76 9 77 10 88 11 78 12 87 13
REMARK SMILES IDX 89 14 79 15 80 16 81 17 82 18 85 19 83 20 84 21 86 22 8 24
REMARK SMILES IDX 9 25 10 26 11 27 12 29 13 30 14 31 75 32 15 33 74 34 16 35
REMARK SMILES IDX 17 36 18 37 68 38 19 39 73 40 67 41 69 42 20 43 72 44 66 45
REMARK SMILES IDX 65 46 21 48 53 49 33 50 52 51 34 52 37 53 51 54 70 55 35 56
REMARK SMILES IDX 36 57 50 59 71 60 38 61 22 62 23 63 31 64 24 65 26 66 32 67
REMARK SMILES IDX 25 68 27 69 28 70 29 71 30 72 54 73 55 74 63 75 56 76 58 77
REMARK SMILES IDX 64 78 57 79 59 80 60 81 61 82 62 83 39 84 40 85 48 86 41 87
REMARK SMILES IDX 43 88 49 89 42 90 44 91 45 92 46 93 47 94
REMARK H PARENT 5 6 86 23 10 28 69 47 37 58
REMARK Flexibility Score: inf
ROOT
ATOM      1  C   UNL A   1      30.695  29.328  24.115  1.00  0.00     0.023 C 
ENDROOT
BRANCH   1   2
ATOM      2  C   UNL A   1      30.527  28.115  23.198  1.00  0.00     0.116 C 
BRANCH   2   3
ATOM      3  N   UNL A   1      31.725  27.829  22.438  1.00  0.00    -0.356 N 
ATOM      4  C   UNL A   1      32.748  26.958  22.685  1.00  0.00     0.227 C 
ATOM      5  O   UNL A   1      33.560  26.792  21.772  1.00  0.00    -0.274 OA
ATOM      6  H   UNL A   1      31.818  28.347  21.606  1.00  0.00     0.163 HD
BRANCH   4   7
ATOM      7  C   UNL A   1      32.797  26.173  24.007  1.00  0.00     0.108 C 
ATOM      8  C   UNL A   1      34.038  26.475  24.854  1.00  0.00     0.023 C 
BRANCH   7   9
ATOM      9  C   UNL A   1      32.717  24.664  23.809  1.00  0.00    -0.000 A 
ATOM     10  C   UNL A   1      33.810  23.957  23.289  1.00  0.00     0.008 A 
ATOM     11  C   UNL A   1      31.536  23.959  24.062  1.00  0.00     0.127 A 
ATOM     12  C   UNL A   1      33.692  22.599  22.977  1.00  0.00     0.004 A 
ATOM     13  C   UNL A   1      31.420  22.604  23.769  1.00  0.00     0.043 A 
ATOM     14  F   UNL A   1      30.455  24.598  24.531  1.00  0.00    -0.207 F 
ATOM     15  C   UNL A   1      32.481  21.920  23.168  1.00  0.00    -0.045 A 
BRANCH  15  16
ATOM     16  C   UNL A   1      32.300  20.496  22.706  1.00  0.00     0.041 C 
BRANCH  16  17
ATOM     17  C   UNL A   1      32.255  19.391  23.787  1.00  0.00     0.022 C 
ATOM     18  C   UNL A   1      33.331  19.498  24.875  1.00  0.00     0.007 C 
ATOM     19  C   UNL A   1      32.399  17.935  23.329  1.00  0.00     0.117 C 
ATOM     20  C   UNL A   1      34.432  18.497  24.510  1.00  0.00     0.003 C 
ATOM     21  C   UNL A   1      33.897  17.655  23.357  1.00  0.00     0.032 C 
BRANCH  19  22
ATOM     22  O   UNL A   1      31.788  17.666  22.087  1.00  0.00    -0.393 OA
ATOM     23  H   UNL A   1      31.872  16.722  21.882  1.00  0.00     0.210 HD
ENDBRANCH  19  22
ENDBRANCH  16  17
ENDBRANCH  15  16
ENDBRANCH   7   9
ENDBRANCH   4   7
ENDBRANCH   2   3
ENDBRANCH   1   2
BRANCH   1  24
ATOM     24  C   UNL A   1      31.357  29.038  25.465  1.00  0.00     0.023 C 
BRANCH  24  25
ATOM     25  C   UNL A   1      32.656  29.786  25.743  1.00  0.00     0.116 C 
BRANCH  25  26
ATOM     26  N   UNL A   1      32.444  31.118  26.289  1.00  0.00    -0.352 N 
ATOM     27  C   UNL A   1      33.194  31.805  27.216  1.00  0.00     0.251 C 
ATOM     28  H   UNL A   1      31.653  31.595  25.949  1.00  0.00     0.163 HD
ATOM     29  O   UNL A   1      32.801  32.887  27.645  1.00  0.00    -0.269 OA
BRANCH  27  30
ATOM     30  C   UNL A   1      34.452  31.216  27.724  1.00  0.00     0.039 A 
ATOM     31  C   UNL A   1      35.583  32.031  27.823  1.00  0.00     0.014 A 
ATOM     32  C   UNL A   1      34.503  29.883  28.139  1.00  0.00     0.014 A 
ATOM     33  C   UNL A   1      36.741  31.535  28.428  1.00  0.00     0.010 A 
ATOM     34  C   UNL A   1      35.639  29.409  28.794  1.00  0.00     0.010 A 
ATOM     35  C   UNL A   1      36.760  30.236  28.963  1.00  0.00    -0.014 A 
BRANCH  35  36
ATOM     36  C   UNL A   1      37.904  29.753  29.779  1.00  0.00     0.031 A 
ATOM     37  C   UNL A   1      38.157  30.307  31.153  1.00  0.00     0.074 A 
ATOM     38  C   UNL A   1      38.789  28.900  29.222  1.00  0.00     0.049 A 
ATOM     39  N   UNL A   1      39.154  30.065  31.965  1.00  0.00    -0.248 NA
ATOM     40  C   UNL A   1      37.178  31.274  31.676  1.00  0.00     0.031 C 
ATOM     41  C   UNL A   1      38.703  28.360  27.863  1.00  0.00     0.029 A 
ATOM     42  N   UNL A   1      39.957  28.371  29.713  1.00  0.00    -0.354 N 
ATOM     43  C   UNL A   1      38.946  30.875  33.075  1.00  0.00     0.074 A 
ATOM     44  C   UNL A   1      37.734  31.626  32.828  1.00  0.00     0.031 C 
ATOM     45  C   UNL A   1      39.778  27.593  27.623  1.00  0.00     0.029 A 
ATOM     46  C   UNL A   1      40.644  27.607  28.797  1.00  0.00     0.049 A 
ATOM     47  H   UNL A   1      40.274  28.524  30.633  1.00  0.00     0.167 HD
ATOM     48  C   UNL A   1      39.686  30.964  34.205  1.00  0.00     0.034 A 
ATOM     49  C   UNL A   1      41.846  27.001  28.882  1.00  0.00     0.034 A 
ATOM     50  C   UNL A   1      40.858  30.176  34.471  1.00  0.00     0.049 A 
ATOM     51  C   UNL A   1      42.624  27.093  30.166  1.00  0.00     0.074 A 
ATOM     52  C   UNL A   1      41.596  30.101  35.640  1.00  0.00     0.029 A 
ATOM     53  N   UNL A   1      41.477  29.341  33.555  1.00  0.00    -0.354 N 
ATOM     54  N   UNL A   1      42.303  27.702  31.282  1.00  0.00    -0.248 NA
ATOM     55  C   UNL A   1      43.915  26.390  30.215  1.00  0.00     0.031 C 
ATOM     56  C   UNL A   1      42.674  29.238  35.424  1.00  0.00     0.029 A 
ATOM     57  C   UNL A   1      42.601  28.765  34.123  1.00  0.00     0.049 A 
ATOM     58  H   UNL A   1      41.165  29.181  32.636  1.00  0.00     0.167 HD
ATOM     59  C   UNL A   1      43.339  27.438  32.170  1.00  0.00     0.074 A 
ATOM     60  C   UNL A   1      44.282  26.587  31.473  1.00  0.00     0.031 C 
ATOM     61  C   UNL A   1      43.507  27.880  33.440  1.00  0.00     0.034 A 
BRANCH  48  62
ATOM     62  C   UNL A   1      39.219  31.903  35.284  1.00  0.00     0.023 A 
ATOM     63  C   UNL A   1      38.327  31.433  36.268  1.00  0.00     0.012 A 
ATOM     64  C   UNL A   1      39.743  33.207  35.387  1.00  0.00     0.148 A 
ATOM     65  C   UNL A   1      37.949  32.252  37.331  1.00  0.00     0.002 A 
ATOM     66  C   UNL A   1      39.389  34.004  36.470  1.00  0.00     0.091 A 
ATOM     67  F   UNL A   1      40.576  33.638  34.430  1.00  0.00    -0.205 F 
ATOM     68  C   UNL A   1      38.489  33.531  37.439  1.00  0.00     0.022 A 
BRANCH  66  69
ATOM     69  S   UNL A   1      40.081  35.640  36.740  1.00  0.00     0.127 S 
ATOM     70  O   UNL A   1      39.495  35.999  38.031  1.00  0.00    -0.237 OA
ATOM     71  O   UNL A   1      41.517  35.364  36.779  1.00  0.00    -0.237 OA
ATOM     72  O   UNL A   1      39.646  36.454  35.613  1.00  0.00    -0.744 OA
ENDBRANCH  66  69
ENDBRANCH  48  62
BRANCH  49  73
ATOM     73  C   UNL A   1      42.369  26.215  27.730  1.00  0.00     0.023 A 
ATOM     74  C   UNL A   1      43.270  26.821  26.833  1.00  0.00     0.012 A 
ATOM     75  C   UNL A   1      41.994  24.873  27.523  1.00  0.00     0.148 A 
ATOM     76  C   UNL A   1      43.762  26.115  25.733  1.00  0.00     0.002 A 
ATOM     77  C   UNL A   1      42.531  24.160  26.457  1.00  0.00     0.091 A 
ATOM     78  F   UNL A   1      41.119  24.318  28.373  1.00  0.00    -0.205 F 
ATOM     79  C   UNL A   1      43.401  24.783  25.551  1.00  0.00     0.022 A 
BRANCH  77  80
ATOM     80  S   UNL A   1      42.221  22.403  26.244  1.00  0.00     0.127 S 
ATOM     81  O   UNL A   1      42.758  21.851  27.484  1.00  0.00    -0.237 OA
ATOM     82  O   UNL A   1      40.763  22.356  26.128  1.00  0.00    -0.237 OA
ATOM     83  O   UNL A   1      42.924  22.040  25.019  1.00  0.00    -0.744 OA
ENDBRANCH  77  80
ENDBRANCH  49  73
BRANCH  61  84
ATOM     84  C   UNL A   1      44.752  27.453  34.170  1.00  0.00     0.023 A 
ATOM     85  C   UNL A   1      45.873  28.307  34.184  1.00  0.00     0.012 A 
ATOM     86  C   UNL A   1      44.788  26.250  34.901  1.00  0.00     0.148 A 
ATOM     87  C   UNL A   1      47.020  27.958  34.892  1.00  0.00     0.002 A 
ATOM     88  C   UNL A   1      45.921  25.930  35.642  1.00  0.00     0.091 A 
ATOM     89  F   UNL A   1      43.719  25.443  34.861  1.00  0.00    -0.205 F 
ATOM     90  C   UNL A   1      47.041  26.778  35.630  1.00  0.00     0.022 A 
BRANCH  88  91
ATOM     91  S   UNL A   1      46.004  24.476  36.694  1.00  0.00     0.127 S 
ATOM     92  O   UNL A   1      45.161  24.874  37.820  1.00  0.00    -0.237 OA
ATOM     93  O   UNL A   1      45.429  23.438  35.839  1.00  0.00    -0.237 OA
ATOM     94  O   UNL A   1      47.415  24.287  37.006  1.00  0.00    -0.744 OA
ENDBRANCH  88  91
ENDBRANCH  61  84
ENDBRANCH  35  36
ENDBRANCH  27  30
ENDBRANCH  25  26
ENDBRANCH  24  25
ENDBRANCH   1  24
TORSDOF 18
ENDMDL
