MODEL 1
REMARK VINA RESULT:     -11.6      0.000      0.000
REMARK SMILES O=C(CSc1nnc(C2CC2)n1-c1cccc2ccccc12)NCCCCNC(=O)c1ccc(-c2c3nc(c(-c4cccc(S(=O)(=O)[O-])c4F)c4ccc([nH]4)c(-c4cccc(S(=O)(=O)[O-])c4F)c4nc(c(-c5cccc(S(=O)(=O)[O-])c5F)c5ccc2[nH]5)C=C4)C=C3)cc1
REMARK SMILES IDX 25 1 24 2 23 3 1 4 2 5 3 7 4 8 5 9 6 10 12 11 7 12 8 13
REMARK SMILES IDX 13 14 14 15 22 16 15 17 17 18 21 19 16 20 18 21 20 22 19 23
REMARK SMILES IDX 9 24 10 25 11 26 26 27 27 28 28 29 29 30 30 32 31 33 32 34
REMARK SMILES IDX 93 35 33 36 92 37 34 38 35 39 36 40 86 41 37 42 91 43 85 44
REMARK SMILES IDX 87 45 38 46 90 47 84 48 83 49 39 51 71 52 51 53 70 54 52 55
REMARK SMILES IDX 55 56 69 57 88 58 53 59 54 60 68 62 89 63 56 64 40 65 41 66
REMARK SMILES IDX 49 67 42 68 44 69 50 70 43 71 45 72 46 73 47 74 48 75 72 76
REMARK SMILES IDX 73 77 81 78 74 79 76 80 82 81 75 82 77 83 78 84 79 85 80 86
REMARK SMILES IDX 57 87 58 88 66 89 59 90 61 91 67 92 60 93 62 94 63 95 64 96
REMARK SMILES IDX 65 97
REMARK H PARENT 23 6 28 31 87 50 55 61
REMARK Flexibility Score: inf
ROOT
ATOM      1  C   UNL A   1      36.436  21.107  24.622  1.00  0.00     0.023 C 
ENDROOT
BRANCH   1   2
ATOM      2  C   UNL A   1      34.938  20.816  24.666  1.00  0.00     0.116 C 
BRANCH   2   3
ATOM      3  N   UNL A   1      34.114  21.334  23.594  1.00  0.00    -0.355 N 
ATOM      4  O   UNL A   1      32.174  20.311  24.277  1.00  0.00    -0.274 OA
ATOM      5  C   UNL A   1      32.731  21.206  23.642  1.00  0.00     0.230 C 
ATOM      6  H   UNL A   1      34.536  21.781  22.825  1.00  0.00     0.163 HD
BRANCH   5   7
ATOM      7  C   UNL A   1      31.932  22.199  22.803  1.00  0.00     0.178 C 
BRANCH   7   8
ATOM      8  S   UNL A   1      32.989  23.504  22.125  1.00  0.00    -0.076 SA
BRANCH   8   9
ATOM      9  C   UNL A   1      32.158  24.959  22.582  1.00  0.00     0.196 A 
ATOM     10  N   UNL A   1      31.511  25.769  21.776  1.00  0.00    -0.123 NA
ATOM     11  N   UNL A   1      32.138  25.474  23.859  1.00  0.00    -0.273 N 
ATOM     12  N   UNL A   1      31.234  26.924  22.489  1.00  0.00    -0.134 NA
ATOM     13  C   UNL A   1      31.737  26.786  23.705  1.00  0.00     0.141 A 
BRANCH  11  14
ATOM     14  C   UNL A   1      31.966  24.728  25.043  1.00  0.00     0.057 A 
ATOM     15  C   UNL A   1      30.675  24.282  25.334  1.00  0.00     0.027 A 
ATOM     16  C   UNL A   1      33.116  24.295  25.775  1.00  0.00     0.006 A 
ATOM     17  C   UNL A   1      30.500  23.389  26.384  1.00  0.00     0.003 A 
ATOM     18  C   UNL A   1      32.900  23.408  26.852  1.00  0.00    -0.016 A 
ATOM     19  C   UNL A   1      34.462  24.633  25.464  1.00  0.00     0.011 A 
ATOM     20  C   UNL A   1      31.594  22.985  27.154  1.00  0.00     0.009 A 
ATOM     21  C   UNL A   1      33.998  22.901  27.569  1.00  0.00     0.009 A 
ATOM     22  C   UNL A   1      35.542  24.066  26.138  1.00  0.00     0.001 A 
ATOM     23  C   UNL A   1      35.309  23.204  27.198  1.00  0.00     0.001 A 
ENDBRANCH  11  14
BRANCH  13  24
ATOM     24  C   UNL A   1      31.808  27.933  24.724  1.00  0.00     0.058 C 
ATOM     25  C   UNL A   1      32.899  28.055  25.775  1.00  0.00     0.012 C 
ATOM     26  C   UNL A   1      32.928  28.959  24.596  1.00  0.00     0.012 C 
ENDBRANCH  13  24
ENDBRANCH   8   9
ENDBRANCH   7   8
ENDBRANCH   5   7
ENDBRANCH   2   3
ENDBRANCH   1   2
BRANCH   1  27
ATOM     27  C   UNL A   1      37.374  19.928  24.896  1.00  0.00     0.023 C 
BRANCH  27  28
ATOM     28  C   UNL A   1      38.715  20.298  25.515  1.00  0.00     0.116 C 
BRANCH  28  29
ATOM     29  N   UNL A   1      39.653  19.178  25.671  1.00  0.00    -0.352 N 
ATOM     30  C   UNL A   1      41.016  19.267  25.927  1.00  0.00     0.251 C 
ATOM     31  H   UNL A   1      39.278  18.272  25.585  1.00  0.00     0.163 HD
ATOM     32  O   UNL A   1      41.768  18.310  25.749  1.00  0.00    -0.269 OA
BRANCH  30  33
ATOM     33  C   UNL A   1      41.535  20.538  26.463  1.00  0.00     0.039 A 
ATOM     34  C   UNL A   1      42.231  21.479  25.692  1.00  0.00     0.014 A 
ATOM     35  C   UNL A   1      41.245  20.788  27.799  1.00  0.00     0.014 A 
ATOM     36  C   UNL A   1      42.570  22.701  26.275  1.00  0.00     0.010 A 
ATOM     37  C   UNL A   1      41.379  22.050  28.293  1.00  0.00     0.010 A 
ATOM     38  C   UNL A   1      42.131  22.973  27.577  1.00  0.00    -0.014 A 
BRANCH  38  39
ATOM     39  C   UNL A   1      42.369  24.236  28.263  1.00  0.00     0.031 A 
ATOM     40  C   UNL A   1      41.296  25.247  28.064  1.00  0.00     0.074 A 
ATOM     41  C   UNL A   1      43.298  24.299  29.246  1.00  0.00     0.049 A 
ATOM     42  N   UNL A   1      41.375  26.377  27.439  1.00  0.00    -0.248 NA
ATOM     43  C   UNL A   1      39.922  24.884  28.451  1.00  0.00     0.031 C 
ATOM     44  C   UNL A   1      44.148  23.201  29.747  1.00  0.00     0.029 A 
ATOM     45  N   UNL A   1      43.568  25.298  30.126  1.00  0.00    -0.354 N 
ATOM     46  C   UNL A   1      40.120  26.973  27.593  1.00  0.00     0.074 A 
ATOM     47  C   UNL A   1      39.227  25.915  27.968  1.00  0.00     0.031 C 
ATOM     48  C   UNL A   1      44.641  23.522  30.962  1.00  0.00     0.029 A 
ATOM     49  C   UNL A   1      44.291  24.899  31.251  1.00  0.00     0.049 A 
ATOM     50  H   UNL A   1      43.277  26.228  29.982  1.00  0.00     0.167 HD
ATOM     51  C   UNL A   1      39.992  28.327  27.702  1.00  0.00     0.034 A 
ATOM     52  C   UNL A   1      44.548  25.636  32.360  1.00  0.00     0.034 A 
ATOM     53  C   UNL A   1      41.242  28.970  27.375  1.00  0.00     0.049 A 
ATOM     54  C   UNL A   1      44.304  27.046  32.011  1.00  0.00     0.074 A 
ATOM     55  C   UNL A   1      42.032  29.107  26.254  1.00  0.00     0.029 A 
ATOM     56  N   UNL A   1      42.033  29.268  28.458  1.00  0.00    -0.354 N 
ATOM     57  N   UNL A   1      45.042  27.699  31.162  1.00  0.00    -0.248 NA
ATOM     58  C   UNL A   1      42.991  27.609  32.272  1.00  0.00     0.031 C 
ATOM     59  C   UNL A   1      43.372  29.112  26.741  1.00  0.00     0.029 A 
ATOM     60  C   UNL A   1      43.341  29.048  28.137  1.00  0.00     0.049 A 
ATOM     61  H   UNL A   1      41.706  29.590  29.329  1.00  0.00     0.167 HD
ATOM     62  C   UNL A   1      44.130  28.450  30.438  1.00  0.00     0.074 A 
ATOM     63  C   UNL A   1      42.925  28.483  31.263  1.00  0.00     0.031 C 
ATOM     64  C   UNL A   1      44.348  28.697  29.113  1.00  0.00     0.034 A 
BRANCH  51  65
ATOM     65  C   UNL A   1      38.947  29.081  28.517  1.00  0.00     0.023 A 
ATOM     66  C   UNL A   1      38.853  28.738  29.890  1.00  0.00     0.012 A 
ATOM     67  C   UNL A   1      37.891  29.865  27.998  1.00  0.00     0.148 A 
ATOM     68  C   UNL A   1      37.736  29.064  30.666  1.00  0.00     0.002 A 
ATOM     69  C   UNL A   1      36.807  30.239  28.790  1.00  0.00     0.091 A 
ATOM     70  F   UNL A   1      37.851  30.174  26.703  1.00  0.00    -0.205 F 
ATOM     71  C   UNL A   1      36.708  29.810  30.114  1.00  0.00     0.022 A 
BRANCH  69  72
ATOM     72  S   UNL A   1      35.457  31.236  28.140  1.00  0.00     0.127 S 
ATOM     73  O   UNL A   1      36.182  32.345  27.527  1.00  0.00    -0.237 OA
ATOM     74  O   UNL A   1      34.829  30.308  27.200  1.00  0.00    -0.237 OA
ATOM     75  O   UNL A   1      34.626  31.576  29.289  1.00  0.00    -0.744 OA
ENDBRANCH  69  72
ENDBRANCH  51  65
BRANCH  52  76
ATOM     76  C   UNL A   1      44.757  25.230  33.764  1.00  0.00     0.023 A 
ATOM     77  C   UNL A   1      43.664  24.976  34.616  1.00  0.00     0.012 A 
ATOM     78  C   UNL A   1      46.031  24.789  34.163  1.00  0.00     0.148 A 
ATOM     79  C   UNL A   1      43.834  24.273  35.817  1.00  0.00     0.002 A 
ATOM     80  C   UNL A   1      46.192  24.085  35.350  1.00  0.00     0.091 A 
ATOM     81  F   UNL A   1      47.060  24.988  33.327  1.00  0.00    -0.205 F 
ATOM     82  C   UNL A   1      45.096  23.812  36.178  1.00  0.00     0.022 A 
BRANCH  80  83
ATOM     83  S   UNL A   1      47.787  23.428  35.837  1.00  0.00     0.127 S 
ATOM     84  O   UNL A   1      48.136  22.638  34.655  1.00  0.00    -0.237 OA
ATOM     85  O   UNL A   1      48.562  24.652  36.024  1.00  0.00    -0.237 OA
ATOM     86  O   UNL A   1      47.504  22.657  37.040  1.00  0.00    -0.744 OA
ENDBRANCH  80  83
ENDBRANCH  52  76
BRANCH  64  87
ATOM     87  C   UNL A   1      45.720  28.377  28.576  1.00  0.00     0.023 A 
ATOM     88  C   UNL A   1      46.851  29.184  28.826  1.00  0.00     0.012 A 
ATOM     89  C   UNL A   1      45.891  27.151  27.923  1.00  0.00     0.148 A 
ATOM     90  C   UNL A   1      48.124  28.781  28.414  1.00  0.00     0.002 A 
ATOM     91  C   UNL A   1      47.163  26.729  27.560  1.00  0.00     0.091 A 
ATOM     92  F   UNL A   1      44.804  26.399  27.694  1.00  0.00    -0.205 F 
ATOM     93  C   UNL A   1      48.282  27.545  27.793  1.00  0.00     0.022 A 
BRANCH  91  94
ATOM     94  S   UNL A   1      47.440  25.095  26.882  1.00  0.00     0.127 S 
ATOM     95  O   UNL A   1      48.862  24.891  27.145  1.00  0.00    -0.237 OA
ATOM     96  O   UNL A   1      46.541  24.266  27.688  1.00  0.00    -0.237 OA
ATOM     97  O   UNL A   1      47.067  25.177  25.474  1.00  0.00    -0.744 OA
ENDBRANCH  91  94
ENDBRANCH  64  87
ENDBRANCH  38  39
ENDBRANCH  30  33
ENDBRANCH  28  29
ENDBRANCH  27  28
ENDBRANCH   1  27
TORSDOF 18
ENDMDL
MODEL 2
REMARK VINA RESULT:     -11.0      2.425      3.648
REMARK SMILES O=C(CSc1nnc(C2CC2)n1-c1cccc2ccccc12)NCCCCNC(=O)c1ccc(-c2c3nc(c(-c4cccc(S(=O)(=O)[O-])c4F)c4ccc([nH]4)c(-c4cccc(S(=O)(=O)[O-])c4F)c4nc(c(-c5cccc(S(=O)(=O)[O-])c5F)c5ccc2[nH]5)C=C4)C=C3)cc1
REMARK SMILES IDX 25 1 24 2 23 3 1 4 2 5 3 7 4 8 5 9 6 10 12 11 7 12 8 13
REMARK SMILES IDX 13 14 14 15 22 16 15 17 17 18 21 19 16 20 18 21 20 22 19 23
REMARK SMILES IDX 9 24 10 25 11 26 26 27 27 28 28 29 29 30 30 32 31 33 32 34
REMARK SMILES IDX 93 35 33 36 92 37 34 38 35 39 36 40 86 41 37 42 91 43 85 44
REMARK SMILES IDX 87 45 38 46 90 47 84 48 83 49 39 51 71 52 51 53 70 54 52 55
REMARK SMILES IDX 55 56 69 57 88 58 53 59 54 60 68 62 89 63 56 64 40 65 41 66
REMARK SMILES IDX 49 67 42 68 44 69 50 70 43 71 45 72 46 73 47 74 48 75 72 76
REMARK SMILES IDX 73 77 81 78 74 79 76 80 82 81 75 82 77 83 78 84 79 85 80 86
REMARK SMILES IDX 57 87 58 88 66 89 59 90 61 91 67 92 60 93 62 94 63 95 64 96
REMARK SMILES IDX 65 97
REMARK H PARENT 23 6 28 31 87 50 55 61
REMARK Flexibility Score: inf
ROOT
ATOM      1  C   UNL A   1      40.074  19.694  25.895  1.00  0.00     0.023 C 
ENDROOT
BRANCH   1   2
ATOM      2  C   UNL A   1      40.341  21.081  26.472  1.00  0.00     0.116 C 
BRANCH   2   3
ATOM      3  N   UNL A   1      39.648  22.207  25.881  1.00  0.00    -0.355 N 
ATOM      4  O   UNL A   1      37.579  21.210  25.841  1.00  0.00    -0.274 OA
ATOM      5  C   UNL A   1      38.259  22.236  25.835  1.00  0.00     0.230 C 
ATOM      6  H   UNL A   1      40.164  22.958  25.509  1.00  0.00     0.163 HD
BRANCH   5   7
ATOM      7  C   UNL A   1      37.617  23.615  25.707  1.00  0.00     0.178 C 
BRANCH   7   8
ATOM      8  S   UNL A   1      36.386  23.658  24.380  1.00  0.00    -0.076 SA
BRANCH   8   9
ATOM      9  C   UNL A   1      34.884  23.776  25.242  1.00  0.00     0.196 A 
ATOM     10  N   UNL A   1      34.634  23.289  26.436  1.00  0.00    -0.123 NA
ATOM     11  N   UNL A   1      33.738  24.348  24.734  1.00  0.00    -0.273 N 
ATOM     12  N   UNL A   1      33.264  23.366  26.633  1.00  0.00    -0.134 NA
ATOM     13  C   UNL A   1      32.721  23.883  25.543  1.00  0.00     0.141 A 
BRANCH  11  14
ATOM     14  C   UNL A   1      33.678  25.550  23.999  1.00  0.00     0.057 A 
ATOM     15  C   UNL A   1      33.451  25.447  22.625  1.00  0.00     0.027 A 
ATOM     16  C   UNL A   1      33.653  26.800  24.694  1.00  0.00     0.006 A 
ATOM     17  C   UNL A   1      33.197  26.607  21.903  1.00  0.00     0.003 A 
ATOM     18  C   UNL A   1      33.419  27.961  23.927  1.00  0.00    -0.016 A 
ATOM     19  C   UNL A   1      33.777  26.958  26.102  1.00  0.00     0.011 A 
ATOM     20  C   UNL A   1      33.216  27.850  22.540  1.00  0.00     0.009 A 
ATOM     21  C   UNL A   1      33.322  29.211  24.564  1.00  0.00     0.009 A 
ATOM     22  C   UNL A   1      33.606  28.192  26.725  1.00  0.00     0.001 A 
ATOM     23  C   UNL A   1      33.386  29.323  25.954  1.00  0.00     0.001 A 
ENDBRANCH  11  14
BRANCH  13  24
ATOM     24  C   UNL A   1      31.206  23.939  25.300  1.00  0.00     0.058 C 
ATOM     25  C   UNL A   1      30.195  24.279  26.381  1.00  0.00     0.012 C 
ATOM     26  C   UNL A   1      30.507  25.293  25.341  1.00  0.00     0.012 C 
ENDBRANCH  13  24
ENDBRANCH   8   9
ENDBRANCH   7   8
ENDBRANCH   5   7
ENDBRANCH   2   3
ENDBRANCH   1   2
BRANCH   1  27
ATOM     27  C   UNL A   1      41.275  18.750  25.790  1.00  0.00     0.023 C 
BRANCH  27  28
ATOM     28  C   UNL A   1      42.621  19.373  26.136  1.00  0.00     0.116 C 
BRANCH  28  29
ATOM     29  N   UNL A   1      43.642  19.259  25.086  1.00  0.00    -0.352 N 
ATOM     30  C   UNL A   1      44.281  20.307  24.434  1.00  0.00     0.251 C 
ATOM     31  H   UNL A   1      43.900  18.349  24.816  1.00  0.00     0.163 HD
ATOM     32  O   UNL A   1      44.892  20.133  23.380  1.00  0.00    -0.269 OA
BRANCH  30  33
ATOM     33  C   UNL A   1      44.245  21.637  25.067  1.00  0.00     0.039 A 
ATOM     34  C   UNL A   1      43.850  22.804  24.399  1.00  0.00     0.014 A 
ATOM     35  C   UNL A   1      44.581  21.669  26.416  1.00  0.00     0.014 A 
ATOM     36  C   UNL A   1      43.738  23.988  25.130  1.00  0.00     0.010 A 
ATOM     37  C   UNL A   1      44.261  22.762  27.164  1.00  0.00     0.010 A 
ATOM     38  C   UNL A   1      43.942  23.948  26.515  1.00  0.00    -0.014 A 
BRANCH  38  39
ATOM     39  C   UNL A   1      43.789  25.103  27.388  1.00  0.00     0.031 A 
ATOM     40  C   UNL A   1      42.422  25.689  27.389  1.00  0.00     0.074 A 
ATOM     41  C   UNL A   1      44.720  25.351  28.340  1.00  0.00     0.049 A 
ATOM     42  N   UNL A   1      42.054  26.850  26.953  1.00  0.00    -0.248 NA
ATOM     43  C   UNL A   1      41.294  24.814  27.754  1.00  0.00     0.031 C 
ATOM     44  C   UNL A   1      45.935  24.564  28.630  1.00  0.00     0.029 A 
ATOM     45  N   UNL A   1      44.705  26.246  29.362  1.00  0.00    -0.354 N 
ATOM     46  C   UNL A   1      40.689  26.937  27.239  1.00  0.00     0.074 A 
ATOM     47  C   UNL A   1      40.249  25.591  27.465  1.00  0.00     0.031 C 
ATOM     48  C   UNL A   1      46.390  24.864  29.865  1.00  0.00     0.029 A 
ATOM     49  C   UNL A   1      45.615  25.974  30.384  1.00  0.00     0.049 A 
ATOM     50  H   UNL A   1      44.102  27.025  29.378  1.00  0.00     0.167 HD
ATOM     51  C   UNL A   1      40.114  28.130  27.570  1.00  0.00     0.034 A 
ATOM     52  C   UNL A   1      45.697  26.590  31.590  1.00  0.00     0.034 A 
ATOM     53  C   UNL A   1      41.035  29.212  27.312  1.00  0.00     0.049 A 
ATOM     54  C   UNL A   1      44.955  27.858  31.480  1.00  0.00     0.074 A 
ATOM     55  C   UNL A   1      41.630  29.774  26.205  1.00  0.00     0.029 A 
ATOM     56  N   UNL A   1      41.764  29.614  28.405  1.00  0.00    -0.354 N 
ATOM     57  N   UNL A   1      45.348  28.842  30.726  1.00  0.00    -0.248 NA
ATOM     58  C   UNL A   1      43.555  27.880  31.869  1.00  0.00     0.031 C 
ATOM     59  C   UNL A   1      42.924  30.183  26.646  1.00  0.00     0.029 A 
ATOM     60  C   UNL A   1      43.036  29.916  28.012  1.00  0.00     0.049 A 
ATOM     61  H   UNL A   1      41.423  29.673  29.326  1.00  0.00     0.167 HD
ATOM     62  C   UNL A   1      44.176  29.317  30.161  1.00  0.00     0.074 A 
ATOM     63  C   UNL A   1      43.108  28.807  31.017  1.00  0.00     0.031 C 
ATOM     64  C   UNL A   1      44.182  29.808  28.888  1.00  0.00     0.034 A 
BRANCH  51  65
ATOM     65  C   UNL A   1      38.947  28.344  28.528  1.00  0.00     0.023 A 
ATOM     66  C   UNL A   1      37.793  28.963  27.983  1.00  0.00     0.012 A 
ATOM     67  C   UNL A   1      38.998  28.254  29.938  1.00  0.00     0.148 A 
ATOM     68  C   UNL A   1      36.807  29.543  28.788  1.00  0.00     0.002 A 
ATOM     69  C   UNL A   1      37.985  28.780  30.737  1.00  0.00     0.091 A 
ATOM     70  F   UNL A   1      40.075  27.758  30.546  1.00  0.00    -0.205 F 
ATOM     71  C   UNL A   1      36.906  29.458  30.168  1.00  0.00     0.022 A 
BRANCH  69  72
ATOM     72  S   UNL A   1      38.040  28.672  32.532  1.00  0.00     0.127 S 
ATOM     73  O   UNL A   1      39.206  29.495  32.838  1.00  0.00    -0.237 OA
ATOM     74  O   UNL A   1      36.751  29.255  32.904  1.00  0.00    -0.237 OA
ATOM     75  O   UNL A   1      38.164  27.252  32.840  1.00  0.00    -0.744 OA
ENDBRANCH  69  72
ENDBRANCH  51  65
BRANCH  52  76
ATOM     76  C   UNL A   1      46.152  26.091  32.902  1.00  0.00     0.023 A 
ATOM     77  C   UNL A   1      47.129  26.783  33.643  1.00  0.00     0.012 A 
ATOM     78  C   UNL A   1      45.390  25.107  33.557  1.00  0.00     0.148 A 
ATOM     79  C   UNL A   1      47.318  26.524  35.007  1.00  0.00     0.002 A 
ATOM     80  C   UNL A   1      45.576  24.860  34.912  1.00  0.00     0.091 A 
ATOM     81  F   UNL A   1      44.428  24.485  32.862  1.00  0.00    -0.205 F 
ATOM     82  C   UNL A   1      46.530  25.573  35.648  1.00  0.00     0.022 A 
BRANCH  80  83
ATOM     83  S   UNL A   1      44.555  23.680  35.794  1.00  0.00     0.127 S 
ATOM     84  O   UNL A   1      43.227  24.270  35.614  1.00  0.00    -0.237 OA
ATOM     85  O   UNL A   1      44.805  22.456  35.038  1.00  0.00    -0.237 OA
ATOM     86  O   UNL A   1      45.070  23.709  37.157  1.00  0.00    -0.744 OA
ENDBRANCH  80  83
ENDBRANCH  52  76
BRANCH  64  87
ATOM     87  C   UNL A   1      45.529  30.071  28.264  1.00  0.00     0.023 A 
ATOM     88  C   UNL A   1      46.380  31.116  28.685  1.00  0.00     0.012 A 
ATOM     89  C   UNL A   1      46.001  29.146  27.326  1.00  0.00     0.148 A 
ATOM     90  C   UNL A   1      47.671  31.242  28.164  1.00  0.00     0.002 A 
ATOM     91  C   UNL A   1      47.301  29.244  26.848  1.00  0.00     0.091 A 
ATOM     92  F   UNL A   1      45.176  28.162  26.939  1.00  0.00    -0.205 F 
ATOM     93  C   UNL A   1      48.137  30.297  27.255  1.00  0.00     0.022 A 
BRANCH  91  94
ATOM     94  S   UNL A   1      47.994  27.982  25.783  1.00  0.00     0.127 S 
ATOM     95  O   UNL A   1      47.739  26.763  26.546  1.00  0.00    -0.237 OA
ATOM     96  O   UNL A   1      47.192  28.125  24.567  1.00  0.00    -0.237 OA
ATOM     97  O   UNL A   1      49.400  28.332  25.610  1.00  0.00    -0.744 OA
ENDBRANCH  91  94
ENDBRANCH  64  87
ENDBRANCH  38  39
ENDBRANCH  30  33
ENDBRANCH  28  29
ENDBRANCH  27  28
ENDBRANCH   1  27
TORSDOF 18
ENDMDL
MODEL 3
REMARK VINA RESULT:     -10.9      3.136      7.338
REMARK SMILES O=C(CSc1nnc(C2CC2)n1-c1cccc2ccccc12)NCCCCNC(=O)c1ccc(-c2c3nc(c(-c4cccc(S(=O)(=O)[O-])c4F)c4ccc([nH]4)c(-c4cccc(S(=O)(=O)[O-])c4F)c4nc(c(-c5cccc(S(=O)(=O)[O-])c5F)c5ccc2[nH]5)C=C4)C=C3)cc1
REMARK SMILES IDX 25 1 24 2 23 3 1 4 2 5 3 7 4 8 5 9 6 10 12 11 7 12 8 13
REMARK SMILES IDX 13 14 14 15 22 16 15 17 17 18 21 19 16 20 18 21 20 22 19 23
REMARK SMILES IDX 9 24 10 25 11 26 26 27 27 28 28 29 29 30 30 32 31 33 32 34
REMARK SMILES IDX 93 35 33 36 92 37 34 38 35 39 36 40 86 41 37 42 91 43 85 44
REMARK SMILES IDX 87 45 38 46 90 47 84 48 83 49 39 51 71 52 51 53 70 54 52 55
REMARK SMILES IDX 55 56 69 57 88 58 53 59 54 60 68 62 89 63 56 64 40 65 41 66
REMARK SMILES IDX 49 67 42 68 44 69 50 70 43 71 45 72 46 73 47 74 48 75 72 76
REMARK SMILES IDX 73 77 81 78 74 79 76 80 82 81 75 82 77 83 78 84 79 85 80 86
REMARK SMILES IDX 57 87 58 88 66 89 59 90 61 91 67 92 60 93 62 94 63 95 64 96
REMARK SMILES IDX 65 97
REMARK H PARENT 23 6 28 31 87 50 55 61
REMARK Flexibility Score: inf
ROOT
ATOM      1  C   UNL A   1      41.492  21.604  27.745  1.00  0.00     0.023 C 
ENDROOT
BRANCH   1   2
ATOM      2  C   UNL A   1      40.086  21.423  27.180  1.00  0.00     0.116 C 
BRANCH   2   3
ATOM      3  N   UNL A   1      39.549  22.477  26.344  1.00  0.00    -0.355 N 
ATOM      4  O   UNL A   1      37.920  21.188  25.364  1.00  0.00    -0.274 OA
ATOM      5  C   UNL A   1      38.345  22.301  25.673  1.00  0.00     0.230 C 
ATOM      6  H   UNL A   1      40.041  23.325  26.250  1.00  0.00     0.163 HD
BRANCH   5   7
ATOM      7  C   UNL A   1      37.603  23.574  25.273  1.00  0.00     0.178 C 
BRANCH   7   8
ATOM      8  S   UNL A   1      36.269  23.229  24.099  1.00  0.00    -0.076 SA
BRANCH   8   9
ATOM      9  C   UNL A   1      34.838  23.415  25.065  1.00  0.00     0.196 A 
ATOM     10  N   UNL A   1      34.670  22.983  26.294  1.00  0.00    -0.123 NA
ATOM     11  N   UNL A   1      33.669  23.992  24.620  1.00  0.00    -0.273 N 
ATOM     12  N   UNL A   1      33.321  23.098  26.589  1.00  0.00    -0.134 NA
ATOM     13  C   UNL A   1      32.707  23.582  25.521  1.00  0.00     0.141 A 
BRANCH  11  14
ATOM     14  C   UNL A   1      33.577  25.163  23.841  1.00  0.00     0.057 A 
ATOM     15  C   UNL A   1      33.225  25.012  22.499  1.00  0.00     0.027 A 
ATOM     16  C   UNL A   1      33.647  26.441  24.481  1.00  0.00     0.006 A 
ATOM     17  C   UNL A   1      32.939  26.148  21.752  1.00  0.00     0.003 A 
ATOM     18  C   UNL A   1      33.377  27.577  23.688  1.00  0.00    -0.016 A 
ATOM     19  C   UNL A   1      33.901  26.652  25.865  1.00  0.00     0.011 A 
ATOM     20  C   UNL A   1      33.049  27.415  22.330  1.00  0.00     0.009 A 
ATOM     21  C   UNL A   1      33.372  28.854  24.276  1.00  0.00     0.009 A 
ATOM     22  C   UNL A   1      33.820  27.916  26.446  1.00  0.00     0.001 A 
ATOM     23  C   UNL A   1      33.563  29.021  25.648  1.00  0.00     0.001 A 
ENDBRANCH  11  14
BRANCH  13  24
ATOM     24  C   UNL A   1      31.180  23.662  25.390  1.00  0.00     0.058 C 
ATOM     25  C   UNL A   1      30.231  23.620  26.577  1.00  0.00     0.012 C 
ATOM     26  C   UNL A   1      30.465  24.914  25.886  1.00  0.00     0.012 C 
ENDBRANCH  13  24
ENDBRANCH   8   9
ENDBRANCH   7   8
ENDBRANCH   5   7
ENDBRANCH   2   3
ENDBRANCH   1   2
BRANCH   1  27
ATOM     27  C   UNL A   1      42.566  20.636  27.241  1.00  0.00     0.023 C 
BRANCH  27  28
ATOM     28  C   UNL A   1      42.334  20.085  25.840  1.00  0.00     0.116 C 
BRANCH  28  29
ATOM     29  N   UNL A   1      43.558  19.769  25.091  1.00  0.00    -0.352 N 
ATOM     30  C   UNL A   1      44.478  20.678  24.584  1.00  0.00     0.251 C 
ATOM     31  H   UNL A   1      43.746  18.816  24.933  1.00  0.00     0.163 HD
ATOM     32  O   UNL A   1      45.300  20.353  23.728  1.00  0.00    -0.269 OA
BRANCH  30  33
ATOM     33  C   UNL A   1      44.470  22.046  25.132  1.00  0.00     0.039 A 
ATOM     34  C   UNL A   1      43.588  23.048  24.707  1.00  0.00     0.014 A 
ATOM     35  C   UNL A   1      45.374  22.285  26.161  1.00  0.00     0.014 A 
ATOM     36  C   UNL A   1      43.589  24.271  25.381  1.00  0.00     0.010 A 
ATOM     37  C   UNL A   1      45.222  23.385  26.950  1.00  0.00     0.010 A 
ATOM     38  C   UNL A   1      44.410  24.420  26.506  1.00  0.00    -0.014 A 
BRANCH  38  39
ATOM     39  C   UNL A   1      44.448  25.624  27.324  1.00  0.00     0.031 A 
ATOM     40  C   UNL A   1      45.580  26.537  27.013  1.00  0.00     0.074 A 
ATOM     41  C   UNL A   1      43.348  25.991  28.025  1.00  0.00     0.049 A 
ATOM     42  N   UNL A   1      46.588  26.839  27.765  1.00  0.00    -0.248 NA
ATOM     43  C   UNL A   1      45.704  27.040  25.634  1.00  0.00     0.031 C 
ATOM     44  C   UNL A   1      42.045  25.300  28.073  1.00  0.00     0.029 A 
ATOM     45  N   UNL A   1      43.092  27.140  28.705  1.00  0.00    -0.354 N 
ATOM     46  C   UNL A   1      47.325  27.777  27.037  1.00  0.00     0.074 A 
ATOM     47  C   UNL A   1      46.893  27.643  25.675  1.00  0.00     0.031 C 
ATOM     48  C   UNL A   1      41.096  26.145  28.529  1.00  0.00     0.029 A 
ATOM     49  C   UNL A   1      41.740  27.368  28.966  1.00  0.00     0.049 A 
ATOM     50  H   UNL A   1      43.802  27.759  28.991  1.00  0.00     0.167 HD
ATOM     51  C   UNL A   1      47.995  28.787  27.664  1.00  0.00     0.034 A 
ATOM     52  C   UNL A   1      41.185  28.500  29.467  1.00  0.00     0.034 A 
ATOM     53  C   UNL A   1      48.024  28.552  29.088  1.00  0.00     0.049 A 
ATOM     54  C   UNL A   1      42.274  29.283  30.077  1.00  0.00     0.074 A 
ATOM     55  C   UNL A   1      48.580  27.620  29.936  1.00  0.00     0.029 A 
ATOM     56  N   UNL A   1      47.031  29.190  29.792  1.00  0.00    -0.354 N 
ATOM     57  N   UNL A   1      42.916  28.890  31.137  1.00  0.00    -0.248 NA
ATOM     58  C   UNL A   1      42.941  30.291  29.271  1.00  0.00     0.031 C 
ATOM     59  C   UNL A   1      47.639  27.474  30.998  1.00  0.00     0.029 A 
ATOM     60  C   UNL A   1      46.587  28.370  30.789  1.00  0.00     0.049 A 
ATOM     61  H   UNL A   1      46.693  30.095  29.607  1.00  0.00     0.167 HD
ATOM     62  C   UNL A   1      44.234  29.225  30.872  1.00  0.00     0.074 A 
ATOM     63  C   UNL A   1      44.164  30.220  29.803  1.00  0.00     0.031 C 
ATOM     64  C   UNL A   1      45.246  28.431  31.327  1.00  0.00     0.034 A 
BRANCH  51  65
ATOM     65  C   UNL A   1      48.233  30.194  27.126  1.00  0.00     0.023 A 
ATOM     66  C   UNL A   1      49.579  30.639  27.106  1.00  0.00     0.012 A 
ATOM     67  C   UNL A   1      47.246  31.185  26.918  1.00  0.00     0.148 A 
ATOM     68  C   UNL A   1      49.916  31.991  26.989  1.00  0.00     0.002 A 
ATOM     69  C   UNL A   1      47.588  32.524  26.742  1.00  0.00     0.091 A 
ATOM     70  F   UNL A   1      45.952  30.878  26.994  1.00  0.00    -0.205 F 
ATOM     71  C   UNL A   1      48.919  32.938  26.813  1.00  0.00     0.022 A 
BRANCH  69  72
ATOM     72  S   UNL A   1      46.341  33.795  26.476  1.00  0.00     0.127 S 
ATOM     73  O   UNL A   1      47.169  34.955  26.164  1.00  0.00    -0.237 OA
ATOM     74  O   UNL A   1      45.591  33.243  25.348  1.00  0.00    -0.237 OA
ATOM     75  O   UNL A   1      45.581  33.870  27.718  1.00  0.00    -0.744 OA
ENDBRANCH  69  72
ENDBRANCH  51  65
BRANCH  52  76
ATOM     76  C   UNL A   1      39.848  29.091  29.269  1.00  0.00     0.023 A 
ATOM     77  C   UNL A   1      39.121  28.861  28.084  1.00  0.00     0.012 A 
ATOM     78  C   UNL A   1      39.165  29.617  30.379  1.00  0.00     0.148 A 
ATOM     79  C   UNL A   1      37.745  29.118  28.020  1.00  0.00     0.002 A 
ATOM     80  C   UNL A   1      37.798  29.862  30.313  1.00  0.00     0.091 A 
ATOM     81  F   UNL A   1      39.847  29.790  31.519  1.00  0.00    -0.205 F 
ATOM     82  C   UNL A   1      37.078  29.604  29.140  1.00  0.00     0.022 A 
BRANCH  80  83
ATOM     83  S   UNL A   1      36.883  30.444  31.741  1.00  0.00     0.127 S 
ATOM     84  O   UNL A   1      37.765  31.509  32.221  1.00  0.00    -0.237 OA
ATOM     85  O   UNL A   1      35.637  30.891  31.126  1.00  0.00    -0.237 OA
ATOM     86  O   UNL A   1      36.790  29.275  32.606  1.00  0.00    -0.744 OA
ENDBRANCH  80  83
ENDBRANCH  52  76
BRANCH  64  87
ATOM     87  C   UNL A   1      44.883  27.380  32.345  1.00  0.00     0.023 A 
ATOM     88  C   UNL A   1      44.589  26.043  31.998  1.00  0.00     0.012 A 
ATOM     89  C   UNL A   1      44.983  27.724  33.698  1.00  0.00     0.148 A 
ATOM     90  C   UNL A   1      44.382  25.076  32.985  1.00  0.00     0.002 A 
ATOM     91  C   UNL A   1      44.828  26.751  34.675  1.00  0.00     0.091 A 
ATOM     92  F   UNL A   1      45.263  29.000  34.006  1.00  0.00    -0.205 F 
ATOM     93  C   UNL A   1      44.516  25.427  34.325  1.00  0.00     0.022 A 
BRANCH  91  94
ATOM     94  S   UNL A   1      45.121  27.118  36.404  1.00  0.00     0.127 S 
ATOM     95  O   UNL A   1      46.280  28.005  36.336  1.00  0.00    -0.237 OA
ATOM     96  O   UNL A   1      43.872  27.770  36.801  1.00  0.00    -0.237 OA
ATOM     97  O   UNL A   1      45.351  25.833  37.053  1.00  0.00    -0.744 OA
ENDBRANCH  91  94
ENDBRANCH  64  87
ENDBRANCH  38  39
ENDBRANCH  30  33
ENDBRANCH  28  29
ENDBRANCH  27  28
ENDBRANCH   1  27
TORSDOF 18
ENDMDL
