MODEL 1
REMARK VINA RESULT:     -13.3      0.000      0.000
REMARK SMILES COc1ccc2c(c1)C(=O)N(c1ccccc1C(=O)NCCCCNC(=O)c1ccc(-c3c4nc(c(-c5cccc(S(=O)(=O)[O-])c5F)c5ccc([nH]5)c(-c5cccc(S(=O)(=O)[O-])c5F)c5nc(c(-c6cccc(S(=O)(=O)[O-])c6F)c6ccc3[nH]6)C=C5)C=C4)cc1)C2=O
REMARK SMILES IDX 23 1 22 2 21 3 20 4 18 5 19 6 17 8 12 9 13 10 14 11 16 12
REMARK SMILES IDX 15 13 11 14 3 15 4 16 8 17 5 18 7 19 6 20 9 21 91 22 10 23
REMARK SMILES IDX 92 24 2 25 1 26 24 27 25 28 26 29 27 31 28 32 29 33 90 34
REMARK SMILES IDX 30 35 89 36 31 37 32 38 33 39 83 40 34 41 88 42 82 43 84 44
REMARK SMILES IDX 35 45 87 46 81 47 80 48 36 50 68 51 48 52 67 53 49 54 52 55
REMARK SMILES IDX 66 56 85 57 50 58 51 59 65 61 86 62 53 63 37 64 38 65 46 66
REMARK SMILES IDX 39 67 41 68 47 69 40 70 42 71 43 72 44 73 45 74 69 75 70 76
REMARK SMILES IDX 78 77 71 78 73 79 79 80 72 81 74 82 75 83 76 84 77 85 54 86
REMARK SMILES IDX 55 87 63 88 56 89 58 90 64 91 57 92 59 93 60 94 61 95 62 96
REMARK H PARENT 20 7 25 30 84 49 52 60
REMARK Flexibility Score: inf
ROOT
ATOM      1  C   UNL A   1      31.459  30.909  26.886  1.00  0.00     0.023 C 
ENDROOT
BRANCH   1   2
ATOM      2  C   UNL A   1      31.844  29.590  26.218  1.00  0.00     0.023 C 
BRANCH   2   3
ATOM      3  C   UNL A   1      32.404  28.493  27.112  1.00  0.00     0.116 C 
BRANCH   3   4
ATOM      4  N   UNL A   1      31.640  27.277  27.224  1.00  0.00    -0.352 N 
ATOM      5  C   UNL A   1      31.737  26.079  26.548  1.00  0.00     0.253 C 
ATOM      6  O   UNL A   1      30.995  25.169  26.929  1.00  0.00    -0.269 OA
ATOM      7  H   UNL A   1      30.925  27.307  27.901  1.00  0.00     0.163 HD
BRANCH   5   8
ATOM      8  C   UNL A   1      32.557  25.838  25.313  1.00  0.00     0.064 A 
ATOM      9  C   UNL A   1      32.329  26.248  23.984  1.00  0.00     0.065 A 
ATOM     10  C   UNL A   1      33.207  25.807  22.965  1.00  0.00     0.028 A 
ATOM     11  C   UNL A   1      34.322  25.020  23.241  1.00  0.00     0.002 A 
ATOM     12  C   UNL A   1      33.700  25.037  25.563  1.00  0.00     0.016 A 
ATOM     13  C   UNL A   1      34.575  24.639  24.548  1.00  0.00     0.001 A 
BRANCH   9  14
ATOM     14  N   UNL A   1      31.279  27.086  23.556  1.00  0.00    -0.241 N 
ATOM     15  C   UNL A   1      28.238  30.350  22.515  1.00  0.00     0.119 A 
ATOM     16  C   UNL A   1      27.353  29.329  22.936  1.00  0.00     0.047 A 
ATOM     17  C   UNL A   1      29.616  30.116  22.462  1.00  0.00     0.061 A 
ATOM     18  C   UNL A   1      27.816  28.065  23.298  1.00  0.00     0.018 A 
ATOM     19  C   UNL A   1      30.055  28.861  22.840  1.00  0.00     0.057 A 
ATOM     20  C   UNL A   1      29.176  27.862  23.220  1.00  0.00     0.053 A 
ATOM     21  C   UNL A   1      31.419  28.355  23.049  1.00  0.00     0.266 C 
ATOM     22  C   UNL A   1      29.958  26.699  23.610  1.00  0.00     0.266 C 
ATOM     23  O   UNL A   1      32.418  28.995  22.786  1.00  0.00    -0.268 OA
ATOM     24  O   UNL A   1      29.452  25.654  23.975  1.00  0.00    -0.268 OA
BRANCH  15  25
ATOM     25  O   UNL A   1      27.613  31.528  22.217  1.00  0.00    -0.497 OA
ATOM     26  C   UNL A   1      28.244  32.391  21.282  1.00  0.00     0.278 C 
ENDBRANCH  15  25
ENDBRANCH   9  14
ENDBRANCH   5   8
ENDBRANCH   3   4
ENDBRANCH   2   3
ENDBRANCH   1   2
BRANCH   1  27
ATOM     27  C   UNL A   1      32.028  32.204  26.301  1.00  0.00     0.116 C 
BRANCH  27  28
ATOM     28  N   UNL A   1      32.210  33.291  27.256  1.00  0.00    -0.352 N 
ATOM     29  C   UNL A   1      33.262  33.573  28.104  1.00  0.00     0.251 C 
ATOM     30  H   UNL A   1      31.459  33.926  27.306  1.00  0.00     0.163 HD
ATOM     31  O   UNL A   1      33.147  34.495  28.909  1.00  0.00    -0.269 OA
BRANCH  29  32
ATOM     32  C   UNL A   1      34.485  32.730  28.132  1.00  0.00     0.039 A 
ATOM     33  C   UNL A   1      35.721  33.383  28.064  1.00  0.00     0.014 A 
ATOM     34  C   UNL A   1      34.445  31.350  28.340  1.00  0.00     0.014 A 
ATOM     35  C   UNL A   1      36.888  32.701  28.410  1.00  0.00     0.010 A 
ATOM     36  C   UNL A   1      35.591  30.691  28.775  1.00  0.00     0.010 A 
ATOM     37  C   UNL A   1      36.805  31.383  28.884  1.00  0.00    -0.014 A 
BRANCH  37  38
ATOM     38  C   UNL A   1      37.916  30.807  29.681  1.00  0.00     0.031 A 
ATOM     39  C   UNL A   1      38.185  31.253  31.084  1.00  0.00     0.074 A 
ATOM     40  C   UNL A   1      38.756  29.949  29.062  1.00  0.00     0.049 A 
ATOM     41  N   UNL A   1      39.114  30.845  31.908  1.00  0.00    -0.248 NA
ATOM     42  C   UNL A   1      37.320  32.310  31.626  1.00  0.00     0.031 C 
ATOM     43  C   UNL A   1      38.653  29.536  27.658  1.00  0.00     0.029 A 
ATOM     44  N   UNL A   1      39.866  29.285  29.516  1.00  0.00    -0.354 N 
ATOM     45  C   UNL A   1      38.962  31.605  33.059  1.00  0.00     0.074 A 
ATOM     46  C   UNL A   1      37.872  32.526  32.812  1.00  0.00     0.031 C 
ATOM     47  C   UNL A   1      39.640  28.673  27.374  1.00  0.00     0.029 A 
ATOM     48  C   UNL A   1      40.467  28.495  28.560  1.00  0.00     0.049 A 
ATOM     49  H   UNL A   1      40.204  29.365  30.437  1.00  0.00     0.167 HD
ATOM     50  C   UNL A   1      39.651  31.523  34.221  1.00  0.00     0.034 A 
ATOM     51  C   UNL A   1      41.559  27.713  28.631  1.00  0.00     0.034 A 
ATOM     52  C   UNL A   1      40.727  30.596  34.450  1.00  0.00     0.049 A 
ATOM     53  C   UNL A   1      42.284  27.614  29.943  1.00  0.00     0.074 A 
ATOM     54  C   UNL A   1      41.436  30.367  35.616  1.00  0.00     0.029 A 
ATOM     55  N   UNL A   1      41.267  29.758  33.483  1.00  0.00    -0.354 N 
ATOM     56  N   UNL A   1      42.004  28.200  31.082  1.00  0.00    -0.248 NA
ATOM     57  C   UNL A   1      43.453  26.726  29.991  1.00  0.00     0.031 C 
ATOM     58  C   UNL A   1      42.424  29.412  35.345  1.00  0.00     0.029 A 
ATOM     59  C   UNL A   1      42.314  29.027  34.018  1.00  0.00     0.049 A 
ATOM     60  H   UNL A   1      40.952  29.695  32.553  1.00  0.00     0.167 HD
ATOM     61  C   UNL A   1      42.949  27.738  31.990  1.00  0.00     0.074 A 
ATOM     62  C   UNL A   1      43.789  26.799  31.272  1.00  0.00     0.031 C 
ATOM     63  C   UNL A   1      43.118  28.074  33.292  1.00  0.00     0.034 A 
BRANCH  50  64
ATOM     64  C   UNL A   1      39.225  32.437  35.343  1.00  0.00     0.023 A 
ATOM     65  C   UNL A   1      38.226  32.010  36.242  1.00  0.00     0.012 A 
ATOM     66  C   UNL A   1      39.817  33.701  35.521  1.00  0.00     0.148 A 
ATOM     67  C   UNL A   1      37.790  32.844  37.272  1.00  0.00     0.002 A 
ATOM     68  C   UNL A   1      39.408  34.510  36.575  1.00  0.00     0.091 A 
ATOM     69  F   UNL A   1      40.751  34.101  34.646  1.00  0.00    -0.205 F 
ATOM     70  C   UNL A   1      38.386  34.089  37.442  1.00  0.00     0.022 A 
BRANCH  68  71
ATOM     71  S   UNL A   1      40.158  36.105  36.921  1.00  0.00     0.127 S 
ATOM     72  O   UNL A   1      41.551  35.729  37.161  1.00  0.00    -0.237 OA
ATOM     73  O   UNL A   1      39.930  36.830  35.671  1.00  0.00    -0.237 OA
ATOM     74  O   UNL A   1      39.446  36.641  38.072  1.00  0.00    -0.744 OA
ENDBRANCH  68  71
ENDBRANCH  50  64
BRANCH  51  75
ATOM     75  C   UNL A   1      41.978  26.908  27.446  1.00  0.00     0.023 A 
ATOM     76  C   UNL A   1      42.682  27.535  26.401  1.00  0.00     0.012 A 
ATOM     77  C   UNL A   1      41.735  25.522  27.375  1.00  0.00     0.148 A 
ATOM     78  C   UNL A   1      43.114  26.804  25.293  1.00  0.00     0.002 A 
ATOM     79  C   UNL A   1      42.215  24.789  26.294  1.00  0.00     0.091 A 
ATOM     80  F   UNL A   1      41.058  24.943  28.377  1.00  0.00    -0.205 F 
ATOM     81  C   UNL A   1      42.891  25.430  25.245  1.00  0.00     0.022 A 
BRANCH  79  82
ATOM     82  S   UNL A   1      42.091  22.998  26.210  1.00  0.00     0.127 S 
ATOM     83  O   UNL A   1      42.756  22.712  24.941  1.00  0.00    -0.237 OA
ATOM     84  O   UNL A   1      42.836  22.588  27.402  1.00  0.00    -0.237 OA
ATOM     85  O   UNL A   1      40.667  22.699  26.260  1.00  0.00    -0.744 OA
ENDBRANCH  79  82
ENDBRANCH  51  75
BRANCH  63  86
ATOM     86  C   UNL A   1      44.256  27.419  34.029  1.00  0.00     0.023 A 
ATOM     87  C   UNL A   1      45.542  27.991  33.973  1.00  0.00     0.012 A 
ATOM     88  C   UNL A   1      44.037  26.283  34.832  1.00  0.00     0.148 A 
ATOM     89  C   UNL A   1      46.601  27.424  34.682  1.00  0.00     0.002 A 
ATOM     90  C   UNL A   1      45.084  25.754  35.575  1.00  0.00     0.091 A 
ATOM     91  F   UNL A   1      42.810  25.743  34.853  1.00  0.00    -0.205 F 
ATOM     92  C   UNL A   1      46.369  26.315  35.492  1.00  0.00     0.022 A 
BRANCH  90  93
ATOM     93  S   UNL A   1      44.859  24.389  36.720  1.00  0.00     0.127 S 
ATOM     94  O   UNL A   1      44.376  23.332  35.832  1.00  0.00    -0.237 OA
ATOM     95  O   UNL A   1      46.215  24.186  37.230  1.00  0.00    -0.237 OA
ATOM     96  O   UNL A   1      43.903  24.853  37.716  1.00  0.00    -0.744 OA
ENDBRANCH  90  93
ENDBRANCH  63  86
ENDBRANCH  37  38
ENDBRANCH  29  32
ENDBRANCH  27  28
ENDBRANCH   1  27
TORSDOF 16
ENDMDL
MODEL 2
REMARK VINA RESULT:     -13.0      5.706      9.119
REMARK SMILES COc1ccc2c(c1)C(=O)N(c1ccccc1C(=O)NCCCCNC(=O)c1ccc(-c3c4nc(c(-c5cccc(S(=O)(=O)[O-])c5F)c5ccc([nH]5)c(-c5cccc(S(=O)(=O)[O-])c5F)c5nc(c(-c6cccc(S(=O)(=O)[O-])c6F)c6ccc3[nH]6)C=C5)C=C4)cc1)C2=O
REMARK SMILES IDX 23 1 22 2 21 3 20 4 18 5 19 6 17 8 12 9 13 10 14 11 16 12
REMARK SMILES IDX 15 13 11 14 3 15 4 16 8 17 5 18 7 19 6 20 9 21 91 22 10 23
REMARK SMILES IDX 92 24 2 25 1 26 24 27 25 28 26 29 27 31 28 32 29 33 90 34
REMARK SMILES IDX 30 35 89 36 31 37 32 38 33 39 83 40 34 41 88 42 82 43 84 44
REMARK SMILES IDX 35 45 87 46 81 47 80 48 36 50 68 51 48 52 67 53 49 54 52 55
REMARK SMILES IDX 66 56 85 57 50 58 51 59 65 61 86 62 53 63 37 64 38 65 46 66
REMARK SMILES IDX 39 67 41 68 47 69 40 70 42 71 43 72 44 73 45 74 69 75 70 76
REMARK SMILES IDX 78 77 71 78 73 79 79 80 72 81 74 82 75 83 76 84 77 85 54 86
REMARK SMILES IDX 55 87 63 88 56 89 58 90 64 91 57 92 59 93 60 94 61 95 62 96
REMARK H PARENT 20 7 25 30 84 49 52 60
REMARK Flexibility Score: inf
ROOT
ATOM      1  C   UNL A   1      37.729  20.484  24.758  1.00  0.00     0.023 C 
ENDROOT
BRANCH   1   2
ATOM      2  C   UNL A   1      36.666  21.518  25.128  1.00  0.00     0.023 C 
BRANCH   2   3
ATOM      3  C   UNL A   1      36.821  22.916  24.547  1.00  0.00     0.116 C 
BRANCH   3   4
ATOM      4  N   UNL A   1      35.989  23.262  23.424  1.00  0.00    -0.352 N 
ATOM      5  C   UNL A   1      34.737  23.838  23.367  1.00  0.00     0.253 C 
ATOM      6  O   UNL A   1      34.304  24.105  22.242  1.00  0.00    -0.269 OA
ATOM      7  H   UNL A   1      36.381  23.050  22.546  1.00  0.00     0.163 HD
BRANCH   5   8
ATOM      8  C   UNL A   1      33.812  24.035  24.534  1.00  0.00     0.064 A 
ATOM      9  C   UNL A   1      32.936  23.123  25.154  1.00  0.00     0.065 A 
ATOM     10  C   UNL A   1      32.083  23.578  26.188  1.00  0.00     0.028 A 
ATOM     11  C   UNL A   1      32.119  24.892  26.649  1.00  0.00     0.002 A 
ATOM     12  C   UNL A   1      33.825  25.366  25.025  1.00  0.00     0.016 A 
ATOM     13  C   UNL A   1      32.999  25.789  26.070  1.00  0.00     0.001 A 
BRANCH   9  14
ATOM     14  N   UNL A   1      32.823  21.754  24.838  1.00  0.00    -0.241 N 
ATOM     15  C   UNL A   1      33.139  17.242  24.103  1.00  0.00     0.119 A 
ATOM     16  C   UNL A   1      32.640  17.653  22.844  1.00  0.00     0.047 A 
ATOM     17  C   UNL A   1      33.317  18.173  25.131  1.00  0.00     0.061 A 
ATOM     18  C   UNL A   1      32.301  18.981  22.589  1.00  0.00     0.018 A 
ATOM     19  C   UNL A   1      32.990  19.488  24.854  1.00  0.00     0.057 A 
ATOM     20  C   UNL A   1      32.474  19.869  23.627  1.00  0.00     0.053 A 
ATOM     21  C   UNL A   1      33.208  20.708  25.642  1.00  0.00     0.266 C 
ATOM     22  C   UNL A   1      32.299  21.313  23.643  1.00  0.00     0.266 C 
ATOM     23  O   UNL A   1      33.636  20.703  26.780  1.00  0.00    -0.268 OA
ATOM     24  O   UNL A   1      31.841  21.934  22.701  1.00  0.00    -0.268 OA
BRANCH  15  25
ATOM     25  O   UNL A   1      33.435  15.910  24.168  1.00  0.00    -0.497 OA
ATOM     26  C   UNL A   1      34.210  15.460  25.269  1.00  0.00     0.278 C 
ENDBRANCH  15  25
ENDBRANCH   9  14
ENDBRANCH   5   8
ENDBRANCH   3   4
ENDBRANCH   2   3
ENDBRANCH   1   2
BRANCH   1  27
ATOM     27  C   UNL A   1      38.378  19.683  25.890  1.00  0.00     0.116 C 
BRANCH  27  28
ATOM     28  N   UNL A   1      39.801  19.416  25.725  1.00  0.00    -0.352 N 
ATOM     29  C   UNL A   1      40.901  20.187  26.044  1.00  0.00     0.251 C 
ATOM     30  H   UNL A   1      40.013  18.544  25.319  1.00  0.00     0.163 HD
ATOM     31  O   UNL A   1      42.019  19.796  25.711  1.00  0.00    -0.269 OA
BRANCH  29  32
ATOM     32  C   UNL A   1      40.758  21.517  26.689  1.00  0.00     0.039 A 
ATOM     33  C   UNL A   1      41.444  21.729  27.891  1.00  0.00     0.014 A 
ATOM     34  C   UNL A   1      40.074  22.576  26.090  1.00  0.00     0.014 A 
ATOM     35  C   UNL A   1      41.618  23.027  28.372  1.00  0.00     0.010 A 
ATOM     36  C   UNL A   1      40.324  23.878  26.513  1.00  0.00     0.010 A 
ATOM     37  C   UNL A   1      41.159  24.114  27.613  1.00  0.00    -0.014 A 
BRANCH  37  38
ATOM     38  C   UNL A   1      41.721  25.469  27.838  1.00  0.00     0.031 A 
ATOM     39  C   UNL A   1      40.934  26.538  28.529  1.00  0.00     0.074 A 
ATOM     40  C   UNL A   1      42.925  25.749  27.295  1.00  0.00     0.049 A 
ATOM     41  N   UNL A   1      41.286  27.767  28.800  1.00  0.00    -0.248 NA
ATOM     42  C   UNL A   1      39.567  26.196  28.946  1.00  0.00     0.031 C 
ATOM     43  C   UNL A   1      43.729  24.813  26.500  1.00  0.00     0.029 A 
ATOM     44  N   UNL A   1      43.679  26.894  27.306  1.00  0.00    -0.354 N 
ATOM     45  C   UNL A   1      40.182  28.354  29.402  1.00  0.00     0.074 A 
ATOM     46  C   UNL A   1      39.134  27.355  29.423  1.00  0.00     0.031 C 
ATOM     47  C   UNL A   1      44.869  25.411  26.124  1.00  0.00     0.029 A 
ATOM     48  C   UNL A   1      44.867  26.781  26.618  1.00  0.00     0.049 A 
ATOM     49  H   UNL A   1      43.398  27.720  27.763  1.00  0.00     0.167 HD
ATOM     50  C   UNL A   1      40.064  29.602  29.913  1.00  0.00     0.034 A 
ATOM     51  C   UNL A   1      45.847  27.680  26.409  1.00  0.00     0.034 A 
ATOM     52  C   UNL A   1      41.120  30.579  29.890  1.00  0.00     0.049 A 
ATOM     53  C   UNL A   1      45.706  29.046  27.017  1.00  0.00     0.074 A 
ATOM     54  C   UNL A   1      41.140  31.843  30.454  1.00  0.00     0.029 A 
ATOM     55  N   UNL A   1      42.338  30.411  29.246  1.00  0.00    -0.354 N 
ATOM     56  N   UNL A   1      44.729  29.521  27.752  1.00  0.00    -0.248 NA
ATOM     57  C   UNL A   1      46.809  29.990  26.795  1.00  0.00     0.031 C 
ATOM     58  C   UNL A   1      42.359  32.448  30.126  1.00  0.00     0.029 A 
ATOM     59  C   UNL A   1      43.110  31.554  29.379  1.00  0.00     0.049 A 
ATOM     60  H   UNL A   1      42.613  29.598  28.764  1.00  0.00     0.167 HD
ATOM     61  C   UNL A   1      45.107  30.811  28.099  1.00  0.00     0.074 A 
ATOM     62  C   UNL A   1      46.418  31.030  27.518  1.00  0.00     0.031 C 
ATOM     63  C   UNL A   1      44.425  31.738  28.817  1.00  0.00     0.034 A 
BRANCH  50  64
ATOM     64  C   UNL A   1      38.757  29.957  30.576  1.00  0.00     0.023 A 
ATOM     65  C   UNL A   1      38.471  29.446  31.860  1.00  0.00     0.012 A 
ATOM     66  C   UNL A   1      37.824  30.802  29.948  1.00  0.00     0.148 A 
ATOM     67  C   UNL A   1      37.259  29.732  32.486  1.00  0.00     0.002 A 
ATOM     68  C   UNL A   1      36.635  31.117  30.597  1.00  0.00     0.091 A 
ATOM     69  F   UNL A   1      38.101  31.262  28.720  1.00  0.00    -0.205 F 
ATOM     70  C   UNL A   1      36.345  30.573  31.859  1.00  0.00     0.022 A 
BRANCH  68  71
ATOM     71  S   UNL A   1      35.421  32.244  29.902  1.00  0.00     0.127 S 
ATOM     72  O   UNL A   1      34.927  31.476  28.760  1.00  0.00    -0.237 OA
ATOM     73  O   UNL A   1      34.465  32.384  31.001  1.00  0.00    -0.237 OA
ATOM     74  O   UNL A   1      36.148  33.461  29.572  1.00  0.00    -0.744 OA
ENDBRANCH  68  71
ENDBRANCH  50  64
BRANCH  51  75
ATOM     75  C   UNL A   1      47.074  27.284  25.658  1.00  0.00     0.023 A 
ATOM     76  C   UNL A   1      48.025  26.454  26.280  1.00  0.00     0.012 A 
ATOM     77  C   UNL A   1      47.276  27.676  24.319  1.00  0.00     0.148 A 
ATOM     78  C   UNL A   1      49.168  26.041  25.595  1.00  0.00     0.002 A 
ATOM     79  C   UNL A   1      48.390  27.216  23.624  1.00  0.00     0.091 A 
ATOM     80  F   UNL A   1      46.363  28.471  23.745  1.00  0.00    -0.205 F 
ATOM     81  C   UNL A   1      49.346  26.412  24.264  1.00  0.00     0.022 A 
BRANCH  79  82
ATOM     82  S   UNL A   1      48.634  27.534  21.872  1.00  0.00     0.127 S 
ATOM     83  O   UNL A   1      49.689  28.545  21.896  1.00  0.00    -0.237 OA
ATOM     84  O   UNL A   1      49.052  26.219  21.383  1.00  0.00    -0.237 OA
ATOM     85  O   UNL A   1      47.342  27.979  21.369  1.00  0.00    -0.744 OA
ENDBRANCH  79  82
ENDBRANCH  51  75
BRANCH  63  86
ATOM     86  C   UNL A   1      45.086  33.076  29.016  1.00  0.00     0.023 A 
ATOM     87  C   UNL A   1      45.904  33.287  30.145  1.00  0.00     0.012 A 
ATOM     88  C   UNL A   1      44.955  34.096  28.055  1.00  0.00     0.148 A 
ATOM     89  C   UNL A   1      46.558  34.505  30.327  1.00  0.00     0.002 A 
ATOM     90  C   UNL A   1      45.651  35.288  28.217  1.00  0.00     0.091 A 
ATOM     91  F   UNL A   1      44.155  33.881  27.000  1.00  0.00    -0.205 F 
ATOM     92  C   UNL A   1      46.442  35.499  29.358  1.00  0.00     0.022 A 
BRANCH  90  93
ATOM     93  S   UNL A   1      45.640  36.585  26.975  1.00  0.00     0.127 S 
ATOM     94  O   UNL A   1      46.182  35.886  25.810  1.00  0.00    -0.237 OA
ATOM     95  O   UNL A   1      44.217  36.912  26.883  1.00  0.00    -0.237 OA
ATOM     96  O   UNL A   1      46.473  37.656  27.505  1.00  0.00    -0.744 OA
ENDBRANCH  90  93
ENDBRANCH  63  86
ENDBRANCH  37  38
ENDBRANCH  29  32
ENDBRANCH  27  28
ENDBRANCH   1  27
TORSDOF 16
ENDMDL
MODEL 3
REMARK VINA RESULT:     -12.9      5.459     10.883
REMARK SMILES COc1ccc2c(c1)C(=O)N(c1ccccc1C(=O)NCCCCNC(=O)c1ccc(-c3c4nc(c(-c5cccc(S(=O)(=O)[O-])c5F)c5ccc([nH]5)c(-c5cccc(S(=O)(=O)[O-])c5F)c5nc(c(-c6cccc(S(=O)(=O)[O-])c6F)c6ccc3[nH]6)C=C5)C=C4)cc1)C2=O
REMARK SMILES IDX 23 1 22 2 21 3 20 4 18 5 19 6 17 8 12 9 13 10 14 11 16 12
REMARK SMILES IDX 15 13 11 14 3 15 4 16 8 17 5 18 7 19 6 20 9 21 91 22 10 23
REMARK SMILES IDX 92 24 2 25 1 26 24 27 25 28 26 29 27 31 28 32 29 33 90 34
REMARK SMILES IDX 30 35 89 36 31 37 32 38 33 39 83 40 34 41 88 42 82 43 84 44
REMARK SMILES IDX 35 45 87 46 81 47 80 48 36 50 68 51 48 52 67 53 49 54 52 55
REMARK SMILES IDX 66 56 85 57 50 58 51 59 65 61 86 62 53 63 37 64 38 65 46 66
REMARK SMILES IDX 39 67 41 68 47 69 40 70 42 71 43 72 44 73 45 74 69 75 70 76
REMARK SMILES IDX 78 77 71 78 73 79 79 80 72 81 74 82 75 83 76 84 77 85 54 86
REMARK SMILES IDX 55 87 63 88 56 89 58 90 64 91 57 92 59 93 60 94 61 95 62 96
REMARK H PARENT 20 7 25 30 84 49 52 60
REMARK Flexibility Score: inf
ROOT
ATOM      1  C   UNL A   1      37.710  20.332  24.629  1.00  0.00     0.023 C 
ENDROOT
BRANCH   1   2
ATOM      2  C   UNL A   1      36.397  21.085  24.839  1.00  0.00     0.023 C 
BRANCH   2   3
ATOM      3  C   UNL A   1      36.419  22.594  24.642  1.00  0.00     0.116 C 
BRANCH   3   4
ATOM      4  N   UNL A   1      35.728  23.121  23.494  1.00  0.00    -0.352 N 
ATOM      5  C   UNL A   1      34.551  23.832  23.390  1.00  0.00     0.253 C 
ATOM      6  O   UNL A   1      34.249  24.239  22.264  1.00  0.00    -0.269 OA
ATOM      7  H   UNL A   1      36.174  22.944  22.634  1.00  0.00     0.163 HD
BRANCH   5   8
ATOM      8  C   UNL A   1      33.550  24.028  24.493  1.00  0.00     0.064 A 
ATOM      9  C   UNL A   1      32.687  23.096  25.104  1.00  0.00     0.065 A 
ATOM     10  C   UNL A   1      31.752  23.548  26.066  1.00  0.00     0.028 A 
ATOM     11  C   UNL A   1      31.692  24.880  26.467  1.00  0.00     0.002 A 
ATOM     12  C   UNL A   1      33.464  25.377  24.922  1.00  0.00     0.016 A 
ATOM     13  C   UNL A   1      32.557  25.799  25.898  1.00  0.00     0.001 A 
BRANCH   9  14
ATOM     14  N   UNL A   1      32.666  21.711  24.845  1.00  0.00    -0.241 N 
ATOM     15  C   UNL A   1      33.262  17.197  24.335  1.00  0.00     0.119 A 
ATOM     16  C   UNL A   1      32.810  17.524  23.034  1.00  0.00     0.047 A 
ATOM     17  C   UNL A   1      33.334  18.180  25.327  1.00  0.00     0.061 A 
ATOM     18  C   UNL A   1      32.414  18.819  22.702  1.00  0.00     0.018 A 
ATOM     19  C   UNL A   1      32.952  19.461  24.973  1.00  0.00     0.057 A 
ATOM     20  C   UNL A   1      32.483  19.759  23.706  1.00  0.00     0.053 A 
ATOM     21  C   UNL A   1      33.063  20.724  25.715  1.00  0.00     0.266 C 
ATOM     22  C   UNL A   1      32.230  21.190  23.646  1.00  0.00     0.266 C 
ATOM     23  O   UNL A   1      33.429  20.791  26.872  1.00  0.00    -0.268 OA
ATOM     24  O   UNL A   1      31.790  21.744  22.655  1.00  0.00    -0.268 OA
BRANCH  15  25
ATOM     25  O   UNL A   1      33.625  15.887  24.475  1.00  0.00    -0.497 OA
ATOM     26  C   UNL A   1      34.879  15.613  25.082  1.00  0.00     0.278 C 
ENDBRANCH  15  25
ENDBRANCH   9  14
ENDBRANCH   5   8
ENDBRANCH   3   4
ENDBRANCH   2   3
ENDBRANCH   1   2
BRANCH   1  27
ATOM     27  C   UNL A   1      38.279  19.537  25.806  1.00  0.00     0.116 C 
BRANCH  27  28
ATOM     28  N   UNL A   1      39.705  19.245  25.728  1.00  0.00    -0.352 N 
ATOM     29  C   UNL A   1      40.797  20.007  26.091  1.00  0.00     0.251 C 
ATOM     30  H   UNL A   1      39.925  18.361  25.354  1.00  0.00     0.163 HD
ATOM     31  O   UNL A   1      41.925  19.593  25.830  1.00  0.00    -0.269 OA
BRANCH  29  32
ATOM     32  C   UNL A   1      40.639  21.354  26.698  1.00  0.00     0.039 A 
ATOM     33  C   UNL A   1      41.276  21.590  27.922  1.00  0.00     0.014 A 
ATOM     34  C   UNL A   1      39.990  22.403  26.046  1.00  0.00     0.014 A 
ATOM     35  C   UNL A   1      41.442  22.897  28.379  1.00  0.00     0.010 A 
ATOM     36  C   UNL A   1      40.233  23.713  26.448  1.00  0.00     0.010 A 
ATOM     37  C   UNL A   1      41.024  23.969  27.576  1.00  0.00    -0.014 A 
BRANCH  37  38
ATOM     38  C   UNL A   1      41.588  25.325  27.792  1.00  0.00     0.031 A 
ATOM     39  C   UNL A   1      42.995  25.658  27.405  1.00  0.00     0.074 A 
ATOM     40  C   UNL A   1      40.831  26.222  28.459  1.00  0.00     0.049 A 
ATOM     41  N   UNL A   1      43.630  26.793  27.527  1.00  0.00    -0.248 NA
ATOM     42  C   UNL A   1      43.804  24.573  26.831  1.00  0.00     0.031 C 
ATOM     43  C   UNL A   1      39.486  25.963  28.986  1.00  0.00     0.029 A 
ATOM     44  N   UNL A   1      41.080  27.519  28.827  1.00  0.00    -0.354 N 
ATOM     45  C   UNL A   1      44.917  26.560  27.065  1.00  0.00     0.074 A 
ATOM     46  C   UNL A   1      44.984  25.162  26.694  1.00  0.00     0.031 C 
ATOM     47  C   UNL A   1      39.021  27.070  29.584  1.00  0.00     0.029 A 
ATOM     48  C   UNL A   1      40.042  28.107  29.516  1.00  0.00     0.049 A 
ATOM     49  H   UNL A   1      41.921  27.987  28.620  1.00  0.00     0.167 HD
ATOM     50  C   UNL A   1      45.940  27.439  26.939  1.00  0.00     0.034 A 
ATOM     51  C   UNL A   1      39.923  29.343  30.034  1.00  0.00     0.034 A 
ATOM     52  C   UNL A   1      45.853  28.827  27.308  1.00  0.00     0.049 A 
ATOM     53  C   UNL A   1      41.059  30.308  29.849  1.00  0.00     0.074 A 
ATOM     54  C   UNL A   1      46.797  29.825  27.143  1.00  0.00     0.029 A 
ATOM     55  N   UNL A   1      44.763  29.409  27.939  1.00  0.00    -0.354 N 
ATOM     56  N   UNL A   1      42.203  30.122  29.234  1.00  0.00    -0.248 NA
ATOM     57  C   UNL A   1      40.882  31.658  30.399  1.00  0.00     0.031 C 
ATOM     58  C   UNL A   1      46.288  31.004  27.701  1.00  0.00     0.029 A 
ATOM     59  C   UNL A   1      45.018  30.747  28.192  1.00  0.00     0.049 A 
ATOM     60  H   UNL A   1      43.931  28.940  28.175  1.00  0.00     0.167 HD
ATOM     61  C   UNL A   1      42.874  31.336  29.304  1.00  0.00     0.074 A 
ATOM     62  C   UNL A   1      41.993  32.258  29.995  1.00  0.00     0.031 C 
ATOM     63  C   UNL A   1      44.113  31.655  28.855  1.00  0.00     0.034 A 
BRANCH  50  64
ATOM     64  C   UNL A   1      47.224  26.923  26.339  1.00  0.00     0.023 A 
ATOM     65  C   UNL A   1      47.415  26.997  24.944  1.00  0.00     0.012 A 
ATOM     66  C   UNL A   1      48.244  26.385  27.146  1.00  0.00     0.148 A 
ATOM     67  C   UNL A   1      48.578  26.502  24.356  1.00  0.00     0.002 A 
ATOM     68  C   UNL A   1      49.420  25.932  26.557  1.00  0.00     0.091 A 
ATOM     69  F   UNL A   1      48.039  26.302  28.468  1.00  0.00    -0.205 F 
ATOM     70  C   UNL A   1      49.582  25.977  25.163  1.00  0.00     0.022 A 
BRANCH  68  71
ATOM     71  S   UNL A   1      50.801  25.298  27.514  1.00  0.00     0.127 S 
ATOM     72  O   UNL A   1      50.198  24.135  28.166  1.00  0.00    -0.237 OA
ATOM     73  O   UNL A   1      51.776  24.975  26.472  1.00  0.00    -0.237 OA
ATOM     74  O   UNL A   1      51.200  26.379  28.404  1.00  0.00    -0.744 OA
ENDBRANCH  68  71
ENDBRANCH  50  64
BRANCH  51  75
ATOM     75  C   UNL A   1      38.653  29.754  30.702  1.00  0.00     0.023 A 
ATOM     76  C   UNL A   1      38.426  29.379  32.039  1.00  0.00     0.012 A 
ATOM     77  C   UNL A   1      37.700  30.555  30.042  1.00  0.00     0.148 A 
ATOM     78  C   UNL A   1      37.262  29.773  32.702  1.00  0.00     0.002 A 
ATOM     79  C   UNL A   1      36.568  30.990  30.724  1.00  0.00     0.091 A 
ATOM     80  F   UNL A   1      37.931  30.897  28.767  1.00  0.00    -0.205 F 
ATOM     81  C   UNL A   1      36.340  30.587  32.049  1.00  0.00     0.022 A 
BRANCH  79  82
ATOM     82  S   UNL A   1      35.393  32.146  30.009  1.00  0.00     0.127 S 
ATOM     83  O   UNL A   1      34.786  31.339  28.953  1.00  0.00    -0.237 OA
ATOM     84  O   UNL A   1      34.518  32.429  31.148  1.00  0.00    -0.237 OA
ATOM     85  O   UNL A   1      36.183  33.284  29.561  1.00  0.00    -0.744 OA
ENDBRANCH  79  82
ENDBRANCH  51  75
BRANCH  63  86
ATOM     86  C   UNL A   1      44.591  33.062  29.095  1.00  0.00     0.023 A 
ATOM     87  C   UNL A   1      45.173  33.397  30.334  1.00  0.00     0.012 A 
ATOM     88  C   UNL A   1      44.530  34.029  28.074  1.00  0.00     0.148 A 
ATOM     89  C   UNL A   1      45.660  34.683  30.562  1.00  0.00     0.002 A 
ATOM     90  C   UNL A   1      45.064  35.293  28.291  1.00  0.00     0.091 A 
ATOM     91  F   UNL A   1      43.953  33.694  26.910  1.00  0.00    -0.205 F 
ATOM     92  C   UNL A   1      45.617  35.626  29.538  1.00  0.00     0.022 A 
BRANCH  90  93
ATOM     93  S   UNL A   1      45.142  36.539  27.000  1.00  0.00     0.127 S 
ATOM     94  O   UNL A   1      43.733  36.903  26.851  1.00  0.00    -0.237 OA
ATOM     95  O   UNL A   1      45.976  37.571  27.617  1.00  0.00    -0.237 OA
ATOM     96  O   UNL A   1      45.744  35.887  25.846  1.00  0.00    -0.744 OA
ENDBRANCH  90  93
ENDBRANCH  63  86
ENDBRANCH  37  38
ENDBRANCH  29  32
ENDBRANCH  27  28
ENDBRANCH   1  27
TORSDOF 16
ENDMDL
