MODEL 1
REMARK VINA RESULT:     -11.6      0.000      0.000
REMARK SMILES O=C(NCCCCNC(=O)c1ccc(C(F)(F)F)nc1NC[C@@H]1CCOC1)c1ccc(-c2c3nc(c(-c4cccc(S(=O)(=O)[O-])c4F)c4ccc([nH]4)c(-c4cccc(S(=O)(=O)[O-])c4F)c4nc(c(-c5cccc(S(=O)(=O)[O-])c5F)c5ccc2[nH]5)C=C4)C=C3)cc1
REMARK SMILES IDX 5 1 4 2 3 3 1 4 2 5 28 7 29 8 90 9 30 10 89 11 31 12 32 13
REMARK SMILES IDX 33 14 83 15 34 16 88 17 82 18 84 19 35 20 87 21 81 22 80 23
REMARK SMILES IDX 36 25 68 26 48 27 67 28 49 29 52 30 66 31 85 32 50 33 51 34
REMARK SMILES IDX 65 36 86 37 53 38 37 39 38 40 46 41 39 42 41 43 47 44 40 45
REMARK SMILES IDX 42 46 43 47 44 48 45 49 69 50 70 51 78 52 71 53 73 54 79 55
REMARK SMILES IDX 72 56 74 57 75 58 76 59 77 60 54 61 55 62 63 63 56 64 58 65
REMARK SMILES IDX 64 66 57 67 59 68 60 69 61 70 62 71 6 72 7 73 8 74 9 75
REMARK SMILES IDX 10 77 11 78 12 79 20 80 13 81 19 82 14 83 21 84 22 86 23 87
REMARK SMILES IDX 24 88 27 89 25 90 26 91 15 92 16 93 17 94 18 95
REMARK H PARENT 3 6 84 24 52 35 8 76 21 85
REMARK Flexibility Score: inf
ROOT
ATOM      1  C   UNL A   1      31.615  31.847  26.708  1.00  0.00     0.023 C 
ENDROOT
BRANCH   1   2
ATOM      2  C   UNL A   1      32.861  32.550  27.231  1.00  0.00     0.116 C 
BRANCH   2   3
ATOM      3  N   UNL A   1      32.606  33.914  27.667  1.00  0.00    -0.352 N 
ATOM      4  O   UNL A   1      32.751  35.725  28.997  1.00  0.00    -0.269 OA
ATOM      5  C   UNL A   1      33.189  34.618  28.695  1.00  0.00     0.251 C 
ATOM      6  H   UNL A   1      31.920  34.400  27.156  1.00  0.00     0.163 HD
BRANCH   5   7
ATOM      7  C   UNL A   1      34.314  34.022  29.449  1.00  0.00     0.039 A 
ATOM      8  C   UNL A   1      35.635  34.368  29.152  1.00  0.00     0.014 A 
ATOM      9  C   UNL A   1      34.042  33.095  30.459  1.00  0.00     0.014 A 
ATOM     10  C   UNL A   1      36.681  33.679  29.755  1.00  0.00     0.010 A 
ATOM     11  C   UNL A   1      35.098  32.464  31.124  1.00  0.00     0.010 A 
ATOM     12  C   UNL A   1      36.426  32.723  30.753  1.00  0.00    -0.014 A 
BRANCH  12  13
ATOM     13  C   UNL A   1      37.567  32.065  31.439  1.00  0.00     0.031 A 
ATOM     14  C   UNL A   1      38.342  30.953  30.787  1.00  0.00     0.074 A 
ATOM     15  C   UNL A   1      37.902  32.486  32.675  1.00  0.00     0.049 A 
ATOM     16  N   UNL A   1      39.382  30.303  31.243  1.00  0.00    -0.248 NA
ATOM     17  C   UNL A   1      37.893  30.504  29.460  1.00  0.00     0.031 C 
ATOM     18  C   UNL A   1      37.188  33.519  33.430  1.00  0.00     0.029 A 
ATOM     19  N   UNL A   1      38.916  32.102  33.514  1.00  0.00    -0.354 N 
ATOM     20  C   UNL A   1      39.687  29.344  30.284  1.00  0.00     0.074 A 
ATOM     21  C   UNL A   1      38.719  29.494  29.219  1.00  0.00     0.031 C 
ATOM     22  C   UNL A   1      37.799  33.703  34.609  1.00  0.00     0.029 A 
ATOM     23  C   UNL A   1      38.918  32.774  34.714  1.00  0.00     0.049 A 
ATOM     24  H   UNL A   1      39.578  31.413  33.279  1.00  0.00     0.167 HD
ATOM     25  C   UNL A   1      40.693  28.436  30.285  1.00  0.00     0.034 A 
ATOM     26  C   UNL A   1      39.722  32.650  35.786  1.00  0.00     0.034 A 
ATOM     27  C   UNL A   1      41.681  28.323  31.326  1.00  0.00     0.049 A 
ATOM     28  C   UNL A   1      40.854  31.667  35.738  1.00  0.00     0.074 A 
ATOM     29  C   UNL A   1      42.784  27.488  31.376  1.00  0.00     0.029 A 
ATOM     30  N   UNL A   1      41.686  29.060  32.500  1.00  0.00    -0.354 N 
ATOM     31  N   UNL A   1      41.211  30.871  34.759  1.00  0.00    -0.248 NA
ATOM     32  C   UNL A   1      41.713  31.584  36.927  1.00  0.00     0.031 C 
ATOM     33  C   UNL A   1      43.447  27.710  32.588  1.00  0.00     0.029 A 
ATOM     34  C   UNL A   1      42.765  28.693  33.286  1.00  0.00     0.049 A 
ATOM     35  H   UNL A   1      41.019  29.744  32.740  1.00  0.00     0.167 HD
ATOM     36  C   UNL A   1      42.345  30.204  35.206  1.00  0.00     0.074 A 
ATOM     37  C   UNL A   1      42.634  30.714  36.532  1.00  0.00     0.031 C 
ATOM     38  C   UNL A   1      43.067  29.240  34.584  1.00  0.00     0.034 A 
BRANCH  25  39
ATOM     39  C   UNL A   1      40.812  27.514  29.099  1.00  0.00     0.023 A 
ATOM     40  C   UNL A   1      39.951  26.403  28.996  1.00  0.00     0.012 A 
ATOM     41  C   UNL A   1      41.712  27.791  28.051  1.00  0.00     0.148 A 
ATOM     42  C   UNL A   1      39.997  25.570  27.879  1.00  0.00     0.002 A 
ATOM     43  C   UNL A   1      41.727  26.976  26.923  1.00  0.00     0.091 A 
ATOM     44  F   UNL A   1      42.538  28.839  28.176  1.00  0.00    -0.205 F 
ATOM     45  C   UNL A   1      40.877  25.862  26.838  1.00  0.00     0.022 A 
BRANCH  43  46
ATOM     46  S   UNL A   1      42.774  27.315  25.501  1.00  0.00     0.127 S 
ATOM     47  O   UNL A   1      42.189  28.555  24.995  1.00  0.00    -0.237 OA
ATOM     48  O   UNL A   1      44.092  27.469  26.116  1.00  0.00    -0.237 OA
ATOM     49  O   UNL A   1      42.646  26.157  24.627  1.00  0.00    -0.744 OA
ENDBRANCH  43  46
ENDBRANCH  25  39
BRANCH  26  50
ATOM     50  C   UNL A   1      39.503  33.530  36.967  1.00  0.00     0.023 A 
ATOM     51  C   UNL A   1      39.918  34.874  36.918  1.00  0.00     0.012 A 
ATOM     52  C   UNL A   1      38.821  33.062  38.108  1.00  0.00     0.148 A 
ATOM     53  C   UNL A   1      39.670  35.733  37.988  1.00  0.00     0.002 A 
ATOM     54  C   UNL A   1      38.524  33.938  39.145  1.00  0.00     0.091 A 
ATOM     55  F   UNL A   1      38.451  31.774  38.145  1.00  0.00    -0.205 F 
ATOM     56  C   UNL A   1      38.961  35.269  39.094  1.00  0.00     0.022 A 
BRANCH  54  57
ATOM     57  S   UNL A   1      37.483  33.458  40.529  1.00  0.00     0.127 S 
ATOM     58  O   UNL A   1      36.271  33.011  39.851  1.00  0.00    -0.237 OA
ATOM     59  O   UNL A   1      38.271  32.392  41.149  1.00  0.00    -0.237 OA
ATOM     60  O   UNL A   1      37.354  34.655  41.348  1.00  0.00    -0.744 OA
ENDBRANCH  54  57
ENDBRANCH  26  50
BRANCH  38  61
ATOM     61  C   UNL A   1      44.248  28.676  35.325  1.00  0.00     0.023 A 
ATOM     62  C   UNL A   1      45.532  29.208  35.091  1.00  0.00     0.012 A 
ATOM     63  C   UNL A   1      44.083  27.671  36.298  1.00  0.00     0.148 A 
ATOM     64  C   UNL A   1      46.637  28.728  35.791  1.00  0.00     0.002 A 
ATOM     65  C   UNL A   1      45.183  27.228  37.023  1.00  0.00     0.091 A 
ATOM     66  F   UNL A   1      42.857  27.162  36.490  1.00  0.00    -0.205 F 
ATOM     67  C   UNL A   1      46.461  27.747  36.764  1.00  0.00     0.022 A 
BRANCH  65  68
ATOM     68  S   UNL A   1      45.031  26.029  38.353  1.00  0.00     0.127 S 
ATOM     69  O   UNL A   1      46.402  25.964  38.854  1.00  0.00    -0.237 OA
ATOM     70  O   UNL A   1      44.081  26.681  39.256  1.00  0.00    -0.237 OA
ATOM     71  O   UNL A   1      44.528  24.810  37.732  1.00  0.00    -0.744 OA
ENDBRANCH  65  68
ENDBRANCH  38  61
ENDBRANCH  12  13
ENDBRANCH   5   7
ENDBRANCH   2   3
ENDBRANCH   1   2
BRANCH   1  72
ATOM     72  C   UNL A   1      31.752  30.341  26.489  1.00  0.00     0.023 C 
BRANCH  72  73
ATOM     73  C   UNL A   1      33.145  29.863  26.087  1.00  0.00     0.116 C 
BRANCH  73  74
ATOM     74  N   UNL A   1      33.277  29.670  24.653  1.00  0.00    -0.352 N 
ATOM     75  C   UNL A   1      33.169  28.518  23.918  1.00  0.00     0.255 C 
ATOM     76  H   UNL A   1      33.472  30.485  24.135  1.00  0.00     0.163 HD
ATOM     77  O   UNL A   1      33.474  28.510  22.730  1.00  0.00    -0.269 OA
BRANCH  75  78
ATOM     78  C   UNL A   1      32.704  27.275  24.557  1.00  0.00     0.082 A 
ATOM     79  C   UNL A   1      33.461  26.706  25.584  1.00  0.00     0.020 A 
ATOM     80  C   UNL A   1      31.492  26.690  24.169  1.00  0.00     0.139 A 
ATOM     81  C   UNL A   1      33.049  25.503  26.137  1.00  0.00     0.034 A 
ATOM     82  N   UNL A   1      31.092  25.517  24.718  1.00  0.00    -0.226 NA
ATOM     83  C   UNL A   1      31.875  24.916  25.667  1.00  0.00     0.146 A 
BRANCH  80  84
ATOM     84  N   UNL A   1      30.736  27.246  23.159  1.00  0.00    -0.369 N 
ATOM     85  H   UNL A   1      31.076  27.165  22.239  1.00  0.00     0.162 HD
BRANCH  84  86
ATOM     86  C   UNL A   1      29.483  27.939  23.350  1.00  0.00     0.120 C 
BRANCH  86  87
ATOM     87  C   UNL A   1      29.635  29.474  23.356  1.00  0.00     0.036 C 
ATOM     88  C   UNL A   1      28.263  30.137  23.374  1.00  0.00     0.036 C 
ATOM     89  C   UNL A   1      30.192  30.097  22.082  1.00  0.00     0.165 C 
ATOM     90  C   UNL A   1      27.877  30.145  21.904  1.00  0.00     0.160 C 
ATOM     91  O   UNL A   1      29.100  30.184  21.156  1.00  0.00    -0.381 OA
ENDBRANCH  86  87
ENDBRANCH  84  86
ENDBRANCH  80  84
BRANCH  83  92
ATOM     92  C   UNL A   1      31.450  23.559  26.214  1.00  0.00     0.433 C 
ATOM     93  F   UNL A   1      30.332  23.618  26.992  1.00  0.00    -0.165 F 
ATOM     94  F   UNL A   1      31.187  22.642  25.240  1.00  0.00    -0.165 F 
ATOM     95  F   UNL A   1      32.407  22.976  27.002  1.00  0.00    -0.165 F 
ENDBRANCH  83  92
ENDBRANCH  75  78
ENDBRANCH  73  74
ENDBRANCH  72  73
ENDBRANCH   1  72
TORSDOF 18
ENDMDL
MODEL 2
REMARK VINA RESULT:     -11.5      2.567      8.392
REMARK SMILES O=C(NCCCCNC(=O)c1ccc(C(F)(F)F)nc1NC[C@@H]1CCOC1)c1ccc(-c2c3nc(c(-c4cccc(S(=O)(=O)[O-])c4F)c4ccc([nH]4)c(-c4cccc(S(=O)(=O)[O-])c4F)c4nc(c(-c5cccc(S(=O)(=O)[O-])c5F)c5ccc2[nH]5)C=C4)C=C3)cc1
REMARK SMILES IDX 5 1 4 2 3 3 1 4 2 5 28 7 29 8 90 9 30 10 89 11 31 12 32 13
REMARK SMILES IDX 33 14 83 15 34 16 88 17 82 18 84 19 35 20 87 21 81 22 80 23
REMARK SMILES IDX 36 25 68 26 48 27 67 28 49 29 52 30 66 31 85 32 50 33 51 34
REMARK SMILES IDX 65 36 86 37 53 38 37 39 38 40 46 41 39 42 41 43 47 44 40 45
REMARK SMILES IDX 42 46 43 47 44 48 45 49 69 50 70 51 78 52 71 53 73 54 79 55
REMARK SMILES IDX 72 56 74 57 75 58 76 59 77 60 54 61 55 62 63 63 56 64 58 65
REMARK SMILES IDX 64 66 57 67 59 68 60 69 61 70 62 71 6 72 7 73 8 74 9 75
REMARK SMILES IDX 10 77 11 78 12 79 20 80 13 81 19 82 14 83 21 84 22 86 23 87
REMARK SMILES IDX 24 88 27 89 25 90 26 91 15 92 16 93 17 94 18 95
REMARK H PARENT 3 6 84 24 52 35 8 76 21 85
REMARK Flexibility Score: inf
ROOT
ATOM      1  C   UNL A   1      33.078  29.835  25.765  1.00  0.00     0.023 C 
ENDROOT
BRANCH   1   2
ATOM      2  C   UNL A   1      32.563  30.445  27.063  1.00  0.00     0.116 C 
BRANCH   2   3
ATOM      3  N   UNL A   1      32.637  31.897  27.080  1.00  0.00    -0.352 N 
ATOM      4  O   UNL A   1      33.431  33.925  27.651  1.00  0.00    -0.269 OA
ATOM      5  C   UNL A   1      33.604  32.710  27.622  1.00  0.00     0.251 C 
ATOM      6  H   UNL A   1      31.889  32.363  26.641  1.00  0.00     0.163 HD
BRANCH   5   7
ATOM      7  C   UNL A   1      34.829  32.111  28.200  1.00  0.00     0.039 A 
ATOM      8  C   UNL A   1      34.788  30.857  28.814  1.00  0.00     0.014 A 
ATOM      9  C   UNL A   1      36.030  32.823  28.137  1.00  0.00     0.014 A 
ATOM     10  C   UNL A   1      35.906  30.386  29.494  1.00  0.00     0.010 A 
ATOM     11  C   UNL A   1      37.176  32.307  28.750  1.00  0.00     0.010 A 
ATOM     12  C   UNL A   1      37.115  31.101  29.465  1.00  0.00    -0.014 A 
BRANCH  12  13
ATOM     13  C   UNL A   1      38.315  30.531  30.129  1.00  0.00     0.031 A 
ATOM     14  C   UNL A   1      38.713  30.940  31.520  1.00  0.00     0.074 A 
ATOM     15  C   UNL A   1      39.053  29.628  29.455  1.00  0.00     0.049 A 
ATOM     16  N   UNL A   1      39.712  30.508  32.247  1.00  0.00    -0.248 NA
ATOM     17  C   UNL A   1      37.896  31.970  32.182  1.00  0.00     0.031 C 
ATOM     18  C   UNL A   1      38.796  29.195  28.078  1.00  0.00     0.029 A 
ATOM     19  N   UNL A   1      40.164  28.915  29.824  1.00  0.00    -0.354 N 
ATOM     20  C   UNL A   1      39.672  31.237  33.430  1.00  0.00     0.074 A 
ATOM     21  C   UNL A   1      38.549  32.145  33.324  1.00  0.00     0.031 C 
ATOM     22  C   UNL A   1      39.706  28.276  27.729  1.00  0.00     0.029 A 
ATOM     23  C   UNL A   1      40.638  28.086  28.835  1.00  0.00     0.049 A 
ATOM     24  H   UNL A   1      40.581  28.989  30.713  1.00  0.00     0.167 HD
ATOM     25  C   UNL A   1      40.484  31.144  34.509  1.00  0.00     0.034 A 
ATOM     26  C   UNL A   1      41.709  27.271  28.812  1.00  0.00     0.034 A 
ATOM     27  C   UNL A   1      41.571  30.207  34.628  1.00  0.00     0.049 A 
ATOM     28  C   UNL A   1      42.563  27.157  30.040  1.00  0.00     0.074 A 
ATOM     29  C   UNL A   1      42.398  29.983  35.715  1.00  0.00     0.029 A 
ATOM     30  N   UNL A   1      41.985  29.342  33.627  1.00  0.00    -0.354 N 
ATOM     31  N   UNL A   1      42.419  27.750  31.200  1.00  0.00    -0.248 NA
ATOM     32  C   UNL A   1      43.709  26.240  29.969  1.00  0.00     0.031 C 
ATOM     33  C   UNL A   1      43.324  28.994  35.365  1.00  0.00     0.029 A 
ATOM     34  C   UNL A   1      43.063  28.590  34.065  1.00  0.00     0.049 A 
ATOM     35  H   UNL A   1      41.574  29.272  32.735  1.00  0.00     0.167 HD
ATOM     36  C   UNL A   1      43.445  27.268  32.003  1.00  0.00     0.074 A 
ATOM     37  C   UNL A   1      44.183  26.309  31.207  1.00  0.00     0.031 C 
ATOM     38  C   UNL A   1      43.760  27.606  33.277  1.00  0.00     0.034 A 
BRANCH  25  39
ATOM     39  C   UNL A   1      40.207  32.050  35.682  1.00  0.00     0.023 A 
ATOM     40  C   UNL A   1      40.986  33.211  35.860  1.00  0.00     0.012 A 
ATOM     41  C   UNL A   1      39.128  31.800  36.553  1.00  0.00     0.148 A 
ATOM     42  C   UNL A   1      40.710  34.099  36.900  1.00  0.00     0.002 A 
ATOM     43  C   UNL A   1      38.837  32.709  37.566  1.00  0.00     0.091 A 
ATOM     44  F   UNL A   1      38.412  30.680  36.382  1.00  0.00    -0.205 F 
ATOM     45  C   UNL A   1      39.630  33.854  37.745  1.00  0.00     0.022 A 
BRANCH  43  46
ATOM     46  S   UNL A   1      37.422  32.516  38.659  1.00  0.00     0.127 S 
ATOM     47  O   UNL A   1      37.761  33.437  39.743  1.00  0.00    -0.237 OA
ATOM     48  O   UNL A   1      36.313  32.955  37.811  1.00  0.00    -0.237 OA
ATOM     49  O   UNL A   1      37.386  31.106  39.019  1.00  0.00    -0.744 OA
ENDBRANCH  43  46
ENDBRANCH  25  39
BRANCH  26  50
ATOM     50  C   UNL A   1      41.985  26.464  27.592  1.00  0.00     0.023 A 
ATOM     51  C   UNL A   1      42.664  27.054  26.509  1.00  0.00     0.012 A 
ATOM     52  C   UNL A   1      41.645  25.098  27.528  1.00  0.00     0.148 A 
ATOM     53  C   UNL A   1      42.986  26.303  25.379  1.00  0.00     0.002 A 
ATOM     54  C   UNL A   1      42.022  24.341  26.426  1.00  0.00     0.091 A 
ATOM     55  F   UNL A   1      40.981  24.559  28.561  1.00  0.00    -0.205 F 
ATOM     56  C   UNL A   1      42.679  24.944  25.344  1.00  0.00     0.022 A 
BRANCH  54  57
ATOM     57  S   UNL A   1      41.802  22.559  26.374  1.00  0.00     0.127 S 
ATOM     58  O   UNL A   1      42.510  22.204  25.148  1.00  0.00    -0.237 OA
ATOM     59  O   UNL A   1      42.458  22.133  27.611  1.00  0.00    -0.237 OA
ATOM     60  O   UNL A   1      40.360  22.348  26.364  1.00  0.00    -0.744 OA
ENDBRANCH  54  57
ENDBRANCH  26  50
BRANCH  38  61
ATOM     61  C   UNL A   1      44.952  26.929  33.897  1.00  0.00     0.023 A 
ATOM     62  C   UNL A   1      46.227  27.517  33.769  1.00  0.00     0.012 A 
ATOM     63  C   UNL A   1      44.805  25.753  34.657  1.00  0.00     0.148 A 
ATOM     64  C   UNL A   1      47.341  26.928  34.364  1.00  0.00     0.002 A 
ATOM     65  C   UNL A   1      45.914  25.196  35.284  1.00  0.00     0.091 A 
ATOM     66  F   UNL A   1      43.588  25.197  34.747  1.00  0.00    -0.205 F 
ATOM     67  C   UNL A   1      47.183  25.775  35.130  1.00  0.00     0.022 A 
BRANCH  65  68
ATOM     68  S   UNL A   1      45.784  23.761  36.358  1.00  0.00     0.127 S 
ATOM     69  O   UNL A   1      44.901  24.257  37.412  1.00  0.00    -0.237 OA
ATOM     70  O   UNL A   1      45.180  22.762  35.476  1.00  0.00    -0.237 OA
ATOM     71  O   UNL A   1      47.147  23.452  36.772  1.00  0.00    -0.744 OA
ENDBRANCH  65  68
ENDBRANCH  38  61
ENDBRANCH  12  13
ENDBRANCH   5   7
ENDBRANCH   2   3
ENDBRANCH   1   2
BRANCH   1  72
ATOM     72  C   UNL A   1      33.927  28.574  25.923  1.00  0.00     0.023 C 
BRANCH  72  73
ATOM     73  C   UNL A   1      33.244  27.271  25.516  1.00  0.00     0.116 C 
BRANCH  73  74
ATOM     74  N   UNL A   1      33.652  26.814  24.198  1.00  0.00    -0.352 N 
ATOM     75  C   UNL A   1      32.950  26.821  23.021  1.00  0.00     0.255 C 
ATOM     76  H   UNL A   1      34.565  26.448  24.144  1.00  0.00     0.163 HD
ATOM     77  O   UNL A   1      33.392  26.242  22.034  1.00  0.00    -0.269 OA
BRANCH  75  78
ATOM     78  C   UNL A   1      31.649  27.507  22.940  1.00  0.00     0.082 A 
ATOM     79  C   UNL A   1      31.611  28.870  22.636  1.00  0.00     0.020 A 
ATOM     80  C   UNL A   1      30.459  26.793  23.126  1.00  0.00     0.139 A 
ATOM     81  C   UNL A   1      30.388  29.522  22.624  1.00  0.00     0.034 A 
ATOM     82  N   UNL A   1      29.266  27.436  23.107  1.00  0.00    -0.226 NA
ATOM     83  C   UNL A   1      29.232  28.788  22.889  1.00  0.00     0.146 A 
BRANCH  80  84
ATOM     84  N   UNL A   1      30.487  25.447  23.423  1.00  0.00    -0.369 N 
ATOM     85  H   UNL A   1      30.488  24.815  22.669  1.00  0.00     0.162 HD
BRANCH  84  86
ATOM     86  C   UNL A   1      30.515  24.896  24.758  1.00  0.00     0.120 C 
BRANCH  86  87
ATOM     87  C   UNL A   1      31.028  23.441  24.802  1.00  0.00     0.036 C 
ATOM     88  C   UNL A   1      30.909  22.885  26.215  1.00  0.00     0.036 C 
ATOM     89  C   UNL A   1      32.524  23.253  24.587  1.00  0.00     0.165 C 
ATOM     90  C   UNL A   1      32.180  23.391  26.880  1.00  0.00     0.160 C 
ATOM     91  O   UNL A   1      33.157  23.540  25.842  1.00  0.00    -0.381 OA
ENDBRANCH  86  87
ENDBRANCH  84  86
ENDBRANCH  80  84
BRANCH  83  92
ATOM     92  C   UNL A   1      27.890  29.506  22.951  1.00  0.00     0.433 C 
ATOM     93  F   UNL A   1      26.850  28.677  23.249  1.00  0.00    -0.165 F 
ATOM     94  F   UNL A   1      27.856  30.507  23.875  1.00  0.00    -0.165 F 
ATOM     95  F   UNL A   1      27.547  30.102  21.766  1.00  0.00    -0.165 F 
ENDBRANCH  83  92
ENDBRANCH  75  78
ENDBRANCH  73  74
ENDBRANCH  72  73
ENDBRANCH   1  72
TORSDOF 18
ENDMDL
MODEL 3
REMARK VINA RESULT:     -11.5      0.695      7.752
REMARK SMILES O=C(NCCCCNC(=O)c1ccc(C(F)(F)F)nc1NC[C@@H]1CCOC1)c1ccc(-c2c3nc(c(-c4cccc(S(=O)(=O)[O-])c4F)c4ccc([nH]4)c(-c4cccc(S(=O)(=O)[O-])c4F)c4nc(c(-c5cccc(S(=O)(=O)[O-])c5F)c5ccc2[nH]5)C=C4)C=C3)cc1
REMARK SMILES IDX 5 1 4 2 3 3 1 4 2 5 28 7 29 8 90 9 30 10 89 11 31 12 32 13
REMARK SMILES IDX 33 14 83 15 34 16 88 17 82 18 84 19 35 20 87 21 81 22 80 23
REMARK SMILES IDX 36 25 68 26 48 27 67 28 49 29 52 30 66 31 85 32 50 33 51 34
REMARK SMILES IDX 65 36 86 37 53 38 37 39 38 40 46 41 39 42 41 43 47 44 40 45
REMARK SMILES IDX 42 46 43 47 44 48 45 49 69 50 70 51 78 52 71 53 73 54 79 55
REMARK SMILES IDX 72 56 74 57 75 58 76 59 77 60 54 61 55 62 63 63 56 64 58 65
REMARK SMILES IDX 64 66 57 67 59 68 60 69 61 70 62 71 6 72 7 73 8 74 9 75
REMARK SMILES IDX 10 77 11 78 12 79 20 80 13 81 19 82 14 83 21 84 22 86 23 87
REMARK SMILES IDX 24 88 27 89 25 90 26 91 15 92 16 93 17 94 18 95
REMARK H PARENT 3 6 84 24 52 35 8 76 21 85
REMARK Flexibility Score: inf
ROOT
ATOM      1  C   UNL A   1      31.445  32.011  26.609  1.00  0.00     0.023 C 
ENDROOT
BRANCH   1   2
ATOM      2  C   UNL A   1      32.724  32.606  27.183  1.00  0.00     0.116 C 
BRANCH   2   3
ATOM      3  N   UNL A   1      32.537  33.940  27.731  1.00  0.00    -0.352 N 
ATOM      4  O   UNL A   1      32.841  35.657  29.155  1.00  0.00    -0.269 OA
ATOM      5  C   UNL A   1      33.228  34.568  28.740  1.00  0.00     0.251 C 
ATOM      6  H   UNL A   1      31.814  34.468  27.321  1.00  0.00     0.163 HD
BRANCH   5   7
ATOM      7  C   UNL A   1      34.410  33.911  29.342  1.00  0.00     0.039 A 
ATOM      8  C   UNL A   1      34.256  32.911  30.305  1.00  0.00     0.014 A 
ATOM      9  C   UNL A   1      35.688  34.312  28.945  1.00  0.00     0.014 A 
ATOM     10  C   UNL A   1      35.372  32.423  30.977  1.00  0.00     0.010 A 
ATOM     11  C   UNL A   1      36.813  33.758  29.564  1.00  0.00     0.010 A 
ATOM     12  C   UNL A   1      36.664  32.836  30.610  1.00  0.00    -0.014 A 
BRANCH  12  13
ATOM     13  C   UNL A   1      37.840  32.233  31.288  1.00  0.00     0.031 A 
ATOM     14  C   UNL A   1      38.333  32.748  32.613  1.00  0.00     0.074 A 
ATOM     15  C   UNL A   1      38.469  31.203  30.689  1.00  0.00     0.049 A 
ATOM     16  N   UNL A   1      39.324  32.307  33.345  1.00  0.00    -0.248 NA
ATOM     17  C   UNL A   1      37.637  33.909  33.189  1.00  0.00     0.031 C 
ATOM     18  C   UNL A   1      38.114  30.654  29.377  1.00  0.00     0.029 A 
ATOM     19  N   UNL A   1      39.531  30.437  31.093  1.00  0.00    -0.354 N 
ATOM     20  C   UNL A   1      39.399  33.155  34.443  1.00  0.00     0.074 A 
ATOM     21  C   UNL A   1      38.353  34.143  34.281  1.00  0.00     0.031 C 
ATOM     22  C   UNL A   1      38.927  29.626  29.096  1.00  0.00     0.029 A 
ATOM     23  C   UNL A   1      39.889  29.471  30.182  1.00  0.00     0.049 A 
ATOM     24  H   UNL A   1      39.993  30.566  31.952  1.00  0.00     0.167 HD
ATOM     25  C   UNL A   1      40.249  33.103  35.497  1.00  0.00     0.034 A 
ATOM     26  C   UNL A   1      40.885  28.566  30.208  1.00  0.00     0.034 A 
ATOM     27  C   UNL A   1      41.257  32.091  35.676  1.00  0.00     0.049 A 
ATOM     28  C   UNL A   1      41.781  28.505  31.409  1.00  0.00     0.074 A 
ATOM     29  C   UNL A   1      42.111  31.910  36.750  1.00  0.00     0.029 A 
ATOM     30  N   UNL A   1      41.551  31.094  34.759  1.00  0.00    -0.354 N 
ATOM     31  N   UNL A   1      41.740  29.227  32.504  1.00  0.00    -0.248 NA
ATOM     32  C   UNL A   1      42.841  27.488  31.397  1.00  0.00     0.031 C 
ATOM     33  C   UNL A   1      42.933  30.811  36.476  1.00  0.00     0.029 A 
ATOM     34  C   UNL A   1      42.580  30.300  35.237  1.00  0.00     0.049 A 
ATOM     35  H   UNL A   1      41.096  30.968  33.896  1.00  0.00     0.167 HD
ATOM     36  C   UNL A   1      42.757  28.741  33.317  1.00  0.00     0.074 A 
ATOM     37  C   UNL A   1      43.375  27.643  32.602  1.00  0.00     0.031 C 
ATOM     38  C   UNL A   1      43.156  29.181  34.535  1.00  0.00     0.034 A 
BRANCH  25  39
ATOM     39  C   UNL A   1      40.102  34.147  36.575  1.00  0.00     0.023 A 
ATOM     40  C   UNL A   1      40.399  35.493  36.281  1.00  0.00     0.012 A 
ATOM     41  C   UNL A   1      39.591  33.813  37.844  1.00  0.00     0.148 A 
ATOM     42  C   UNL A   1      40.212  36.488  37.240  1.00  0.00     0.002 A 
ATOM     43  C   UNL A   1      39.373  34.816  38.784  1.00  0.00     0.091 A 
ATOM     44  F   UNL A   1      39.334  32.525  38.113  1.00  0.00    -0.205 F 
ATOM     45  C   UNL A   1      39.689  36.151  38.487  1.00  0.00     0.022 A 
BRANCH  43  46
ATOM     46  S   UNL A   1      38.635  34.489  40.391  1.00  0.00     0.127 S 
ATOM     47  O   UNL A   1      38.352  35.843  40.865  1.00  0.00    -0.237 OA
ATOM     48  O   UNL A   1      37.449  33.709  40.035  1.00  0.00    -0.237 OA
ATOM     49  O   UNL A   1      39.638  33.754  41.148  1.00  0.00    -0.744 OA
ENDBRANCH  43  46
ENDBRANCH  25  39
BRANCH  26  50
ATOM     50  C   UNL A   1      41.037  27.615  29.073  1.00  0.00     0.023 A 
ATOM     51  C   UNL A   1      40.245  26.452  29.032  1.00  0.00     0.012 A 
ATOM     52  C   UNL A   1      41.906  27.894  27.999  1.00  0.00     0.148 A 
ATOM     53  C   UNL A   1      40.326  25.576  27.950  1.00  0.00     0.002 A 
ATOM     54  C   UNL A   1      41.937  27.049  26.897  1.00  0.00     0.091 A 
ATOM     55  F   UNL A   1      42.666  28.996  28.065  1.00  0.00    -0.205 F 
ATOM     56  C   UNL A   1      41.161  25.882  26.876  1.00  0.00     0.022 A 
BRANCH  54  57
ATOM     57  S   UNL A   1      42.866  27.454  25.413  1.00  0.00     0.127 S 
ATOM     58  O   UNL A   1      42.777  26.210  24.655  1.00  0.00    -0.237 OA
ATOM     59  O   UNL A   1      42.093  28.568  24.862  1.00  0.00    -0.237 OA
ATOM     60  O   UNL A   1      44.195  27.826  25.879  1.00  0.00    -0.744 OA
ENDBRANCH  54  57
ENDBRANCH  26  50
BRANCH  38  61
ATOM     61  C   UNL A   1      44.314  28.469  35.180  1.00  0.00     0.023 A 
ATOM     62  C   UNL A   1      45.631  28.817  34.818  1.00  0.00     0.012 A 
ATOM     63  C   UNL A   1      44.104  27.507  36.187  1.00  0.00     0.148 A 
ATOM     64  C   UNL A   1      46.720  28.198  35.427  1.00  0.00     0.002 A 
ATOM     65  C   UNL A   1      45.196  26.925  36.821  1.00  0.00     0.091 A 
ATOM     66  F   UNL A   1      42.844  27.173  36.502  1.00  0.00    -0.205 F 
ATOM     67  C   UNL A   1      46.504  27.261  36.435  1.00  0.00     0.022 A 
BRANCH  65  68
ATOM     68  S   UNL A   1      45.007  25.775  38.188  1.00  0.00     0.127 S 
ATOM     69  O   UNL A   1      46.395  25.563  38.595  1.00  0.00    -0.237 OA
ATOM     70  O   UNL A   1      44.203  26.545  39.138  1.00  0.00    -0.237 OA
ATOM     71  O   UNL A   1      44.328  24.610  37.634  1.00  0.00    -0.744 OA
ENDBRANCH  65  68
ENDBRANCH  38  61
ENDBRANCH  12  13
ENDBRANCH   5   7
ENDBRANCH   2   3
ENDBRANCH   1   2
BRANCH   1  72
ATOM     72  C   UNL A   1      31.558  30.574  26.102  1.00  0.00     0.023 C 
BRANCH  72  73
ATOM     73  C   UNL A   1      32.980  30.032  25.984  1.00  0.00     0.116 C 
BRANCH  73  74
ATOM     74  N   UNL A   1      33.375  29.798  24.605  1.00  0.00    -0.352 N 
ATOM     75  C   UNL A   1      33.393  28.625  23.894  1.00  0.00     0.255 C 
ATOM     76  H   UNL A   1      33.673  30.596  24.111  1.00  0.00     0.163 HD
ATOM     77  O   UNL A   1      33.914  28.582  22.784  1.00  0.00    -0.269 OA
BRANCH  75  78
ATOM     78  C   UNL A   1      32.801  27.404  24.468  1.00  0.00     0.082 A 
ATOM     79  C   UNL A   1      33.535  26.655  25.390  1.00  0.00     0.020 A 
ATOM     80  C   UNL A   1      31.499  27.020  24.125  1.00  0.00     0.139 A 
ATOM     81  C   UNL A   1      32.997  25.473  25.877  1.00  0.00     0.034 A 
ATOM     82  N   UNL A   1      30.977  25.867  24.610  1.00  0.00    -0.226 NA
ATOM     83  C   UNL A   1      31.726  25.089  25.451  1.00  0.00     0.146 A 
BRANCH  80  84
ATOM     84  N   UNL A   1      30.765  27.756  23.219  1.00  0.00    -0.369 N 
ATOM     85  H   UNL A   1      30.821  27.496  22.271  1.00  0.00     0.162 HD
BRANCH  84  86
ATOM     86  C   UNL A   1      29.921  28.878  23.556  1.00  0.00     0.120 C 
BRANCH  86  87
ATOM     87  C   UNL A   1      28.897  29.218  22.453  1.00  0.00     0.036 C 
ATOM     88  C   UNL A   1      28.959  30.703  22.118  1.00  0.00     0.036 C 
ATOM     89  C   UNL A   1      27.430  29.116  22.848  1.00  0.00     0.165 C 
ATOM     90  C   UNL A   1      28.070  31.322  23.185  1.00  0.00     0.160 C 
ATOM     91  O   UNL A   1      27.109  30.324  23.552  1.00  0.00    -0.381 OA
ENDBRANCH  86  87
ENDBRANCH  84  86
ENDBRANCH  80  84
BRANCH  83  92
ATOM     92  C   UNL A   1      31.153  23.757  25.921  1.00  0.00     0.433 C 
ATOM     93  F   UNL A   1      30.205  23.892  26.890  1.00  0.00    -0.165 F 
ATOM     94  F   UNL A   1      30.575  23.034  24.920  1.00  0.00    -0.165 F 
ATOM     95  F   UNL A   1      32.101  22.927  26.458  1.00  0.00    -0.165 F 
ENDBRANCH  83  92
ENDBRANCH  75  78
ENDBRANCH  73  74
ENDBRANCH  72  73
ENDBRANCH   1  72
TORSDOF 18
ENDMDL
