MODEL 1
REMARK VINA RESULT:     -12.7      0.000      0.000
REMARK SMILES O=C(COc1ccc(Br)cc1/C=C1\C(=O)Nc2ccc(Br)cc21)NCCCCNC(=O)c1ccc(-c2c3nc(c(-c4cccc(S(=O)(=O)[O-])c4F)c4ccc([nH]4)c(-c4cccc(S(=O)(=O)[O-])c4F)c4nc(c(-c5cccc(S(=O)(=O)[O-])c5F)c5ccc2[nH]5)C=C4)C=C3)cc1
REMARK SMILES IDX 26 1 25 2 24 3 1 4 2 5 3 7 4 8 5 9 6 10 11 11 7 12 10 13
REMARK SMILES IDX 8 14 9 15 12 16 13 17 14 18 23 19 15 20 16 21 17 22 22 23
REMARK SMILES IDX 18 25 20 26 19 27 21 28 27 29 28 30 29 31 30 32 31 34 32 35
REMARK SMILES IDX 33 36 94 37 34 38 93 39 35 40 36 41 37 42 87 43 38 44 92 45
REMARK SMILES IDX 86 46 88 47 39 48 91 49 85 50 84 51 40 53 72 54 52 55 71 56
REMARK SMILES IDX 53 57 56 58 70 59 89 60 54 61 55 62 69 64 90 65 57 66 41 67
REMARK SMILES IDX 42 68 50 69 43 70 45 71 51 72 44 73 46 74 47 75 48 76 49 77
REMARK SMILES IDX 73 78 74 79 82 80 75 81 77 82 83 83 76 84 78 85 79 86 80 87
REMARK SMILES IDX 81 88 58 89 59 90 67 91 60 92 62 93 68 94 61 95 63 96 64 97
REMARK SMILES IDX 65 98 66 99
REMARK H PARENT 24 6 16 24 29 33 88 52 56 63
REMARK Flexibility Score: inf
ROOT
ATOM      1  C   UNL A   1      32.093  29.940  27.148  1.00  0.00     0.023 C 
ENDROOT
BRANCH   1   2
ATOM      2  C   UNL A   1      33.405  29.183  26.951  1.00  0.00     0.116 C 
BRANCH   2   3
ATOM      3  N   UNL A   1      33.824  29.012  25.564  1.00  0.00    -0.353 N 
ATOM      4  O   UNL A   1      33.729  26.719  25.583  1.00  0.00    -0.271 OA
ATOM      5  C   UNL A   1      33.816  27.771  24.950  1.00  0.00     0.257 C 
ATOM      6  H   UNL A   1      34.119  29.799  25.051  1.00  0.00     0.163 HD
BRANCH   5   7
ATOM      7  C   UNL A   1      33.860  27.781  23.396  1.00  0.00     0.329 C 
BRANCH   7   8
ATOM      8  O   UNL A   1      32.905  27.079  22.588  1.00  0.00    -0.483 OA
BRANCH   8   9
ATOM      9  C   UNL A   1      31.581  27.398  22.808  1.00  0.00     0.127 A 
ATOM     10  C   UNL A   1      31.137  28.701  22.500  1.00  0.00     0.048 A 
ATOM     11  C   UNL A   1      30.641  26.414  23.224  1.00  0.00     0.018 A 
ATOM     12  C   UNL A   1      29.823  29.104  22.692  1.00  0.00     0.019 A 
ATOM     13  C   UNL A   1      29.305  26.850  23.314  1.00  0.00     0.027 A 
ATOM     14  C   UNL A   1      28.908  28.172  23.112  1.00  0.00     0.018 A 
ATOM     15  Br  UNL A   1      27.110  28.676  23.401  1.00  0.00    -0.051 Br
BRANCH  11  16
ATOM     16  C   UNL A   1      31.001  24.990  23.583  1.00  0.00     0.026 C 
ATOM     17  C   UNL A   1      30.971  24.370  24.793  1.00  0.00     0.050 C 
ATOM     18  C   UNL A   1      30.611  24.982  26.130  1.00  0.00     0.256 C 
ATOM     19  C   UNL A   1      31.787  23.192  25.169  1.00  0.00     0.012 A 
ATOM     20  O   UNL A   1      29.574  25.486  26.505  1.00  0.00    -0.269 OA
ATOM     21  N   UNL A   1      31.651  24.620  26.962  1.00  0.00    -0.321 N 
ATOM     22  C   UNL A   1      32.317  23.524  26.431  1.00  0.00     0.049 A 
ATOM     23  C   UNL A   1      31.962  21.906  24.694  1.00  0.00     0.026 A 
ATOM     24  H   UNL A   1      31.884  25.071  27.806  1.00  0.00     0.170 HD
ATOM     25  C   UNL A   1      33.186  22.727  27.142  1.00  0.00     0.028 A 
ATOM     26  C   UNL A   1      32.757  21.032  25.463  1.00  0.00     0.018 A 
ATOM     27  C   UNL A   1      33.414  21.454  26.638  1.00  0.00     0.018 A 
ATOM     28  Br  UNL A   1      32.869  19.199  24.997  1.00  0.00    -0.051 Br
ENDBRANCH  11  16
ENDBRANCH   8   9
ENDBRANCH   7   8
ENDBRANCH   5   7
ENDBRANCH   2   3
ENDBRANCH   1   2
BRANCH   1  29
ATOM     29  C   UNL A   1      32.106  31.407  26.727  1.00  0.00     0.023 C 
BRANCH  29  30
ATOM     30  C   UNL A   1      33.157  32.283  27.401  1.00  0.00     0.116 C 
BRANCH  30  31
ATOM     31  N   UNL A   1      32.732  33.658  27.623  1.00  0.00    -0.352 N 
ATOM     32  C   UNL A   1      33.202  34.575  28.542  1.00  0.00     0.251 C 
ATOM     33  H   UNL A   1      32.009  33.979  27.036  1.00  0.00     0.163 HD
ATOM     34  O   UNL A   1      32.661  35.672  28.645  1.00  0.00    -0.269 OA
BRANCH  32  35
ATOM     35  C   UNL A   1      34.325  34.210  29.439  1.00  0.00     0.039 A 
ATOM     36  C   UNL A   1      35.647  34.431  29.051  1.00  0.00     0.014 A 
ATOM     37  C   UNL A   1      34.054  33.572  30.653  1.00  0.00     0.014 A 
ATOM     38  C   UNL A   1      36.682  33.827  29.760  1.00  0.00     0.010 A 
ATOM     39  C   UNL A   1      35.105  33.050  31.416  1.00  0.00     0.010 A 
ATOM     40  C   UNL A   1      36.425  33.111  30.941  1.00  0.00    -0.014 A 
BRANCH  40  41
ATOM     41  C   UNL A   1      37.543  32.418  31.641  1.00  0.00     0.031 A 
ATOM     42  C   UNL A   1      38.294  31.288  30.977  1.00  0.00     0.074 A 
ATOM     43  C   UNL A   1      37.924  32.843  32.863  1.00  0.00     0.049 A 
ATOM     44  N   UNL A   1      39.312  30.602  31.432  1.00  0.00    -0.248 NA
ATOM     45  C   UNL A   1      37.855  30.872  29.633  1.00  0.00     0.031 C 
ATOM     46  C   UNL A   1      37.285  33.923  33.618  1.00  0.00     0.029 A 
ATOM     47  N   UNL A   1      38.950  32.434  33.678  1.00  0.00    -0.354 N 
ATOM     48  C   UNL A   1      39.604  29.652  30.459  1.00  0.00     0.074 A 
ATOM     49  C   UNL A   1      38.660  29.846  29.383  1.00  0.00     0.031 C 
ATOM     50  C   UNL A   1      37.961  34.125  34.759  1.00  0.00     0.029 A 
ATOM     51  C   UNL A   1      39.046  33.153  34.847  1.00  0.00     0.049 A 
ATOM     52  H   UNL A   1      39.560  31.696  33.448  1.00  0.00     0.167 HD
ATOM     53  C   UNL A   1      40.581  28.715  30.454  1.00  0.00     0.034 A 
ATOM     54  C   UNL A   1      39.903  33.044  35.880  1.00  0.00     0.034 A 
ATOM     55  C   UNL A   1      41.564  28.558  31.492  1.00  0.00     0.049 A 
ATOM     56  C   UNL A   1      40.970  31.989  35.848  1.00  0.00     0.074 A 
ATOM     57  C   UNL A   1      42.625  27.670  31.535  1.00  0.00     0.029 A 
ATOM     58  N   UNL A   1      41.613  29.299  32.659  1.00  0.00    -0.354 N 
ATOM     59  N   UNL A   1      41.270  31.155  34.884  1.00  0.00    -0.248 NA
ATOM     60  C   UNL A   1      41.823  31.866  37.039  1.00  0.00     0.031 C 
ATOM     61  C   UNL A   1      43.308  27.864  32.737  1.00  0.00     0.029 A 
ATOM     62  C   UNL A   1      42.681  28.883  33.434  1.00  0.00     0.049 A 
ATOM     63  H   UNL A   1      40.982  30.015  32.903  1.00  0.00     0.167 HD
ATOM     64  C   UNL A   1      42.358  30.424  35.341  1.00  0.00     0.074 A 
ATOM     65  C   UNL A   1      42.677  30.921  36.663  1.00  0.00     0.031 C 
ATOM     66  C   UNL A   1      43.023  29.419  34.723  1.00  0.00     0.034 A 
BRANCH  53  67
ATOM     67  C   UNL A   1      40.697  27.795  29.270  1.00  0.00     0.023 A 
ATOM     68  C   UNL A   1      39.809  26.708  29.154  1.00  0.00     0.012 A 
ATOM     69  C   UNL A   1      41.561  28.106  28.202  1.00  0.00     0.148 A 
ATOM     70  C   UNL A   1      39.775  25.945  27.987  1.00  0.00     0.002 A 
ATOM     71  C   UNL A   1      41.502  27.359  27.031  1.00  0.00     0.091 A 
ATOM     72  F   UNL A   1      42.397  29.145  28.341  1.00  0.00    -0.205 F 
ATOM     73  C   UNL A   1      40.611  26.279  26.923  1.00  0.00     0.022 A 
BRANCH  71  74
ATOM     74  S   UNL A   1      42.488  27.741  25.578  1.00  0.00     0.127 S 
ATOM     75  O   UNL A   1      43.826  27.869  26.157  1.00  0.00    -0.237 OA
ATOM     76  O   UNL A   1      42.292  26.548  24.755  1.00  0.00    -0.237 OA
ATOM     77  O   UNL A   1      41.938  28.970  25.026  1.00  0.00    -0.744 OA
ENDBRANCH  71  74
ENDBRANCH  53  67
BRANCH  54  78
ATOM     78  C   UNL A   1      39.815  34.002  37.016  1.00  0.00     0.023 A 
ATOM     79  C   UNL A   1      40.245  35.329  36.829  1.00  0.00     0.012 A 
ATOM     80  C   UNL A   1      39.270  33.620  38.257  1.00  0.00     0.148 A 
ATOM     81  C   UNL A   1      40.144  36.259  37.862  1.00  0.00     0.002 A 
ATOM     82  C   UNL A   1      39.135  34.561  39.269  1.00  0.00     0.091 A 
ATOM     83  F   UNL A   1      38.876  32.348  38.410  1.00  0.00    -0.205 F 
ATOM     84  C   UNL A   1      39.581  35.879  39.078  1.00  0.00     0.022 A 
BRANCH  82  85
ATOM     85  S   UNL A   1      38.336  34.192  40.834  1.00  0.00     0.127 S 
ATOM     86  O   UNL A   1      37.013  33.751  40.395  1.00  0.00    -0.237 OA
ATOM     87  O   UNL A   1      39.193  33.133  41.367  1.00  0.00    -0.237 OA
ATOM     88  O   UNL A   1      38.362  35.434  41.594  1.00  0.00    -0.744 OA
ENDBRANCH  82  85
ENDBRANCH  54  78
BRANCH  66  89
ATOM     89  C   UNL A   1      44.183  28.787  35.439  1.00  0.00     0.023 A 
ATOM     90  C   UNL A   1      45.471  29.330  35.281  1.00  0.00     0.012 A 
ATOM     91  C   UNL A   1      43.970  27.751  36.370  1.00  0.00     0.148 A 
ATOM     92  C   UNL A   1      46.538  28.845  36.036  1.00  0.00     0.002 A 
ATOM     93  C   UNL A   1      45.030  27.297  37.143  1.00  0.00     0.091 A 
ATOM     94  F   UNL A   1      42.732  27.251  36.495  1.00  0.00    -0.205 F 
ATOM     95  C   UNL A   1      46.315  27.839  36.975  1.00  0.00     0.022 A 
BRANCH  93  96
ATOM     96  S   UNL A   1      44.829  26.061  38.431  1.00  0.00     0.127 S 
ATOM     97  O   UNL A   1      46.217  25.798  38.810  1.00  0.00    -0.237 OA
ATOM     98  O   UNL A   1      44.049  26.784  39.434  1.00  0.00    -0.237 OA
ATOM     99  O   UNL A   1      44.135  24.939  37.812  1.00  0.00    -0.744 OA
ENDBRANCH  93  96
ENDBRANCH  66  89
ENDBRANCH  40  41
ENDBRANCH  32  35
ENDBRANCH  30  31
ENDBRANCH  29  30
ENDBRANCH   1  29
TORSDOF 17
ENDMDL
MODEL 2
REMARK VINA RESULT:     -12.6      2.323      8.338
REMARK SMILES O=C(COc1ccc(Br)cc1/C=C1\C(=O)Nc2ccc(Br)cc21)NCCCCNC(=O)c1ccc(-c2c3nc(c(-c4cccc(S(=O)(=O)[O-])c4F)c4ccc([nH]4)c(-c4cccc(S(=O)(=O)[O-])c4F)c4nc(c(-c5cccc(S(=O)(=O)[O-])c5F)c5ccc2[nH]5)C=C4)C=C3)cc1
REMARK SMILES IDX 26 1 25 2 24 3 1 4 2 5 3 7 4 8 5 9 6 10 11 11 7 12 10 13
REMARK SMILES IDX 8 14 9 15 12 16 13 17 14 18 23 19 15 20 16 21 17 22 22 23
REMARK SMILES IDX 18 25 20 26 19 27 21 28 27 29 28 30 29 31 30 32 31 34 32 35
REMARK SMILES IDX 33 36 94 37 34 38 93 39 35 40 36 41 37 42 87 43 38 44 92 45
REMARK SMILES IDX 86 46 88 47 39 48 91 49 85 50 84 51 40 53 72 54 52 55 71 56
REMARK SMILES IDX 53 57 56 58 70 59 89 60 54 61 55 62 69 64 90 65 57 66 41 67
REMARK SMILES IDX 42 68 50 69 43 70 45 71 51 72 44 73 46 74 47 75 48 76 49 77
REMARK SMILES IDX 73 78 74 79 82 80 75 81 77 82 83 83 76 84 78 85 79 86 80 87
REMARK SMILES IDX 81 88 58 89 59 90 67 91 60 92 62 93 68 94 61 95 63 96 64 97
REMARK SMILES IDX 65 98 66 99
REMARK H PARENT 24 6 16 24 29 33 88 52 56 63
REMARK Flexibility Score: inf
ROOT
ATOM      1  C   UNL A   1      31.577  27.992  27.162  1.00  0.00     0.023 C 
ENDROOT
BRANCH   1   2
ATOM      2  C   UNL A   1      31.534  26.667  26.403  1.00  0.00     0.116 C 
BRANCH   2   3
ATOM      3  N   UNL A   1      32.673  25.784  26.626  1.00  0.00    -0.353 N 
ATOM      4  O   UNL A   1      31.431  23.994  27.348  1.00  0.00    -0.271 OA
ATOM      5  C   UNL A   1      32.505  24.450  26.957  1.00  0.00     0.257 C 
ATOM      6  H   UNL A   1      33.585  26.145  26.539  1.00  0.00     0.163 HD
BRANCH   5   7
ATOM      7  C   UNL A   1      33.745  23.536  26.745  1.00  0.00     0.329 C 
BRANCH   7   8
ATOM      8  O   UNL A   1      34.285  23.249  25.446  1.00  0.00    -0.483 OA
BRANCH   8   9
ATOM      9  C   UNL A   1      33.834  22.090  24.850  1.00  0.00     0.127 A 
ATOM     10  C   UNL A   1      34.548  20.893  25.068  1.00  0.00     0.048 A 
ATOM     11  C   UNL A   1      32.608  22.057  24.127  1.00  0.00     0.018 A 
ATOM     12  C   UNL A   1      34.162  19.683  24.507  1.00  0.00     0.019 A 
ATOM     13  C   UNL A   1      32.214  20.790  23.656  1.00  0.00     0.027 A 
ATOM     14  C   UNL A   1      32.993  19.640  23.788  1.00  0.00     0.018 A 
ATOM     15  Br  UNL A   1      32.434  18.020  22.992  1.00  0.00    -0.051 Br
BRANCH  11  16
ATOM     16  C   UNL A   1      31.762  23.274  23.830  1.00  0.00     0.026 C 
ATOM     17  C   UNL A   1      31.945  24.247  22.899  1.00  0.00     0.050 C 
ATOM     18  C   UNL A   1      33.102  24.390  21.934  1.00  0.00     0.256 C 
ATOM     19  C   UNL A   1      31.407  25.626  22.986  1.00  0.00     0.012 A 
ATOM     20  O   UNL A   1      33.478  23.650  21.050  1.00  0.00    -0.269 OA
ATOM     21  N   UNL A   1      33.520  25.696  22.092  1.00  0.00    -0.321 N 
ATOM     22  C   UNL A   1      32.502  26.449  22.660  1.00  0.00     0.049 A 
ATOM     23  C   UNL A   1      30.157  26.204  23.112  1.00  0.00     0.026 A 
ATOM     24  H   UNL A   1      34.407  26.042  21.839  1.00  0.00     0.170 HD
ATOM     25  C   UNL A   1      32.467  27.825  22.666  1.00  0.00     0.028 A 
ATOM     26  C   UNL A   1      30.077  27.606  23.008  1.00  0.00     0.018 A 
ATOM     27  C   UNL A   1      31.224  28.413  22.852  1.00  0.00     0.018 A 
ATOM     28  Br  UNL A   1      28.384  28.455  22.951  1.00  0.00    -0.051 Br
ENDBRANCH  11  16
ENDBRANCH   8   9
ENDBRANCH   7   8
ENDBRANCH   5   7
ENDBRANCH   2   3
ENDBRANCH   1   2
BRANCH   1  29
ATOM     29  C   UNL A   1      31.358  29.245  26.317  1.00  0.00     0.023 C 
BRANCH  29  30
ATOM     30  C   UNL A   1      32.573  30.149  26.140  1.00  0.00     0.116 C 
BRANCH  30  31
ATOM     31  N   UNL A   1      32.366  31.519  26.587  1.00  0.00    -0.352 N 
ATOM     32  C   UNL A   1      33.201  32.325  27.336  1.00  0.00     0.251 C 
ATOM     33  H   UNL A   1      31.511  31.929  26.318  1.00  0.00     0.163 HD
ATOM     34  O   UNL A   1      32.820  33.435  27.695  1.00  0.00    -0.269 OA
BRANCH  32  35
ATOM     35  C   UNL A   1      34.533  31.822  27.748  1.00  0.00     0.039 A 
ATOM     36  C   UNL A   1      34.731  30.467  28.020  1.00  0.00     0.014 A 
ATOM     37  C   UNL A   1      35.581  32.728  27.935  1.00  0.00     0.014 A 
ATOM     38  C   UNL A   1      35.888  30.058  28.678  1.00  0.00     0.010 A 
ATOM     39  C   UNL A   1      36.783  32.295  28.508  1.00  0.00     0.010 A 
ATOM     40  C   UNL A   1      36.921  30.970  28.949  1.00  0.00    -0.014 A 
BRANCH  40  41
ATOM     41  C   UNL A   1      38.118  30.519  29.715  1.00  0.00     0.031 A 
ATOM     42  C   UNL A   1      38.340  30.964  31.142  1.00  0.00     0.074 A 
ATOM     43  C   UNL A   1      38.985  29.659  29.143  1.00  0.00     0.049 A 
ATOM     44  N   UNL A   1      39.309  30.638  31.960  1.00  0.00    -0.248 NA
ATOM     45  C   UNL A   1      37.354  31.887  31.732  1.00  0.00     0.031 C 
ATOM     46  C   UNL A   1      38.890  29.150  27.773  1.00  0.00     0.029 A 
ATOM     47  N   UNL A   1      40.105  29.045  29.646  1.00  0.00    -0.354 N 
ATOM     48  C   UNL A   1      39.076  31.345  33.135  1.00  0.00     0.074 A 
ATOM     49  C   UNL A   1      37.873  32.119  32.931  1.00  0.00     0.031 C 
ATOM     50  C   UNL A   1      39.876  28.266  27.560  1.00  0.00     0.029 A 
ATOM     51  C   UNL A   1      40.709  28.186  28.756  1.00  0.00     0.049 A 
ATOM     52  H   UNL A   1      40.445  29.203  30.556  1.00  0.00     0.167 HD
ATOM     53  C   UNL A   1      39.790  31.337  34.286  1.00  0.00     0.034 A 
ATOM     54  C   UNL A   1      41.812  27.423  28.878  1.00  0.00     0.034 A 
ATOM     55  C   UNL A   1      40.951  30.521  34.517  1.00  0.00     0.049 A 
ATOM     56  C   UNL A   1      42.586  27.443  30.165  1.00  0.00     0.074 A 
ATOM     57  C   UNL A   1      41.698  30.410  35.678  1.00  0.00     0.029 A 
ATOM     58  N   UNL A   1      41.531  29.680  33.585  1.00  0.00    -0.354 N 
ATOM     59  N   UNL A   1      42.302  28.063  31.283  1.00  0.00    -0.248 NA
ATOM     60  C   UNL A   1      43.825  26.653  30.210  1.00  0.00     0.031 C 
ATOM     61  C   UNL A   1      42.740  29.512  35.442  1.00  0.00     0.029 A 
ATOM     62  C   UNL A   1      42.632  29.052  34.141  1.00  0.00     0.049 A 
ATOM     63  H   UNL A   1      41.209  29.548  32.664  1.00  0.00     0.167 HD
ATOM     64  C   UNL A   1      43.313  27.720  32.172  1.00  0.00     0.074 A 
ATOM     65  C   UNL A   1      44.210  26.827  31.469  1.00  0.00     0.031 C 
ATOM     66  C   UNL A   1      43.487  28.124  33.452  1.00  0.00     0.034 A 
BRANCH  53  67
ATOM     67  C   UNL A   1      39.329  32.196  35.431  1.00  0.00     0.023 A 
ATOM     68  C   UNL A   1      38.557  31.618  36.457  1.00  0.00     0.012 A 
ATOM     69  C   UNL A   1      39.801  33.515  35.574  1.00  0.00     0.148 A 
ATOM     70  C   UNL A   1      38.264  32.339  37.613  1.00  0.00     0.002 A 
ATOM     71  C   UNL A   1      39.530  34.218  36.742  1.00  0.00     0.091 A 
ATOM     72  F   UNL A   1      40.534  34.040  34.581  1.00  0.00    -0.205 F 
ATOM     73  C   UNL A   1      38.762  33.632  37.761  1.00  0.00     0.022 A 
BRANCH  71  74
ATOM     74  S   UNL A   1      40.175  35.865  37.062  1.00  0.00     0.127 S 
ATOM     75  O   UNL A   1      39.730  36.591  35.871  1.00  0.00    -0.237 OA
ATOM     76  O   UNL A   1      39.477  36.231  38.294  1.00  0.00    -0.237 OA
ATOM     77  O   UNL A   1      41.617  35.719  37.189  1.00  0.00    -0.744 OA
ENDBRANCH  71  74
ENDBRANCH  53  67
BRANCH  54  78
ATOM     78  C   UNL A   1      42.220  26.532  27.759  1.00  0.00     0.023 A 
ATOM     79  C   UNL A   1      43.129  27.011  26.797  1.00  0.00     0.012 A 
ATOM     80  C   UNL A   1      41.752  25.207  27.667  1.00  0.00     0.148 A 
ATOM     81  C   UNL A   1      43.558  26.190  25.756  1.00  0.00     0.002 A 
ATOM     82  C   UNL A   1      42.213  24.382  26.650  1.00  0.00     0.091 A 
ATOM     83  F   UNL A   1      40.881  24.778  28.592  1.00  0.00    -0.205 F 
ATOM     84  C   UNL A   1      43.109  24.874  25.687  1.00  0.00     0.022 A 
BRANCH  82  85
ATOM     85  S   UNL A   1      41.768  22.646  26.535  1.00  0.00     0.127 S 
ATOM     86  O   UNL A   1      42.430  22.251  25.293  1.00  0.00    -0.237 OA
ATOM     87  O   UNL A   1      42.368  22.101  27.753  1.00  0.00    -0.237 OA
ATOM     88  O   UNL A   1      40.312  22.612  26.508  1.00  0.00    -0.744 OA
ENDBRANCH  82  85
ENDBRANCH  54  78
BRANCH  66  89
ATOM     89  C   UNL A   1      44.674  27.600  34.208  1.00  0.00     0.023 A 
ATOM     90  C   UNL A   1      45.860  28.357  34.244  1.00  0.00     0.012 A 
ATOM     91  C   UNL A   1      44.565  26.433  34.991  1.00  0.00     0.148 A 
ATOM     92  C   UNL A   1      46.927  27.956  35.046  1.00  0.00     0.002 A 
ATOM     93  C   UNL A   1      45.619  26.059  35.813  1.00  0.00     0.091 A 
ATOM     94  F   UNL A   1      43.425  25.731  34.932  1.00  0.00    -0.205 F 
ATOM     95  C   UNL A   1      46.802  26.817  35.839  1.00  0.00     0.022 A 
BRANCH  93  96
ATOM     96  S   UNL A   1      45.527  24.654  36.928  1.00  0.00     0.127 S 
ATOM     97  O   UNL A   1      44.393  25.021  37.776  1.00  0.00    -0.237 OA
ATOM     98  O   UNL A   1      45.269  23.547  36.008  1.00  0.00    -0.237 OA
ATOM     99  O   UNL A   1      46.813  24.592  37.610  1.00  0.00    -0.744 OA
ENDBRANCH  93  96
ENDBRANCH  66  89
ENDBRANCH  40  41
ENDBRANCH  32  35
ENDBRANCH  30  31
ENDBRANCH  29  30
ENDBRANCH   1  29
TORSDOF 17
ENDMDL
MODEL 3
REMARK VINA RESULT:     -12.5      1.305      7.436
REMARK SMILES O=C(COc1ccc(Br)cc1/C=C1\C(=O)Nc2ccc(Br)cc21)NCCCCNC(=O)c1ccc(-c2c3nc(c(-c4cccc(S(=O)(=O)[O-])c4F)c4ccc([nH]4)c(-c4cccc(S(=O)(=O)[O-])c4F)c4nc(c(-c5cccc(S(=O)(=O)[O-])c5F)c5ccc2[nH]5)C=C4)C=C3)cc1
REMARK SMILES IDX 26 1 25 2 24 3 1 4 2 5 3 7 4 8 5 9 6 10 11 11 7 12 10 13
REMARK SMILES IDX 8 14 9 15 12 16 13 17 14 18 23 19 15 20 16 21 17 22 22 23
REMARK SMILES IDX 18 25 20 26 19 27 21 28 27 29 28 30 29 31 30 32 31 34 32 35
REMARK SMILES IDX 33 36 94 37 34 38 93 39 35 40 36 41 37 42 87 43 38 44 92 45
REMARK SMILES IDX 86 46 88 47 39 48 91 49 85 50 84 51 40 53 72 54 52 55 71 56
REMARK SMILES IDX 53 57 56 58 70 59 89 60 54 61 55 62 69 64 90 65 57 66 41 67
REMARK SMILES IDX 42 68 50 69 43 70 45 71 51 72 44 73 46 74 47 75 48 76 49 77
REMARK SMILES IDX 73 78 74 79 82 80 75 81 77 82 83 83 76 84 78 85 79 86 80 87
REMARK SMILES IDX 81 88 58 89 59 90 67 91 60 92 62 93 68 94 61 95 63 96 64 97
REMARK SMILES IDX 65 98 66 99
REMARK H PARENT 24 6 16 24 29 33 88 52 56 63
REMARK Flexibility Score: inf
ROOT
ATOM      1  C   UNL A   1      32.206  30.015  26.982  1.00  0.00     0.023 C 
ENDROOT
BRANCH   1   2
ATOM      2  C   UNL A   1      33.657  29.562  26.825  1.00  0.00     0.116 C 
BRANCH   2   3
ATOM      3  N   UNL A   1      34.056  29.207  25.468  1.00  0.00    -0.353 N 
ATOM      4  O   UNL A   1      33.454  26.998  25.628  1.00  0.00    -0.271 OA
ATOM      5  C   UNL A   1      33.786  27.959  24.933  1.00  0.00     0.257 C 
ATOM      6  H   UNL A   1      34.528  29.872  24.917  1.00  0.00     0.163 HD
BRANCH   5   7
ATOM      7  C   UNL A   1      33.863  27.851  23.384  1.00  0.00     0.329 C 
BRANCH   7   8
ATOM      8  O   UNL A   1      32.914  27.104  22.609  1.00  0.00    -0.483 OA
BRANCH   8   9
ATOM      9  C   UNL A   1      31.587  27.419  22.819  1.00  0.00     0.127 A 
ATOM     10  C   UNL A   1      31.142  28.722  22.511  1.00  0.00     0.048 A 
ATOM     11  C   UNL A   1      30.646  26.430  23.223  1.00  0.00     0.018 A 
ATOM     12  C   UNL A   1      29.824  29.120  22.692  1.00  0.00     0.019 A 
ATOM     13  C   UNL A   1      29.308  26.862  23.303  1.00  0.00     0.027 A 
ATOM     14  C   UNL A   1      28.909  28.183  23.102  1.00  0.00     0.018 A 
ATOM     15  Br  UNL A   1      27.107  28.682  23.376  1.00  0.00    -0.051 Br
BRANCH  11  16
ATOM     16  C   UNL A   1      31.007  25.007  23.581  1.00  0.00     0.026 C 
ATOM     17  C   UNL A   1      30.969  24.383  24.789  1.00  0.00     0.050 C 
ATOM     18  C   UNL A   1      30.596  24.990  26.124  1.00  0.00     0.256 C 
ATOM     19  C   UNL A   1      31.786  23.206  25.169  1.00  0.00     0.012 A 
ATOM     20  O   UNL A   1      29.554  25.489  26.492  1.00  0.00    -0.269 OA
ATOM     21  N   UNL A   1      31.630  24.628  26.965  1.00  0.00    -0.321 N 
ATOM     22  C   UNL A   1      32.303  23.536  26.436  1.00  0.00     0.049 A 
ATOM     23  C   UNL A   1      31.969  21.922  24.692  1.00  0.00     0.026 A 
ATOM     24  H   UNL A   1      31.854  25.078  27.812  1.00  0.00     0.170 HD
ATOM     25  C   UNL A   1      33.169  22.740  27.152  1.00  0.00     0.028 A 
ATOM     26  C   UNL A   1      32.759  21.049  25.465  1.00  0.00     0.018 A 
ATOM     27  C   UNL A   1      33.405  21.469  26.646  1.00  0.00     0.018 A 
ATOM     28  Br  UNL A   1      32.881  19.217  24.994  1.00  0.00    -0.051 Br
ENDBRANCH  11  16
ENDBRANCH   8   9
ENDBRANCH   7   8
ENDBRANCH   5   7
ENDBRANCH   2   3
ENDBRANCH   1   2
BRANCH   1  29
ATOM     29  C   UNL A   1      31.966  31.517  26.852  1.00  0.00     0.023 C 
BRANCH  29  30
ATOM     30  C   UNL A   1      33.059  32.418  27.418  1.00  0.00     0.116 C 
BRANCH  30  31
ATOM     31  N   UNL A   1      32.635  33.789  27.663  1.00  0.00    -0.352 N 
ATOM     32  C   UNL A   1      33.160  34.717  28.540  1.00  0.00     0.251 C 
ATOM     33  H   UNL A   1      31.867  34.097  27.129  1.00  0.00     0.163 HD
ATOM     34  O   UNL A   1      32.613  35.808  28.676  1.00  0.00    -0.269 OA
BRANCH  32  35
ATOM     35  C   UNL A   1      34.350  34.371  29.353  1.00  0.00     0.039 A 
ATOM     36  C   UNL A   1      35.637  34.598  28.864  1.00  0.00     0.014 A 
ATOM     37  C   UNL A   1      34.177  33.746  30.592  1.00  0.00     0.014 A 
ATOM     38  C   UNL A   1      36.728  34.011  29.500  1.00  0.00     0.010 A 
ATOM     39  C   UNL A   1      35.287  33.241  31.278  1.00  0.00     0.010 A 
ATOM     40  C   UNL A   1      36.566  33.307  30.705  1.00  0.00    -0.014 A 
BRANCH  40  41
ATOM     41  C   UNL A   1      37.740  32.631  31.326  1.00  0.00     0.031 A 
ATOM     42  C   UNL A   1      38.249  33.051  32.685  1.00  0.00     0.074 A 
ATOM     43  C   UNL A   1      38.321  31.593  30.690  1.00  0.00     0.049 A 
ATOM     44  N   UNL A   1      39.235  32.547  33.383  1.00  0.00    -0.248 NA
ATOM     45  C   UNL A   1      37.569  34.176  33.352  1.00  0.00     0.031 C 
ATOM     46  C   UNL A   1      37.929  31.085  29.373  1.00  0.00     0.029 A 
ATOM     47  N   UNL A   1      39.349  30.767  31.069  1.00  0.00    -0.354 N 
ATOM     48  C   UNL A   1      39.323  33.314  34.539  1.00  0.00     0.074 A 
ATOM     49  C   UNL A   1      38.290  34.320  34.457  1.00  0.00     0.031 C 
ATOM     50  C   UNL A   1      38.670  30.007  29.077  1.00  0.00     0.029 A 
ATOM     51  C   UNL A   1      39.630  29.779  30.153  1.00  0.00     0.049 A 
ATOM     52  H   UNL A   1      39.840  30.871  31.916  1.00  0.00     0.167 HD
ATOM     53  C   UNL A   1      40.175  33.181  35.583  1.00  0.00     0.034 A 
ATOM     54  C   UNL A   1      40.556  28.803  30.168  1.00  0.00     0.034 A 
ATOM     55  C   UNL A   1      41.163  32.143  35.700  1.00  0.00     0.049 A 
ATOM     56  C   UNL A   1      41.492  28.688  31.336  1.00  0.00     0.074 A 
ATOM     57  C   UNL A   1      42.028  31.903  36.755  1.00  0.00     0.029 A 
ATOM     58  N   UNL A   1      41.418  31.176  34.744  1.00  0.00    -0.354 N 
ATOM     59  N   UNL A   1      41.504  29.379  32.448  1.00  0.00    -0.248 NA
ATOM     60  C   UNL A   1      42.534  27.654  31.257  1.00  0.00     0.031 C 
ATOM     61  C   UNL A   1      42.818  30.799  36.429  1.00  0.00     0.029 A 
ATOM     62  C   UNL A   1      42.433  30.343  35.180  1.00  0.00     0.049 A 
ATOM     63  H   UNL A   1      40.949  31.094  33.883  1.00  0.00     0.167 HD
ATOM     64  C   UNL A   1      42.538  28.851  33.210  1.00  0.00     0.074 A 
ATOM     65  C   UNL A   1      43.122  27.772  32.442  1.00  0.00     0.031 C 
ATOM     66  C   UNL A   1      42.971  29.239  34.433  1.00  0.00     0.034 A 
BRANCH  53  67
ATOM     67  C   UNL A   1      40.069  34.145  36.733  1.00  0.00     0.023 A 
ATOM     68  C   UNL A   1      39.022  33.993  37.662  1.00  0.00     0.012 A 
ATOM     69  C   UNL A   1      41.093  35.079  36.984  1.00  0.00     0.148 A 
ATOM     70  C   UNL A   1      38.997  34.756  38.829  1.00  0.00     0.002 A 
ATOM     71  C   UNL A   1      41.077  35.814  38.163  1.00  0.00     0.091 A 
ATOM     72  F   UNL A   1      42.077  35.202  36.081  1.00  0.00    -0.205 F 
ATOM     73  C   UNL A   1      40.031  35.654  39.085  1.00  0.00     0.022 A 
BRANCH  71  74
ATOM     74  S   UNL A   1      42.390  36.954  38.620  1.00  0.00     0.127 S 
ATOM     75  O   UNL A   1      42.821  37.446  37.311  1.00  0.00    -0.237 OA
ATOM     76  O   UNL A   1      41.673  37.934  39.434  1.00  0.00    -0.237 OA
ATOM     77  O   UNL A   1      43.382  36.164  39.335  1.00  0.00    -0.744 OA
ENDBRANCH  71  74
ENDBRANCH  53  67
BRANCH  54  78
ATOM     78  C   UNL A   1      40.609  27.819  29.052  1.00  0.00     0.023 A 
ATOM     79  C   UNL A   1      39.685  26.758  29.029  1.00  0.00     0.012 A 
ATOM     80  C   UNL A   1      41.533  27.954  27.998  1.00  0.00     0.148 A 
ATOM     81  C   UNL A   1      39.686  25.840  27.980  1.00  0.00     0.002 A 
ATOM     82  C   UNL A   1      41.503  27.060  26.936  1.00  0.00     0.091 A 
ATOM     83  F   UNL A   1      42.407  28.969  28.049  1.00  0.00    -0.205 F 
ATOM     84  C   UNL A   1      40.587  25.995  26.930  1.00  0.00     0.022 A 
BRANCH  82  85
ATOM     85  S   UNL A   1      42.557  27.234  25.493  1.00  0.00     0.127 S 
ATOM     86  O   UNL A   1      42.072  28.487  24.920  1.00  0.00    -0.237 OA
ATOM     87  O   UNL A   1      43.887  27.307  26.100  1.00  0.00    -0.237 OA
ATOM     88  O   UNL A   1      42.324  26.044  24.686  1.00  0.00    -0.744 OA
ENDBRANCH  82  85
ENDBRANCH  54  78
BRANCH  66  89
ATOM     89  C   UNL A   1      44.119  28.491  35.051  1.00  0.00     0.023 A 
ATOM     90  C   UNL A   1      45.438  28.853  34.716  1.00  0.00     0.012 A 
ATOM     91  C   UNL A   1      43.890  27.535  36.059  1.00  0.00     0.148 A 
ATOM     92  C   UNL A   1      46.517  28.265  35.375  1.00  0.00     0.002 A 
ATOM     93  C   UNL A   1      44.969  26.979  36.734  1.00  0.00     0.091 A 
ATOM     94  F   UNL A   1      42.623  27.208  36.352  1.00  0.00    -0.205 F 
ATOM     95  C   UNL A   1      46.283  27.340  36.390  1.00  0.00     0.022 A 
BRANCH  93  96
ATOM     96  S   UNL A   1      44.769  25.839  38.107  1.00  0.00     0.127 S 
ATOM     97  O   UNL A   1      44.236  24.655  37.436  1.00  0.00    -0.237 OA
ATOM     98  O   UNL A   1      46.142  25.699  38.594  1.00  0.00    -0.237 OA
ATOM     99  O   UNL A   1      43.855  26.484  39.040  1.00  0.00    -0.744 OA
ENDBRANCH  93  96
ENDBRANCH  66  89
ENDBRANCH  40  41
ENDBRANCH  32  35
ENDBRANCH  30  31
ENDBRANCH  29  30
ENDBRANCH   1  29
TORSDOF 17
ENDMDL
