MODEL 1
REMARK VINA RESULT:     -11.8      0.000      0.000
REMARK SMILES CC1(C)CC[N@H+](CCOc2ccc(C(=O)NCCCCNC(=O)c3ccc(-c4c5nc(c(-c6cccc(S(=O)(=O)[O-])c6F)c6ccc([nH]6)c(-c6cccc(S(=O)(=O)[O-])c6F)c6nc(c(-c7cccc(S(=O)(=O)[O-])c7F)c7ccc4[nH]7)C=C6)C=C5)cc3)cc2)C1
REMARK SMILES IDX 18 1 17 2 16 3 14 4 15 5 13 7 10 8 11 9 88 10 12 11 87 12
REMARK SMILES IDX 9 13 8 14 7 15 6 16 1 17 2 18 3 19 4 20 89 21 5 22 19 24
REMARK SMILES IDX 20 25 21 26 22 27 23 29 24 30 25 31 86 32 26 33 85 34 27 35
REMARK SMILES IDX 28 36 29 37 79 38 30 39 84 40 78 41 80 42 31 43 83 44 77 45
REMARK SMILES IDX 76 46 32 48 64 49 44 50 63 51 45 52 48 53 62 54 81 55 46 56
REMARK SMILES IDX 47 57 61 59 82 60 49 61 33 62 34 63 42 64 35 65 37 66 43 67
REMARK SMILES IDX 36 68 38 69 39 70 40 71 41 72 65 73 66 74 74 75 67 76 69 77
REMARK SMILES IDX 75 78 68 79 70 80 71 81 72 82 73 83 50 84 51 85 59 86 52 87
REMARK SMILES IDX 54 88 60 89 53 90 55 91 56 92 57 93 58 94
REMARK H PARENT 16 6 6 23 21 28 80 47 48 58
REMARK Flexibility Score: inf
ROOT
ATOM      1  C   UNL A   1      33.039  29.202  24.692  1.00  0.00     0.023 C 
ENDROOT
BRANCH   1   2
ATOM      2  C   UNL A   1      33.188  29.286  23.176  1.00  0.00     0.116 C 
BRANCH   2   3
ATOM      3  N   UNL A   1      31.922  29.315  22.457  1.00  0.00    -0.352 N 
ATOM      4  C   UNL A   1      30.890  28.399  22.434  1.00  0.00     0.251 C 
ATOM      5  O   UNL A   1      29.786  28.731  22.011  1.00  0.00    -0.269 OA
ATOM      6  H   UNL A   1      31.779  30.114  21.900  1.00  0.00     0.163 HD
BRANCH   4   7
ATOM      7  C   UNL A   1      31.065  27.029  22.975  1.00  0.00     0.040 A 
ATOM      8  C   UNL A   1      31.000  24.349  23.712  1.00  0.00     0.119 A 
ATOM      9  C   UNL A   1      31.691  24.722  22.559  1.00  0.00     0.047 A 
ATOM     10  C   UNL A   1      30.559  25.324  24.609  1.00  0.00     0.047 A 
ATOM     11  C   UNL A   1      31.715  26.071  22.183  1.00  0.00     0.017 A 
ATOM     12  C   UNL A   1      30.578  26.670  24.234  1.00  0.00     0.017 A 
BRANCH   8  13
ATOM     13  O   UNL A   1      30.680  23.050  23.992  1.00  0.00    -0.488 OA
BRANCH  13  14
ATOM     14  C   UNL A   1      31.023  22.645  25.339  1.00  0.00     0.290 C 
BRANCH  14  15
ATOM     15  C   UNL A   1      32.139  21.561  25.392  1.00  0.00     0.304 C 
BRANCH  15  16
ATOM     16  N   UNL A   1      33.543  21.906  25.713  1.00  0.00    -0.332 N 
ATOM     17  C   UNL A   1      36.221  23.934  25.779  1.00  0.00     0.017 C 
ATOM     18  C   UNL A   1      34.773  23.962  25.258  1.00  0.00     0.019 C 
ATOM     19  C   UNL A   1      34.382  25.403  24.922  1.00  0.00     0.017 C 
ATOM     20  C   UNL A   1      34.680  23.078  24.029  1.00  0.00     0.073 C 
ATOM     21  C   UNL A   1      33.764  23.280  26.210  1.00  0.00     0.268 C 
ATOM     22  C   UNL A   1      34.470  21.694  24.608  1.00  0.00     0.263 C 
ATOM     23  H   UNL A   1      33.735  21.251  26.471  1.00  0.00     0.348 HD
ENDBRANCH  15  16
ENDBRANCH  14  15
ENDBRANCH  13  14
ENDBRANCH   8  13
ENDBRANCH   4   7
ENDBRANCH   2   3
ENDBRANCH   1   2
BRANCH   1  24
ATOM     24  C   UNL A   1      31.920  30.060  25.283  1.00  0.00     0.023 C 
BRANCH  24  25
ATOM     25  C   UNL A   1      32.116  30.499  26.735  1.00  0.00     0.116 C 
BRANCH  25  26
ATOM     26  N   UNL A   1      32.250  31.943  26.893  1.00  0.00    -0.352 N 
ATOM     27  C   UNL A   1      33.251  32.675  27.492  1.00  0.00     0.251 C 
ATOM     28  H   UNL A   1      31.513  32.475  26.513  1.00  0.00     0.163 HD
ATOM     29  O   UNL A   1      33.123  33.890  27.624  1.00  0.00    -0.269 OA
BRANCH  27  30
ATOM     30  C   UNL A   1      34.467  32.004  28.007  1.00  0.00     0.039 A 
ATOM     31  C   UNL A   1      35.634  32.753  28.189  1.00  0.00     0.014 A 
ATOM     32  C   UNL A   1      34.457  30.643  28.322  1.00  0.00     0.014 A 
ATOM     33  C   UNL A   1      36.759  32.162  28.774  1.00  0.00     0.010 A 
ATOM     34  C   UNL A   1      35.551  30.075  28.971  1.00  0.00     0.010 A 
ATOM     35  C   UNL A   1      36.710  30.830  29.215  1.00  0.00    -0.014 A 
BRANCH  35  36
ATOM     36  C   UNL A   1      37.839  30.201  29.955  1.00  0.00     0.031 A 
ATOM     37  C   UNL A   1      38.144  30.623  31.367  1.00  0.00     0.074 A 
ATOM     38  C   UNL A   1      38.666  29.349  29.316  1.00  0.00     0.049 A 
ATOM     39  N   UNL A   1      39.164  30.306  32.122  1.00  0.00    -0.248 NA
ATOM     40  C   UNL A   1      37.192  31.548  32.004  1.00  0.00     0.031 C 
ATOM     41  C   UNL A   1      38.525  28.911  27.926  1.00  0.00     0.029 A 
ATOM     42  N   UNL A   1      39.818  28.730  29.740  1.00  0.00    -0.354 N 
ATOM     43  C   UNL A   1      39.004  31.026  33.300  1.00  0.00     0.074 A 
ATOM     44  C   UNL A   1      37.800  31.815  33.151  1.00  0.00     0.031 C 
ATOM     45  C   UNL A   1      39.551  28.105  27.611  1.00  0.00     0.029 A 
ATOM     46  C   UNL A   1      40.443  27.994  28.760  1.00  0.00     0.049 A 
ATOM     47  H   UNL A   1      40.163  28.806  30.660  1.00  0.00     0.167 HD
ATOM     48  C   UNL A   1      39.775  31.016  34.413  1.00  0.00     0.034 A 
ATOM     49  C   UNL A   1      41.612  27.321  28.775  1.00  0.00     0.034 A 
ATOM     50  C   UNL A   1      40.939  30.190  34.582  1.00  0.00     0.049 A 
ATOM     51  C   UNL A   1      42.426  27.291  30.042  1.00  0.00     0.074 A 
ATOM     52  C   UNL A   1      41.733  30.042  35.707  1.00  0.00     0.029 A 
ATOM     53  N   UNL A   1      41.480  29.373  33.602  1.00  0.00    -0.354 N 
ATOM     54  N   UNL A   1      42.178  27.862  31.195  1.00  0.00    -0.248 NA
ATOM     55  C   UNL A   1      43.663  26.495  30.021  1.00  0.00     0.031 C 
ATOM     56  C   UNL A   1      42.762  29.147  35.401  1.00  0.00     0.029 A 
ATOM     57  C   UNL A   1      42.597  28.721  34.092  1.00  0.00     0.049 A 
ATOM     58  H   UNL A   1      41.122  29.272  32.690  1.00  0.00     0.167 HD
ATOM     59  C   UNL A   1      43.200  27.462  32.047  1.00  0.00     0.074 A 
ATOM     60  C   UNL A   1      44.066  26.589  31.281  1.00  0.00     0.031 C 
ATOM     61  C   UNL A   1      43.411  27.798  33.343  1.00  0.00     0.034 A 
BRANCH  48  62
ATOM     62  C   UNL A   1      39.350  31.886  35.567  1.00  0.00     0.023 A 
ATOM     63  C   UNL A   1      39.733  33.242  35.591  1.00  0.00     0.012 A 
ATOM     64  C   UNL A   1      38.525  31.383  36.593  1.00  0.00     0.148 A 
ATOM     65  C   UNL A   1      39.333  34.076  36.634  1.00  0.00     0.002 A 
ATOM     66  C   UNL A   1      38.093  32.232  37.606  1.00  0.00     0.091 A 
ATOM     67  F   UNL A   1      38.186  30.086  36.565  1.00  0.00    -0.205 F 
ATOM     68  C   UNL A   1      38.505  33.574  37.634  1.00  0.00     0.022 A 
BRANCH  66  69
ATOM     69  S   UNL A   1      36.962  31.701  38.897  1.00  0.00     0.127 S 
ATOM     70  O   UNL A   1      37.792  31.843  40.092  1.00  0.00    -0.237 OA
ATOM     71  O   UNL A   1      35.882  32.682  38.784  1.00  0.00    -0.237 OA
ATOM     72  O   UNL A   1      36.579  30.337  38.558  1.00  0.00    -0.744 OA
ENDBRANCH  66  69
ENDBRANCH  48  62
BRANCH  49  73
ATOM     73  C   UNL A   1      42.052  26.564  27.569  1.00  0.00     0.023 A 
ATOM     74  C   UNL A   1      42.741  27.244  26.545  1.00  0.00     0.012 A 
ATOM     75  C   UNL A   1      41.819  25.181  27.438  1.00  0.00     0.148 A 
ATOM     76  C   UNL A   1      43.162  26.568  25.400  1.00  0.00     0.002 A 
ATOM     77  C   UNL A   1      42.288  24.503  26.318  1.00  0.00     0.091 A 
ATOM     78  F   UNL A   1      41.151  24.554  28.417  1.00  0.00    -0.205 F 
ATOM     79  C   UNL A   1      42.945  25.197  25.290  1.00  0.00     0.022 A 
BRANCH  77  80
ATOM     80  S   UNL A   1      42.169  22.719  26.152  1.00  0.00     0.127 S 
ATOM     81  O   UNL A   1      40.724  22.516  26.128  1.00  0.00    -0.237 OA
ATOM     82  O   UNL A   1      42.846  22.486  24.876  1.00  0.00    -0.237 OA
ATOM     83  O   UNL A   1      42.868  22.171  27.309  1.00  0.00    -0.744 OA
ENDBRANCH  77  80
ENDBRANCH  49  73
BRANCH  61  84
ATOM     84  C   UNL A   1      44.592  27.185  34.050  1.00  0.00     0.023 A 
ATOM     85  C   UNL A   1      45.838  27.839  34.031  1.00  0.00     0.012 A 
ATOM     86  C   UNL A   1      44.435  26.013  34.816  1.00  0.00     0.148 A 
ATOM     87  C   UNL A   1      46.919  27.323  34.745  1.00  0.00     0.002 A 
ATOM     88  C   UNL A   1      45.503  25.531  35.563  1.00  0.00     0.091 A 
ATOM     89  F   UNL A   1      43.244  25.396  34.806  1.00  0.00    -0.205 F 
ATOM     90  C   UNL A   1      46.748  26.179  35.521  1.00  0.00     0.022 A 
BRANCH  88  91
ATOM     91  S   UNL A   1      45.348  24.122  36.667  1.00  0.00     0.127 S 
ATOM     92  O   UNL A   1      46.738  23.895  37.058  1.00  0.00    -0.237 OA
ATOM     93  O   UNL A   1      44.494  24.652  37.730  1.00  0.00    -0.237 OA
ATOM     94  O   UNL A   1      44.739  23.058  35.878  1.00  0.00    -0.744 OA
ENDBRANCH  88  91
ENDBRANCH  61  84
ENDBRANCH  35  36
ENDBRANCH  27  30
ENDBRANCH  25  26
ENDBRANCH  24  25
ENDBRANCH   1  24
TORSDOF 18
ENDMDL
MODEL 2
REMARK VINA RESULT:     -11.7      0.609      7.537
REMARK SMILES CC1(C)CC[N@H+](CCOc2ccc(C(=O)NCCCCNC(=O)c3ccc(-c4c5nc(c(-c6cccc(S(=O)(=O)[O-])c6F)c6ccc([nH]6)c(-c6cccc(S(=O)(=O)[O-])c6F)c6nc(c(-c7cccc(S(=O)(=O)[O-])c7F)c7ccc4[nH]7)C=C6)C=C5)cc3)cc2)C1
REMARK SMILES IDX 18 1 17 2 16 3 14 4 15 5 13 7 10 8 11 9 88 10 12 11 87 12
REMARK SMILES IDX 9 13 8 14 7 15 6 16 1 17 2 18 3 19 4 20 89 21 5 22 19 24
REMARK SMILES IDX 20 25 21 26 22 27 23 29 24 30 25 31 86 32 26 33 85 34 27 35
REMARK SMILES IDX 28 36 29 37 79 38 30 39 84 40 78 41 80 42 31 43 83 44 77 45
REMARK SMILES IDX 76 46 32 48 64 49 44 50 63 51 45 52 48 53 62 54 81 55 46 56
REMARK SMILES IDX 47 57 61 59 82 60 49 61 33 62 34 63 42 64 35 65 37 66 43 67
REMARK SMILES IDX 36 68 38 69 39 70 40 71 41 72 65 73 66 74 74 75 67 76 69 77
REMARK SMILES IDX 75 78 68 79 70 80 71 81 72 82 73 83 50 84 51 85 59 86 52 87
REMARK SMILES IDX 54 88 60 89 53 90 55 91 56 92 57 93 58 94
REMARK H PARENT 16 6 6 23 21 28 80 47 48 58
REMARK Flexibility Score: inf
ROOT
ATOM      1  C   UNL A   1      32.860  28.927  24.810  1.00  0.00     0.023 C 
ENDROOT
BRANCH   1   2
ATOM      2  C   UNL A   1      33.199  28.952  23.322  1.00  0.00     0.116 C 
BRANCH   2   3
ATOM      3  N   UNL A   1      32.063  29.249  22.461  1.00  0.00    -0.352 N 
ATOM      4  C   UNL A   1      30.861  28.589  22.314  1.00  0.00     0.251 C 
ATOM      5  O   UNL A   1      29.916  29.151  21.767  1.00  0.00    -0.269 OA
ATOM      6  H   UNL A   1      32.169  30.048  21.895  1.00  0.00     0.163 HD
BRANCH   4   7
ATOM      7  C   UNL A   1      30.659  27.227  22.863  1.00  0.00     0.040 A 
ATOM      8  C   UNL A   1      30.623  24.802  24.224  1.00  0.00     0.119 A 
ATOM      9  C   UNL A   1      29.815  25.846  24.671  1.00  0.00     0.047 A 
ATOM     10  C   UNL A   1      31.251  24.888  22.980  1.00  0.00     0.047 A 
ATOM     11  C   UNL A   1      29.840  27.070  23.992  1.00  0.00     0.017 A 
ATOM     12  C   UNL A   1      31.282  26.109  22.301  1.00  0.00     0.017 A 
BRANCH   8  13
ATOM     13  O   UNL A   1      30.882  23.693  24.980  1.00  0.00    -0.488 OA
BRANCH  13  14
ATOM     14  C   UNL A   1      31.351  22.561  24.208  1.00  0.00     0.290 C 
BRANCH  14  15
ATOM     15  C   UNL A   1      32.243  21.582  25.028  1.00  0.00     0.304 C 
BRANCH  15  16
ATOM     16  N   UNL A   1      33.627  21.935  25.418  1.00  0.00    -0.332 N 
ATOM     17  C   UNL A   1      36.256  24.009  25.705  1.00  0.00     0.017 C 
ATOM     18  C   UNL A   1      34.825  24.041  25.138  1.00  0.00     0.019 C 
ATOM     19  C   UNL A   1      34.412  25.492  24.882  1.00  0.00     0.017 C 
ATOM     20  C   UNL A   1      34.792  23.237  23.852  1.00  0.00     0.073 C 
ATOM     21  C   UNL A   1      33.801  23.278  26.009  1.00  0.00     0.268 C 
ATOM     22  C   UNL A   1      34.595  21.814  24.334  1.00  0.00     0.263 C 
ATOM     23  H   UNL A   1      33.810  21.236  26.138  1.00  0.00     0.348 HD
ENDBRANCH  15  16
ENDBRANCH  14  15
ENDBRANCH  13  14
ENDBRANCH   8  13
ENDBRANCH   4   7
ENDBRANCH   2   3
ENDBRANCH   1   2
BRANCH   1  24
ATOM     24  C   UNL A   1      31.892  30.016  25.274  1.00  0.00     0.023 C 
BRANCH  24  25
ATOM     25  C   UNL A   1      32.063  30.483  26.720  1.00  0.00     0.116 C 
BRANCH  25  26
ATOM     26  N   UNL A   1      31.998  31.932  26.874  1.00  0.00    -0.352 N 
ATOM     27  C   UNL A   1      32.891  32.796  27.469  1.00  0.00     0.251 C 
ATOM     28  H   UNL A   1      31.196  32.358  26.494  1.00  0.00     0.163 HD
ATOM     29  O   UNL A   1      32.599  33.983  27.597  1.00  0.00    -0.269 OA
BRANCH  27  30
ATOM     30  C   UNL A   1      34.188  32.299  27.983  1.00  0.00     0.039 A 
ATOM     31  C   UNL A   1      35.269  33.182  28.074  1.00  0.00     0.014 A 
ATOM     32  C   UNL A   1      34.338  30.970  28.387  1.00  0.00     0.014 A 
ATOM     33  C   UNL A   1      36.468  32.759  28.657  1.00  0.00     0.010 A 
ATOM     34  C   UNL A   1      35.507  30.572  29.033  1.00  0.00     0.010 A 
ATOM     35  C   UNL A   1      36.581  31.463  29.186  1.00  0.00    -0.014 A 
BRANCH  35  36
ATOM     36  C   UNL A   1      37.792  31.014  29.925  1.00  0.00     0.031 A 
ATOM     37  C   UNL A   1      38.740  30.029  29.296  1.00  0.00     0.074 A 
ATOM     38  C   UNL A   1      37.971  31.390  31.208  1.00  0.00     0.049 A 
ATOM     39  N   UNL A   1      39.761  29.408  29.829  1.00  0.00    -0.248 NA
ATOM     40  C   UNL A   1      38.488  29.672  27.890  1.00  0.00     0.031 C 
ATOM     41  C   UNL A   1      37.089  32.285  31.961  1.00  0.00     0.029 A 
ATOM     42  N   UNL A   1      38.933  31.033  32.121  1.00  0.00    -0.354 N 
ATOM     43  C   UNL A   1      40.242  28.554  28.844  1.00  0.00     0.074 A 
ATOM     44  C   UNL A   1      39.388  28.719  27.688  1.00  0.00     0.031 C 
ATOM     45  C   UNL A   1      37.545  32.399  33.218  1.00  0.00     0.029 A 
ATOM     46  C   UNL A   1      38.729  31.560  33.376  1.00  0.00     0.049 A 
ATOM     47  H   UNL A   1      39.699  30.454  31.899  1.00  0.00     0.167 HD
ATOM     48  C   UNL A   1      41.312  27.725  28.887  1.00  0.00     0.034 A 
ATOM     49  C   UNL A   1      39.404  31.377  34.529  1.00  0.00     0.034 A 
ATOM     50  C   UNL A   1      42.194  27.602  30.016  1.00  0.00     0.049 A 
ATOM     51  C   UNL A   1      40.616  30.483  34.537  1.00  0.00     0.074 A 
ATOM     52  C   UNL A   1      43.356  26.857  30.123  1.00  0.00     0.029 A 
ATOM     53  N   UNL A   1      42.014  28.238  31.234  1.00  0.00    -0.354 N 
ATOM     54  N   UNL A   1      41.141  29.799  33.551  1.00  0.00    -0.248 NA
ATOM     55  C   UNL A   1      41.348  30.363  35.807  1.00  0.00     0.031 C 
ATOM     56  C   UNL A   1      43.870  27.031  31.411  1.00  0.00     0.029 A 
ATOM     57  C   UNL A   1      43.040  27.902  32.100  1.00  0.00     0.049 A 
ATOM     58  H   UNL A   1      41.266  28.841  31.452  1.00  0.00     0.167 HD
ATOM     59  C   UNL A   1      42.286  29.203  34.067  1.00  0.00     0.074 A 
ATOM     60  C   UNL A   1      42.386  29.618  35.452  1.00  0.00     0.031 C 
ATOM     61  C   UNL A   1      43.169  28.377  33.453  1.00  0.00     0.034 A 
BRANCH  48  62
ATOM     62  C   UNL A   1      41.626  26.921  27.652  1.00  0.00     0.023 A 
ATOM     63  C   UNL A   1      42.177  27.566  26.527  1.00  0.00     0.012 A 
ATOM     64  C   UNL A   1      41.435  25.526  27.625  1.00  0.00     0.148 A 
ATOM     65  C   UNL A   1      42.501  26.843  25.380  1.00  0.00     0.002 A 
ATOM     66  C   UNL A   1      41.802  24.805  26.493  1.00  0.00     0.091 A 
ATOM     67  F   UNL A   1      40.892  24.931  28.696  1.00  0.00    -0.205 F 
ATOM     68  C   UNL A   1      42.324  25.462  25.367  1.00  0.00     0.022 A 
BRANCH  66  69
ATOM     69  S   UNL A   1      41.686  23.014  26.408  1.00  0.00     0.127 S 
ATOM     70  O   UNL A   1      42.365  22.734  25.144  1.00  0.00    -0.237 OA
ATOM     71  O   UNL A   1      42.425  22.599  27.601  1.00  0.00    -0.237 OA
ATOM     72  O   UNL A   1      40.264  22.702  26.439  1.00  0.00    -0.744 OA
ENDBRANCH  66  69
ENDBRANCH  48  62
BRANCH  49  73
ATOM     73  C   UNL A   1      38.988  32.107  35.761  1.00  0.00     0.023 A 
ATOM     74  C   UNL A   1      39.316  33.471  35.894  1.00  0.00     0.012 A 
ATOM     75  C   UNL A   1      38.255  31.474  36.783  1.00  0.00     0.148 A 
ATOM     76  C   UNL A   1      38.948  34.183  37.036  1.00  0.00     0.002 A 
ATOM     77  C   UNL A   1      37.845  32.203  37.894  1.00  0.00     0.091 A 
ATOM     78  F   UNL A   1      37.964  30.173  36.644  1.00  0.00    -0.205 F 
ATOM     79  C   UNL A   1      38.205  33.553  38.031  1.00  0.00     0.022 A 
BRANCH  77  80
ATOM     80  S   UNL A   1      36.777  31.511  39.161  1.00  0.00     0.127 S 
ATOM     81  O   UNL A   1      35.696  32.491  39.209  1.00  0.00    -0.237 OA
ATOM     82  O   UNL A   1      36.414  30.219  38.579  1.00  0.00    -0.237 OA
ATOM     83  O   UNL A   1      37.602  31.416  40.359  1.00  0.00    -0.744 OA
ENDBRANCH  77  80
ENDBRANCH  49  73
BRANCH  61  84
ATOM     84  C   UNL A   1      44.357  27.898  34.244  1.00  0.00     0.023 A 
ATOM     85  C   UNL A   1      45.531  28.674  34.287  1.00  0.00     0.012 A 
ATOM     86  C   UNL A   1      44.270  26.727  35.024  1.00  0.00     0.148 A 
ATOM     87  C   UNL A   1      46.610  28.281  35.078  1.00  0.00     0.002 A 
ATOM     88  C   UNL A   1      45.332  26.367  35.845  1.00  0.00     0.091 A 
ATOM     89  F   UNL A   1      43.151  25.993  34.954  1.00  0.00    -0.205 F 
ATOM     90  C   UNL A   1      46.507  27.137  35.866  1.00  0.00     0.022 A 
BRANCH  88  91
ATOM     91  S   UNL A   1      45.250  24.966  36.967  1.00  0.00     0.127 S 
ATOM     92  O   UNL A   1      46.643  24.840  37.390  1.00  0.00    -0.237 OA
ATOM     93  O   UNL A   1      44.339  25.452  38.004  1.00  0.00    -0.237 OA
ATOM     94  O   UNL A   1      44.732  23.853  36.183  1.00  0.00    -0.744 OA
ENDBRANCH  88  91
ENDBRANCH  61  84
ENDBRANCH  35  36
ENDBRANCH  27  30
ENDBRANCH  25  26
ENDBRANCH  24  25
ENDBRANCH   1  24
TORSDOF 18
ENDMDL
MODEL 3
REMARK VINA RESULT:     -11.6      2.270      3.077
REMARK SMILES CC1(C)CC[N@H+](CCOc2ccc(C(=O)NCCCCNC(=O)c3ccc(-c4c5nc(c(-c6cccc(S(=O)(=O)[O-])c6F)c6ccc([nH]6)c(-c6cccc(S(=O)(=O)[O-])c6F)c6nc(c(-c7cccc(S(=O)(=O)[O-])c7F)c7ccc4[nH]7)C=C6)C=C5)cc3)cc2)C1
REMARK SMILES IDX 18 1 17 2 16 3 14 4 15 5 13 7 10 8 11 9 88 10 12 11 87 12
REMARK SMILES IDX 9 13 8 14 7 15 6 16 1 17 2 18 3 19 4 20 89 21 5 22 19 24
REMARK SMILES IDX 20 25 21 26 22 27 23 29 24 30 25 31 86 32 26 33 85 34 27 35
REMARK SMILES IDX 28 36 29 37 79 38 30 39 84 40 78 41 80 42 31 43 83 44 77 45
REMARK SMILES IDX 76 46 32 48 64 49 44 50 63 51 45 52 48 53 62 54 81 55 46 56
REMARK SMILES IDX 47 57 61 59 82 60 49 61 33 62 34 63 42 64 35 65 37 66 43 67
REMARK SMILES IDX 36 68 38 69 39 70 40 71 41 72 65 73 66 74 74 75 67 76 69 77
REMARK SMILES IDX 75 78 68 79 70 80 71 81 72 82 73 83 50 84 51 85 59 86 52 87
REMARK SMILES IDX 54 88 60 89 53 90 55 91 56 92 57 93 58 94
REMARK H PARENT 16 6 6 23 21 28 80 47 48 58
REMARK Flexibility Score: inf
ROOT
ATOM      1  C   UNL A   1      33.858  28.508  24.012  1.00  0.00     0.023 C 
ENDROOT
BRANCH   1   2
ATOM      2  C   UNL A   1      33.492  27.733  22.750  1.00  0.00     0.116 C 
BRANCH   2   3
ATOM      3  N   UNL A   1      32.211  28.115  22.171  1.00  0.00    -0.352 N 
ATOM      4  C   UNL A   1      30.934  27.694  22.480  1.00  0.00     0.251 C 
ATOM      5  O   UNL A   1      29.966  28.343  22.093  1.00  0.00    -0.269 OA
ATOM      6  H   UNL A   1      32.265  28.778  21.445  1.00  0.00     0.163 HD
BRANCH   4   7
ATOM      7  C   UNL A   1      30.702  26.503  23.331  1.00  0.00     0.040 A 
ATOM      8  C   UNL A   1      30.709  24.371  25.116  1.00  0.00     0.119 A 
ATOM      9  C   UNL A   1      30.252  25.617  25.545  1.00  0.00     0.047 A 
ATOM     10  C   UNL A   1      30.926  24.136  23.757  1.00  0.00     0.047 A 
ATOM     11  C   UNL A   1      30.257  26.692  24.648  1.00  0.00     0.017 A 
ATOM     12  C   UNL A   1      30.937  25.208  22.861  1.00  0.00     0.017 A 
BRANCH   8  13
ATOM     13  O   UNL A   1      31.011  23.358  25.983  1.00  0.00    -0.488 OA
BRANCH  13  14
ATOM     14  C   UNL A   1      32.108  23.668  26.877  1.00  0.00     0.290 C 
BRANCH  14  15
ATOM     15  C   UNL A   1      33.434  22.943  26.500  1.00  0.00     0.304 C 
BRANCH  15  16
ATOM     16  N   UNL A   1      34.131  23.215  25.222  1.00  0.00    -0.332 N 
ATOM     17  C   UNL A   1      36.675  22.937  23.044  1.00  0.00     0.017 C 
ATOM     18  C   UNL A   1      36.318  22.450  24.460  1.00  0.00     0.019 C 
ATOM     19  C   UNL A   1      37.268  21.320  24.863  1.00  0.00     0.017 C 
ATOM     20  C   UNL A   1      36.434  23.619  25.420  1.00  0.00     0.073 C 
ATOM     21  C   UNL A   1      34.831  22.060  24.620  1.00  0.00     0.268 C 
ATOM     22  C   UNL A   1      35.092  24.310  25.293  1.00  0.00     0.263 C 
ATOM     23  H   UNL A   1      33.346  23.468  24.622  1.00  0.00     0.348 HD
ENDBRANCH  15  16
ENDBRANCH  14  15
ENDBRANCH  13  14
ENDBRANCH   8  13
ENDBRANCH   4   7
ENDBRANCH   2   3
ENDBRANCH   1   2
BRANCH   1  24
ATOM     24  C   UNL A   1      33.504  27.812  25.327  1.00  0.00     0.023 C 
BRANCH  24  25
ATOM     25  C   UNL A   1      34.214  28.344  26.573  1.00  0.00     0.116 C 
BRANCH  25  26
ATOM     26  N   UNL A   1      33.900  29.737  26.870  1.00  0.00    -0.352 N 
ATOM     27  C   UNL A   1      34.576  30.644  27.656  1.00  0.00     0.251 C 
ATOM     28  H   UNL A   1      33.083  30.082  26.442  1.00  0.00     0.163 HD
ATOM     29  O   UNL A   1      34.083  31.749  27.873  1.00  0.00    -0.269 OA
BRANCH  27  30
ATOM     30  C   UNL A   1      35.876  30.285  28.269  1.00  0.00     0.039 A 
ATOM     31  C   UNL A   1      35.889  29.650  29.515  1.00  0.00     0.014 A 
ATOM     32  C   UNL A   1      37.078  30.561  27.615  1.00  0.00     0.014 A 
ATOM     33  C   UNL A   1      37.100  29.208  30.060  1.00  0.00     0.010 A 
ATOM     34  C   UNL A   1      38.273  30.056  28.122  1.00  0.00     0.010 A 
ATOM     35  C   UNL A   1      38.298  29.365  29.344  1.00  0.00    -0.014 A 
BRANCH  35  36
ATOM     36  C   UNL A   1      39.586  28.798  29.827  1.00  0.00     0.031 A 
ATOM     37  C   UNL A   1      40.353  29.490  30.922  1.00  0.00     0.074 A 
ATOM     38  C   UNL A   1      40.130  27.737  29.197  1.00  0.00     0.049 A 
ATOM     39  N   UNL A   1      41.555  29.240  31.375  1.00  0.00    -0.248 NA
ATOM     40  C   UNL A   1      39.694  30.636  31.571  1.00  0.00     0.031 C 
ATOM     41  C   UNL A   1      39.523  27.015  28.075  1.00  0.00     0.029 A 
ATOM     42  N   UNL A   1      41.336  27.105  29.381  1.00  0.00    -0.354 N 
ATOM     43  C   UNL A   1      41.815  30.221  32.324  1.00  0.00     0.074 A 
ATOM     44  C   UNL A   1      40.655  31.086  32.366  1.00  0.00     0.031 C 
ATOM     45  C   UNL A   1      40.362  26.048  27.668  1.00  0.00     0.029 A 
ATOM     46  C   UNL A   1      41.579  26.101  28.471  1.00  0.00     0.049 A 
ATOM     47  H   UNL A   1      41.967  27.347  30.097  1.00  0.00     0.167 HD
ATOM     48  C   UNL A   1      42.909  30.377  33.107  1.00  0.00     0.034 A 
ATOM     49  C   UNL A   1      42.666  25.323  28.289  1.00  0.00     0.034 A 
ATOM     50  C   UNL A   1      44.037  29.486  33.105  1.00  0.00     0.049 A 
ATOM     51  C   UNL A   1      43.850  25.489  29.204  1.00  0.00     0.074 A 
ATOM     52  C   UNL A   1      45.152  29.508  33.926  1.00  0.00     0.029 A 
ATOM     53  N   UNL A   1      44.198  28.413  32.242  1.00  0.00    -0.354 N 
ATOM     54  N   UNL A   1      44.015  26.330  30.195  1.00  0.00    -0.248 NA
ATOM     55  C   UNL A   1      44.985  24.576  28.998  1.00  0.00     0.031 C 
ATOM     56  C   UNL A   1      45.994  28.457  33.548  1.00  0.00     0.029 A 
ATOM     57  C   UNL A   1      45.393  27.768  32.506  1.00  0.00     0.049 A 
ATOM     58  H   UNL A   1      43.557  28.149  31.543  1.00  0.00     0.167 HD
ATOM     59  C   UNL A   1      45.247  26.021  30.757  1.00  0.00     0.074 A 
ATOM     60  C   UNL A   1      45.784  24.906  30.004  1.00  0.00     0.031 C 
ATOM     61  C   UNL A   1      45.884  26.615  31.796  1.00  0.00     0.034 A 
BRANCH  48  62
ATOM     62  C   UNL A   1      42.916  31.527  34.080  1.00  0.00     0.023 A 
ATOM     63  C   UNL A   1      43.493  32.754  33.698  1.00  0.00     0.012 A 
ATOM     64  C   UNL A   1      42.302  31.415  35.343  1.00  0.00     0.148 A 
ATOM     65  C   UNL A   1      43.492  33.843  34.569  1.00  0.00     0.002 A 
ATOM     66  C   UNL A   1      42.265  32.519  36.188  1.00  0.00     0.091 A 
ATOM     67  F   UNL A   1      41.775  30.234  35.698  1.00  0.00    -0.205 F 
ATOM     68  C   UNL A   1      42.868  33.728  35.808  1.00  0.00     0.022 A 
BRANCH  66  69
ATOM     69  S   UNL A   1      41.418  32.495  37.773  1.00  0.00     0.127 S 
ATOM     70  O   UNL A   1      40.096  31.997  37.394  1.00  0.00    -0.237 OA
ATOM     71  O   UNL A   1      42.227  31.549  38.542  1.00  0.00    -0.237 OA
ATOM     72  O   UNL A   1      41.454  33.864  38.267  1.00  0.00    -0.744 OA
ENDBRANCH  66  69
ENDBRANCH  48  62
BRANCH  49  73
ATOM     73  C   UNL A   1      42.659  24.268  27.235  1.00  0.00     0.023 A 
ATOM     74  C   UNL A   1      43.268  24.536  25.992  1.00  0.00     0.012 A 
ATOM     75  C   UNL A   1      42.084  23.003  27.459  1.00  0.00     0.148 A 
ATOM     76  C   UNL A   1      43.275  23.575  24.981  1.00  0.00     0.002 A 
ATOM     77  C   UNL A   1      42.141  22.031  26.466  1.00  0.00     0.091 A 
ATOM     78  F   UNL A   1      41.499  22.771  28.642  1.00  0.00    -0.205 F 
ATOM     79  C   UNL A   1      42.721  22.320  25.220  1.00  0.00     0.022 A 
BRANCH  77  80
ATOM     80  S   UNL A   1      41.570  20.349  26.730  1.00  0.00     0.127 S 
ATOM     81  O   UNL A   1      40.140  20.548  26.943  1.00  0.00    -0.237 OA
ATOM     82  O   UNL A   1      41.922  19.706  25.463  1.00  0.00    -0.237 OA
ATOM     83  O   UNL A   1      42.321  19.858  27.879  1.00  0.00    -0.744 OA
ENDBRANCH  77  80
ENDBRANCH  49  73
BRANCH  61  84
ATOM     84  C   UNL A   1      47.212  26.050  32.229  1.00  0.00     0.023 A 
ATOM     85  C   UNL A   1      48.403  26.545  31.665  1.00  0.00     0.012 A 
ATOM     86  C   UNL A   1      47.278  25.101  33.268  1.00  0.00     0.148 A 
ATOM     87  C   UNL A   1      49.641  26.086  32.112  1.00  0.00     0.002 A 
ATOM     88  C   UNL A   1      48.516  24.683  33.741  1.00  0.00     0.091 A 
ATOM     89  F   UNL A   1      46.132  24.629  33.779  1.00  0.00    -0.205 F 
ATOM     90  C   UNL A   1      49.699  25.167  33.158  1.00  0.00     0.022 A 
BRANCH  88  91
ATOM     91  S   UNL A   1      48.688  23.578  35.148  1.00  0.00     0.127 S 
ATOM     92  O   UNL A   1      50.141  23.506  35.294  1.00  0.00    -0.237 OA
ATOM     93  O   UNL A   1      48.004  24.317  36.208  1.00  0.00    -0.237 OA
ATOM     94  O   UNL A   1      48.036  22.333  34.763  1.00  0.00    -0.744 OA
ENDBRANCH  88  91
ENDBRANCH  61  84
ENDBRANCH  35  36
ENDBRANCH  27  30
ENDBRANCH  25  26
ENDBRANCH  24  25
ENDBRANCH   1  24
TORSDOF 18
ENDMDL
