MODEL 1
REMARK VINA RESULT:     -12.3      0.000      0.000
REMARK SMILES CC(C)(CC(=O)NCCCCNC(=O)c1ccc(-c2c3nc(c(-c4cccc(S(=O)(=O)[O-])c4F)c4ccc([nH]4)c(-c4cccc(S(=O)(=O)[O-])c4F)c4nc(c(-c5cccc(S(=O)(=O)[O-])c5F)c5ccc2[nH]5)C=C4)C=C3)cc1)NC(=O)[C@H]1CC[C@@H]2CCCC[C@@H]2[NH2+]1
REMARK SMILES IDX 9 1 8 2 7 3 5 4 6 5 4 7 2 8 1 9 3 10 78 11 79 12 80 14 81 15
REMARK SMILES IDX 82 16 90 17 83 18 89 19 84 22 88 23 85 24 87 25 86 26 10 27
REMARK SMILES IDX 11 28 12 29 13 30 14 32 15 33 16 34 77 35 17 36 76 37 18 38
REMARK SMILES IDX 19 39 20 40 70 41 21 42 75 43 69 44 71 45 22 46 74 47 68 48
REMARK SMILES IDX 67 49 23 51 55 52 35 53 54 54 36 55 39 56 53 57 72 58 37 59
REMARK SMILES IDX 38 60 52 62 73 63 40 64 24 65 25 66 33 67 26 68 28 69 34 70
REMARK SMILES IDX 27 71 29 72 30 73 31 74 32 75 56 76 57 77 65 78 58 79 60 80
REMARK SMILES IDX 66 81 59 82 61 83 62 84 63 85 64 86 41 87 42 88 50 89 43 90
REMARK SMILES IDX 45 91 51 92 44 93 46 94 47 95 48 96 49 97
REMARK H PARENT 7 6 78 13 90 20 90 21 12 31 71 50 39 61
REMARK Flexibility Score: inf
ROOT
ATOM      1  C   UNL A   1      33.116  29.123  24.406  1.00  0.00     0.023 C 
ENDROOT
BRANCH   1   2
ATOM      2  C   UNL A   1      32.694  28.947  22.957  1.00  0.00     0.116 C 
BRANCH   2   3
ATOM      3  N   UNL A   1      33.020  27.596  22.526  1.00  0.00    -0.356 N 
ATOM      4  C   UNL A   1      32.263  26.462  22.611  1.00  0.00     0.222 C 
ATOM      5  O   UNL A   1      32.818  25.373  22.447  1.00  0.00    -0.275 OA
ATOM      6  H   UNL A   1      33.907  27.484  22.116  1.00  0.00     0.163 HD
BRANCH   4   7
ATOM      7  C   UNL A   1      30.756  26.525  22.827  1.00  0.00     0.127 C 
BRANCH   7   8
ATOM      8  C   UNL A   1      30.176  25.905  24.145  1.00  0.00     0.043 C 
ATOM      9  C   UNL A   1      30.762  26.664  25.347  1.00  0.00     0.035 C 
ATOM     10  C   UNL A   1      28.657  26.211  24.180  1.00  0.00     0.035 C 
BRANCH   8  11
ATOM     11  N   UNL A   1      30.341  24.424  24.153  1.00  0.00    -0.346 N 
ATOM     12  C   UNL A   1      31.042  23.602  25.000  1.00  0.00     0.278 C 
ATOM     13  H   UNL A   1      29.869  23.956  23.426  1.00  0.00     0.164 HD
ATOM     14  O   UNL A   1      30.388  22.871  25.755  1.00  0.00    -0.268 OA
BRANCH  12  15
ATOM     15  C   UNL A   1      32.592  23.464  24.938  1.00  0.00     0.272 C 
ATOM     16  C   UNL A   1      33.255  23.600  26.298  1.00  0.00     0.076 C 
ATOM     17  N   UNL A   1      32.970  22.235  24.208  1.00  0.00    -0.333 N 
ATOM     18  C   UNL A   1      34.728  23.247  26.350  1.00  0.00     0.016 C 
ATOM     19  C   UNL A   1      34.426  21.985  24.203  1.00  0.00     0.186 C 
ATOM     20  H   UNL A   1      32.654  22.321  23.242  1.00  0.00     0.347 HD
ATOM     21  H   UNL A   1      32.530  21.450  24.688  1.00  0.00     0.347 HD
ATOM     22  C   UNL A   1      34.952  21.906  25.642  1.00  0.00     0.048 C 
ATOM     23  C   UNL A   1      35.237  22.997  23.369  1.00  0.00     0.065 C 
ATOM     24  C   UNL A   1      36.421  21.493  25.638  1.00  0.00     0.010 C 
ATOM     25  C   UNL A   1      36.764  22.886  23.527  1.00  0.00     0.006 C 
ATOM     26  C   UNL A   1      37.292  22.506  24.913  1.00  0.00     0.001 C 
ENDBRANCH  12  15
ENDBRANCH   8  11
ENDBRANCH   7   8
ENDBRANCH   4   7
ENDBRANCH   2   3
ENDBRANCH   1   2
BRANCH   1  27
ATOM     27  C   UNL A   1      32.172  29.898  25.309  1.00  0.00     0.023 C 
BRANCH  27  28
ATOM     28  C   UNL A   1      32.697  30.140  26.713  1.00  0.00     0.116 C 
BRANCH  28  29
ATOM     29  N   UNL A   1      32.742  31.547  27.102  1.00  0.00    -0.352 N 
ATOM     30  C   UNL A   1      33.756  32.275  27.694  1.00  0.00     0.251 C 
ATOM     31  H   UNL A   1      31.921  32.057  26.915  1.00  0.00     0.163 HD
ATOM     32  O   UNL A   1      33.574  33.448  27.983  1.00  0.00    -0.269 OA
BRANCH  30  33
ATOM     33  C   UNL A   1      35.040  31.613  28.027  1.00  0.00     0.039 A 
ATOM     34  C   UNL A   1      36.188  32.398  28.173  1.00  0.00     0.014 A 
ATOM     35  C   UNL A   1      35.099  30.242  28.269  1.00  0.00     0.014 A 
ATOM     36  C   UNL A   1      37.356  31.825  28.685  1.00  0.00     0.010 A 
ATOM     37  C   UNL A   1      36.218  29.704  28.891  1.00  0.00     0.010 A 
ATOM     38  C   UNL A   1      37.357  30.489  29.115  1.00  0.00    -0.014 A 
BRANCH  38  39
ATOM     39  C   UNL A   1      38.509  29.890  29.841  1.00  0.00     0.031 A 
ATOM     40  C   UNL A   1      38.864  30.374  31.223  1.00  0.00     0.074 A 
ATOM     41  C   UNL A   1      39.320  29.020  29.204  1.00  0.00     0.049 A 
ATOM     42  N   UNL A   1      39.908  30.086  31.955  1.00  0.00    -0.248 NA
ATOM     43  C   UNL A   1      37.950  31.347  31.845  1.00  0.00     0.031 C 
ATOM     44  C   UNL A   1      39.147  28.550  27.826  1.00  0.00     0.029 A 
ATOM     45  N   UNL A   1      40.473  28.401  29.619  1.00  0.00    -0.354 N 
ATOM     46  C   UNL A   1      39.806  30.879  33.090  1.00  0.00     0.074 A 
ATOM     47  C   UNL A   1      38.619  31.691  32.934  1.00  0.00     0.031 C 
ATOM     48  C   UNL A   1      40.149  27.711  27.516  1.00  0.00     0.029 A 
ATOM     49  C   UNL A   1      41.054  27.609  28.655  1.00  0.00     0.049 A 
ATOM     50  H   UNL A   1      40.849  28.512  30.522  1.00  0.00     0.167 HD
ATOM     51  C   UNL A   1      40.603  30.905  34.184  1.00  0.00     0.034 A 
ATOM     52  C   UNL A   1      42.194  26.890  28.679  1.00  0.00     0.034 A 
ATOM     53  C   UNL A   1      41.732  30.036  34.373  1.00  0.00     0.049 A 
ATOM     54  C   UNL A   1      43.025  26.883  29.932  1.00  0.00     0.074 A 
ATOM     55  C   UNL A   1      42.522  29.884  35.499  1.00  0.00     0.029 A 
ATOM     56  N   UNL A   1      42.231  29.170  33.412  1.00  0.00    -0.354 N 
ATOM     57  N   UNL A   1      42.810  27.505  31.066  1.00  0.00    -0.248 NA
ATOM     58  C   UNL A   1      44.240  26.054  29.920  1.00  0.00     0.031 C 
ATOM     59  C   UNL A   1      43.508  28.934  35.214  1.00  0.00     0.029 A 
ATOM     60  C   UNL A   1      43.327  28.490  33.914  1.00  0.00     0.049 A 
ATOM     61  H   UNL A   1      41.861  29.057  32.508  1.00  0.00     0.167 HD
ATOM     62  C   UNL A   1      43.850  27.129  31.908  1.00  0.00     0.074 A 
ATOM     63  C   UNL A   1      44.677  26.200  31.164  1.00  0.00     0.031 C 
ATOM     64  C   UNL A   1      44.111  27.534  33.176  1.00  0.00     0.034 A 
BRANCH  51  65
ATOM     65  C   UNL A   1      40.232  31.848  35.297  1.00  0.00     0.023 A 
ATOM     66  C   UNL A   1      40.919  33.075  35.422  1.00  0.00     0.012 A 
ATOM     67  C   UNL A   1      39.184  31.549  36.189  1.00  0.00     0.148 A 
ATOM     68  C   UNL A   1      40.594  33.970  36.438  1.00  0.00     0.002 A 
ATOM     69  C   UNL A   1      38.839  32.469  37.174  1.00  0.00     0.091 A 
ATOM     70  F   UNL A   1      38.558  30.370  36.072  1.00  0.00    -0.205 F 
ATOM     71  C   UNL A   1      39.549  33.673  37.307  1.00  0.00     0.022 A 
BRANCH  69  72
ATOM     72  S   UNL A   1      37.459  32.210  38.298  1.00  0.00     0.127 S 
ATOM     73  O   UNL A   1      36.405  32.991  37.653  1.00  0.00    -0.237 OA
ATOM     74  O   UNL A   1      37.272  30.761  38.230  1.00  0.00    -0.237 OA
ATOM     75  O   UNL A   1      37.904  32.704  39.594  1.00  0.00    -0.744 OA
ENDBRANCH  69  72
ENDBRANCH  51  65
BRANCH  52  76
ATOM     76  C   UNL A   1      42.575  26.061  27.500  1.00  0.00     0.023 A 
ATOM     77  C   UNL A   1      43.390  26.628  26.500  1.00  0.00     0.012 A 
ATOM     78  C   UNL A   1      42.176  24.716  27.379  1.00  0.00     0.148 A 
ATOM     79  C   UNL A   1      43.780  25.878  25.389  1.00  0.00     0.002 A 
ATOM     80  C   UNL A   1      42.614  23.959  26.297  1.00  0.00     0.091 A 
ATOM     81  F   UNL A   1      41.388  24.198  28.333  1.00  0.00    -0.205 F 
ATOM     82  C   UNL A   1      43.402  24.542  25.294  1.00  0.00     0.022 A 
BRANCH  80  83
ATOM     83  S   UNL A   1      42.286  22.197  26.163  1.00  0.00     0.127 S 
ATOM     84  O   UNL A   1      42.787  21.701  27.441  1.00  0.00    -0.237 OA
ATOM     85  O   UNL A   1      40.829  22.170  26.019  1.00  0.00    -0.237 OA
ATOM     86  O   UNL A   1      43.011  21.756  24.979  1.00  0.00    -0.744 OA
ENDBRANCH  80  83
ENDBRANCH  52  76
BRANCH  64  87
ATOM     87  C   UNL A   1      45.340  26.978  33.845  1.00  0.00     0.023 A 
ATOM     88  C   UNL A   1      46.546  27.702  33.782  1.00  0.00     0.012 A 
ATOM     89  C   UNL A   1      45.279  25.793  34.603  1.00  0.00     0.148 A 
ATOM     90  C   UNL A   1      47.683  27.241  34.444  1.00  0.00     0.002 A 
ATOM     91  C   UNL A   1      46.404  25.364  35.297  1.00  0.00     0.091 A 
ATOM     92  F   UNL A   1      44.125  25.112  34.635  1.00  0.00    -0.205 F 
ATOM     93  C   UNL A   1      47.609  26.081  35.212  1.00  0.00     0.022 A 
BRANCH  91  94
ATOM     94  S   UNL A   1      46.379  23.932  36.382  1.00  0.00     0.127 S 
ATOM     95  O   UNL A   1      47.769  23.872  36.829  1.00  0.00    -0.237 OA
ATOM     96  O   UNL A   1      45.424  24.339  37.412  1.00  0.00    -0.237 OA
ATOM     97  O   UNL A   1      45.939  22.814  35.559  1.00  0.00    -0.744 OA
ENDBRANCH  91  94
ENDBRANCH  64  87
ENDBRANCH  38  39
ENDBRANCH  30  33
ENDBRANCH  28  29
ENDBRANCH  27  28
ENDBRANCH   1  27
TORSDOF 17
ENDMDL
MODEL 2
REMARK VINA RESULT:     -12.3      2.144      8.008
REMARK SMILES CC(C)(CC(=O)NCCCCNC(=O)c1ccc(-c2c3nc(c(-c4cccc(S(=O)(=O)[O-])c4F)c4ccc([nH]4)c(-c4cccc(S(=O)(=O)[O-])c4F)c4nc(c(-c5cccc(S(=O)(=O)[O-])c5F)c5ccc2[nH]5)C=C4)C=C3)cc1)NC(=O)[C@H]1CC[C@@H]2CCCC[C@@H]2[NH2+]1
REMARK SMILES IDX 9 1 8 2 7 3 5 4 6 5 4 7 2 8 1 9 3 10 78 11 79 12 80 14 81 15
REMARK SMILES IDX 82 16 90 17 83 18 89 19 84 22 88 23 85 24 87 25 86 26 10 27
REMARK SMILES IDX 11 28 12 29 13 30 14 32 15 33 16 34 77 35 17 36 76 37 18 38
REMARK SMILES IDX 19 39 20 40 70 41 21 42 75 43 69 44 71 45 22 46 74 47 68 48
REMARK SMILES IDX 67 49 23 51 55 52 35 53 54 54 36 55 39 56 53 57 72 58 37 59
REMARK SMILES IDX 38 60 52 62 73 63 40 64 24 65 25 66 33 67 26 68 28 69 34 70
REMARK SMILES IDX 27 71 29 72 30 73 31 74 32 75 56 76 57 77 65 78 58 79 60 80
REMARK SMILES IDX 66 81 59 82 61 83 62 84 63 85 64 86 41 87 42 88 50 89 43 90
REMARK SMILES IDX 45 91 51 92 44 93 46 94 47 95 48 96 49 97
REMARK H PARENT 7 6 78 13 90 20 90 21 12 31 71 50 39 61
REMARK Flexibility Score: inf
ROOT
ATOM      1  C   UNL A   1      32.257  28.221  26.741  1.00  0.00     0.023 C 
ENDROOT
BRANCH   1   2
ATOM      2  C   UNL A   1      31.401  27.347  25.838  1.00  0.00     0.116 C 
BRANCH   2   3
ATOM      3  N   UNL A   1      32.239  26.777  24.794  1.00  0.00    -0.356 N 
ATOM      4  C   UNL A   1      33.219  25.830  24.901  1.00  0.00     0.222 C 
ATOM      5  O   UNL A   1      33.996  25.682  23.956  1.00  0.00    -0.275 OA
ATOM      6  H   UNL A   1      32.077  27.119  23.886  1.00  0.00     0.163 HD
BRANCH   4   7
ATOM      7  C   UNL A   1      33.314  24.919  26.117  1.00  0.00     0.127 C 
BRANCH   7   8
ATOM      8  C   UNL A   1      32.877  23.422  25.950  1.00  0.00     0.043 C 
ATOM      9  C   UNL A   1      33.400  22.618  27.152  1.00  0.00     0.035 C 
ATOM     10  C   UNL A   1      31.333  23.366  26.071  1.00  0.00     0.035 C 
BRANCH   8  11
ATOM     11  N   UNL A   1      33.246  22.909  24.600  1.00  0.00    -0.346 N 
ATOM     12  C   UNL A   1      32.589  22.049  23.755  1.00  0.00     0.278 C 
ATOM     13  H   UNL A   1      34.107  23.241  24.257  1.00  0.00     0.164 HD
ATOM     14  O   UNL A   1      32.110  22.525  22.717  1.00  0.00    -0.268 OA
BRANCH  12  15
ATOM     15  C   UNL A   1      32.555  20.510  23.990  1.00  0.00     0.272 C 
ATOM     16  C   UNL A   1      32.221  19.725  22.733  1.00  0.00     0.076 C 
ATOM     17  N   UNL A   1      33.795  20.064  24.662  1.00  0.00    -0.333 N 
ATOM     18  C   UNL A   1      32.398  18.222  22.830  1.00  0.00     0.016 C 
ATOM     19  C   UNL A   1      33.877  18.598  24.821  1.00  0.00     0.186 C 
ATOM     20  H   UNL A   1      33.834  20.492  25.588  1.00  0.00     0.347 HD
ATOM     21  H   UNL A   1      34.577  20.349  24.074  1.00  0.00     0.347 HD
ATOM     22  C   UNL A   1      33.763  17.913  23.452  1.00  0.00     0.048 C 
ATOM     23  C   UNL A   1      32.859  18.014  25.821  1.00  0.00     0.065 C 
ATOM     24  C   UNL A   1      34.006  16.413  23.599  1.00  0.00     0.010 C 
ATOM     25  C   UNL A   1      32.781  16.477  25.838  1.00  0.00     0.006 C 
ATOM     26  C   UNL A   1      32.970  15.758  24.500  1.00  0.00     0.001 C 
ENDBRANCH  12  15
ENDBRANCH   8  11
ENDBRANCH   7   8
ENDBRANCH   4   7
ENDBRANCH   2   3
ENDBRANCH   1   2
BRANCH   1  27
ATOM     27  C   UNL A   1      31.736  29.617  27.042  1.00  0.00     0.023 C 
BRANCH  27  28
ATOM     28  C   UNL A   1      32.353  30.716  26.197  1.00  0.00     0.116 C 
BRANCH  28  29
ATOM     29  N   UNL A   1      32.196  32.059  26.751  1.00  0.00    -0.352 N 
ATOM     30  C   UNL A   1      33.062  32.810  27.522  1.00  0.00     0.251 C 
ATOM     31  H   UNL A   1      31.340  32.497  26.544  1.00  0.00     0.163 HD
ATOM     32  O   UNL A   1      32.717  33.910  27.926  1.00  0.00    -0.269 OA
BRANCH  30  33
ATOM     33  C   UNL A   1      34.382  32.254  27.900  1.00  0.00     0.039 A 
ATOM     34  C   UNL A   1      35.498  33.098  27.900  1.00  0.00     0.014 A 
ATOM     35  C   UNL A   1      34.510  30.934  28.327  1.00  0.00     0.014 A 
ATOM     36  C   UNL A   1      36.704  32.650  28.447  1.00  0.00     0.010 A 
ATOM     37  C   UNL A   1      35.668  30.534  28.981  1.00  0.00     0.010 A 
ATOM     38  C   UNL A   1      36.777  31.388  29.057  1.00  0.00    -0.014 A 
BRANCH  38  39
ATOM     39  C   UNL A   1      37.973  30.944  29.821  1.00  0.00     0.031 A 
ATOM     40  C   UNL A   1      38.917  29.933  29.224  1.00  0.00     0.074 A 
ATOM     41  C   UNL A   1      38.131  31.337  31.102  1.00  0.00     0.049 A 
ATOM     42  N   UNL A   1      39.925  29.316  29.782  1.00  0.00    -0.248 NA
ATOM     43  C   UNL A   1      38.666  29.527  27.830  1.00  0.00     0.031 C 
ATOM     44  C   UNL A   1      37.228  32.231  31.834  1.00  0.00     0.029 A 
ATOM     45  N   UNL A   1      39.088  31.007  32.030  1.00  0.00    -0.354 N 
ATOM     46  C   UNL A   1      40.390  28.414  28.834  1.00  0.00     0.074 A 
ATOM     47  C   UNL A   1      39.529  28.535  27.677  1.00  0.00     0.031 C 
ATOM     48  C   UNL A   1      37.681  32.386  33.088  1.00  0.00     0.029 A 
ATOM     49  C   UNL A   1      38.881  31.578  33.265  1.00  0.00     0.049 A 
ATOM     50  H   UNL A   1      39.851  30.419  31.829  1.00  0.00     0.167 HD
ATOM     51  C   UNL A   1      41.458  27.586  28.899  1.00  0.00     0.034 A 
ATOM     52  C   UNL A   1      39.574  31.456  34.415  1.00  0.00     0.034 A 
ATOM     53  C   UNL A   1      42.361  27.531  30.015  1.00  0.00     0.049 A 
ATOM     54  C   UNL A   1      40.798  30.583  34.441  1.00  0.00     0.074 A 
ATOM     55  C   UNL A   1      43.549  26.830  30.127  1.00  0.00     0.029 A 
ATOM     56  N   UNL A   1      42.177  28.203  31.213  1.00  0.00    -0.354 N 
ATOM     57  N   UNL A   1      41.324  29.875  33.470  1.00  0.00    -0.248 NA
ATOM     58  C   UNL A   1      41.539  30.512  35.708  1.00  0.00     0.031 C 
ATOM     59  C   UNL A   1      44.078  27.070  31.400  1.00  0.00     0.029 A 
ATOM     60  C   UNL A   1      43.222  27.925  32.077  1.00  0.00     0.049 A 
ATOM     61  H   UNL A   1      41.415  28.791  31.419  1.00  0.00     0.167 HD
ATOM     62  C   UNL A   1      42.467  29.290  34.004  1.00  0.00     0.074 A 
ATOM     63  C   UNL A   1      42.573  29.752  35.373  1.00  0.00     0.031 C 
ATOM     64  C   UNL A   1      43.337  28.429  33.420  1.00  0.00     0.034 A 
BRANCH  51  65
ATOM     65  C   UNL A   1      41.756  26.733  27.695  1.00  0.00     0.023 A 
ATOM     66  C   UNL A   1      42.386  27.314  26.574  1.00  0.00     0.012 A 
ATOM     67  C   UNL A   1      41.456  25.357  27.682  1.00  0.00     0.148 A 
ATOM     68  C   UNL A   1      42.678  26.549  25.447  1.00  0.00     0.002 A 
ATOM     69  C   UNL A   1      41.790  24.592  26.570  1.00  0.00     0.091 A 
ATOM     70  F   UNL A   1      40.836  24.826  28.746  1.00  0.00    -0.205 F 
ATOM     71  C   UNL A   1      42.390  25.187  25.449  1.00  0.00     0.022 A 
BRANCH  69  72
ATOM     72  S   UNL A   1      41.526  22.815  26.503  1.00  0.00     0.127 S 
ATOM     73  O   UNL A   1      40.067  22.737  26.453  1.00  0.00    -0.237 OA
ATOM     74  O   UNL A   1      42.199  22.449  25.258  1.00  0.00    -0.237 OA
ATOM     75  O   UNL A   1      42.143  22.275  27.707  1.00  0.00    -0.744 OA
ENDBRANCH  69  72
ENDBRANCH  51  65
BRANCH  52  76
ATOM     76  C   UNL A   1      39.164  32.238  35.615  1.00  0.00     0.023 A 
ATOM     77  C   UNL A   1      38.294  31.648  36.553  1.00  0.00     0.012 A 
ATOM     78  C   UNL A   1      39.656  33.536  35.859  1.00  0.00     0.148 A 
ATOM     79  C   UNL A   1      37.900  32.343  37.697  1.00  0.00     0.002 A 
ATOM     80  C   UNL A   1      39.302  34.202  37.028  1.00  0.00     0.091 A 
ATOM     81  F   UNL A   1      40.471  34.088  34.949  1.00  0.00    -0.205 F 
ATOM     82  C   UNL A   1      38.413  33.614  37.940  1.00  0.00     0.022 A 
BRANCH  80  83
ATOM     83  S   UNL A   1      40.019  35.784  37.486  1.00  0.00     0.127 S 
ATOM     84  O   UNL A   1      39.397  36.031  38.782  1.00  0.00    -0.237 OA
ATOM     85  O   UNL A   1      41.448  35.467  37.536  1.00  0.00    -0.237 OA
ATOM     86  O   UNL A   1      39.650  36.702  36.417  1.00  0.00    -0.744 OA
ENDBRANCH  80  83
ENDBRANCH  52  76
BRANCH  64  87
ATOM     87  C   UNL A   1      44.484  27.927  34.256  1.00  0.00     0.023 A 
ATOM     88  C   UNL A   1      45.692  28.652  34.276  1.00  0.00     0.012 A 
ATOM     89  C   UNL A   1      44.339  26.796  35.081  1.00  0.00     0.148 A 
ATOM     90  C   UNL A   1      46.748  28.244  35.088  1.00  0.00     0.002 A 
ATOM     91  C   UNL A   1      45.381  26.421  35.921  1.00  0.00     0.091 A 
ATOM     92  F   UNL A   1      43.188  26.112  35.033  1.00  0.00    -0.205 F 
ATOM     93  C   UNL A   1      46.589  27.137  35.919  1.00  0.00     0.022 A 
BRANCH  91  94
ATOM     94  S   UNL A   1      45.235  25.065  37.092  1.00  0.00     0.127 S 
ATOM     95  O   UNL A   1      44.214  25.572  38.007  1.00  0.00    -0.237 OA
ATOM     96  O   UNL A   1      44.797  23.962  36.238  1.00  0.00    -0.237 OA
ATOM     97  O   UNL A   1      46.560  24.892  37.671  1.00  0.00    -0.744 OA
ENDBRANCH  91  94
ENDBRANCH  64  87
ENDBRANCH  38  39
ENDBRANCH  30  33
ENDBRANCH  28  29
ENDBRANCH  27  28
ENDBRANCH   1  27
TORSDOF 17
ENDMDL
MODEL 3
REMARK VINA RESULT:     -12.1      1.689      7.799
REMARK SMILES CC(C)(CC(=O)NCCCCNC(=O)c1ccc(-c2c3nc(c(-c4cccc(S(=O)(=O)[O-])c4F)c4ccc([nH]4)c(-c4cccc(S(=O)(=O)[O-])c4F)c4nc(c(-c5cccc(S(=O)(=O)[O-])c5F)c5ccc2[nH]5)C=C4)C=C3)cc1)NC(=O)[C@H]1CC[C@@H]2CCCC[C@@H]2[NH2+]1
REMARK SMILES IDX 9 1 8 2 7 3 5 4 6 5 4 7 2 8 1 9 3 10 78 11 79 12 80 14 81 15
REMARK SMILES IDX 82 16 90 17 83 18 89 19 84 22 88 23 85 24 87 25 86 26 10 27
REMARK SMILES IDX 11 28 12 29 13 30 14 32 15 33 16 34 77 35 17 36 76 37 18 38
REMARK SMILES IDX 19 39 20 40 70 41 21 42 75 43 69 44 71 45 22 46 74 47 68 48
REMARK SMILES IDX 67 49 23 51 55 52 35 53 54 54 36 55 39 56 53 57 72 58 37 59
REMARK SMILES IDX 38 60 52 62 73 63 40 64 24 65 25 66 33 67 26 68 28 69 34 70
REMARK SMILES IDX 27 71 29 72 30 73 31 74 32 75 56 76 57 77 65 78 58 79 60 80
REMARK SMILES IDX 66 81 59 82 61 83 62 84 63 85 64 86 41 87 42 88 50 89 43 90
REMARK SMILES IDX 45 91 51 92 44 93 46 94 47 95 48 96 49 97
REMARK H PARENT 7 6 78 13 90 20 90 21 12 31 71 50 39 61
REMARK Flexibility Score: inf
ROOT
ATOM      1  C   UNL A   1      31.620  28.773  26.346  1.00  0.00     0.023 C 
ENDROOT
BRANCH   1   2
ATOM      2  C   UNL A   1      32.367  27.536  26.818  1.00  0.00     0.116 C 
BRANCH   2   3
ATOM      3  N   UNL A   1      31.427  26.433  26.947  1.00  0.00    -0.356 N 
ATOM      4  C   UNL A   1      30.763  25.751  25.967  1.00  0.00     0.222 C 
ATOM      5  O   UNL A   1      29.809  25.040  26.290  1.00  0.00    -0.275 OA
ATOM      6  H   UNL A   1      31.246  26.136  27.867  1.00  0.00     0.163 HD
BRANCH   4   7
ATOM      7  C   UNL A   1      31.225  25.795  24.515  1.00  0.00     0.127 C 
BRANCH   7   8
ATOM      8  C   UNL A   1      32.468  24.928  24.113  1.00  0.00     0.043 C 
ATOM      9  C   UNL A   1      32.162  24.211  22.788  1.00  0.00     0.035 C 
ATOM     10  C   UNL A   1      33.632  25.898  23.785  1.00  0.00     0.035 C 
BRANCH   8  11
ATOM     11  N   UNL A   1      32.903  24.064  25.248  1.00  0.00    -0.346 N 
ATOM     12  C   UNL A   1      33.907  23.133  25.335  1.00  0.00     0.278 C 
ATOM     13  H   UNL A   1      32.380  24.181  26.074  1.00  0.00     0.164 HD
ATOM     14  O   UNL A   1      34.887  23.414  26.038  1.00  0.00    -0.268 OA
BRANCH  12  15
ATOM     15  C   UNL A   1      33.787  21.713  24.706  1.00  0.00     0.272 C 
ATOM     16  C   UNL A   1      34.900  20.775  25.141  1.00  0.00     0.076 C 
ATOM     17  N   UNL A   1      32.428  21.170  24.918  1.00  0.00    -0.333 N 
ATOM     18  C   UNL A   1      34.720  19.319  24.757  1.00  0.00     0.016 C 
ATOM     19  C   UNL A   1      32.275  19.780  24.439  1.00  0.00     0.186 C 
ATOM     20  H   UNL A   1      31.761  21.759  24.419  1.00  0.00     0.347 HD
ATOM     21  H   UNL A   1      32.258  21.164  25.924  1.00  0.00     0.347 HD
ATOM     22  C   UNL A   1      33.302  18.871  25.126  1.00  0.00     0.048 C 
ATOM     23  C   UNL A   1      32.336  19.632  22.906  1.00  0.00     0.065 C 
ATOM     24  C   UNL A   1      33.040  17.414  24.751  1.00  0.00     0.010 C 
ATOM     25  C   UNL A   1      32.398  18.179  22.402  1.00  0.00     0.006 C 
ATOM     26  C   UNL A   1      33.184  17.180  23.255  1.00  0.00     0.001 C 
ENDBRANCH  12  15
ENDBRANCH   8  11
ENDBRANCH   7   8
ENDBRANCH   4   7
ENDBRANCH   2   3
ENDBRANCH   1   2
BRANCH   1  27
ATOM     27  C   UNL A   1      31.851  30.056  27.127  1.00  0.00     0.023 C 
BRANCH  27  28
ATOM     28  C   UNL A   1      32.435  31.195  26.310  1.00  0.00     0.116 C 
BRANCH  28  29
ATOM     29  N   UNL A   1      32.321  32.507  26.943  1.00  0.00    -0.352 N 
ATOM     30  C   UNL A   1      33.206  33.180  27.762  1.00  0.00     0.251 C 
ATOM     31  H   UNL A   1      31.482  32.986  26.757  1.00  0.00     0.163 HD
ATOM     32  O   UNL A   1      32.897  34.266  28.229  1.00  0.00    -0.269 OA
BRANCH  30  33
ATOM     33  C   UNL A   1      34.503  32.556  28.114  1.00  0.00     0.039 A 
ATOM     34  C   UNL A   1      35.667  33.331  28.050  1.00  0.00     0.014 A 
ATOM     35  C   UNL A   1      34.567  31.244  28.578  1.00  0.00     0.014 A 
ATOM     36  C   UNL A   1      36.862  32.827  28.571  1.00  0.00     0.010 A 
ATOM     37  C   UNL A   1      35.721  30.793  29.205  1.00  0.00     0.010 A 
ATOM     38  C   UNL A   1      36.880  31.581  29.218  1.00  0.00    -0.014 A 
BRANCH  38  39
ATOM     39  C   UNL A   1      38.074  31.088  29.956  1.00  0.00     0.031 A 
ATOM     40  C   UNL A   1      38.977  30.059  29.328  1.00  0.00     0.074 A 
ATOM     41  C   UNL A   1      38.263  31.454  31.241  1.00  0.00     0.049 A 
ATOM     42  N   UNL A   1      39.974  29.402  29.860  1.00  0.00    -0.248 NA
ATOM     43  C   UNL A   1      38.693  29.684  27.932  1.00  0.00     0.031 C 
ATOM     44  C   UNL A   1      37.400  32.363  32.001  1.00  0.00     0.029 A 
ATOM     45  N   UNL A   1      39.223  31.080  32.148  1.00  0.00    -0.354 N 
ATOM     46  C   UNL A   1      40.396  28.502  28.890  1.00  0.00     0.074 A 
ATOM     47  C   UNL A   1      39.522  28.668  27.750  1.00  0.00     0.031 C 
ATOM     48  C   UNL A   1      37.876  32.484  33.251  1.00  0.00     0.029 A 
ATOM     49  C   UNL A   1      39.054  31.636  33.395  1.00  0.00     0.049 A 
ATOM     50  H   UNL A   1      39.965  30.472  31.926  1.00  0.00     0.167 HD
ATOM     51  C   UNL A   1      41.439  27.641  28.925  1.00  0.00     0.034 A 
ATOM     52  C   UNL A   1      39.759  31.474  34.532  1.00  0.00     0.034 A 
ATOM     53  C   UNL A   1      42.356  27.539  30.027  1.00  0.00     0.049 A 
ATOM     54  C   UNL A   1      40.956  30.563  34.525  1.00  0.00     0.074 A 
ATOM     55  C   UNL A   1      43.524  26.801  30.109  1.00  0.00     0.029 A 
ATOM     56  N   UNL A   1      42.211  28.196  31.238  1.00  0.00    -0.354 N 
ATOM     57  N   UNL A   1      41.445  29.856  33.535  1.00  0.00    -0.248 NA
ATOM     58  C   UNL A   1      41.713  30.448  35.779  1.00  0.00     0.031 C 
ATOM     59  C   UNL A   1      44.079  27.002  31.376  1.00  0.00     0.029 A 
ATOM     60  C   UNL A   1      43.261  27.872  32.080  1.00  0.00     0.049 A 
ATOM     61  H   UNL A   1      41.472  28.804  31.465  1.00  0.00     0.167 HD
ATOM     62  C   UNL A   1      42.577  29.227  34.041  1.00  0.00     0.074 A 
ATOM     63  C   UNL A   1      42.718  29.663  35.415  1.00  0.00     0.031 C 
ATOM     64  C   UNL A   1      43.412  28.350  33.430  1.00  0.00     0.034 A 
BRANCH  51  65
ATOM     65  C   UNL A   1      41.692  26.799  27.703  1.00  0.00     0.023 A 
ATOM     66  C   UNL A   1      42.260  27.395  26.557  1.00  0.00     0.012 A 
ATOM     67  C   UNL A   1      41.412  25.418  27.696  1.00  0.00     0.148 A 
ATOM     68  C   UNL A   1      42.509  26.641  25.413  1.00  0.00     0.002 A 
ATOM     69  C   UNL A   1      41.704  24.665  26.564  1.00  0.00     0.091 A 
ATOM     70  F   UNL A   1      40.851  24.872  28.784  1.00  0.00    -0.205 F 
ATOM     71  C   UNL A   1      42.241  25.275  25.420  1.00  0.00     0.022 A 
BRANCH  69  72
ATOM     72  S   UNL A   1      41.463  22.885  26.499  1.00  0.00     0.127 S 
ATOM     73  O   UNL A   1      40.009  22.789  26.377  1.00  0.00    -0.237 OA
ATOM     74  O   UNL A   1      42.201  22.517  25.290  1.00  0.00    -0.237 OA
ATOM     75  O   UNL A   1      42.026  22.361  27.735  1.00  0.00    -0.744 OA
ENDBRANCH  69  72
ENDBRANCH  51  65
BRANCH  52  76
ATOM     76  C   UNL A   1      39.392  32.248  35.751  1.00  0.00     0.023 A 
ATOM     77  C   UNL A   1      39.889  33.558  35.906  1.00  0.00     0.012 A 
ATOM     78  C   UNL A   1      38.530  31.722  36.733  1.00  0.00     0.148 A 
ATOM     79  C   UNL A   1      39.555  34.320  37.027  1.00  0.00     0.002 A 
ATOM     80  C   UNL A   1      38.158  32.507  37.820  1.00  0.00     0.091 A 
ATOM     81  F   UNL A   1      38.079  30.469  36.577  1.00  0.00    -0.205 F 
ATOM     82  C   UNL A   1      38.682  33.799  37.977  1.00  0.00     0.022 A 
BRANCH  80  83
ATOM     83  S   UNL A   1      36.935  31.966  39.020  1.00  0.00     0.127 S 
ATOM     84  O   UNL A   1      37.496  32.473  40.268  1.00  0.00    -0.237 OA
ATOM     85  O   UNL A   1      35.731  32.657  38.559  1.00  0.00    -0.237 OA
ATOM     86  O   UNL A   1      36.878  30.516  38.890  1.00  0.00    -0.744 OA
ENDBRANCH  80  83
ENDBRANCH  52  76
BRANCH  64  87
ATOM     87  C   UNL A   1      44.555  27.799  34.239  1.00  0.00     0.023 A 
ATOM     88  C   UNL A   1      45.765  28.518  34.301  1.00  0.00     0.012 A 
ATOM     89  C   UNL A   1      44.404  26.625  35.002  1.00  0.00     0.148 A 
ATOM     90  C   UNL A   1      46.819  28.062  35.091  1.00  0.00     0.002 A 
ATOM     91  C   UNL A   1      45.443  26.201  35.822  1.00  0.00     0.091 A 
ATOM     92  F   UNL A   1      43.250  25.949  34.914  1.00  0.00    -0.205 F 
ATOM     93  C   UNL A   1      46.654  26.913  35.861  1.00  0.00     0.022 A 
BRANCH  91  94
ATOM     94  S   UNL A   1      45.290  24.785  36.917  1.00  0.00     0.127 S 
ATOM     95  O   UNL A   1      44.144  25.169  37.741  1.00  0.00    -0.237 OA
ATOM     96  O   UNL A   1      45.030  23.694  35.980  1.00  0.00    -0.237 OA
ATOM     97  O   UNL A   1      46.560  24.685  37.623  1.00  0.00    -0.744 OA
ENDBRANCH  91  94
ENDBRANCH  64  87
ENDBRANCH  38  39
ENDBRANCH  30  33
ENDBRANCH  28  29
ENDBRANCH  27  28
ENDBRANCH   1  27
TORSDOF 17
ENDMDL
