MODEL 1
REMARK VINA RESULT:     -12.2      0.000      0.000
REMARK SMILES C[C@H]1SCCC[C@]1(Nc1ccc(Cl)cc1)C(=O)NCCCCNC(=O)c1ccc(-c2c3nc(c(-c4cccc(S(=O)(=O)[O-])c4F)c4ccc([nH]4)c(-c4cccc(S(=O)(=O)[O-])c4F)c4nc(c(-c5cccc(S(=O)(=O)[O-])c5F)c5ccc2[nH]5)C=C4)C=C3)cc1
REMARK SMILES IDX 21 1 20 2 19 3 18 4 16 5 17 6 7 8 1 9 2 10 3 11 4 12 6 13
REMARK SMILES IDX 5 14 8 15 9 17 10 18 15 19 11 20 14 21 12 22 13 23 22 24
REMARK SMILES IDX 23 25 24 26 25 28 26 29 27 30 88 31 28 32 87 33 29 34 30 35
REMARK SMILES IDX 31 36 81 37 32 38 86 39 80 40 82 41 33 42 85 43 79 44 78 45
REMARK SMILES IDX 34 47 66 48 46 49 65 50 47 51 50 52 64 53 83 54 48 55 49 56
REMARK SMILES IDX 63 58 84 59 51 60 35 61 36 62 44 63 37 64 39 65 45 66 38 67
REMARK SMILES IDX 40 68 41 69 42 70 43 71 67 72 68 73 76 74 69 75 71 76 77 77
REMARK SMILES IDX 70 78 72 79 73 80 74 81 75 82 52 83 53 84 61 85 54 86 56 87
REMARK SMILES IDX 62 88 55 89 57 90 58 91 59 92 60 93
REMARK H PARENT 18 7 8 16 23 27 82 46 50 57
REMARK Flexibility Score: inf
ROOT
ATOM      1  C   UNL A   1      31.533  29.286  25.475  1.00  0.00     0.023 C 
ENDROOT
BRANCH   1   2
ATOM      2  C   UNL A   1      31.882  28.471  24.238  1.00  0.00     0.023 C 
BRANCH   2   3
ATOM      3  C   UNL A   1      33.301  27.905  24.236  1.00  0.00     0.116 C 
BRANCH   3   4
ATOM      4  N   UNL A   1      33.568  27.135  23.037  1.00  0.00    -0.354 N 
ATOM      5  C   UNL A   1      33.463  25.800  22.777  1.00  0.00     0.246 C 
ATOM      6  O   UNL A   1      33.704  25.474  21.606  1.00  0.00    -0.272 OA
ATOM      7  H   UNL A   1      33.881  27.672  22.274  1.00  0.00     0.163 HD
BRANCH   5   8
ATOM      8  C   UNL A   1      33.116  24.705  23.857  1.00  0.00     0.128 C 
ATOM      9  C   UNL A   1      30.619  24.416  22.989  1.00  0.00     0.022 C 
ATOM     10  C   UNL A   1      31.567  24.735  24.139  1.00  0.00     0.078 C 
ATOM     11  S   UNL A   1      31.071  23.566  25.481  1.00  0.00    -0.156 SA
ATOM     12  C   UNL A   1      32.047  24.302  26.806  1.00  0.00     0.070 C 
ATOM     13  C   UNL A   1      33.840  25.122  25.186  1.00  0.00     0.040 C 
ATOM     14  C   UNL A   1      33.519  24.292  26.432  1.00  0.00     0.014 C 
BRANCH   8  15
ATOM     15  N   UNL A   1      33.566  23.336  23.489  1.00  0.00    -0.370 N 
ATOM     16  H   UNL A   1      33.014  22.865  22.823  1.00  0.00     0.161 HD
BRANCH  15  17
ATOM     17  C   UNL A   1      34.662  22.639  23.963  1.00  0.00     0.035 A 
ATOM     18  C   UNL A   1      35.991  22.951  23.653  1.00  0.00     0.027 A 
ATOM     19  C   UNL A   1      34.430  21.439  24.659  1.00  0.00     0.027 A 
ATOM     20  C   UNL A   1      37.043  22.087  23.984  1.00  0.00     0.022 A 
ATOM     21  C   UNL A   1      35.472  20.558  24.973  1.00  0.00     0.022 A 
ATOM     22  C   UNL A   1      36.776  20.883  24.624  1.00  0.00     0.041 A 
ATOM     23  Cl  UNL A   1      38.054  19.783  24.955  1.00  0.00    -0.084 Cl
ENDBRANCH  15  17
ENDBRANCH   8  15
ENDBRANCH   5   8
ENDBRANCH   3   4
ENDBRANCH   2   3
ENDBRANCH   1   2
BRANCH   1  24
ATOM     24  C   UNL A   1      32.727  29.887  26.201  1.00  0.00     0.116 C 
BRANCH  24  25
ATOM     25  N   UNL A   1      32.531  31.283  26.579  1.00  0.00    -0.352 N 
ATOM     26  C   UNL A   1      33.337  32.078  27.360  1.00  0.00     0.251 C 
ATOM     27  H   UNL A   1      31.716  31.711  26.229  1.00  0.00     0.163 HD
ATOM     28  O   UNL A   1      32.978  33.205  27.688  1.00  0.00    -0.269 OA
BRANCH  26  29
ATOM     29  C   UNL A   1      34.625  31.531  27.824  1.00  0.00     0.039 A 
ATOM     30  C   UNL A   1      35.707  32.393  28.012  1.00  0.00     0.014 A 
ATOM     31  C   UNL A   1      34.718  30.180  28.170  1.00  0.00     0.014 A 
ATOM     32  C   UNL A   1      36.863  31.911  28.627  1.00  0.00     0.010 A 
ATOM     33  C   UNL A   1      35.829  29.732  28.868  1.00  0.00     0.010 A 
ATOM     34  C   UNL A   1      36.916  30.590  29.099  1.00  0.00    -0.014 A 
BRANCH  34  35
ATOM     35  C   UNL A   1      38.093  30.072  29.839  1.00  0.00     0.031 A 
ATOM     36  C   UNL A   1      38.360  30.548  31.241  1.00  0.00     0.074 A 
ATOM     37  C   UNL A   1      38.980  29.271  29.213  1.00  0.00     0.049 A 
ATOM     38  N   UNL A   1      39.378  30.293  32.018  1.00  0.00    -0.248 NA
ATOM     39  C   UNL A   1      37.370  31.465  31.832  1.00  0.00     0.031 C 
ATOM     40  C   UNL A   1      38.887  28.826  27.821  1.00  0.00     0.029 A 
ATOM     41  N   UNL A   1      40.151  28.714  29.661  1.00  0.00    -0.354 N 
ATOM     42  C   UNL A   1      39.176  31.050  33.167  1.00  0.00     0.074 A 
ATOM     43  C   UNL A   1      37.962  31.809  32.966  1.00  0.00     0.031 C 
ATOM     44  C   UNL A   1      39.953  28.062  27.531  1.00  0.00     0.029 A 
ATOM     45  C   UNL A   1      40.815  27.980  28.705  1.00  0.00     0.049 A 
ATOM     46  H   UNL A   1      40.485  28.829  30.580  1.00  0.00     0.167 HD
ATOM     47  C   UNL A   1      39.909  31.080  34.304  1.00  0.00     0.034 A 
ATOM     48  C   UNL A   1      41.985  27.315  28.771  1.00  0.00     0.034 A 
ATOM     49  C   UNL A   1      41.074  30.269  34.526  1.00  0.00     0.049 A 
ATOM     50  C   UNL A   1      42.737  27.293  30.075  1.00  0.00     0.074 A 
ATOM     51  C   UNL A   1      41.832  30.147  35.675  1.00  0.00     0.029 A 
ATOM     52  N   UNL A   1      41.645  29.437  33.576  1.00  0.00    -0.354 N 
ATOM     53  N   UNL A   1      42.439  27.883  31.208  1.00  0.00    -0.248 NA
ATOM     54  C   UNL A   1      43.962  26.482  30.125  1.00  0.00     0.031 C 
ATOM     55  C   UNL A   1      42.866  29.241  35.420  1.00  0.00     0.029 A 
ATOM     56  C   UNL A   1      42.745  28.792  34.114  1.00  0.00     0.049 A 
ATOM     57  H   UNL A   1      41.317  29.320  32.656  1.00  0.00     0.167 HD
ATOM     58  C   UNL A   1      43.419  27.491  32.112  1.00  0.00     0.074 A 
ATOM     59  C   UNL A   1      44.307  26.593  31.401  1.00  0.00     0.031 C 
ATOM     60  C   UNL A   1      43.581  27.855  33.408  1.00  0.00     0.034 A 
BRANCH  47  61
ATOM     61  C   UNL A   1      39.418  31.961  35.422  1.00  0.00     0.023 A 
ATOM     62  C   UNL A   1      38.505  31.437  36.362  1.00  0.00     0.012 A 
ATOM     63  C   UNL A   1      39.877  33.283  35.569  1.00  0.00     0.148 A 
ATOM     64  C   UNL A   1      38.025  32.227  37.404  1.00  0.00     0.002 A 
ATOM     65  C   UNL A   1      39.428  34.051  36.637  1.00  0.00     0.091 A 
ATOM     66  F   UNL A   1      40.725  33.772  34.653  1.00  0.00    -0.205 F 
ATOM     67  C   UNL A   1      38.493  33.530  37.547  1.00  0.00     0.022 A 
BRANCH  65  68
ATOM     68  S   UNL A   1      40.031  35.714  36.953  1.00  0.00     0.127 S 
ATOM     69  O   UNL A   1      41.471  35.492  37.059  1.00  0.00    -0.237 OA
ATOM     70  O   UNL A   1      39.611  36.429  35.747  1.00  0.00    -0.237 OA
ATOM     71  O   UNL A   1      39.370  36.151  38.174  1.00  0.00    -0.744 OA
ENDBRANCH  65  68
ENDBRANCH  47  61
BRANCH  48  72
ATOM     72  C   UNL A   1      42.468  26.543  27.591  1.00  0.00     0.023 A 
ATOM     73  C   UNL A   1      43.328  27.166  26.666  1.00  0.00     0.012 A 
ATOM     74  C   UNL A   1      42.121  25.191  27.402  1.00  0.00     0.148 A 
ATOM     75  C   UNL A   1      43.811  26.468  25.558  1.00  0.00     0.002 A 
ATOM     76  C   UNL A   1      42.646  24.486  26.323  1.00  0.00     0.091 A 
ATOM     77  F   UNL A   1      41.292  24.617  28.285  1.00  0.00    -0.205 F 
ATOM     78  C   UNL A   1      43.478  25.126  25.393  1.00  0.00     0.022 A 
BRANCH  76  79
ATOM     79  S   UNL A   1      42.379  22.722  26.108  1.00  0.00     0.127 S 
ATOM     80  O   UNL A   1      43.092  22.169  27.257  1.00  0.00    -0.237 OA
ATOM     81  O   UNL A   1      40.920  22.623  26.183  1.00  0.00    -0.237 OA
ATOM     82  O   UNL A   1      42.931  22.401  24.800  1.00  0.00    -0.744 OA
ENDBRANCH  76  79
ENDBRANCH  48  72
BRANCH  60  83
ATOM     83  C   UNL A   1      44.745  27.266  34.159  1.00  0.00     0.023 A 
ATOM     84  C   UNL A   1      45.994  27.916  34.124  1.00  0.00     0.012 A 
ATOM     85  C   UNL A   1      44.578  26.125  34.966  1.00  0.00     0.148 A 
ATOM     86  C   UNL A   1      47.067  27.422  34.864  1.00  0.00     0.002 A 
ATOM     87  C   UNL A   1      45.639  25.664  35.735  1.00  0.00     0.091 A 
ATOM     88  F   UNL A   1      43.386  25.510  34.969  1.00  0.00    -0.205 F 
ATOM     89  C   UNL A   1      46.888  26.306  35.677  1.00  0.00     0.022 A 
BRANCH  87  90
ATOM     90  S   UNL A   1      45.470  24.292  36.881  1.00  0.00     0.127 S 
ATOM     91  O   UNL A   1      45.086  23.202  35.987  1.00  0.00    -0.237 OA
ATOM     92  O   UNL A   1      46.819  24.178  37.436  1.00  0.00    -0.237 OA
ATOM     93  O   UNL A   1      44.457  24.702  37.844  1.00  0.00    -0.744 OA
ENDBRANCH  87  90
ENDBRANCH  60  83
ENDBRANCH  34  35
ENDBRANCH  26  29
ENDBRANCH  24  25
ENDBRANCH   1  24
TORSDOF 16
ENDMDL
MODEL 2
REMARK VINA RESULT:     -12.1      1.947      3.029
REMARK SMILES C[C@H]1SCCC[C@]1(Nc1ccc(Cl)cc1)C(=O)NCCCCNC(=O)c1ccc(-c2c3nc(c(-c4cccc(S(=O)(=O)[O-])c4F)c4ccc([nH]4)c(-c4cccc(S(=O)(=O)[O-])c4F)c4nc(c(-c5cccc(S(=O)(=O)[O-])c5F)c5ccc2[nH]5)C=C4)C=C3)cc1
REMARK SMILES IDX 21 1 20 2 19 3 18 4 16 5 17 6 7 8 1 9 2 10 3 11 4 12 6 13
REMARK SMILES IDX 5 14 8 15 9 17 10 18 15 19 11 20 14 21 12 22 13 23 22 24
REMARK SMILES IDX 23 25 24 26 25 28 26 29 27 30 88 31 28 32 87 33 29 34 30 35
REMARK SMILES IDX 31 36 81 37 32 38 86 39 80 40 82 41 33 42 85 43 79 44 78 45
REMARK SMILES IDX 34 47 66 48 46 49 65 50 47 51 50 52 64 53 83 54 48 55 49 56
REMARK SMILES IDX 63 58 84 59 51 60 35 61 36 62 44 63 37 64 39 65 45 66 38 67
REMARK SMILES IDX 40 68 41 69 42 70 43 71 67 72 68 73 76 74 69 75 71 76 77 77
REMARK SMILES IDX 70 78 72 79 73 80 74 81 75 82 52 83 53 84 61 85 54 86 56 87
REMARK SMILES IDX 62 88 55 89 57 90 58 91 59 92 60 93
REMARK H PARENT 18 7 8 16 23 27 82 46 50 57
REMARK Flexibility Score: inf
ROOT
ATOM      1  C   UNL A   1      31.635  29.344  25.650  1.00  0.00     0.023 C 
ENDROOT
BRANCH   1   2
ATOM      2  C   UNL A   1      31.350  28.256  26.675  1.00  0.00     0.023 C 
BRANCH   2   3
ATOM      3  C   UNL A   1      32.333  27.088  26.644  1.00  0.00     0.116 C 
BRANCH   3   4
ATOM      4  N   UNL A   1      31.717  25.858  27.103  1.00  0.00    -0.354 N 
ATOM      5  C   UNL A   1      31.708  24.600  26.577  1.00  0.00     0.246 C 
ATOM      6  O   UNL A   1      31.137  23.746  27.269  1.00  0.00    -0.272 OA
ATOM      7  H   UNL A   1      31.214  25.948  27.944  1.00  0.00     0.163 HD
BRANCH   5   8
ATOM      8  C   UNL A   1      32.319  24.214  25.175  1.00  0.00     0.128 C 
ATOM      9  C   UNL A   1      31.508  21.687  25.341  1.00  0.00     0.022 C 
ATOM     10  C   UNL A   1      32.655  22.676  25.166  1.00  0.00     0.078 C 
ATOM     11  S   UNL A   1      33.487  22.142  23.605  1.00  0.00    -0.156 SA
ATOM     12  C   UNL A   1      34.949  23.187  23.751  1.00  0.00     0.070 C 
ATOM     13  C   UNL A   1      33.677  24.988  25.034  1.00  0.00     0.040 C 
ATOM     14  C   UNL A   1      34.539  24.647  23.816  1.00  0.00     0.014 C 
BRANCH   8  15
ATOM     15  N   UNL A   1      31.451  24.579  24.022  1.00  0.00    -0.370 N 
ATOM     16  H   UNL A   1      31.294  23.867  23.360  1.00  0.00     0.161 HD
BRANCH  15  17
ATOM     17  C   UNL A   1      30.839  25.791  23.762  1.00  0.00     0.035 A 
ATOM     18  C   UNL A   1      29.533  26.114  24.145  1.00  0.00     0.027 A 
ATOM     19  C   UNL A   1      31.500  26.693  22.910  1.00  0.00     0.027 A 
ATOM     20  C   UNL A   1      28.893  27.265  23.670  1.00  0.00     0.022 A 
ATOM     21  C   UNL A   1      30.861  27.835  22.410  1.00  0.00     0.022 A 
ATOM     22  C   UNL A   1      29.552  28.110  22.787  1.00  0.00     0.041 A 
ATOM     23  Cl  UNL A   1      28.742  29.478  22.136  1.00  0.00    -0.084 Cl
ENDBRANCH  15  17
ENDBRANCH   8  15
ENDBRANCH   5   8
ENDBRANCH   3   4
ENDBRANCH   2   3
ENDBRANCH   1   2
BRANCH   1  24
ATOM     24  C   UNL A   1      32.907  30.140  25.902  1.00  0.00     0.116 C 
BRANCH  24  25
ATOM     25  N   UNL A   1      32.658  31.475  26.438  1.00  0.00    -0.352 N 
ATOM     26  C   UNL A   1      33.401  32.180  27.355  1.00  0.00     0.251 C 
ATOM     27  H   UNL A   1      31.853  31.928  26.098  1.00  0.00     0.163 HD
ATOM     28  O   UNL A   1      32.998  33.251  27.799  1.00  0.00    -0.269 OA
BRANCH  26  29
ATOM     29  C   UNL A   1      34.675  31.602  27.820  1.00  0.00     0.039 A 
ATOM     30  C   UNL A   1      35.789  32.430  27.967  1.00  0.00     0.014 A 
ATOM     31  C   UNL A   1      34.725  30.260  28.207  1.00  0.00     0.014 A 
ATOM     32  C   UNL A   1      36.936  31.926  28.583  1.00  0.00     0.010 A 
ATOM     33  C   UNL A   1      35.828  29.793  28.905  1.00  0.00     0.010 A 
ATOM     34  C   UNL A   1      36.948  30.619  29.095  1.00  0.00    -0.014 A 
BRANCH  34  35
ATOM     35  C   UNL A   1      38.117  30.082  29.836  1.00  0.00     0.031 A 
ATOM     36  C   UNL A   1      38.390  30.554  31.238  1.00  0.00     0.074 A 
ATOM     37  C   UNL A   1      38.990  29.266  29.212  1.00  0.00     0.049 A 
ATOM     38  N   UNL A   1      39.404  30.283  32.016  1.00  0.00    -0.248 NA
ATOM     39  C   UNL A   1      37.415  31.488  31.828  1.00  0.00     0.031 C 
ATOM     40  C   UNL A   1      38.890  28.821  27.820  1.00  0.00     0.029 A 
ATOM     41  N   UNL A   1      40.152  28.689  29.661  1.00  0.00    -0.354 N 
ATOM     42  C   UNL A   1      39.214  31.044  33.164  1.00  0.00     0.074 A 
ATOM     43  C   UNL A   1      38.013  31.823  32.962  1.00  0.00     0.031 C 
ATOM     44  C   UNL A   1      39.943  28.039  27.531  1.00  0.00     0.029 A 
ATOM     45  C   UNL A   1      40.803  27.943  28.706  1.00  0.00     0.049 A 
ATOM     46  H   UNL A   1      40.487  28.800  30.580  1.00  0.00     0.167 HD
ATOM     47  C   UNL A   1      39.946  31.063  34.301  1.00  0.00     0.034 A 
ATOM     48  C   UNL A   1      41.962  27.260  28.772  1.00  0.00     0.034 A 
ATOM     49  C   UNL A   1      41.098  30.233  34.524  1.00  0.00     0.049 A 
ATOM     50  C   UNL A   1      42.713  27.226  30.077  1.00  0.00     0.074 A 
ATOM     51  C   UNL A   1      41.852  30.100  35.674  1.00  0.00     0.029 A 
ATOM     52  N   UNL A   1      41.655  29.391  33.576  1.00  0.00    -0.354 N 
ATOM     53  N   UNL A   1      42.424  27.822  31.209  1.00  0.00    -0.248 NA
ATOM     54  C   UNL A   1      43.925  26.395  30.128  1.00  0.00     0.031 C 
ATOM     55  C   UNL A   1      42.872  29.176  35.421  1.00  0.00     0.029 A 
ATOM     56  C   UNL A   1      42.744  28.728  34.115  1.00  0.00     0.049 A 
ATOM     57  H   UNL A   1      41.326  29.279  32.655  1.00  0.00     0.167 HD
ATOM     58  C   UNL A   1      43.397  27.414  32.115  1.00  0.00     0.074 A 
ATOM     59  C   UNL A   1      44.270  26.501  31.404  1.00  0.00     0.031 C 
ATOM     60  C   UNL A   1      43.565  27.777  33.410  1.00  0.00     0.034 A 
BRANCH  47  61
ATOM     61  C   UNL A   1      39.470  31.953  35.419  1.00  0.00     0.023 A 
ATOM     62  C   UNL A   1      38.569  31.437  36.374  1.00  0.00     0.012 A 
ATOM     63  C   UNL A   1      39.929  33.277  35.548  1.00  0.00     0.148 A 
ATOM     64  C   UNL A   1      38.103  32.235  37.417  1.00  0.00     0.002 A 
ATOM     65  C   UNL A   1      39.494  34.053  36.616  1.00  0.00     0.091 A 
ATOM     66  F   UNL A   1      40.764  33.759  34.617  1.00  0.00    -0.205 F 
ATOM     67  C   UNL A   1      38.571  33.539  37.543  1.00  0.00     0.022 A 
BRANCH  65  68
ATOM     68  S   UNL A   1      40.099  35.719  36.909  1.00  0.00     0.127 S 
ATOM     69  O   UNL A   1      39.589  36.430  35.739  1.00  0.00    -0.237 OA
ATOM     70  O   UNL A   1      39.441  36.069  38.169  1.00  0.00    -0.237 OA
ATOM     71  O   UNL A   1      41.548  35.608  36.996  1.00  0.00    -0.744 OA
ENDBRANCH  65  68
ENDBRANCH  47  61
BRANCH  48  72
ATOM     72  C   UNL A   1      42.433  26.478  27.594  1.00  0.00     0.023 A 
ATOM     73  C   UNL A   1      43.290  27.092  26.659  1.00  0.00     0.012 A 
ATOM     74  C   UNL A   1      42.077  25.128  27.414  1.00  0.00     0.148 A 
ATOM     75  C   UNL A   1      43.761  26.385  25.552  1.00  0.00     0.002 A 
ATOM     76  C   UNL A   1      42.591  24.414  26.336  1.00  0.00     0.091 A 
ATOM     77  F   UNL A   1      41.251  24.563  28.305  1.00  0.00    -0.205 F 
ATOM     78  C   UNL A   1      43.420  25.044  25.396  1.00  0.00     0.022 A 
BRANCH  76  79
ATOM     79  S   UNL A   1      42.312  22.651  26.132  1.00  0.00     0.127 S 
ATOM     80  O   UNL A   1      42.892  22.406  24.814  1.00  0.00    -0.237 OA
ATOM     81  O   UNL A   1      43.069  22.090  27.253  1.00  0.00    -0.237 OA
ATOM     82  O   UNL A   1      40.871  22.469  26.237  1.00  0.00    -0.744 OA
ENDBRANCH  76  79
ENDBRANCH  48  72
BRANCH  60  83
ATOM     83  C   UNL A   1      44.718  27.169  34.162  1.00  0.00     0.023 A 
ATOM     84  C   UNL A   1      45.968  27.817  34.158  1.00  0.00     0.012 A 
ATOM     85  C   UNL A   1      44.539  26.010  34.941  1.00  0.00     0.148 A 
ATOM     86  C   UNL A   1      47.032  27.305  34.900  1.00  0.00     0.002 A 
ATOM     87  C   UNL A   1      45.591  25.530  35.712  1.00  0.00     0.091 A 
ATOM     88  F   UNL A   1      43.347  25.397  34.914  1.00  0.00    -0.205 F 
ATOM     89  C   UNL A   1      46.841  26.171  35.685  1.00  0.00     0.022 A 
BRANCH  87  90
ATOM     90  S   UNL A   1      45.405  24.132  36.824  1.00  0.00     0.127 S 
ATOM     91  O   UNL A   1      44.499  24.673  37.835  1.00  0.00    -0.237 OA
ATOM     92  O   UNL A   1      44.810  23.116  35.954  1.00  0.00    -0.237 OA
ATOM     93  O   UNL A   1      46.748  23.813  37.289  1.00  0.00    -0.744 OA
ENDBRANCH  87  90
ENDBRANCH  60  83
ENDBRANCH  34  35
ENDBRANCH  26  29
ENDBRANCH  24  25
ENDBRANCH   1  24
TORSDOF 16
ENDMDL
MODEL 3
REMARK VINA RESULT:     -12.0      2.040      2.723
REMARK SMILES C[C@H]1SCCC[C@]1(Nc1ccc(Cl)cc1)C(=O)NCCCCNC(=O)c1ccc(-c2c3nc(c(-c4cccc(S(=O)(=O)[O-])c4F)c4ccc([nH]4)c(-c4cccc(S(=O)(=O)[O-])c4F)c4nc(c(-c5cccc(S(=O)(=O)[O-])c5F)c5ccc2[nH]5)C=C4)C=C3)cc1
REMARK SMILES IDX 21 1 20 2 19 3 18 4 16 5 17 6 7 8 1 9 2 10 3 11 4 12 6 13
REMARK SMILES IDX 5 14 8 15 9 17 10 18 15 19 11 20 14 21 12 22 13 23 22 24
REMARK SMILES IDX 23 25 24 26 25 28 26 29 27 30 88 31 28 32 87 33 29 34 30 35
REMARK SMILES IDX 31 36 81 37 32 38 86 39 80 40 82 41 33 42 85 43 79 44 78 45
REMARK SMILES IDX 34 47 66 48 46 49 65 50 47 51 50 52 64 53 83 54 48 55 49 56
REMARK SMILES IDX 63 58 84 59 51 60 35 61 36 62 44 63 37 64 39 65 45 66 38 67
REMARK SMILES IDX 40 68 41 69 42 70 43 71 67 72 68 73 76 74 69 75 71 76 77 77
REMARK SMILES IDX 70 78 72 79 73 80 74 81 75 82 52 83 53 84 61 85 54 86 56 87
REMARK SMILES IDX 62 88 55 89 57 90 58 91 59 92 60 93
REMARK H PARENT 18 7 8 16 23 27 82 46 50 57
REMARK Flexibility Score: inf
ROOT
ATOM      1  C   UNL A   1      33.673  28.350  26.273  1.00  0.00     0.023 C 
ENDROOT
BRANCH   1   2
ATOM      2  C   UNL A   1      32.810  28.745  25.082  1.00  0.00     0.023 C 
BRANCH   2   3
ATOM      3  C   UNL A   1      32.096  27.576  24.407  1.00  0.00     0.116 C 
BRANCH   3   4
ATOM      4  N   UNL A   1      32.895  27.005  23.340  1.00  0.00    -0.354 N 
ATOM      5  C   UNL A   1      33.281  25.722  23.087  1.00  0.00     0.246 C 
ATOM      6  O   UNL A   1      33.912  25.562  22.032  1.00  0.00    -0.272 OA
ATOM      7  H   UNL A   1      33.216  27.662  22.681  1.00  0.00     0.163 HD
BRANCH   5   8
ATOM      8  C   UNL A   1      33.017  24.503  24.052  1.00  0.00     0.128 C 
ATOM      9  C   UNL A   1      30.545  24.121  23.149  1.00  0.00     0.022 C 
ATOM     10  C   UNL A   1      31.471  24.393  24.329  1.00  0.00     0.078 C 
ATOM     11  S   UNL A   1      31.064  23.064  25.547  1.00  0.00    -0.156 SA
ATOM     12  C   UNL A   1      31.989  23.734  26.942  1.00  0.00     0.070 C 
ATOM     13  C   UNL A   1      33.712  24.838  25.419  1.00  0.00     0.040 C 
ATOM     14  C   UNL A   1      33.456  23.869  26.575  1.00  0.00     0.014 C 
BRANCH   8  15
ATOM     15  N   UNL A   1      33.565  23.213  23.553  1.00  0.00    -0.370 N 
ATOM     16  H   UNL A   1      33.073  22.795  22.809  1.00  0.00     0.161 HD
BRANCH  15  17
ATOM     17  C   UNL A   1      34.677  22.525  24.002  1.00  0.00     0.035 A 
ATOM     18  C   UNL A   1      35.997  22.871  23.695  1.00  0.00     0.027 A 
ATOM     19  C   UNL A   1      34.472  21.301  24.663  1.00  0.00     0.027 A 
ATOM     20  C   UNL A   1      37.067  22.020  23.994  1.00  0.00     0.022 A 
ATOM     21  C   UNL A   1      35.532  20.431  24.947  1.00  0.00     0.022 A 
ATOM     22  C   UNL A   1      36.828  20.793  24.600  1.00  0.00     0.041 A 
ATOM     23  Cl  UNL A   1      38.129  19.709  24.894  1.00  0.00    -0.084 Cl
ENDBRANCH  15  17
ENDBRANCH   8  15
ENDBRANCH   5   8
ENDBRANCH   3   4
ENDBRANCH   2   3
ENDBRANCH   1   2
BRANCH   1  24
ATOM     24  C   UNL A   1      33.267  28.989  27.593  1.00  0.00     0.116 C 
BRANCH  24  25
ATOM     25  N   UNL A   1      33.489  30.431  27.629  1.00  0.00    -0.352 N 
ATOM     26  C   UNL A   1      34.623  31.112  28.006  1.00  0.00     0.251 C 
ATOM     27  H   UNL A   1      32.728  30.989  27.346  1.00  0.00     0.163 HD
ATOM     28  O   UNL A   1      34.619  32.336  28.096  1.00  0.00    -0.269 OA
BRANCH  26  29
ATOM     29  C   UNL A   1      35.832  30.335  28.335  1.00  0.00     0.039 A 
ATOM     30  C   UNL A   1      36.901  30.318  27.438  1.00  0.00     0.014 A 
ATOM     31  C   UNL A   1      35.935  29.713  29.582  1.00  0.00     0.014 A 
ATOM     32  C   UNL A   1      38.110  29.742  27.829  1.00  0.00     0.010 A 
ATOM     33  C   UNL A   1      37.165  29.231  30.003  1.00  0.00     0.010 A 
ATOM     34  C   UNL A   1      38.264  29.235  29.129  1.00  0.00    -0.014 A 
BRANCH  34  35
ATOM     35  C   UNL A   1      39.563  28.699  29.608  1.00  0.00     0.031 A 
ATOM     36  C   UNL A   1      40.302  29.411  30.708  1.00  0.00     0.074 A 
ATOM     37  C   UNL A   1      40.128  27.648  28.980  1.00  0.00     0.049 A 
ATOM     38  N   UNL A   1      41.486  29.163  31.201  1.00  0.00    -0.248 NA
ATOM     39  C   UNL A   1      39.638  30.584  31.305  1.00  0.00     0.031 C 
ATOM     40  C   UNL A   1      39.559  26.939  27.833  1.00  0.00     0.029 A 
ATOM     41  N   UNL A   1      41.325  27.013  29.202  1.00  0.00    -0.354 N 
ATOM     42  C   UNL A   1      41.728  30.170  32.129  1.00  0.00     0.074 A 
ATOM     43  C   UNL A   1      40.588  31.059  32.097  1.00  0.00     0.031 C 
ATOM     44  C   UNL A   1      40.403  25.964  27.454  1.00  0.00     0.029 A 
ATOM     45  C   UNL A   1      41.581  25.993  28.315  1.00  0.00     0.049 A 
ATOM     46  H   UNL A   1      41.942  27.264  29.927  1.00  0.00     0.167 HD
ATOM     47  C   UNL A   1      42.782  30.320  32.963  1.00  0.00     0.034 A 
ATOM     48  C   UNL A   1      42.646  25.174  28.210  1.00  0.00     0.034 A 
ATOM     49  C   UNL A   1      43.878  29.394  33.042  1.00  0.00     0.049 A 
ATOM     50  C   UNL A   1      43.766  25.306  29.207  1.00  0.00     0.074 A 
ATOM     51  C   UNL A   1      44.946  29.396  33.919  1.00  0.00     0.029 A 
ATOM     52  N   UNL A   1      44.040  28.296  32.212  1.00  0.00    -0.354 N 
ATOM     53  N   UNL A   1      43.897  26.164  30.190  1.00  0.00    -0.248 NA
ATOM     54  C   UNL A   1      44.864  24.333  29.109  1.00  0.00     0.031 C 
ATOM     55  C   UNL A   1      45.759  28.298  33.618  1.00  0.00     0.029 A 
ATOM     56  C   UNL A   1      45.190  27.607  32.559  1.00  0.00     0.049 A 
ATOM     57  H   UNL A   1      43.429  28.042  31.484  1.00  0.00     0.167 HD
ATOM     58  C   UNL A   1      45.072  25.817  30.846  1.00  0.00     0.074 A 
ATOM     59  C   UNL A   1      45.603  24.654  30.162  1.00  0.00     0.031 C 
ATOM     60  C   UNL A   1      45.669  26.417  31.905  1.00  0.00     0.034 A 
BRANCH  47  61
ATOM     61  C   UNL A   1      42.754  31.487  33.914  1.00  0.00     0.023 A 
ATOM     62  C   UNL A   1      43.328  32.713  33.517  1.00  0.00     0.012 A 
ATOM     63  C   UNL A   1      42.137  31.390  35.175  1.00  0.00     0.148 A 
ATOM     64  C   UNL A   1      43.325  33.811  34.375  1.00  0.00     0.002 A 
ATOM     65  C   UNL A   1      42.099  32.503  36.008  1.00  0.00     0.091 A 
ATOM     66  F   UNL A   1      41.619  30.211  35.546  1.00  0.00    -0.205 F 
ATOM     67  C   UNL A   1      42.704  33.709  35.615  1.00  0.00     0.022 A 
BRANCH  65  68
ATOM     68  S   UNL A   1      41.254  32.495  37.593  1.00  0.00     0.127 S 
ATOM     69  O   UNL A   1      41.262  33.915  37.940  1.00  0.00    -0.237 OA
ATOM     70  O   UNL A   1      39.937  31.962  37.239  1.00  0.00    -0.237 OA
ATOM     71  O   UNL A   1      42.041  31.631  38.460  1.00  0.00    -0.744 OA
ENDBRANCH  65  68
ENDBRANCH  47  61
BRANCH  48  72
ATOM     72  C   UNL A   1      42.658  24.099  27.177  1.00  0.00     0.023 A 
ATOM     73  C   UNL A   1      43.287  24.340  25.940  1.00  0.00     0.012 A 
ATOM     74  C   UNL A   1      42.093  22.832  27.424  1.00  0.00     0.148 A 
ATOM     75  C   UNL A   1      43.329  23.352  24.957  1.00  0.00     0.002 A 
ATOM     76  C   UNL A   1      42.183  21.835  26.458  1.00  0.00     0.091 A 
ATOM     77  F   UNL A   1      41.487  22.624  28.601  1.00  0.00    -0.205 F 
ATOM     78  C   UNL A   1      42.786  22.096  25.219  1.00  0.00     0.022 A 
BRANCH  76  79
ATOM     79  S   UNL A   1      41.631  20.152  26.764  1.00  0.00     0.127 S 
ATOM     80  O   UNL A   1      41.837  19.528  25.459  1.00  0.00    -0.237 OA
ATOM     81  O   UNL A   1      42.557  19.712  27.810  1.00  0.00    -0.237 OA
ATOM     82  O   UNL A   1      40.248  20.269  27.203  1.00  0.00    -0.744 OA
ENDBRANCH  76  79
ENDBRANCH  48  72
BRANCH  60  83
ATOM     83  C   UNL A   1      46.951  25.817  32.416  1.00  0.00     0.023 A 
ATOM     84  C   UNL A   1      48.181  26.252  31.886  1.00  0.00     0.012 A 
ATOM     85  C   UNL A   1      46.941  24.894  33.479  1.00  0.00     0.148 A 
ATOM     86  C   UNL A   1      49.383  25.756  32.390  1.00  0.00     0.002 A 
ATOM     87  C   UNL A   1      48.143  24.438  34.006  1.00  0.00     0.091 A 
ATOM     88  F   UNL A   1      45.758  24.478  33.956  1.00  0.00    -0.205 F 
ATOM     89  C   UNL A   1      49.365  24.860  33.456  1.00  0.00     0.022 A 
BRANCH  87  90
ATOM     90  S   UNL A   1      48.213  23.357  35.439  1.00  0.00     0.127 S 
ATOM     91  O   UNL A   1      47.741  22.091  34.881  1.00  0.00    -0.237 OA
ATOM     92  O   UNL A   1      49.636  23.379  35.780  1.00  0.00    -0.237 OA
ATOM     93  O   UNL A   1      47.346  23.965  36.439  1.00  0.00    -0.744 OA
ENDBRANCH  87  90
ENDBRANCH  60  83
ENDBRANCH  34  35
ENDBRANCH  26  29
ENDBRANCH  24  25
ENDBRANCH   1  24
TORSDOF 16
ENDMDL
