MODEL 1
REMARK VINA RESULT:     -11.9      0.000      0.000
REMARK SMILES O=C(C[C@@H]1C(=O)NCC[N@@H+]1Cc1ccc(F)c(F)c1)NCCCCNC(=O)c1ccc(-c2c3nc(c(-c4cccc(S(=O)(=O)[O-])c4F)c4ccc([nH]4)c(-c4cccc(S(=O)(=O)[O-])c4F)c4nc(c(-c5cccc(S(=O)(=O)[O-])c5F)c5ccc2[nH]5)C=C4)C=C3)cc1
REMARK SMILES IDX 22 1 21 2 20 3 1 4 2 5 3 7 4 8 5 9 10 10 6 11 7 12 9 13 8 15
REMARK SMILES IDX 11 17 12 18 13 19 19 20 14 21 17 22 15 23 18 24 16 25 23 26
REMARK SMILES IDX 24 27 25 28 26 29 27 31 28 32 29 33 90 34 30 35 89 36 31 37
REMARK SMILES IDX 32 38 33 39 83 40 34 41 88 42 82 43 84 44 35 45 87 46 81 47
REMARK SMILES IDX 80 48 36 50 68 51 48 52 67 53 49 54 52 55 66 56 85 57 50 58
REMARK SMILES IDX 51 59 65 61 86 62 53 63 37 64 38 65 46 66 39 67 41 68 47 69
REMARK SMILES IDX 40 70 42 71 43 72 44 73 45 74 69 75 70 76 78 77 71 78 73 79
REMARK SMILES IDX 79 80 72 81 74 82 75 83 76 84 77 85 54 86 55 87 63 88 56 89
REMARK SMILES IDX 58 90 64 91 57 92 59 93 60 94 61 95 62 96
REMARK H PARENT 20 6 10 14 7 16 25 30 84 49 52 60
REMARK Flexibility Score: inf
ROOT
ATOM      1  C   UNL A   1      37.317  20.776  24.632  1.00  0.00     0.023 C 
ENDROOT
BRANCH   1   2
ATOM      2  C   UNL A   1      37.311  21.869  25.706  1.00  0.00     0.116 C 
BRANCH   2   3
ATOM      3  N   UNL A   1      36.006  22.116  26.285  1.00  0.00    -0.356 N 
ATOM      4  O   UNL A   1      35.969  24.346  25.730  1.00  0.00    -0.275 OA
ATOM      5  C   UNL A   1      35.386  23.345  26.135  1.00  0.00     0.226 C 
ATOM      6  H   UNL A   1      35.556  21.402  26.792  1.00  0.00     0.163 HD
BRANCH   5   7
ATOM      7  C   UNL A   1      33.910  23.347  26.466  1.00  0.00     0.175 C 
BRANCH   7   8
ATOM      8  C   UNL A   1      32.991  23.500  25.229  1.00  0.00     0.283 C 
ATOM      9  C   UNL A   1      31.677  24.226  25.622  1.00  0.00     0.279 C 
ATOM     10  N   UNL A   1      32.727  22.338  24.343  1.00  0.00    -0.319 N 
ATOM     11  O   UNL A   1      31.559  24.875  26.662  1.00  0.00    -0.268 OA
ATOM     12  N   UNL A   1      30.647  24.221  24.714  1.00  0.00    -0.345 N 
ATOM     13  C   UNL A   1      31.952  22.762  23.169  1.00  0.00     0.284 C 
ATOM     14  H   UNL A   1      33.670  22.055  24.079  1.00  0.00     0.349 HD
ATOM     15  C   UNL A   1      30.603  23.391  23.526  1.00  0.00     0.177 C 
ATOM     16  H   UNL A   1      29.886  24.823  24.881  1.00  0.00     0.163 HD
BRANCH  10  17
ATOM     17  C   UNL A   1      32.308  21.055  24.898  1.00  0.00     0.299 C 
BRANCH  17  18
ATOM     18  C   UNL A   1      32.845  19.763  24.332  1.00  0.00     0.009 A 
ATOM     19  C   UNL A   1      32.201  19.139  23.250  1.00  0.00     0.013 A 
ATOM     20  C   UNL A   1      34.035  19.192  24.806  1.00  0.00     0.052 A 
ATOM     21  C   UNL A   1      32.699  17.948  22.711  1.00  0.00     0.043 A 
ATOM     22  C   UNL A   1      34.522  18.004  24.275  1.00  0.00     0.159 A 
ATOM     23  C   UNL A   1      33.851  17.378  23.240  1.00  0.00     0.158 A 
ATOM     24  F   UNL A   1      35.652  17.487  24.775  1.00  0.00    -0.204 F 
ATOM     25  F   UNL A   1      34.306  16.223  22.744  1.00  0.00    -0.204 F 
ENDBRANCH  17  18
ENDBRANCH  10  17
ENDBRANCH   7   8
ENDBRANCH   5   7
ENDBRANCH   2   3
ENDBRANCH   1   2
BRANCH   1  26
ATOM     26  C   UNL A   1      38.382  19.678  24.772  1.00  0.00     0.023 C 
BRANCH  26  27
ATOM     27  C   UNL A   1      39.110  19.592  26.117  1.00  0.00     0.116 C 
BRANCH  27  28
ATOM     28  N   UNL A   1      40.376  18.886  26.035  1.00  0.00    -0.352 N 
ATOM     29  C   UNL A   1      41.672  19.344  26.070  1.00  0.00     0.251 C 
ATOM     30  H   UNL A   1      40.292  17.910  25.937  1.00  0.00     0.163 HD
ATOM     31  O   UNL A   1      42.582  18.548  25.850  1.00  0.00    -0.269 OA
BRANCH  29  32
ATOM     32  C   UNL A   1      42.003  20.766  26.344  1.00  0.00     0.039 A 
ATOM     33  C   UNL A   1      42.332  21.125  27.657  1.00  0.00     0.014 A 
ATOM     34  C   UNL A   1      41.925  21.760  25.365  1.00  0.00     0.014 A 
ATOM     35  C   UNL A   1      42.635  22.455  27.974  1.00  0.00     0.010 A 
ATOM     36  C   UNL A   1      42.284  23.079  25.671  1.00  0.00     0.010 A 
ATOM     37  C   UNL A   1      42.646  23.443  26.978  1.00  0.00    -0.014 A 
BRANCH  37  38
ATOM     38  C   UNL A   1      43.062  24.842  27.290  1.00  0.00     0.031 A 
ATOM     39  C   UNL A   1      42.111  25.811  27.944  1.00  0.00     0.074 A 
ATOM     40  C   UNL A   1      44.288  25.269  26.920  1.00  0.00     0.049 A 
ATOM     41  N   UNL A   1      42.295  27.073  28.244  1.00  0.00    -0.248 NA
ATOM     42  C   UNL A   1      40.773  25.304  28.289  1.00  0.00     0.031 C 
ATOM     43  C   UNL A   1      45.290  24.456  26.228  1.00  0.00     0.029 A 
ATOM     44  N   UNL A   1      44.892  26.496  27.052  1.00  0.00    -0.354 N 
ATOM     45  C   UNL A   1      41.091  27.521  28.778  1.00  0.00     0.074 A 
ATOM     46  C   UNL A   1      40.176  26.400  28.740  1.00  0.00     0.031 C 
ATOM     47  C   UNL A   1      46.382  25.203  26.000  1.00  0.00     0.029 A 
ATOM     48  C   UNL A   1      46.150  26.555  26.497  1.00  0.00     0.049 A 
ATOM     49  H   UNL A   1      44.465  27.261  27.503  1.00  0.00     0.167 HD
ATOM     50  C   UNL A   1      40.781  28.744  29.273  1.00  0.00     0.034 A 
ATOM     51  C   UNL A   1      47.017  27.582  26.385  1.00  0.00     0.034 A 
ATOM     52  C   UNL A   1      41.701  29.849  29.348  1.00  0.00     0.049 A 
ATOM     53  C   UNL A   1      46.651  28.925  26.959  1.00  0.00     0.074 A 
ATOM     54  C   UNL A   1      41.499  31.097  29.915  1.00  0.00     0.029 A 
ATOM     55  N   UNL A   1      42.986  29.852  28.833  1.00  0.00    -0.354 N 
ATOM     56  N   UNL A   1      45.563  29.282  27.594  1.00  0.00    -0.248 NA
ATOM     57  C   UNL A   1      47.648  29.998  26.828  1.00  0.00     0.031 C 
ATOM     58  C   UNL A   1      42.651  31.864  29.709  1.00  0.00     0.029 A 
ATOM     59  C   UNL A   1      43.584  31.082  29.050  1.00  0.00     0.049 A 
ATOM     60  H   UNL A   1      43.414  29.089  28.378  1.00  0.00     0.167 HD
ATOM     61  C   UNL A   1      45.760  30.605  27.975  1.00  0.00     0.074 A 
ATOM     62  C   UNL A   1      47.081  30.980  27.515  1.00  0.00     0.031 C 
ATOM     63  C   UNL A   1      44.918  31.436  28.637  1.00  0.00     0.034 A 
BRANCH  50  64
ATOM     64  C   UNL A   1      39.388  28.954  29.811  1.00  0.00     0.023 A 
ATOM     65  C   UNL A   1      39.071  28.531  31.118  1.00  0.00     0.012 A 
ATOM     66  C   UNL A   1      38.416  29.639  29.054  1.00  0.00     0.148 A 
ATOM     67  C   UNL A   1      37.801  28.753  31.650  1.00  0.00     0.002 A 
ATOM     68  C   UNL A   1      37.167  29.898  29.608  1.00  0.00     0.091 A 
ATOM     69  F   UNL A   1      38.729  30.020  27.807  1.00  0.00    -0.205 F 
ATOM     70  C   UNL A   1      36.854  29.445  30.900  1.00  0.00     0.022 A 
BRANCH  68  71
ATOM     71  S   UNL A   1      35.906  30.851  28.753  1.00  0.00     0.127 S 
ATOM     72  O   UNL A   1      35.156  31.418  29.873  1.00  0.00    -0.237 OA
ATOM     73  O   UNL A   1      36.707  31.818  28.003  1.00  0.00    -0.237 OA
ATOM     74  O   UNL A   1      35.172  29.899  27.929  1.00  0.00    -0.744 OA
ENDBRANCH  68  71
ENDBRANCH  50  64
BRANCH  51  75
ATOM     75  C   UNL A   1      48.347  27.372  25.744  1.00  0.00     0.023 A 
ATOM     76  C   UNL A   1      49.449  27.002  26.540  1.00  0.00     0.012 A 
ATOM     77  C   UNL A   1      48.524  27.527  24.356  1.00  0.00     0.148 A 
ATOM     78  C   UNL A   1      50.710  26.824  25.971  1.00  0.00     0.002 A 
ATOM     79  C   UNL A   1      49.771  27.293  23.788  1.00  0.00     0.091 A 
ATOM     80  F   UNL A   1      47.466  27.893  23.619  1.00  0.00    -0.205 F 
ATOM     81  C   UNL A   1      50.869  26.961  24.595  1.00  0.00     0.022 A 
BRANCH  79  82
ATOM     82  S   UNL A   1      50.040  27.319  22.012  1.00  0.00     0.127 S 
ATOM     83  O   UNL A   1      49.874  28.739  21.707  1.00  0.00    -0.237 OA
ATOM     84  O   UNL A   1      51.414  26.824  21.911  1.00  0.00    -0.237 OA
ATOM     85  O   UNL A   1      49.036  26.429  21.451  1.00  0.00    -0.744 OA
ENDBRANCH  79  82
ENDBRANCH  51  75
BRANCH  63  86
ATOM     86  C   UNL A   1      45.406  32.828  28.951  1.00  0.00     0.023 A 
ATOM     87  C   UNL A   1      46.059  33.090  30.171  1.00  0.00     0.012 A 
ATOM     88  C   UNL A   1      45.276  33.863  28.002  1.00  0.00     0.148 A 
ATOM     89  C   UNL A   1      46.543  34.366  30.457  1.00  0.00     0.002 A 
ATOM     90  C   UNL A   1      45.809  35.119  28.272  1.00  0.00     0.091 A 
ATOM     91  F   UNL A   1      44.636  33.600  26.853  1.00  0.00    -0.205 F 
ATOM     92  C   UNL A   1      46.429  35.376  29.505  1.00  0.00     0.022 A 
BRANCH  90  93
ATOM     93  S   UNL A   1      45.796  36.451  27.067  1.00  0.00     0.127 S 
ATOM     94  O   UNL A   1      44.380  36.811  27.035  1.00  0.00    -0.237 OA
ATOM     95  O   UNL A   1      46.664  37.446  27.698  1.00  0.00    -0.237 OA
ATOM     96  O   UNL A   1      46.324  35.883  25.834  1.00  0.00    -0.744 OA
ENDBRANCH  90  93
ENDBRANCH  63  86
ENDBRANCH  37  38
ENDBRANCH  29  32
ENDBRANCH  27  28
ENDBRANCH  26  27
ENDBRANCH   1  26
TORSDOF 17
ENDMDL
MODEL 2
REMARK VINA RESULT:     -11.5      5.639      8.651
REMARK SMILES O=C(C[C@@H]1C(=O)NCC[N@@H+]1Cc1ccc(F)c(F)c1)NCCCCNC(=O)c1ccc(-c2c3nc(c(-c4cccc(S(=O)(=O)[O-])c4F)c4ccc([nH]4)c(-c4cccc(S(=O)(=O)[O-])c4F)c4nc(c(-c5cccc(S(=O)(=O)[O-])c5F)c5ccc2[nH]5)C=C4)C=C3)cc1
REMARK SMILES IDX 22 1 21 2 20 3 1 4 2 5 3 7 4 8 5 9 10 10 6 11 7 12 9 13 8 15
REMARK SMILES IDX 11 17 12 18 13 19 19 20 14 21 17 22 15 23 18 24 16 25 23 26
REMARK SMILES IDX 24 27 25 28 26 29 27 31 28 32 29 33 90 34 30 35 89 36 31 37
REMARK SMILES IDX 32 38 33 39 83 40 34 41 88 42 82 43 84 44 35 45 87 46 81 47
REMARK SMILES IDX 80 48 36 50 68 51 48 52 67 53 49 54 52 55 66 56 85 57 50 58
REMARK SMILES IDX 51 59 65 61 86 62 53 63 37 64 38 65 46 66 39 67 41 68 47 69
REMARK SMILES IDX 40 70 42 71 43 72 44 73 45 74 69 75 70 76 78 77 71 78 73 79
REMARK SMILES IDX 79 80 72 81 74 82 75 83 76 84 77 85 54 86 55 87 63 88 56 89
REMARK SMILES IDX 58 90 64 91 57 92 59 93 60 94 61 95 62 96
REMARK H PARENT 20 6 10 14 7 16 25 30 84 49 52 60
REMARK Flexibility Score: inf
ROOT
ATOM      1  C   UNL A   1      31.585  27.647  26.471  1.00  0.00     0.023 C 
ENDROOT
BRANCH   1   2
ATOM      2  C   UNL A   1      31.400  26.126  26.475  1.00  0.00     0.116 C 
BRANCH   2   3
ATOM      3  N   UNL A   1      32.620  25.385  26.225  1.00  0.00    -0.356 N 
ATOM      4  O   UNL A   1      31.885  23.458  27.238  1.00  0.00    -0.275 OA
ATOM      5  C   UNL A   1      32.708  24.039  26.538  1.00  0.00     0.226 C 
ATOM      6  H   UNL A   1      33.396  25.845  25.830  1.00  0.00     0.163 HD
BRANCH   5   7
ATOM      7  C   UNL A   1      33.879  23.324  25.904  1.00  0.00     0.175 C 
BRANCH   7   8
ATOM      8  C   UNL A   1      33.660  21.802  25.721  1.00  0.00     0.283 C 
ATOM      9  C   UNL A   1      35.023  21.075  25.578  1.00  0.00     0.279 C 
ATOM     10  N   UNL A   1      32.670  21.301  24.734  1.00  0.00    -0.319 N 
ATOM     11  O   UNL A   1      36.091  21.589  25.913  1.00  0.00    -0.268 OA
ATOM     12  N   UNL A   1      35.011  19.767  25.159  1.00  0.00    -0.345 N 
ATOM     13  C   UNL A   1      32.538  19.841  24.845  1.00  0.00     0.284 C 
ATOM     14  H   UNL A   1      31.817  21.771  25.033  1.00  0.00     0.349 HD
ATOM     15  C   UNL A   1      33.851  19.093  24.608  1.00  0.00     0.177 C 
ATOM     16  H   UNL A   1      35.846  19.253  25.237  1.00  0.00     0.163 HD
BRANCH  10  17
ATOM     17  C   UNL A   1      32.670  21.792  23.360  1.00  0.00     0.299 C 
BRANCH  17  18
ATOM     18  C   UNL A   1      32.243  23.207  23.052  1.00  0.00     0.009 A 
ATOM     19  C   UNL A   1      33.071  24.049  22.291  1.00  0.00     0.013 A 
ATOM     20  C   UNL A   1      30.987  23.695  23.438  1.00  0.00     0.052 A 
ATOM     21  C   UNL A   1      32.678  25.357  21.989  1.00  0.00     0.043 A 
ATOM     22  C   UNL A   1      30.603  24.999  23.145  1.00  0.00     0.159 A 
ATOM     23  C   UNL A   1      31.449  25.830  22.434  1.00  0.00     0.158 A 
ATOM     24  F   UNL A   1      29.400  25.426  23.553  1.00  0.00    -0.204 F 
ATOM     25  F   UNL A   1      31.090  27.091  22.173  1.00  0.00    -0.204 F 
ENDBRANCH  17  18
ENDBRANCH  10  17
ENDBRANCH   7   8
ENDBRANCH   5   7
ENDBRANCH   2   3
ENDBRANCH   1   2
BRANCH   1  26
ATOM     26  C   UNL A   1      32.117  28.274  25.174  1.00  0.00     0.023 C 
BRANCH  26  27
ATOM     27  C   UNL A   1      33.242  29.304  25.318  1.00  0.00     0.116 C 
BRANCH  27  28
ATOM     28  N   UNL A   1      32.785  30.575  25.851  1.00  0.00    -0.352 N 
ATOM     29  C   UNL A   1      33.239  31.331  26.906  1.00  0.00     0.251 C 
ATOM     30  H   UNL A   1      32.015  30.963  25.375  1.00  0.00     0.163 HD
ATOM     31  O   UNL A   1      32.593  32.321  27.240  1.00  0.00    -0.269 OA
BRANCH  29  32
ATOM     32  C   UNL A   1      34.468  30.979  27.663  1.00  0.00     0.039 A 
ATOM     33  C   UNL A   1      34.544  29.706  28.243  1.00  0.00     0.014 A 
ATOM     34  C   UNL A   1      35.507  31.889  27.880  1.00  0.00     0.014 A 
ATOM     35  C   UNL A   1      35.671  29.329  28.983  1.00  0.00     0.010 A 
ATOM     36  C   UNL A   1      36.658  31.491  28.571  1.00  0.00     0.010 A 
ATOM     37  C   UNL A   1      36.756  30.206  29.129  1.00  0.00    -0.014 A 
BRANCH  37  38
ATOM     38  C   UNL A   1      38.000  29.776  29.833  1.00  0.00     0.031 A 
ATOM     39  C   UNL A   1      38.363  30.334  31.185  1.00  0.00     0.074 A 
ATOM     40  C   UNL A   1      38.849  28.924  29.221  1.00  0.00     0.049 A 
ATOM     41  N   UNL A   1      39.426  30.104  31.915  1.00  0.00    -0.248 NA
ATOM     42  C   UNL A   1      37.421  31.290  31.788  1.00  0.00     0.031 C 
ATOM     43  C   UNL A   1      38.654  28.349  27.889  1.00  0.00     0.029 A 
ATOM     44  N   UNL A   1      40.058  28.410  29.627  1.00  0.00    -0.354 N 
ATOM     45  C   UNL A   1      39.300  30.908  33.043  1.00  0.00     0.074 A 
ATOM     46  C   UNL A   1      38.068  31.651  32.889  1.00  0.00     0.031 C 
ATOM     47  C   UNL A   1      39.699  27.563  27.590  1.00  0.00     0.029 A 
ATOM     48  C   UNL A   1      40.657  27.600  28.690  1.00  0.00     0.049 A 
ATOM     49  H   UNL A   1      40.456  28.603  30.507  1.00  0.00     0.167 HD
ATOM     50  C   UNL A   1      40.123  31.006  34.115  1.00  0.00     0.034 A 
ATOM     51  C   UNL A   1      41.848  26.967  28.703  1.00  0.00     0.034 A 
ATOM     52  C   UNL A   1      41.329  30.240  34.290  1.00  0.00     0.049 A 
ATOM     53  C   UNL A   1      42.733  27.082  29.916  1.00  0.00     0.074 A 
ATOM     54  C   UNL A   1      42.177  30.209  35.385  1.00  0.00     0.029 A 
ATOM     55  N   UNL A   1      41.871  29.382  33.346  1.00  0.00    -0.354 N 
ATOM     56  N   UNL A   1      42.520  27.731  31.034  1.00  0.00    -0.248 NA
ATOM     57  C   UNL A   1      44.007  26.349  29.881  1.00  0.00     0.031 C 
ATOM     58  C   UNL A   1      43.249  29.361  35.087  1.00  0.00     0.029 A 
ATOM     59  C   UNL A   1      43.049  28.832  33.823  1.00  0.00     0.049 A 
ATOM     60  H   UNL A   1      41.475  29.191  32.464  1.00  0.00     0.167 HD
ATOM     61  C   UNL A   1      43.612  27.452  31.850  1.00  0.00     0.074 A 
ATOM     62  C   UNL A   1      44.475  26.559  31.104  1.00  0.00     0.031 C 
ATOM     63  C   UNL A   1      43.879  27.904  33.100  1.00  0.00     0.034 A 
BRANCH  50  64
ATOM     64  C   UNL A   1      39.732  31.958  35.218  1.00  0.00     0.023 A 
ATOM     65  C   UNL A   1      40.166  33.298  35.173  1.00  0.00     0.012 A 
ATOM     66  C   UNL A   1      38.872  31.547  36.258  1.00  0.00     0.148 A 
ATOM     67  C   UNL A   1      39.782  34.205  36.161  1.00  0.00     0.002 A 
ATOM     68  C   UNL A   1      38.456  32.467  37.213  1.00  0.00     0.091 A 
ATOM     69  F   UNL A   1      38.482  30.265  36.294  1.00  0.00    -0.205 F 
ATOM     70  C   UNL A   1      38.919  33.793  37.173  1.00  0.00     0.022 A 
BRANCH  68  71
ATOM     71  S   UNL A   1      37.284  32.055  38.510  1.00  0.00     0.127 S 
ATOM     72  O   UNL A   1      36.177  32.960  38.206  1.00  0.00    -0.237 OA
ATOM     73  O   UNL A   1      37.011  30.643  38.240  1.00  0.00    -0.237 OA
ATOM     74  O   UNL A   1      37.971  32.311  39.769  1.00  0.00    -0.744 OA
ENDBRANCH  68  71
ENDBRANCH  50  64
BRANCH  51  75
ATOM     75  C   UNL A   1      42.258  26.121  27.547  1.00  0.00     0.023 A 
ATOM     76  C   UNL A   1      43.035  26.685  26.516  1.00  0.00     0.012 A 
ATOM     77  C   UNL A   1      41.891  24.764  27.466  1.00  0.00     0.148 A 
ATOM     78  C   UNL A   1      43.409  25.923  25.409  1.00  0.00     0.002 A 
ATOM     79  C   UNL A   1      42.316  23.996  26.389  1.00  0.00     0.091 A 
ATOM     80  F   UNL A   1      41.140  24.250  28.450  1.00  0.00    -0.205 F 
ATOM     81  C   UNL A   1      43.058  24.577  25.349  1.00  0.00     0.022 A 
BRANCH  79  82
ATOM     82  S   UNL A   1      42.022  22.226  26.291  1.00  0.00     0.127 S 
ATOM     83  O   UNL A   1      42.832  21.853  25.133  1.00  0.00    -0.237 OA
ATOM     84  O   UNL A   1      42.542  21.766  27.581  1.00  0.00    -0.237 OA
ATOM     85  O   UNL A   1      40.584  22.076  26.134  1.00  0.00    -0.744 OA
ENDBRANCH  79  82
ENDBRANCH  51  75
BRANCH  63  86
ATOM     86  C   UNL A   1      45.135  27.410  33.773  1.00  0.00     0.023 A 
ATOM     87  C   UNL A   1      46.331  28.147  33.666  1.00  0.00     0.012 A 
ATOM     88  C   UNL A   1      45.110  26.248  34.571  1.00  0.00     0.148 A 
ATOM     89  C   UNL A   1      47.490  27.717  34.312  1.00  0.00     0.002 A 
ATOM     90  C   UNL A   1      46.255  25.855  35.254  1.00  0.00     0.091 A 
ATOM     91  F   UNL A   1      43.968  25.550  34.647  1.00  0.00    -0.205 F 
ATOM     92  C   UNL A   1      47.449  26.579  35.114  1.00  0.00     0.022 A 
BRANCH  90  93
ATOM     93  S   UNL A   1      46.270  24.460  36.388  1.00  0.00     0.127 S 
ATOM     94  O   UNL A   1      45.135  24.770  37.256  1.00  0.00    -0.237 OA
ATOM     95  O   UNL A   1      46.057  23.327  35.486  1.00  0.00    -0.237 OA
ATOM     96  O   UNL A   1      47.574  24.481  37.035  1.00  0.00    -0.744 OA
ENDBRANCH  90  93
ENDBRANCH  63  86
ENDBRANCH  37  38
ENDBRANCH  29  32
ENDBRANCH  27  28
ENDBRANCH  26  27
ENDBRANCH   1  26
TORSDOF 17
ENDMDL
MODEL 3
REMARK VINA RESULT:     -11.4      6.396     11.370
REMARK SMILES O=C(C[C@@H]1C(=O)NCC[N@@H+]1Cc1ccc(F)c(F)c1)NCCCCNC(=O)c1ccc(-c2c3nc(c(-c4cccc(S(=O)(=O)[O-])c4F)c4ccc([nH]4)c(-c4cccc(S(=O)(=O)[O-])c4F)c4nc(c(-c5cccc(S(=O)(=O)[O-])c5F)c5ccc2[nH]5)C=C4)C=C3)cc1
REMARK SMILES IDX 22 1 21 2 20 3 1 4 2 5 3 7 4 8 5 9 10 10 6 11 7 12 9 13 8 15
REMARK SMILES IDX 11 17 12 18 13 19 19 20 14 21 17 22 15 23 18 24 16 25 23 26
REMARK SMILES IDX 24 27 25 28 26 29 27 31 28 32 29 33 90 34 30 35 89 36 31 37
REMARK SMILES IDX 32 38 33 39 83 40 34 41 88 42 82 43 84 44 35 45 87 46 81 47
REMARK SMILES IDX 80 48 36 50 68 51 48 52 67 53 49 54 52 55 66 56 85 57 50 58
REMARK SMILES IDX 51 59 65 61 86 62 53 63 37 64 38 65 46 66 39 67 41 68 47 69
REMARK SMILES IDX 40 70 42 71 43 72 44 73 45 74 69 75 70 76 78 77 71 78 73 79
REMARK SMILES IDX 79 80 72 81 74 82 75 83 76 84 77 85 54 86 55 87 63 88 56 89
REMARK SMILES IDX 58 90 64 91 57 92 59 93 60 94 61 95 62 96
REMARK H PARENT 20 6 10 14 7 16 25 30 84 49 52 60
REMARK Flexibility Score: inf
ROOT
ATOM      1  C   UNL A   1      31.385  30.795  25.629  1.00  0.00     0.023 C 
ENDROOT
BRANCH   1   2
ATOM      2  C   UNL A   1      32.380  29.715  26.063  1.00  0.00     0.116 C 
BRANCH   2   3
ATOM      3  N   UNL A   1      32.176  28.435  25.416  1.00  0.00    -0.356 N 
ATOM      4  O   UNL A   1      31.110  27.477  27.213  1.00  0.00    -0.275 OA
ATOM      5  C   UNL A   1      31.433  27.440  26.029  1.00  0.00     0.226 C 
ATOM      6  H   UNL A   1      32.572  28.270  24.529  1.00  0.00     0.163 HD
BRANCH   5   7
ATOM      7  C   UNL A   1      31.004  26.320  25.109  1.00  0.00     0.175 C 
BRANCH   7   8
ATOM      8  C   UNL A   1      31.876  26.187  23.836  1.00  0.00     0.283 C 
ATOM      9  C   UNL A   1      31.109  26.726  22.599  1.00  0.00     0.279 C 
ATOM     10  N   UNL A   1      32.568  24.908  23.533  1.00  0.00    -0.319 N 
ATOM     11  O   UNL A   1      30.121  27.455  22.693  1.00  0.00    -0.268 OA
ATOM     12  N   UNL A   1      31.627  26.455  21.357  1.00  0.00    -0.345 N 
ATOM     13  C   UNL A   1      33.441  25.071  22.361  1.00  0.00     0.284 C 
ATOM     14  H   UNL A   1      33.113  24.757  24.380  1.00  0.00     0.349 HD
ATOM     15  C   UNL A   1      32.692  25.505  21.101  1.00  0.00     0.177 C 
ATOM     16  H   UNL A   1      31.248  26.938  20.588  1.00  0.00     0.163 HD
BRANCH  10  17
ATOM     17  C   UNL A   1      31.844  23.642  23.560  1.00  0.00     0.299 C 
BRANCH  17  18
ATOM     18  C   UNL A   1      32.565  22.353  23.874  1.00  0.00     0.009 A 
ATOM     19  C   UNL A   1      33.689  22.354  24.717  1.00  0.00     0.013 A 
ATOM     20  C   UNL A   1      32.095  21.117  23.407  1.00  0.00     0.052 A 
ATOM     21  C   UNL A   1      34.355  21.163  25.024  1.00  0.00     0.043 A 
ATOM     22  C   UNL A   1      32.765  19.936  23.706  1.00  0.00     0.159 A 
ATOM     23  C   UNL A   1      33.897  19.960  24.501  1.00  0.00     0.158 A 
ATOM     24  F   UNL A   1      32.289  18.782  23.220  1.00  0.00    -0.204 F 
ATOM     25  F   UNL A   1      34.555  18.827  24.768  1.00  0.00    -0.204 F 
ENDBRANCH  17  18
ENDBRANCH  10  17
ENDBRANCH   7   8
ENDBRANCH   5   7
ENDBRANCH   2   3
ENDBRANCH   1   2
BRANCH   1  26
ATOM     26  C   UNL A   1      31.229  32.006  26.562  1.00  0.00     0.023 C 
BRANCH  26  27
ATOM     27  C   UNL A   1      32.502  32.515  27.247  1.00  0.00     0.116 C 
BRANCH  27  28
ATOM     28  N   UNL A   1      32.421  33.912  27.632  1.00  0.00    -0.352 N 
ATOM     29  C   UNL A   1      33.157  34.648  28.530  1.00  0.00     0.251 C 
ATOM     30  H   UNL A   1      31.716  34.422  27.170  1.00  0.00     0.163 HD
ATOM     31  O   UNL A   1      32.805  35.800  28.774  1.00  0.00    -0.269 OA
BRANCH  29  32
ATOM     32  C   UNL A   1      34.346  34.091  29.226  1.00  0.00     0.039 A 
ATOM     33  C   UNL A   1      34.132  33.276  30.345  1.00  0.00     0.014 A 
ATOM     34  C   UNL A   1      35.655  34.411  28.856  1.00  0.00     0.014 A 
ATOM     35  C   UNL A   1      35.217  32.740  31.050  1.00  0.00     0.010 A 
ATOM     36  C   UNL A   1      36.738  33.828  29.527  1.00  0.00     0.010 A 
ATOM     37  C   UNL A   1      36.533  32.984  30.630  1.00  0.00    -0.014 A 
BRANCH  37  38
ATOM     38  C   UNL A   1      37.690  32.338  31.317  1.00  0.00     0.031 A 
ATOM     39  C   UNL A   1      38.429  31.187  30.683  1.00  0.00     0.074 A 
ATOM     40  C   UNL A   1      38.041  32.746  32.555  1.00  0.00     0.049 A 
ATOM     41  N   UNL A   1      39.425  30.483  31.160  1.00  0.00    -0.248 NA
ATOM     42  C   UNL A   1      37.978  30.757  29.350  1.00  0.00     0.031 C 
ATOM     43  C   UNL A   1      37.379  33.809  33.312  1.00  0.00     0.029 A 
ATOM     44  N   UNL A   1      39.025  32.301  33.404  1.00  0.00    -0.354 N 
ATOM     45  C   UNL A   1      39.699  29.508  30.206  1.00  0.00     0.074 A 
ATOM     46  C   UNL A   1      38.746  29.697  29.133  1.00  0.00     0.031 C 
ATOM     47  C   UNL A   1      37.974  33.937  34.508  1.00  0.00     0.029 A 
ATOM     48  C   UNL A   1      39.039  32.944  34.620  1.00  0.00     0.049 A 
ATOM     49  H   UNL A   1      39.662  31.588  33.164  1.00  0.00     0.167 HD
ATOM     50  C   UNL A   1      40.663  28.556  30.213  1.00  0.00     0.034 A 
ATOM     51  C   UNL A   1      39.808  32.753  35.711  1.00  0.00     0.034 A 
ATOM     52  C   UNL A   1      41.637  28.390  31.261  1.00  0.00     0.049 A 
ATOM     53  C   UNL A   1      40.883  31.699  35.683  1.00  0.00     0.074 A 
ATOM     54  C   UNL A   1      42.706  27.510  31.309  1.00  0.00     0.029 A 
ATOM     55  N   UNL A   1      41.657  29.103  32.448  1.00  0.00    -0.354 N 
ATOM     56  N   UNL A   1      41.219  30.890  34.709  1.00  0.00    -0.248 NA
ATOM     57  C   UNL A   1      41.706  31.556  36.893  1.00  0.00     0.031 C 
ATOM     58  C   UNL A   1      43.349  27.667  32.541  1.00  0.00     0.029 A 
ATOM     59  C   UNL A   1      42.706  28.673  33.244  1.00  0.00     0.049 A 
ATOM     60  H   UNL A   1      41.019  29.814  32.691  1.00  0.00     0.167 HD
ATOM     61  C   UNL A   1      42.316  30.171  35.173  1.00  0.00     0.074 A 
ATOM     62  C   UNL A   1      42.600  30.655  36.508  1.00  0.00     0.031 C 
ATOM     63  C   UNL A   1      43.018  29.192  34.551  1.00  0.00     0.034 A 
BRANCH  50  64
ATOM     64  C   UNL A   1      40.745  27.627  29.027  1.00  0.00     0.023 A 
ATOM     65  C   UNL A   1      39.843  26.549  28.918  1.00  0.00     0.012 A 
ATOM     66  C   UNL A   1      41.663  27.866  27.984  1.00  0.00     0.148 A 
ATOM     67  C   UNL A   1      39.875  25.704  27.809  1.00  0.00     0.002 A 
ATOM     68  C   UNL A   1      41.658  27.048  26.860  1.00  0.00     0.091 A 
ATOM     69  F   UNL A   1      42.524  28.886  28.111  1.00  0.00    -0.205 F 
ATOM     70  C   UNL A   1      40.774  25.959  26.777  1.00  0.00     0.022 A 
BRANCH  68  71
ATOM     71  S   UNL A   1      42.722  27.340  25.443  1.00  0.00     0.127 S 
ATOM     72  O   UNL A   1      44.027  27.503  26.083  1.00  0.00    -0.237 OA
ATOM     73  O   UNL A   1      42.567  26.101  24.681  1.00  0.00    -0.237 OA
ATOM     74  O   UNL A   1      42.198  28.529  24.784  1.00  0.00    -0.744 OA
ENDBRANCH  68  71
ENDBRANCH  50  64
BRANCH  51  75
ATOM     75  C   UNL A   1      39.628  33.616  36.914  1.00  0.00     0.023 A 
ATOM     76  C   UNL A   1      40.148  34.925  36.912  1.00  0.00     0.012 A 
ATOM     77  C   UNL A   1      38.941  33.151  38.052  1.00  0.00     0.148 A 
ATOM     78  C   UNL A   1      40.017  35.744  38.034  1.00  0.00     0.002 A 
ATOM     79  C   UNL A   1      38.765  33.992  39.144  1.00  0.00     0.091 A 
ATOM     80  F   UNL A   1      38.467  31.898  38.038  1.00  0.00    -0.205 F 
ATOM     81  C   UNL A   1      39.318  35.281  39.146  1.00  0.00     0.022 A 
BRANCH  79  82
ATOM     82  S   UNL A   1      37.769  33.529  40.566  1.00  0.00     0.127 S 
ATOM     83  O   UNL A   1      38.586  32.479  41.171  1.00  0.00    -0.237 OA
ATOM     84  O   UNL A   1      37.722  34.784  41.319  1.00  0.00    -0.237 OA
ATOM     85  O   UNL A   1      36.489  33.103  40.025  1.00  0.00    -0.744 OA
ENDBRANCH  79  82
ENDBRANCH  51  75
BRANCH  63  86
ATOM     86  C   UNL A   1      44.196  28.598  35.281  1.00  0.00     0.023 A 
ATOM     87  C   UNL A   1      45.495  29.088  35.044  1.00  0.00     0.012 A 
ATOM     88  C   UNL A   1      44.003  27.598  36.257  1.00  0.00     0.148 A 
ATOM     89  C   UNL A   1      46.587  28.569  35.738  1.00  0.00     0.002 A 
ATOM     90  C   UNL A   1      45.090  27.124  36.983  1.00  0.00     0.091 A 
ATOM     91  F   UNL A   1      42.762  27.132  36.458  1.00  0.00    -0.205 F 
ATOM     92  C   UNL A   1      46.384  27.596  36.715  1.00  0.00     0.022 A 
BRANCH  90  93
ATOM     93  S   UNL A   1      44.910  25.945  38.327  1.00  0.00     0.127 S 
ATOM     94  O   UNL A   1      46.301  25.717  38.712  1.00  0.00    -0.237 OA
ATOM     95  O   UNL A   1      44.124  26.705  39.301  1.00  0.00    -0.237 OA
ATOM     96  O   UNL A   1      44.221  24.792  37.763  1.00  0.00    -0.744 OA
ENDBRANCH  90  93
ENDBRANCH  63  86
ENDBRANCH  37  38
ENDBRANCH  29  32
ENDBRANCH  27  28
ENDBRANCH  26  27
ENDBRANCH   1  26
TORSDOF 17
ENDMDL
