MODEL 1
REMARK VINA RESULT:     -12.4      0.000      0.000
REMARK SMILES CC(C)c1nc(COc2c(F)cc(C(=O)NCCCCNC(=O)c3ccc(-c4c5nc(c(-c6cccc(S(=O)(=O)[O-])c6F)c6ccc([nH]6)c(-c6cccc(S(=O)(=O)[O-])c6F)c6nc(c(-c7cccc(S(=O)(=O)[O-])c7F)c7ccc4[nH]7)C=C6)C=C5)cc3)cc2F)no1
REMARK SMILES IDX 18 1 17 2 16 3 14 4 15 5 13 7 9 8 10 9 88 10 11 11 12 12
REMARK SMILES IDX 87 13 89 14 8 15 7 16 6 17 4 18 5 19 91 20 90 21 2 22 1 23
REMARK SMILES IDX 3 24 19 25 20 26 21 27 22 28 23 30 24 31 25 32 86 33 26 34
REMARK SMILES IDX 85 35 27 36 28 37 29 38 79 39 30 40 84 41 78 42 80 43 31 44
REMARK SMILES IDX 83 45 77 46 76 47 32 49 64 50 44 51 63 52 45 53 48 54 62 55
REMARK SMILES IDX 81 56 46 57 47 58 61 60 82 61 49 62 33 63 34 64 42 65 35 66
REMARK SMILES IDX 37 67 43 68 36 69 38 70 39 71 40 72 41 73 65 74 66 75 74 76
REMARK SMILES IDX 67 77 69 78 75 79 68 80 70 81 71 82 72 83 73 84 50 85 51 86
REMARK SMILES IDX 59 87 52 88 54 89 60 90 53 91 55 92 56 93 57 94 58 95
REMARK H PARENT 16 6 21 29 80 48 48 59
REMARK Flexibility Score: inf
ROOT
ATOM      1  C   UNL A   1      35.261  22.382  26.319  1.00  0.00     0.023 C 
ENDROOT
BRANCH   1   2
ATOM      2  C   UNL A   1      34.147  21.853  27.225  1.00  0.00     0.116 C 
BRANCH   2   3
ATOM      3  N   UNL A   1      33.393  20.789  26.586  1.00  0.00    -0.352 N 
ATOM      4  C   UNL A   1      32.610  20.784  25.459  1.00  0.00     0.251 C 
ATOM      5  O   UNL A   1      32.194  19.708  25.032  1.00  0.00    -0.269 OA
ATOM      6  H   UNL A   1      33.455  19.918  27.041  1.00  0.00     0.163 HD
BRANCH   4   7
ATOM      7  C   UNL A   1      32.262  22.021  24.710  1.00  0.00     0.045 A 
ATOM      8  C   UNL A   1      31.663  24.297  23.173  1.00  0.00     0.191 A 
ATOM      9  C   UNL A   1      30.999  24.051  24.368  1.00  0.00     0.168 A 
ATOM     10  C   UNL A   1      32.582  23.361  22.714  1.00  0.00     0.168 A 
ATOM     11  F   UNL A   1      30.059  24.898  24.812  1.00  0.00    -0.203 F 
ATOM     12  C   UNL A   1      31.290  22.928  25.133  1.00  0.00     0.057 A 
ATOM     13  C   UNL A   1      32.887  22.229  23.470  1.00  0.00     0.057 A 
ATOM     14  F   UNL A   1      33.192  23.541  21.533  1.00  0.00    -0.203 F 
BRANCH   8  15
ATOM     15  O   UNL A   1      31.351  25.400  22.423  1.00  0.00    -0.479 OA
BRANCH  15  16
ATOM     16  C   UNL A   1      31.992  26.585  22.945  1.00  0.00     0.310 C 
BRANCH  16  17
ATOM     17  C   UNL A   1      31.073  27.744  23.135  1.00  0.00     0.209 A 
ATOM     18  C   UNL A   1      29.514  29.096  22.779  1.00  0.00     0.229 A 
ATOM     19  N   UNL A   1      29.958  27.934  22.351  1.00  0.00    -0.192 NA
ATOM     20  O   UNL A   1      30.264  29.619  23.795  1.00  0.00    -0.339 OA
ATOM     21  N   UNL A   1      31.291  28.706  24.044  1.00  0.00    -0.059 NA
BRANCH  18  22
ATOM     22  C   UNL A   1      28.351  29.909  22.322  1.00  0.00     0.073 C 
ATOM     23  C   UNL A   1      27.704  30.657  23.488  1.00  0.00     0.018 C 
ATOM     24  C   UNL A   1      28.776  30.892  21.231  1.00  0.00     0.018 C 
ENDBRANCH  18  22
ENDBRANCH  16  17
ENDBRANCH  15  16
ENDBRANCH   8  15
ENDBRANCH   4   7
ENDBRANCH   2   3
ENDBRANCH   1   2
BRANCH   1  25
ATOM     25  C   UNL A   1      36.131  21.312  25.660  1.00  0.00     0.023 C 
BRANCH  25  26
ATOM     26  C   UNL A   1      37.553  21.741  25.324  1.00  0.00     0.116 C 
BRANCH  26  27
ATOM     27  N   UNL A   1      38.562  20.755  25.684  1.00  0.00    -0.352 N 
ATOM     28  C   UNL A   1      39.756  20.958  26.338  1.00  0.00     0.251 C 
ATOM     29  H   UNL A   1      38.365  19.825  25.427  1.00  0.00     0.163 HD
ATOM     30  O   UNL A   1      40.540  20.030  26.496  1.00  0.00    -0.269 OA
BRANCH  28  31
ATOM     31  C   UNL A   1      40.096  22.318  26.806  1.00  0.00     0.039 A 
ATOM     32  C   UNL A   1      41.081  22.468  27.787  1.00  0.00     0.014 A 
ATOM     33  C   UNL A   1      39.486  23.439  26.240  1.00  0.00     0.014 A 
ATOM     34  C   UNL A   1      41.508  23.749  28.144  1.00  0.00     0.010 A 
ATOM     35  C   UNL A   1      39.960  24.710  26.548  1.00  0.00     0.010 A 
ATOM     36  C   UNL A   1      40.978  24.877  27.499  1.00  0.00    -0.014 A 
BRANCH  36  37
ATOM     37  C   UNL A   1      41.488  26.242  27.780  1.00  0.00     0.031 A 
ATOM     38  C   UNL A   1      42.911  26.599  27.452  1.00  0.00     0.074 A 
ATOM     39  C   UNL A   1      40.707  27.120  28.440  1.00  0.00     0.049 A 
ATOM     40  N   UNL A   1      43.560  27.708  27.699  1.00  0.00    -0.248 NA
ATOM     41  C   UNL A   1      43.722  25.564  26.790  1.00  0.00     0.031 C 
ATOM     42  C   UNL A   1      39.342  26.857  28.902  1.00  0.00     0.029 A 
ATOM     43  N   UNL A   1      40.962  28.397  28.873  1.00  0.00    -0.354 N 
ATOM     44  C   UNL A   1      44.862  27.489  27.267  1.00  0.00     0.074 A 
ATOM     45  C   UNL A   1      44.919  26.132  26.766  1.00  0.00     0.031 C 
ATOM     46  C   UNL A   1      38.884  27.934  29.559  1.00  0.00     0.029 A 
ATOM     47  C   UNL A   1      39.927  28.956  29.585  1.00  0.00     0.049 A 
ATOM     48  H   UNL A   1      41.807  28.869  28.691  1.00  0.00     0.167 HD
ATOM     49  C   UNL A   1      45.908  28.348  27.260  1.00  0.00     0.034 A 
ATOM     50  C   UNL A   1      39.828  30.155  30.194  1.00  0.00     0.034 A 
ATOM     51  C   UNL A   1      45.830  29.714  27.699  1.00  0.00     0.049 A 
ATOM     52  C   UNL A   1      40.978  31.119  30.100  1.00  0.00     0.074 A 
ATOM     53  C   UNL A   1      46.797  30.700  27.616  1.00  0.00     0.029 A 
ATOM     54  N   UNL A   1      44.723  30.288  28.303  1.00  0.00    -0.354 N 
ATOM     55  N   UNL A   1      42.140  30.960  29.516  1.00  0.00    -0.248 NA
ATOM     56  C   UNL A   1      40.790  32.443  30.712  1.00  0.00     0.031 C 
ATOM     57  C   UNL A   1      46.277  31.869  28.184  1.00  0.00     0.029 A 
ATOM     58  C   UNL A   1      44.983  31.612  28.608  1.00  0.00     0.049 A 
ATOM     59  H   UNL A   1      43.876  29.822  28.488  1.00  0.00     0.167 HD
ATOM     60  C   UNL A   1      42.810  32.169  29.662  1.00  0.00     0.074 A 
ATOM     61  C   UNL A   1      41.915  33.060  30.372  1.00  0.00     0.031 C 
ATOM     62  C   UNL A   1      44.061  32.505  29.261  1.00  0.00     0.034 A 
BRANCH  49  63
ATOM     63  C   UNL A   1      47.214  27.853  26.696  1.00  0.00     0.023 A 
ATOM     64  C   UNL A   1      48.198  27.352  27.571  1.00  0.00     0.012 A 
ATOM     65  C   UNL A   1      47.446  27.832  25.308  1.00  0.00     0.148 A 
ATOM     66  C   UNL A   1      49.409  26.871  27.077  1.00  0.00     0.002 A 
ATOM     67  C   UNL A   1      48.640  27.312  24.819  1.00  0.00     0.091 A 
ATOM     68  F   UNL A   1      46.509  28.336  24.491  1.00  0.00    -0.205 F 
ATOM     69  C   UNL A   1      49.626  26.841  25.702  1.00  0.00     0.022 A 
BRANCH  67  70
ATOM     70  S   UNL A   1      48.979  27.166  23.061  1.00  0.00     0.127 S 
ATOM     71  O   UNL A   1      50.434  27.039  23.050  1.00  0.00    -0.237 OA
ATOM     72  O   UNL A   1      48.258  25.942  22.706  1.00  0.00    -0.237 OA
ATOM     73  O   UNL A   1      48.445  28.377  22.452  1.00  0.00    -0.744 OA
ENDBRANCH  67  70
ENDBRANCH  49  63
BRANCH  50  74
ATOM     74  C   UNL A   1      38.559  30.533  30.877  1.00  0.00     0.023 A 
ATOM     75  C   UNL A   1      38.390  30.212  32.238  1.00  0.00     0.012 A 
ATOM     76  C   UNL A   1      37.547  31.247  30.208  1.00  0.00     0.148 A 
ATOM     77  C   UNL A   1      37.223  30.573  32.914  1.00  0.00     0.002 A 
ATOM     78  C   UNL A   1      36.411  31.650  30.902  1.00  0.00     0.091 A 
ATOM     79  F   UNL A   1      37.721  31.532  28.910  1.00  0.00    -0.205 F 
ATOM     80  C   UNL A   1      36.240  31.302  32.250  1.00  0.00     0.022 A 
BRANCH  78  81
ATOM     81  S   UNL A   1      35.160  32.707  30.162  1.00  0.00     0.127 S 
ATOM     82  O   UNL A   1      34.657  31.864  29.081  1.00  0.00    -0.237 OA
ATOM     83  O   UNL A   1      34.230  32.904  31.275  1.00  0.00    -0.237 OA
ATOM     84  O   UNL A   1      35.864  33.915  29.753  1.00  0.00    -0.744 OA
ENDBRANCH  78  81
ENDBRANCH  50  74
BRANCH  62  85
ATOM     85  C   UNL A   1      44.539  33.902  29.555  1.00  0.00     0.023 A 
ATOM     86  C   UNL A   1      45.188  34.172  30.776  1.00  0.00     0.012 A 
ATOM     87  C   UNL A   1      44.428  34.921  28.589  1.00  0.00     0.148 A 
ATOM     88  C   UNL A   1      45.699  35.442  31.040  1.00  0.00     0.002 A 
ATOM     89  C   UNL A   1      44.979  36.173  28.842  1.00  0.00     0.091 A 
ATOM     90  F   UNL A   1      43.788  34.650  27.442  1.00  0.00    -0.205 F 
ATOM     91  C   UNL A   1      45.606  36.437  30.069  1.00  0.00     0.022 A 
BRANCH  89  92
ATOM     92  S   UNL A   1      44.986  37.482  27.611  1.00  0.00     0.127 S 
ATOM     93  O   UNL A   1      43.558  37.663  27.360  1.00  0.00    -0.237 OA
ATOM     94  O   UNL A   1      45.623  38.585  28.332  1.00  0.00    -0.237 OA
ATOM     95  O   UNL A   1      45.761  36.970  26.489  1.00  0.00    -0.744 OA
ENDBRANCH  89  92
ENDBRANCH  62  85
ENDBRANCH  36  37
ENDBRANCH  28  31
ENDBRANCH  26  27
ENDBRANCH  25  26
ENDBRANCH   1  25
TORSDOF 18
ENDMDL
MODEL 2
REMARK VINA RESULT:     -12.3      4.953     10.217
REMARK SMILES CC(C)c1nc(COc2c(F)cc(C(=O)NCCCCNC(=O)c3ccc(-c4c5nc(c(-c6cccc(S(=O)(=O)[O-])c6F)c6ccc([nH]6)c(-c6cccc(S(=O)(=O)[O-])c6F)c6nc(c(-c7cccc(S(=O)(=O)[O-])c7F)c7ccc4[nH]7)C=C6)C=C5)cc3)cc2F)no1
REMARK SMILES IDX 18 1 17 2 16 3 14 4 15 5 13 7 9 8 10 9 88 10 11 11 12 12
REMARK SMILES IDX 87 13 89 14 8 15 7 16 6 17 4 18 5 19 91 20 90 21 2 22 1 23
REMARK SMILES IDX 3 24 19 25 20 26 21 27 22 28 23 30 24 31 25 32 86 33 26 34
REMARK SMILES IDX 85 35 27 36 28 37 29 38 79 39 30 40 84 41 78 42 80 43 31 44
REMARK SMILES IDX 83 45 77 46 76 47 32 49 64 50 44 51 63 52 45 53 48 54 62 55
REMARK SMILES IDX 81 56 46 57 47 58 61 60 82 61 49 62 33 63 34 64 42 65 35 66
REMARK SMILES IDX 37 67 43 68 36 69 38 70 39 71 40 72 41 73 65 74 66 75 74 76
REMARK SMILES IDX 67 77 69 78 75 79 68 80 70 81 71 82 72 83 73 84 50 85 51 86
REMARK SMILES IDX 59 87 52 88 54 89 60 90 53 91 55 92 56 93 57 94 58 95
REMARK H PARENT 16 6 21 29 80 48 48 59
REMARK Flexibility Score: inf
ROOT
ATOM      1  C   UNL A   1      31.909  29.223  25.094  1.00  0.00     0.023 C 
ENDROOT
BRANCH   1   2
ATOM      2  C   UNL A   1      31.599  28.709  23.686  1.00  0.00     0.116 C 
BRANCH   2   3
ATOM      3  N   UNL A   1      30.246  28.193  23.587  1.00  0.00    -0.352 N 
ATOM      4  C   UNL A   1      29.730  26.946  23.839  1.00  0.00     0.251 C 
ATOM      5  O   UNL A   1      28.509  26.797  23.826  1.00  0.00    -0.269 OA
ATOM      6  H   UNL A   1      29.581  28.854  23.287  1.00  0.00     0.163 HD
BRANCH   4   7
ATOM      7  C   UNL A   1      30.581  25.768  24.157  1.00  0.00     0.045 A 
ATOM      8  C   UNL A   1      32.134  23.544  24.895  1.00  0.00     0.191 A 
ATOM      9  C   UNL A   1      31.866  23.813  23.558  1.00  0.00     0.168 A 
ATOM     10  C   UNL A   1      31.562  24.357  25.867  1.00  0.00     0.168 A 
ATOM     11  F   UNL A   1      32.344  23.013  22.594  1.00  0.00    -0.203 F 
ATOM     12  C   UNL A   1      31.098  24.910  23.187  1.00  0.00     0.057 A 
ATOM     13  C   UNL A   1      30.792  25.463  25.511  1.00  0.00     0.057 A 
ATOM     14  F   UNL A   1      31.753  24.085  27.166  1.00  0.00    -0.203 F 
BRANCH   8  15
ATOM     15  O   UNL A   1      32.876  22.448  25.244  1.00  0.00    -0.479 OA
BRANCH  15  16
ATOM     16  C   UNL A   1      32.071  21.249  25.240  1.00  0.00     0.310 C 
BRANCH  16  17
ATOM     17  C   UNL A   1      32.833  20.001  24.943  1.00  0.00     0.209 A 
ATOM     18  C   UNL A   1      33.280  17.961  24.788  1.00  0.00     0.229 A 
ATOM     19  N   UNL A   1      32.255  18.754  25.014  1.00  0.00    -0.192 NA
ATOM     20  O   UNL A   1      34.444  18.639  24.553  1.00  0.00    -0.339 OA
ATOM     21  N   UNL A   1      34.139  19.999  24.637  1.00  0.00    -0.059 NA
BRANCH  18  22
ATOM     22  C   UNL A   1      33.359  16.473  24.762  1.00  0.00     0.073 C 
ATOM     23  C   UNL A   1      34.791  15.988  24.986  1.00  0.00     0.018 C 
ATOM     24  C   UNL A   1      32.423  15.867  25.808  1.00  0.00     0.018 C 
ENDBRANCH  18  22
ENDBRANCH  16  17
ENDBRANCH  15  16
ENDBRANCH   8  15
ENDBRANCH   4   7
ENDBRANCH   2   3
ENDBRANCH   1   2
BRANCH   1  25
ATOM     25  C   UNL A   1      33.228  28.734  25.692  1.00  0.00     0.023 C 
BRANCH  25  26
ATOM     26  C   UNL A   1      33.417  29.016  27.177  1.00  0.00     0.116 C 
BRANCH  26  27
ATOM     27  N   UNL A   1      33.500  30.434  27.496  1.00  0.00    -0.352 N 
ATOM     28  C   UNL A   1      34.533  31.111  28.106  1.00  0.00     0.251 C 
ATOM     29  H   UNL A   1      32.719  30.979  27.245  1.00  0.00     0.163 HD
ATOM     30  O   UNL A   1      34.416  32.298  28.381  1.00  0.00    -0.269 OA
BRANCH  28  31
ATOM     31  C   UNL A   1      35.763  30.373  28.462  1.00  0.00     0.039 A 
ATOM     32  C   UNL A   1      36.859  30.431  27.595  1.00  0.00     0.014 A 
ATOM     33  C   UNL A   1      35.852  29.676  29.669  1.00  0.00     0.014 A 
ATOM     34  C   UNL A   1      38.071  29.852  27.978  1.00  0.00     0.010 A 
ATOM     35  C   UNL A   1      37.077  29.160  30.077  1.00  0.00     0.010 A 
ATOM     36  C   UNL A   1      38.199  29.246  29.238  1.00  0.00    -0.014 A 
BRANCH  36  37
ATOM     37  C   UNL A   1      39.501  28.719  29.716  1.00  0.00     0.031 A 
ATOM     38  C   UNL A   1      40.250  29.430  30.807  1.00  0.00     0.074 A 
ATOM     39  C   UNL A   1      40.065  27.670  29.083  1.00  0.00     0.049 A 
ATOM     40  N   UNL A   1      41.435  29.172  31.297  1.00  0.00    -0.248 NA
ATOM     41  C   UNL A   1      39.598  30.607  31.404  1.00  0.00     0.031 C 
ATOM     42  C   UNL A   1      39.483  26.957  27.944  1.00  0.00     0.029 A 
ATOM     43  N   UNL A   1      41.271  27.047  29.283  1.00  0.00    -0.354 N 
ATOM     44  C   UNL A   1      41.689  30.176  32.223  1.00  0.00     0.074 A 
ATOM     45  C   UNL A   1      40.547  31.064  32.209  1.00  0.00     0.031 C 
ATOM     46  C   UNL A   1      40.335  26.001  27.541  1.00  0.00     0.029 A 
ATOM     47  C   UNL A   1      41.531  26.045  28.377  1.00  0.00     0.049 A 
ATOM     48  H   UNL A   1      41.892  27.293  30.006  1.00  0.00     0.167 HD
ATOM     49  C   UNL A   1      42.763  30.328  33.034  1.00  0.00     0.034 A 
ATOM     50  C   UNL A   1      42.613  25.253  28.232  1.00  0.00     0.034 A 
ATOM     51  C   UNL A   1      43.865  29.409  33.091  1.00  0.00     0.049 A 
ATOM     52  C   UNL A   1      43.756  25.393  29.199  1.00  0.00     0.074 A 
ATOM     53  C   UNL A   1      44.939  29.406  33.964  1.00  0.00     0.029 A 
ATOM     54  N   UNL A   1      44.038  28.328  32.241  1.00  0.00    -0.354 N 
ATOM     55  N   UNL A   1      43.893  26.232  30.197  1.00  0.00    -0.248 NA
ATOM     56  C   UNL A   1      44.877  24.452  29.049  1.00  0.00     0.031 C 
ATOM     57  C   UNL A   1      45.768  28.329  33.632  1.00  0.00     0.029 A 
ATOM     58  C   UNL A   1      45.204  27.655  32.560  1.00  0.00     0.049 A 
ATOM     59  H   UNL A   1      43.421  28.076  31.516  1.00  0.00     0.167 HD
ATOM     60  C   UNL A   1      45.095  25.903  30.811  1.00  0.00     0.074 A 
ATOM     61  C   UNL A   1      45.639  24.773  30.085  1.00  0.00     0.031 C 
ATOM     62  C   UNL A   1      45.703  26.495  31.868  1.00  0.00     0.034 A 
BRANCH  49  63
ATOM     63  C   UNL A   1      42.763  31.503  33.977  1.00  0.00     0.023 A 
ATOM     64  C   UNL A   1      43.319  32.727  33.555  1.00  0.00     0.012 A 
ATOM     65  C   UNL A   1      42.171  31.414  35.251  1.00  0.00     0.148 A 
ATOM     66  C   UNL A   1      43.318  33.836  34.399  1.00  0.00     0.002 A 
ATOM     67  C   UNL A   1      42.137  32.536  36.072  1.00  0.00     0.091 A 
ATOM     68  F   UNL A   1      41.669  30.234  35.646  1.00  0.00    -0.205 F 
ATOM     69  C   UNL A   1      42.718  33.744  35.652  1.00  0.00     0.022 A 
BRANCH  67  70
ATOM     70  S   UNL A   1      41.322  32.533  37.673  1.00  0.00     0.127 S 
ATOM     71  O   UNL A   1      42.137  31.576  38.418  1.00  0.00    -0.237 OA
ATOM     72  O   UNL A   1      41.474  33.925  38.102  1.00  0.00    -0.237 OA
ATOM     73  O   UNL A   1      39.946  32.129  37.418  1.00  0.00    -0.744 OA
ENDBRANCH  67  70
ENDBRANCH  49  63
BRANCH  50  74
ATOM     74  C   UNL A   1      42.623  24.205  27.174  1.00  0.00     0.023 A 
ATOM     75  C   UNL A   1      43.303  24.454  25.966  1.00  0.00     0.012 A 
ATOM     76  C   UNL A   1      42.011  22.951  27.372  1.00  0.00     0.148 A 
ATOM     77  C   UNL A   1      43.352  23.484  24.963  1.00  0.00     0.002 A 
ATOM     78  C   UNL A   1      42.110  21.971  26.391  1.00  0.00     0.091 A 
ATOM     79  F   UNL A   1      41.358  22.738  28.523  1.00  0.00    -0.205 F 
ATOM     80  C   UNL A   1      42.766  22.240  25.181  1.00  0.00     0.022 A 
BRANCH  78  81
ATOM     81  S   UNL A   1      41.503  20.298  26.642  1.00  0.00     0.127 S 
ATOM     82  O   UNL A   1      41.869  19.655  25.384  1.00  0.00    -0.237 OA
ATOM     83  O   UNL A   1      42.278  19.865  27.806  1.00  0.00    -0.237 OA
ATOM     84  O   UNL A   1      40.075  20.437  26.896  1.00  0.00    -0.744 OA
ENDBRANCH  78  81
ENDBRANCH  50  74
BRANCH  62  85
ATOM     85  C   UNL A   1      47.018  25.926  32.330  1.00  0.00     0.023 A 
ATOM     86  C   UNL A   1      48.215  26.366  31.732  1.00  0.00     0.012 A 
ATOM     87  C   UNL A   1      47.075  25.026  33.413  1.00  0.00     0.148 A 
ATOM     88  C   UNL A   1      49.448  25.903  32.189  1.00  0.00     0.002 A 
ATOM     89  C   UNL A   1      48.309  24.603  33.892  1.00  0.00     0.091 A 
ATOM     90  F   UNL A   1      45.923  24.603  33.955  1.00  0.00    -0.205 F 
ATOM     91  C   UNL A   1      49.495  25.033  33.276  1.00  0.00     0.022 A 
BRANCH  89  92
ATOM     92  S   UNL A   1      48.465  23.557  35.345  1.00  0.00     0.127 S 
ATOM     93  O   UNL A   1      47.840  22.317  34.889  1.00  0.00    -0.237 OA
ATOM     94  O   UNL A   1      49.915  23.481  35.521  1.00  0.00    -0.237 OA
ATOM     95  O   UNL A   1      47.765  24.256  36.415  1.00  0.00    -0.744 OA
ENDBRANCH  89  92
ENDBRANCH  62  85
ENDBRANCH  36  37
ENDBRANCH  28  31
ENDBRANCH  26  27
ENDBRANCH  25  26
ENDBRANCH   1  25
TORSDOF 18
ENDMDL
MODEL 3
REMARK VINA RESULT:     -12.1      1.743      7.736
REMARK SMILES CC(C)c1nc(COc2c(F)cc(C(=O)NCCCCNC(=O)c3ccc(-c4c5nc(c(-c6cccc(S(=O)(=O)[O-])c6F)c6ccc([nH]6)c(-c6cccc(S(=O)(=O)[O-])c6F)c6nc(c(-c7cccc(S(=O)(=O)[O-])c7F)c7ccc4[nH]7)C=C6)C=C5)cc3)cc2F)no1
REMARK SMILES IDX 18 1 17 2 16 3 14 4 15 5 13 7 9 8 10 9 88 10 11 11 12 12
REMARK SMILES IDX 87 13 89 14 8 15 7 16 6 17 4 18 5 19 91 20 90 21 2 22 1 23
REMARK SMILES IDX 3 24 19 25 20 26 21 27 22 28 23 30 24 31 25 32 86 33 26 34
REMARK SMILES IDX 85 35 27 36 28 37 29 38 79 39 30 40 84 41 78 42 80 43 31 44
REMARK SMILES IDX 83 45 77 46 76 47 32 49 64 50 44 51 63 52 45 53 48 54 62 55
REMARK SMILES IDX 81 56 46 57 47 58 61 60 82 61 49 62 33 63 34 64 42 65 35 66
REMARK SMILES IDX 37 67 43 68 36 69 38 70 39 71 40 72 41 73 65 74 66 75 74 76
REMARK SMILES IDX 67 77 69 78 75 79 68 80 70 81 71 82 72 83 73 84 50 85 51 86
REMARK SMILES IDX 59 87 52 88 54 89 60 90 53 91 55 92 56 93 57 94 58 95
REMARK H PARENT 16 6 21 29 80 48 48 59
REMARK Flexibility Score: inf
ROOT
ATOM      1  C   UNL A   1      37.397  21.782  24.357  1.00  0.00     0.023 C 
ENDROOT
BRANCH   1   2
ATOM      2  C   UNL A   1      35.919  21.832  23.962  1.00  0.00     0.116 C 
BRANCH   2   3
ATOM      3  N   UNL A   1      35.049  21.615  25.104  1.00  0.00    -0.352 N 
ATOM      4  C   UNL A   1      34.028  22.372  25.623  1.00  0.00     0.251 C 
ATOM      5  O   UNL A   1      33.333  21.895  26.517  1.00  0.00    -0.269 OA
ATOM      6  H   UNL A   1      35.220  20.777  25.591  1.00  0.00     0.163 HD
BRANCH   4   7
ATOM      7  C   UNL A   1      33.705  23.738  25.131  1.00  0.00     0.045 A 
ATOM      8  C   UNL A   1      32.983  26.261  24.122  1.00  0.00     0.191 A 
ATOM      9  C   UNL A   1      33.730  26.148  25.289  1.00  0.00     0.168 A 
ATOM     10  C   UNL A   1      32.539  25.101  23.499  1.00  0.00     0.168 A 
ATOM     11  F   UNL A   1      34.121  27.244  25.956  1.00  0.00    -0.203 F 
ATOM     12  C   UNL A   1      34.089  24.905  25.793  1.00  0.00     0.057 A 
ATOM     13  C   UNL A   1      32.893  23.845  23.991  1.00  0.00     0.057 A 
ATOM     14  F   UNL A   1      31.764  25.180  22.407  1.00  0.00    -0.203 F 
BRANCH   8  15
ATOM     15  O   UNL A   1      32.622  27.495  23.650  1.00  0.00    -0.479 OA
BRANCH  15  16
ATOM     16  C   UNL A   1      31.344  27.905  24.184  1.00  0.00     0.310 C 
BRANCH  16  17
ATOM     17  C   UNL A   1      30.568  28.810  23.288  1.00  0.00     0.209 A 
ATOM     18  C   UNL A   1      29.379  30.420  22.671  1.00  0.00     0.229 A 
ATOM     19  N   UNL A   1      30.064  30.015  23.719  1.00  0.00    -0.192 NA
ATOM     20  O   UNL A   1      29.454  29.558  21.613  1.00  0.00    -0.339 OA
ATOM     21  N   UNL A   1      30.263  28.495  22.020  1.00  0.00    -0.059 NA
BRANCH  18  22
ATOM     22  C   UNL A   1      28.548  31.642  22.477  1.00  0.00     0.073 C 
ATOM     23  C   UNL A   1      28.020  31.734  21.045  1.00  0.00     0.018 C 
ATOM     24  C   UNL A   1      27.388  31.667  23.473  1.00  0.00     0.018 C 
ENDBRANCH  18  22
ENDBRANCH  16  17
ENDBRANCH  15  16
ENDBRANCH   8  15
ENDBRANCH   4   7
ENDBRANCH   2   3
ENDBRANCH   1   2
BRANCH   1  25
ATOM     25  C   UNL A   1      37.856  20.475  25.002  1.00  0.00     0.023 C 
BRANCH  25  26
ATOM     26  C   UNL A   1      38.986  20.608  26.015  1.00  0.00     0.116 C 
BRANCH  26  27
ATOM     27  N   UNL A   1      39.932  19.501  25.986  1.00  0.00    -0.352 N 
ATOM     28  C   UNL A   1      41.299  19.545  26.137  1.00  0.00     0.251 C 
ATOM     29  H   UNL A   1      39.544  18.608  25.838  1.00  0.00     0.163 HD
ATOM     30  O   UNL A   1      41.969  18.528  26.004  1.00  0.00    -0.269 OA
BRANCH  28  31
ATOM     31  C   UNL A   1      41.949  20.843  26.417  1.00  0.00     0.039 A 
ATOM     32  C   UNL A   1      42.177  21.726  25.358  1.00  0.00     0.014 A 
ATOM     33  C   UNL A   1      42.279  21.206  27.725  1.00  0.00     0.014 A 
ATOM     34  C   UNL A   1      42.667  23.007  25.623  1.00  0.00     0.010 A 
ATOM     35  C   UNL A   1      42.702  22.504  27.992  1.00  0.00     0.010 A 
ATOM     36  C   UNL A   1      42.896  23.418  26.945  1.00  0.00    -0.014 A 
BRANCH  36  37
ATOM     37  C   UNL A   1      43.312  24.806  27.266  1.00  0.00     0.031 A 
ATOM     38  C   UNL A   1      42.341  25.758  27.906  1.00  0.00     0.074 A 
ATOM     39  C   UNL A   1      44.524  25.244  26.868  1.00  0.00     0.049 A 
ATOM     40  N   UNL A   1      42.491  27.027  28.182  1.00  0.00    -0.248 NA
ATOM     41  C   UNL A   1      41.013  25.222  28.251  1.00  0.00     0.031 C 
ATOM     42  C   UNL A   1      45.517  24.445  26.148  1.00  0.00     0.029 A 
ATOM     43  N   UNL A   1      45.110  26.480  26.979  1.00  0.00    -0.354 N 
ATOM     44  C   UNL A   1      41.270  27.452  28.689  1.00  0.00     0.074 A 
ATOM     45  C   UNL A   1      40.378  26.312  28.658  1.00  0.00     0.031 C 
ATOM     46  C   UNL A   1      46.584  25.212  25.874  1.00  0.00     0.029 A 
ATOM     47  C   UNL A   1      46.345  26.561  26.380  1.00  0.00     0.049 A 
ATOM     48  H   UNL A   1      44.686  27.238  27.443  1.00  0.00     0.167 HD
ATOM     49  C   UNL A   1      40.929  28.673  29.165  1.00  0.00     0.034 A 
ATOM     50  C   UNL A   1      47.189  27.603  26.247  1.00  0.00     0.034 A 
ATOM     51  C   UNL A   1      41.836  29.784  29.254  1.00  0.00     0.049 A 
ATOM     52  C   UNL A   1      46.817  28.927  26.857  1.00  0.00     0.074 A 
ATOM     53  C   UNL A   1      41.625  31.022  29.834  1.00  0.00     0.029 A 
ATOM     54  N   UNL A   1      43.126  29.794  28.749  1.00  0.00    -0.354 N 
ATOM     55  N   UNL A   1      45.726  29.258  27.505  1.00  0.00    -0.248 NA
ATOM     56  C   UNL A   1      47.806  30.011  26.756  1.00  0.00     0.031 C 
ATOM     57  C   UNL A   1      42.786  31.786  29.668  1.00  0.00     0.029 A 
ATOM     58  C   UNL A   1      43.723  31.018  28.994  1.00  0.00     0.049 A 
ATOM     59  H   UNL A   1      43.556  29.040  28.283  1.00  0.00     0.167 HD
ATOM     60  C   UNL A   1      45.908  30.573  27.914  1.00  0.00     0.074 A 
ATOM     61  C   UNL A   1      47.224  30.973  27.459  1.00  0.00     0.031 C 
ATOM     62  C   UNL A   1      45.056  31.383  28.589  1.00  0.00     0.034 A 
BRANCH  49  63
ATOM     63  C   UNL A   1      39.529  28.850  29.692  1.00  0.00     0.023 A 
ATOM     64  C   UNL A   1      39.222  28.417  30.997  1.00  0.00     0.012 A 
ATOM     65  C   UNL A   1      38.538  29.488  28.923  1.00  0.00     0.148 A 
ATOM     66  C   UNL A   1      37.940  28.583  31.518  1.00  0.00     0.002 A 
ATOM     67  C   UNL A   1      37.272  29.687  29.464  1.00  0.00     0.091 A 
ATOM     68  F   UNL A   1      38.840  29.870  27.673  1.00  0.00    -0.205 F 
ATOM     69  C   UNL A   1      36.969  29.227  30.756  1.00  0.00     0.022 A 
BRANCH  67  70
ATOM     70  S   UNL A   1      35.977  30.570  28.585  1.00  0.00     0.127 S 
ATOM     71  O   UNL A   1      35.410  29.512  27.752  1.00  0.00    -0.237 OA
ATOM     72  O   UNL A   1      35.110  31.017  29.676  1.00  0.00    -0.237 OA
ATOM     73  O   UNL A   1      36.647  31.647  27.870  1.00  0.00    -0.744 OA
ENDBRANCH  67  70
ENDBRANCH  49  63
BRANCH  50  74
ATOM     74  C   UNL A   1      48.503  27.408  25.574  1.00  0.00     0.023 A 
ATOM     75  C   UNL A   1      49.618  27.021  26.341  1.00  0.00     0.012 A 
ATOM     76  C   UNL A   1      48.644  27.554  24.179  1.00  0.00     0.148 A 
ATOM     77  C   UNL A   1      50.858  26.806  25.736  1.00  0.00     0.002 A 
ATOM     78  C   UNL A   1      49.869  27.287  23.577  1.00  0.00     0.091 A 
ATOM     79  F   UNL A   1      47.575  27.936  23.468  1.00  0.00    -0.205 F 
ATOM     80  C   UNL A   1      50.980  26.928  24.354  1.00  0.00     0.022 A 
BRANCH  78  81
ATOM     81  S   UNL A   1      50.080  27.287  21.793  1.00  0.00     0.127 S 
ATOM     82  O   UNL A   1      49.848  28.690  21.463  1.00  0.00    -0.237 OA
ATOM     83  O   UNL A   1      51.466  26.840  21.650  1.00  0.00    -0.237 OA
ATOM     84  O   UNL A   1      49.094  26.341  21.285  1.00  0.00    -0.744 OA
ENDBRANCH  78  81
ENDBRANCH  50  74
BRANCH  62  85
ATOM     85  C   UNL A   1      45.517  32.780  28.903  1.00  0.00     0.023 A 
ATOM     86  C   UNL A   1      46.245  33.023  30.085  1.00  0.00     0.012 A 
ATOM     87  C   UNL A   1      45.310  33.832  27.989  1.00  0.00     0.148 A 
ATOM     88  C   UNL A   1      46.740  34.296  30.363  1.00  0.00     0.002 A 
ATOM     89  C   UNL A   1      45.844  35.088  28.252  1.00  0.00     0.091 A 
ATOM     90  F   UNL A   1      44.596  33.586  26.880  1.00  0.00    -0.205 F 
ATOM     91  C   UNL A   1      46.551  35.324  29.442  1.00  0.00     0.022 A 
BRANCH  89  92
ATOM     92  S   UNL A   1      45.728  36.443  27.078  1.00  0.00     0.127 S 
ATOM     93  O   UNL A   1      46.363  35.868  25.894  1.00  0.00    -0.237 OA
ATOM     94  O   UNL A   1      44.281  36.634  26.962  1.00  0.00    -0.237 OA
ATOM     95  O   UNL A   1      46.435  37.561  27.689  1.00  0.00    -0.744 OA
ENDBRANCH  89  92
ENDBRANCH  62  85
ENDBRANCH  36  37
ENDBRANCH  28  31
ENDBRANCH  26  27
ENDBRANCH  25  26
ENDBRANCH   1  25
TORSDOF 18
ENDMDL
