MODEL 1
REMARK VINA RESULT:     -10.3      0.000      0.000
REMARK SMILES CC[C@H](CCC1CC1)C(=O)NCCCCNC(=O)c1ccc(-c2c3nc(c(-c4cccc(S(=O)(=O)[O-])c4F)c4ccc([nH]4)c(-c4cccc(S(=O)(=O)[O-])c4F)c4nc(c(-c5cccc(S(=O)(=O)[O-])c5F)c5ccc2[nH]5)C=C4)C=C3)cc1
REMARK SMILES IDX 13 1 12 2 11 3 9 4 10 5 3 7 2 8 1 9 4 10 5 11 6 12 7 13 8 14
REMARK SMILES IDX 14 15 15 16 16 17 17 18 18 20 19 21 20 22 81 23 21 24 80 25
REMARK SMILES IDX 22 26 23 27 24 28 74 29 25 30 79 31 73 32 75 33 26 34 78 35
REMARK SMILES IDX 72 36 71 37 27 39 59 40 39 41 58 42 40 43 43 44 57 45 76 46
REMARK SMILES IDX 41 47 42 48 56 50 77 51 44 52 28 53 29 54 37 55 30 56 32 57
REMARK SMILES IDX 38 58 31 59 33 60 34 61 35 62 36 63 60 64 61 65 69 66 62 67
REMARK SMILES IDX 64 68 70 69 63 70 65 71 66 72 67 73 68 74 45 75 46 76 54 77
REMARK SMILES IDX 47 78 49 79 55 80 48 81 50 82 51 83 52 84 53 85
REMARK H PARENT 11 6 16 19 75 38 43 49
REMARK Flexibility Score: inf
ROOT
ATOM      1  C   UNL A   1      32.106  30.496  26.118  1.00  0.00     0.023 C 
ENDROOT
BRANCH   1   2
ATOM      2  C   UNL A   1      32.315  29.238  26.956  1.00  0.00     0.116 C 
BRANCH   2   3
ATOM      3  N   UNL A   1      31.635  28.079  26.406  1.00  0.00    -0.356 N 
ATOM      4  C   UNL A   1      32.086  27.092  25.584  1.00  0.00     0.223 C 
ATOM      5  O   UNL A   1      31.310  26.177  25.296  1.00  0.00    -0.275 OA
ATOM      6  H   UNL A   1      30.692  27.992  26.674  1.00  0.00     0.163 HD
BRANCH   4   7
ATOM      7  C   UNL A   1      33.515  27.091  25.038  1.00  0.00     0.078 C 
BRANCH   7   8
ATOM      8  C   UNL A   1      33.494  27.424  23.533  1.00  0.00     0.010 C 
ATOM      9  C   UNL A   1      33.569  28.902  23.194  1.00  0.00     0.005 C 
ENDBRANCH   7   8
BRANCH   7  10
ATOM     10  C   UNL A   1      34.264  25.813  25.474  1.00  0.00     0.014 C 
BRANCH  10  11
ATOM     11  C   UNL A   1      34.524  24.809  24.348  1.00  0.00     0.004 C 
BRANCH  11  12
ATOM     12  C   UNL A   1      35.448  23.662  24.648  1.00  0.00    -0.011 C 
ATOM     13  C   UNL A   1      35.278  22.242  24.158  1.00  0.00     0.004 C 
ATOM     14  C   UNL A   1      36.337  23.117  23.555  1.00  0.00     0.004 C 
ENDBRANCH  11  12
ENDBRANCH  10  11
ENDBRANCH   7  10
ENDBRANCH   4   7
ENDBRANCH   2   3
ENDBRANCH   1   2
BRANCH   1  15
ATOM     15  C   UNL A   1      31.691  31.738  26.907  1.00  0.00     0.023 C 
BRANCH  15  16
ATOM     16  C   UNL A   1      32.838  32.574  27.464  1.00  0.00     0.116 C 
BRANCH  16  17
ATOM     17  N   UNL A   1      32.467  33.956  27.736  1.00  0.00    -0.352 N 
ATOM     18  C   UNL A   1      33.034  34.831  28.633  1.00  0.00     0.251 C 
ATOM     19  H   UNL A   1      31.714  34.310  27.211  1.00  0.00     0.163 HD
ATOM     20  O   UNL A   1      32.539  35.941  28.814  1.00  0.00    -0.269 OA
BRANCH  18  21
ATOM     21  C   UNL A   1      34.222  34.409  29.403  1.00  0.00     0.039 A 
ATOM     22  C   UNL A   1      34.054  33.931  30.705  1.00  0.00     0.014 A 
ATOM     23  C   UNL A   1      35.491  34.440  28.818  1.00  0.00     0.014 A 
ATOM     24  C   UNL A   1      35.152  33.416  31.398  1.00  0.00     0.010 A 
ATOM     25  C   UNL A   1      36.567  33.863  29.483  1.00  0.00     0.010 A 
ATOM     26  C   UNL A   1      36.410  33.348  30.779  1.00  0.00    -0.014 A 
BRANCH  26  27
ATOM     27  C   UNL A   1      37.584  32.741  31.456  1.00  0.00     0.031 A 
ATOM     28  C   UNL A   1      38.295  31.580  30.818  1.00  0.00     0.074 A 
ATOM     29  C   UNL A   1      37.932  33.153  32.691  1.00  0.00     0.049 A 
ATOM     30  N   UNL A   1      39.252  30.832  31.301  1.00  0.00    -0.248 NA
ATOM     31  C   UNL A   1      37.844  31.184  29.473  1.00  0.00     0.031 C 
ATOM     32  C   UNL A   1      37.270  34.218  33.448  1.00  0.00     0.029 A 
ATOM     33  N   UNL A   1      38.907  32.698  33.544  1.00  0.00    -0.354 N 
ATOM     34  C   UNL A   1      39.483  29.851  30.345  1.00  0.00     0.074 A 
ATOM     35  C   UNL A   1      38.549  30.081  29.266  1.00  0.00     0.031 C 
ATOM     36  C   UNL A   1      37.853  34.329  34.652  1.00  0.00     0.029 A 
ATOM     37  C   UNL A   1      38.910  33.329  34.766  1.00  0.00     0.049 A 
ATOM     38  H   UNL A   1      39.545  31.987  33.302  1.00  0.00     0.167 HD
ATOM     39  C   UNL A   1      40.411  28.864  30.350  1.00  0.00     0.034 A 
ATOM     40  C   UNL A   1      39.672  33.118  35.858  1.00  0.00     0.034 A 
ATOM     41  C   UNL A   1      41.380  28.678  31.394  1.00  0.00     0.049 A 
ATOM     42  C   UNL A   1      40.741  32.059  35.811  1.00  0.00     0.074 A 
ATOM     43  C   UNL A   1      42.423  27.770  31.449  1.00  0.00     0.029 A 
ATOM     44  N   UNL A   1      41.429  29.415  32.567  1.00  0.00    -0.354 N 
ATOM     45  N   UNL A   1      41.048  31.241  34.833  1.00  0.00    -0.248 NA
ATOM     46  C   UNL A   1      41.592  31.918  37.002  1.00  0.00     0.031 C 
ATOM     47  C   UNL A   1      43.100  27.955  32.660  1.00  0.00     0.029 A 
ATOM     48  C   UNL A   1      42.485  28.986  33.353  1.00  0.00     0.049 A 
ATOM     49  H   UNL A   1      40.805  30.137  32.806  1.00  0.00     0.167 HD
ATOM     50  C   UNL A   1      42.149  30.516  35.274  1.00  0.00     0.074 A 
ATOM     51  C   UNL A   1      42.465  31.003  36.602  1.00  0.00     0.031 C 
ATOM     52  C   UNL A   1      42.827  29.526  34.643  1.00  0.00     0.034 A 
BRANCH  39  53
ATOM     53  C   UNL A   1      40.460  27.949  29.155  1.00  0.00     0.023 A 
ATOM     54  C   UNL A   1      39.541  26.884  29.061  1.00  0.00     0.012 A 
ATOM     55  C   UNL A   1      41.380  28.162  28.111  1.00  0.00     0.148 A 
ATOM     56  C   UNL A   1      39.562  26.022  27.966  1.00  0.00     0.002 A 
ATOM     57  C   UNL A   1      41.366  27.323  27.001  1.00  0.00     0.091 A 
ATOM     58  F   UNL A   1      42.264  29.164  28.228  1.00  0.00    -0.205 F 
ATOM     59  C   UNL A   1      40.466  26.247  26.933  1.00  0.00     0.022 A 
BRANCH  57  60
ATOM     60  S   UNL A   1      42.442  27.581  25.586  1.00  0.00     0.127 S 
ATOM     61  O   UNL A   1      43.765  27.464  26.196  1.00  0.00    -0.237 OA
ATOM     62  O   UNL A   1      42.075  26.467  24.710  1.00  0.00    -0.237 OA
ATOM     63  O   UNL A   1      42.103  28.897  25.064  1.00  0.00    -0.744 OA
ENDBRANCH  57  60
ENDBRANCH  39  53
BRANCH  40  64
ATOM     64  C   UNL A   1      39.505  33.987  37.057  1.00  0.00     0.023 A 
ATOM     65  C   UNL A   1      39.895  35.338  36.984  1.00  0.00     0.012 A 
ATOM     66  C   UNL A   1      38.928  33.502  38.247  1.00  0.00     0.148 A 
ATOM     67  C   UNL A   1      39.739  36.185  38.083  1.00  0.00     0.002 A 
ATOM     68  C   UNL A   1      38.729  34.363  39.320  1.00  0.00     0.091 A 
ATOM     69  F   UNL A   1      38.574  32.209  38.301  1.00  0.00    -0.205 F 
ATOM     70  C   UNL A   1      39.148  35.701  39.245  1.00  0.00     0.022 A 
BRANCH  68  71
ATOM     71  S   UNL A   1      37.858  33.862  40.809  1.00  0.00     0.127 S 
ATOM     72  O   UNL A   1      37.752  35.125  41.535  1.00  0.00    -0.237 OA
ATOM     73  O   UNL A   1      36.597  33.355  40.267  1.00  0.00    -0.237 OA
ATOM     74  O   UNL A   1      38.696  32.843  41.428  1.00  0.00    -0.744 OA
ENDBRANCH  68  71
ENDBRANCH  40  64
BRANCH  52  75
ATOM     75  C   UNL A   1      44.008  28.920  35.354  1.00  0.00     0.023 A 
ATOM     76  C   UNL A   1      45.286  29.494  35.197  1.00  0.00     0.012 A 
ATOM     77  C   UNL A   1      43.835  27.845  36.248  1.00  0.00     0.148 A 
ATOM     78  C   UNL A   1      46.378  28.990  35.902  1.00  0.00     0.002 A 
ATOM     79  C   UNL A   1      44.920  27.378  36.980  1.00  0.00     0.091 A 
ATOM     80  F   UNL A   1      42.616  27.301  36.366  1.00  0.00    -0.205 F 
ATOM     81  C   UNL A   1      46.194  27.943  36.802  1.00  0.00     0.022 A 
BRANCH  79  82
ATOM     82  S   UNL A   1      44.752  26.097  38.228  1.00  0.00     0.127 S 
ATOM     83  O   UNL A   1      46.124  25.973  38.716  1.00  0.00    -0.237 OA
ATOM     84  O   UNL A   1      43.821  26.706  39.179  1.00  0.00    -0.237 OA
ATOM     85  O   UNL A   1      44.224  24.930  37.534  1.00  0.00    -0.744 OA
ENDBRANCH  79  82
ENDBRANCH  52  75
ENDBRANCH  26  27
ENDBRANCH  18  21
ENDBRANCH  16  17
ENDBRANCH  15  16
ENDBRANCH   1  15
TORSDOF 18
ENDMDL
MODEL 2
REMARK VINA RESULT:     -10.3      2.289      8.519
REMARK SMILES CC[C@H](CCC1CC1)C(=O)NCCCCNC(=O)c1ccc(-c2c3nc(c(-c4cccc(S(=O)(=O)[O-])c4F)c4ccc([nH]4)c(-c4cccc(S(=O)(=O)[O-])c4F)c4nc(c(-c5cccc(S(=O)(=O)[O-])c5F)c5ccc2[nH]5)C=C4)C=C3)cc1
REMARK SMILES IDX 13 1 12 2 11 3 9 4 10 5 3 7 2 8 1 9 4 10 5 11 6 12 7 13 8 14
REMARK SMILES IDX 14 15 15 16 16 17 17 18 18 20 19 21 20 22 81 23 21 24 80 25
REMARK SMILES IDX 22 26 23 27 24 28 74 29 25 30 79 31 73 32 75 33 26 34 78 35
REMARK SMILES IDX 72 36 71 37 27 39 59 40 39 41 58 42 40 43 43 44 57 45 76 46
REMARK SMILES IDX 41 47 42 48 56 50 77 51 44 52 28 53 29 54 37 55 30 56 32 57
REMARK SMILES IDX 38 58 31 59 33 60 34 61 35 62 36 63 60 64 61 65 69 66 62 67
REMARK SMILES IDX 64 68 70 69 63 70 65 71 66 72 67 73 68 74 45 75 46 76 54 77
REMARK SMILES IDX 47 78 49 79 55 80 48 81 50 82 51 83 52 84 53 85
REMARK H PARENT 11 6 16 19 75 38 43 49
REMARK Flexibility Score: inf
ROOT
ATOM      1  C   UNL A   1      32.478  27.513  25.770  1.00  0.00     0.023 C 
ENDROOT
BRANCH   1   2
ATOM      2  C   UNL A   1      31.581  26.329  25.421  1.00  0.00     0.116 C 
BRANCH   2   3
ATOM      3  N   UNL A   1      31.540  25.327  26.471  1.00  0.00    -0.356 N 
ATOM      4  C   UNL A   1      32.156  24.117  26.567  1.00  0.00     0.223 C 
ATOM      5  O   UNL A   1      31.994  23.465  27.602  1.00  0.00    -0.275 OA
ATOM      6  H   UNL A   1      30.974  25.563  27.241  1.00  0.00     0.163 HD
BRANCH   4   7
ATOM      7  C   UNL A   1      33.042  23.574  25.445  1.00  0.00     0.078 C 
BRANCH   7   8
ATOM      8  C   UNL A   1      33.081  22.034  25.516  1.00  0.00     0.010 C 
ATOM      9  C   UNL A   1      33.058  21.321  24.177  1.00  0.00     0.005 C 
ENDBRANCH   7   8
BRANCH   7  10
ATOM     10  C   UNL A   1      34.393  24.320  25.407  1.00  0.00     0.014 C 
BRANCH  10  11
ATOM     11  C   UNL A   1      35.590  23.499  25.895  1.00  0.00     0.004 C 
BRANCH  11  12
ATOM     12  C   UNL A   1      36.674  23.202  24.896  1.00  0.00    -0.011 C 
ATOM     13  C   UNL A   1      36.924  21.864  24.240  1.00  0.00     0.004 C 
ATOM     14  C   UNL A   1      36.309  22.979  23.447  1.00  0.00     0.004 C 
ENDBRANCH  11  12
ENDBRANCH  10  11
ENDBRANCH   7  10
ENDBRANCH   4   7
ENDBRANCH   2   3
ENDBRANCH   1   2
BRANCH   1  15
ATOM     15  C   UNL A   1      31.761  28.858  25.888  1.00  0.00     0.023 C 
BRANCH  15  16
ATOM     16  C   UNL A   1      32.031  29.634  27.172  1.00  0.00     0.116 C 
BRANCH  16  17
ATOM     17  N   UNL A   1      32.030  31.079  26.985  1.00  0.00    -0.352 N 
ATOM     18  C   UNL A   1      33.014  31.982  27.314  1.00  0.00     0.251 C 
ATOM     19  H   UNL A   1      31.221  31.458  26.572  1.00  0.00     0.163 HD
ATOM     20  O   UNL A   1      32.819  33.188  27.179  1.00  0.00    -0.269 OA
BRANCH  18  21
ATOM     21  C   UNL A   1      34.294  31.489  27.862  1.00  0.00     0.039 A 
ATOM     22  C   UNL A   1      35.204  32.407  28.393  1.00  0.00     0.014 A 
ATOM     23  C   UNL A   1      34.569  30.120  27.896  1.00  0.00     0.014 A 
ATOM     24  C   UNL A   1      36.362  31.945  29.023  1.00  0.00     0.010 A 
ATOM     25  C   UNL A   1      35.685  29.661  28.584  1.00  0.00     0.010 A 
ATOM     26  C   UNL A   1      36.594  30.567  29.152  1.00  0.00    -0.014 A 
BRANCH  26  27
ATOM     27  C   UNL A   1      37.776  30.036  29.878  1.00  0.00     0.031 A 
ATOM     28  C   UNL A   1      38.067  30.510  31.275  1.00  0.00     0.074 A 
ATOM     29  C   UNL A   1      38.647  29.229  29.241  1.00  0.00     0.049 A 
ATOM     30  N   UNL A   1      39.109  30.271  32.028  1.00  0.00    -0.248 NA
ATOM     31  C   UNL A   1      37.072  31.401  31.895  1.00  0.00     0.031 C 
ATOM     32  C   UNL A   1      38.516  28.763  27.859  1.00  0.00     0.029 A 
ATOM     33  N   UNL A   1      39.837  28.688  29.662  1.00  0.00    -0.354 N 
ATOM     34  C   UNL A   1      38.920  31.017  33.184  1.00  0.00     0.074 A 
ATOM     35  C   UNL A   1      37.677  31.740  33.024  1.00  0.00     0.031 C 
ATOM     36  C   UNL A   1      39.584  28.013  27.545  1.00  0.00     0.029 A 
ATOM     37  C   UNL A   1      40.489  27.966  28.690  1.00  0.00     0.049 A 
ATOM     38  H   UNL A   1      40.189  28.806  30.574  1.00  0.00     0.167 HD
ATOM     39  C   UNL A   1      39.694  31.074  34.293  1.00  0.00     0.034 A 
ATOM     40  C   UNL A   1      41.685  27.344  28.715  1.00  0.00     0.034 A 
ATOM     41  C   UNL A   1      40.895  30.306  34.475  1.00  0.00     0.049 A 
ATOM     42  C   UNL A   1      42.494  27.368  29.985  1.00  0.00     0.074 A 
ATOM     43  C   UNL A   1      41.699  30.218  35.597  1.00  0.00     0.029 A 
ATOM     44  N   UNL A   1      41.463  29.489  33.509  1.00  0.00    -0.354 N 
ATOM     45  N   UNL A   1      42.221  27.954  31.125  1.00  0.00    -0.248 NA
ATOM     46  C   UNL A   1      43.757  26.615  29.984  1.00  0.00     0.031 C 
ATOM     47  C   UNL A   1      42.759  29.351  35.308  1.00  0.00     0.029 A 
ATOM     48  C   UNL A   1      42.608  28.891  34.009  1.00  0.00     0.049 A 
ATOM     49  H   UNL A   1      41.106  29.354  32.603  1.00  0.00     0.167 HD
ATOM     50  C   UNL A   1      43.257  27.611  31.988  1.00  0.00     0.074 A 
ATOM     51  C   UNL A   1      44.153  26.751  31.242  1.00  0.00     0.031 C 
ATOM     52  C   UNL A   1      43.453  27.986  33.276  1.00  0.00     0.034 A 
BRANCH  39  53
ATOM     53  C   UNL A   1      39.228  31.953  35.423  1.00  0.00     0.023 A 
ATOM     54  C   UNL A   1      39.483  33.339  35.372  1.00  0.00     0.012 A 
ATOM     55  C   UNL A   1      38.508  31.423  36.511  1.00  0.00     0.148 A 
ATOM     56  C   UNL A   1      39.062  34.178  36.403  1.00  0.00     0.002 A 
ATOM     57  C   UNL A   1      38.054  32.273  37.514  1.00  0.00     0.091 A 
ATOM     58  F   UNL A   1      38.297  30.100  36.556  1.00  0.00    -0.205 F 
ATOM     59  C   UNL A   1      38.341  33.647  37.467  1.00  0.00     0.022 A 
BRANCH  57  60
ATOM     60  S   UNL A   1      37.050  31.692  38.886  1.00  0.00     0.127 S 
ATOM     61  O   UNL A   1      37.949  31.902  40.019  1.00  0.00    -0.237 OA
ATOM     62  O   UNL A   1      35.905  32.603  38.840  1.00  0.00    -0.237 OA
ATOM     63  O   UNL A   1      36.730  30.304  38.584  1.00  0.00    -0.744 OA
ENDBRANCH  57  60
ENDBRANCH  39  53
BRANCH  40  64
ATOM     64  C   UNL A   1      42.146  26.577  27.525  1.00  0.00     0.023 A 
ATOM     65  C   UNL A   1      42.861  27.245  26.513  1.00  0.00     0.012 A 
ATOM     66  C   UNL A   1      41.921  25.191  27.406  1.00  0.00     0.148 A 
ATOM     67  C   UNL A   1      43.321  26.556  25.390  1.00  0.00     0.002 A 
ATOM     68  C   UNL A   1      42.426  24.500  26.310  1.00  0.00     0.091 A 
ATOM     69  F   UNL A   1      41.227  24.575  28.374  1.00  0.00    -0.205 F 
ATOM     70  C   UNL A   1      43.114  25.183  25.294  1.00  0.00     0.022 A 
BRANCH  68  71
ATOM     71  S   UNL A   1      42.319  22.713  26.165  1.00  0.00     0.127 S 
ATOM     72  O   UNL A   1      40.881  22.488  26.284  1.00  0.00    -0.237 OA
ATOM     73  O   UNL A   1      42.870  22.483  24.828  1.00  0.00    -0.237 OA
ATOM     74  O   UNL A   1      43.136  22.183  27.248  1.00  0.00    -0.744 OA
ENDBRANCH  68  71
ENDBRANCH  40  64
BRANCH  52  75
ATOM     75  C   UNL A   1      44.664  27.442  33.988  1.00  0.00     0.023 A 
ATOM     76  C   UNL A   1      45.877  28.157  33.946  1.00  0.00     0.012 A 
ATOM     77  C   UNL A   1      44.573  26.275  34.772  1.00  0.00     0.148 A 
ATOM     78  C   UNL A   1      46.989  27.706  34.657  1.00  0.00     0.002 A 
ATOM     79  C   UNL A   1      45.671  25.857  35.512  1.00  0.00     0.091 A 
ATOM     80  F   UNL A   1      43.415  25.599  34.780  1.00  0.00    -0.205 F 
ATOM     81  C   UNL A   1      46.883  26.565  35.449  1.00  0.00     0.022 A 
BRANCH  79  82
ATOM     82  S   UNL A   1      45.594  24.453  36.631  1.00  0.00     0.127 S 
ATOM     83  O   UNL A   1      44.466  24.815  37.487  1.00  0.00    -0.237 OA
ATOM     84  O   UNL A   1      45.333  23.339  35.719  1.00  0.00    -0.237 OA
ATOM     85  O   UNL A   1      46.891  24.398  37.292  1.00  0.00    -0.744 OA
ENDBRANCH  79  82
ENDBRANCH  52  75
ENDBRANCH  26  27
ENDBRANCH  18  21
ENDBRANCH  16  17
ENDBRANCH  15  16
ENDBRANCH   1  15
TORSDOF 18
ENDMDL
MODEL 3
REMARK VINA RESULT:     -10.2      1.465      2.534
REMARK SMILES CC[C@H](CCC1CC1)C(=O)NCCCCNC(=O)c1ccc(-c2c3nc(c(-c4cccc(S(=O)(=O)[O-])c4F)c4ccc([nH]4)c(-c4cccc(S(=O)(=O)[O-])c4F)c4nc(c(-c5cccc(S(=O)(=O)[O-])c5F)c5ccc2[nH]5)C=C4)C=C3)cc1
REMARK SMILES IDX 13 1 12 2 11 3 9 4 10 5 3 7 2 8 1 9 4 10 5 11 6 12 7 13 8 14
REMARK SMILES IDX 14 15 15 16 16 17 17 18 18 20 19 21 20 22 81 23 21 24 80 25
REMARK SMILES IDX 22 26 23 27 24 28 74 29 25 30 79 31 73 32 75 33 26 34 78 35
REMARK SMILES IDX 72 36 71 37 27 39 59 40 39 41 58 42 40 43 43 44 57 45 76 46
REMARK SMILES IDX 41 47 42 48 56 50 77 51 44 52 28 53 29 54 37 55 30 56 32 57
REMARK SMILES IDX 38 58 31 59 33 60 34 61 35 62 36 63 60 64 61 65 69 66 62 67
REMARK SMILES IDX 64 68 70 69 63 70 65 71 66 72 67 73 68 74 45 75 46 76 54 77
REMARK SMILES IDX 47 78 49 79 55 80 48 81 50 82 51 83 52 84 53 85
REMARK H PARENT 11 6 16 19 75 38 43 49
REMARK Flexibility Score: inf
ROOT
ATOM      1  C   UNL A   1      31.541  30.716  25.900  1.00  0.00     0.023 C 
ENDROOT
BRANCH   1   2
ATOM      2  C   UNL A   1      32.877  29.995  26.057  1.00  0.00     0.116 C 
BRANCH   2   3
ATOM      3  N   UNL A   1      33.549  29.777  24.789  1.00  0.00    -0.356 N 
ATOM      4  C   UNL A   1      33.304  28.877  23.797  1.00  0.00     0.223 C 
ATOM      5  O   UNL A   1      34.002  28.929  22.781  1.00  0.00    -0.275 OA
ATOM      6  H   UNL A   1      34.308  30.380  24.618  1.00  0.00     0.163 HD
BRANCH   4   7
ATOM      7  C   UNL A   1      32.188  27.837  23.913  1.00  0.00     0.078 C 
BRANCH   7   8
ATOM      8  C   UNL A   1      32.804  26.425  23.985  1.00  0.00     0.010 C 
ATOM      9  C   UNL A   1      32.076  25.443  24.885  1.00  0.00     0.005 C 
ENDBRANCH   7   8
BRANCH   7  10
ATOM     10  C   UNL A   1      31.098  28.085  22.848  1.00  0.00     0.014 C 
BRANCH  10  11
ATOM     11  C   UNL A   1      29.949  28.986  23.309  1.00  0.00     0.004 C 
BRANCH  11  12
ATOM     12  C   UNL A   1      28.627  28.825  22.613  1.00  0.00    -0.011 C 
ATOM     13  C   UNL A   1      27.318  29.438  23.056  1.00  0.00     0.004 C 
ATOM     14  C   UNL A   1      28.035  29.993  21.860  1.00  0.00     0.004 C 
ENDBRANCH  11  12
ENDBRANCH  10  11
ENDBRANCH   7  10
ENDBRANCH   4   7
ENDBRANCH   2   3
ENDBRANCH   1   2
BRANCH   1  15
ATOM     15  C   UNL A   1      31.387  31.985  26.738  1.00  0.00     0.023 C 
BRANCH  15  16
ATOM     16  C   UNL A   1      32.691  32.657  27.154  1.00  0.00     0.116 C 
BRANCH  16  17
ATOM     17  N   UNL A   1      32.501  33.984  27.726  1.00  0.00    -0.352 N 
ATOM     18  C   UNL A   1      33.230  34.598  28.717  1.00  0.00     0.251 C 
ATOM     19  H   UNL A   1      31.755  34.507  27.356  1.00  0.00     0.163 HD
ATOM     20  O   UNL A   1      32.880  35.690  29.158  1.00  0.00    -0.269 OA
BRANCH  18  21
ATOM     21  C   UNL A   1      34.419  33.915  29.270  1.00  0.00     0.039 A 
ATOM     22  C   UNL A   1      35.690  34.346  28.883  1.00  0.00     0.014 A 
ATOM     23  C   UNL A   1      34.273  32.887  30.204  1.00  0.00     0.014 A 
ATOM     24  C   UNL A   1      36.820  33.791  29.488  1.00  0.00     0.010 A 
ATOM     25  C   UNL A   1      35.395  32.387  30.854  1.00  0.00     0.010 A 
ATOM     26  C   UNL A   1      36.679  32.832  30.503  1.00  0.00    -0.014 A 
BRANCH  26  27
ATOM     27  C   UNL A   1      37.852  32.271  31.220  1.00  0.00     0.031 A 
ATOM     28  C   UNL A   1      38.644  31.155  30.596  1.00  0.00     0.074 A 
ATOM     29  C   UNL A   1      38.129  32.679  32.474  1.00  0.00     0.049 A 
ATOM     30  N   UNL A   1      39.616  30.446  31.108  1.00  0.00    -0.248 NA
ATOM     31  C   UNL A   1      38.269  30.760  29.228  1.00  0.00     0.031 C 
ATOM     32  C   UNL A   1      37.385  33.699  33.217  1.00  0.00     0.029 A 
ATOM     33  N   UNL A   1      39.089  32.258  33.360  1.00  0.00    -0.354 N 
ATOM     34  C   UNL A   1      39.933  29.493  30.149  1.00  0.00     0.074 A 
ATOM     35  C   UNL A   1      39.034  29.695  29.035  1.00  0.00     0.031 C 
ATOM     36  C   UNL A   1      37.912  33.818  34.447  1.00  0.00     0.029 A 
ATOM     37  C   UNL A   1      39.011  32.868  34.590  1.00  0.00     0.049 A 
ATOM     38  H   UNL A   1      39.770  31.582  33.135  1.00  0.00     0.167 HD
ATOM     39  C   UNL A   1      40.906  28.551  30.179  1.00  0.00     0.034 A 
ATOM     40  C   UNL A   1      39.737  32.677  35.710  1.00  0.00     0.034 A 
ATOM     41  C   UNL A   1      41.840  28.395  31.260  1.00  0.00     0.049 A 
ATOM     42  C   UNL A   1      40.857  31.671  35.693  1.00  0.00     0.074 A 
ATOM     43  C   UNL A   1      42.923  27.538  31.345  1.00  0.00     0.029 A 
ATOM     44  N   UNL A   1      41.804  29.115  32.444  1.00  0.00    -0.354 N 
ATOM     45  N   UNL A   1      41.243  30.885  34.717  1.00  0.00    -0.248 NA
ATOM     46  C   UNL A   1      41.664  31.551  36.916  1.00  0.00     0.031 C 
ATOM     47  C   UNL A   1      43.539  27.735  32.586  1.00  0.00     0.029 A 
ATOM     48  C   UNL A   1      42.847  28.724  33.267  1.00  0.00     0.049 A 
ATOM     49  H   UNL A   1      41.137  29.803  32.667  1.00  0.00     0.167 HD
ATOM     50  C   UNL A   1      42.359  30.205  35.194  1.00  0.00     0.074 A 
ATOM     51  C   UNL A   1      42.596  30.686  36.540  1.00  0.00     0.031 C 
ATOM     52  C   UNL A   1      43.109  29.259  34.578  1.00  0.00     0.034 A 
BRANCH  39  53
ATOM     53  C   UNL A   1      41.049  27.660  28.974  1.00  0.00     0.023 A 
ATOM     54  C   UNL A   1      40.217  26.527  28.849  1.00  0.00     0.012 A 
ATOM     55  C   UNL A   1      41.969  27.956  27.951  1.00  0.00     0.148 A 
ATOM     56  C   UNL A   1      40.325  25.684  27.745  1.00  0.00     0.002 A 
ATOM     57  C   UNL A   1      42.041  27.134  26.831  1.00  0.00     0.091 A 
ATOM     58  F   UNL A   1      42.770  29.022  28.098  1.00  0.00    -0.205 F 
ATOM     59  C   UNL A   1      41.228  25.992  26.733  1.00  0.00     0.022 A 
BRANCH  57  60
ATOM     60  S   UNL A   1      43.120  27.493  25.441  1.00  0.00     0.127 S 
ATOM     61  O   UNL A   1      42.241  28.282  24.580  1.00  0.00    -0.237 OA
ATOM     62  O   UNL A   1      44.198  28.256  26.073  1.00  0.00    -0.237 OA
ATOM     63  O   UNL A   1      43.528  26.200  24.911  1.00  0.00    -0.744 OA
ENDBRANCH  57  60
ENDBRANCH  39  53
BRANCH  40  64
ATOM     64  C   UNL A   1      39.479  33.518  36.913  1.00  0.00     0.023 A 
ATOM     65  C   UNL A   1      39.903  34.860  36.915  1.00  0.00     0.012 A 
ATOM     66  C   UNL A   1      38.785  33.015  38.031  1.00  0.00     0.148 A 
ATOM     67  C   UNL A   1      39.666  35.681  38.018  1.00  0.00     0.002 A 
ATOM     68  C   UNL A   1      38.506  33.852  39.105  1.00  0.00     0.091 A 
ATOM     69  F   UNL A   1      38.399  31.731  38.015  1.00  0.00    -0.205 F 
ATOM     70  C   UNL A   1      38.959  35.181  39.107  1.00  0.00     0.022 A 
BRANCH  68  71
ATOM     71  S   UNL A   1      37.491  33.333  40.494  1.00  0.00     0.127 S 
ATOM     72  O   UNL A   1      36.233  32.993  39.835  1.00  0.00    -0.237 OA
ATOM     73  O   UNL A   1      38.244  32.190  41.010  1.00  0.00    -0.237 OA
ATOM     74  O   UNL A   1      37.447  34.477  41.396  1.00  0.00    -0.744 OA
ENDBRANCH  68  71
ENDBRANCH  40  64
BRANCH  52  75
ATOM     75  C   UNL A   1      44.288  28.700  35.329  1.00  0.00     0.023 A 
ATOM     76  C   UNL A   1      45.561  29.280  35.161  1.00  0.00     0.012 A 
ATOM     77  C   UNL A   1      44.116  27.664  36.268  1.00  0.00     0.148 A 
ATOM     78  C   UNL A   1      46.650  28.820  35.901  1.00  0.00     0.002 A 
ATOM     79  C   UNL A   1      45.197  27.242  37.033  1.00  0.00     0.091 A 
ATOM     80  F   UNL A   1      42.901  27.112  36.396  1.00  0.00    -0.205 F 
ATOM     81  C   UNL A   1      46.466  27.813  36.845  1.00  0.00     0.022 A 
BRANCH  79  82
ATOM     82  S   UNL A   1      45.028  26.017  38.336  1.00  0.00     0.127 S 
ATOM     83  O   UNL A   1      46.384  25.966  38.877  1.00  0.00    -0.237 OA
ATOM     84  O   UNL A   1      44.041  26.636  39.223  1.00  0.00    -0.237 OA
ATOM     85  O   UNL A   1      44.566  24.800  37.681  1.00  0.00    -0.744 OA
ENDBRANCH  79  82
ENDBRANCH  52  75
ENDBRANCH  26  27
ENDBRANCH  18  21
ENDBRANCH  16  17
ENDBRANCH  15  16
ENDBRANCH   1  15
TORSDOF 18
ENDMDL
