MODEL 1
REMARK VINA RESULT:     -12.7      0.000      0.000
REMARK SMILES COc1ccc(-c2ncn(CC(=O)NCCCCNC(=O)c3ccc(-c4c5nc(c(-c6cccc(S(=O)(=O)[O-])c6F)c6ccc([nH]6)c(-c6cccc(S(=O)(=O)[O-])c6F)c6nc(c(-c7cccc(S(=O)(=O)[O-])c7F)c7ccc4[nH]7)C=C6)C=C5)cc3)c2-c2ccc(OC)cc2)cc1
REMARK SMILES IDX 16 1 15 2 14 3 12 4 13 5 11 7 10 8 7 9 8 10 85 11 9 12 6 13
REMARK SMILES IDX 3 14 4 15 95 16 5 17 94 18 2 19 1 20 86 21 87 22 93 23 88 24
REMARK SMILES IDX 92 25 89 26 90 27 91 28 17 29 18 30 19 31 20 32 21 34 22 35
REMARK SMILES IDX 23 36 84 37 24 38 83 39 25 40 26 41 27 42 77 43 28 44 82 45
REMARK SMILES IDX 76 46 78 47 29 48 81 49 75 50 74 51 30 53 62 54 42 55 61 56
REMARK SMILES IDX 43 57 46 58 60 59 79 60 44 61 45 62 59 64 80 65 47 66 31 67
REMARK SMILES IDX 32 68 40 69 33 70 35 71 41 72 34 73 36 74 37 75 38 76 39 77
REMARK SMILES IDX 63 78 64 79 72 80 65 81 67 82 73 83 66 84 68 85 69 86 70 87
REMARK SMILES IDX 71 88 48 89 49 90 57 91 50 92 52 93 58 94 51 95 53 96 54 97
REMARK SMILES IDX 55 98 56 99
REMARK H PARENT 14 6 19 33 78 52 46 63
REMARK Flexibility Score: inf
ROOT
ATOM      1  C   UNL A   1      32.067  29.989  25.839  1.00  0.00     0.023 C 
ENDROOT
BRANCH   1   2
ATOM      2  C   UNL A   1      31.218  28.945  25.107  1.00  0.00     0.116 C 
BRANCH   2   3
ATOM      3  N   UNL A   1      30.852  29.343  23.763  1.00  0.00    -0.355 N 
ATOM      4  C   UNL A   1      30.538  28.576  22.678  1.00  0.00     0.239 C 
ATOM      5  O   UNL A   1      30.180  29.153  21.649  1.00  0.00    -0.273 OA
ATOM      6  H   UNL A   1      30.827  30.315  23.607  1.00  0.00     0.163 HD
BRANCH   4   7
ATOM      7  C   UNL A   1      30.592  27.065  22.732  1.00  0.00     0.223 C 
BRANCH   7   8
ATOM      8  N   UNL A   1      31.935  26.513  22.802  1.00  0.00    -0.321 N 
ATOM      9  C   UNL A   1      33.742  25.382  23.249  1.00  0.00     0.096 A 
ATOM     10  N   UNL A   1      34.102  26.334  22.328  1.00  0.00    -0.236 NA
ATOM     11  C   UNL A   1      32.409  25.508  23.621  1.00  0.00     0.076 A 
ATOM     12  C   UNL A   1      33.002  27.009  22.096  1.00  0.00     0.201 A 
BRANCH   9  13
ATOM     13  C   UNL A   1      34.675  24.438  23.829  1.00  0.00     0.003 A 
ATOM     14  C   UNL A   1      36.287  22.516  25.073  1.00  0.00     0.118 A 
ATOM     15  C   UNL A   1      35.821  22.304  23.777  1.00  0.00     0.047 A 
ATOM     16  C   UNL A   1      35.997  23.716  25.727  1.00  0.00     0.047 A 
ATOM     17  C   UNL A   1      35.012  23.256  23.157  1.00  0.00     0.014 A 
ATOM     18  C   UNL A   1      35.198  24.678  25.102  1.00  0.00     0.014 A 
BRANCH  14  19
ATOM     19  O   UNL A   1      37.059  21.519  25.603  1.00  0.00    -0.497 OA
ATOM     20  C   UNL A   1      36.979  20.283  24.898  1.00  0.00     0.278 C 
ENDBRANCH  14  19
ENDBRANCH   9  13
BRANCH  11  21
ATOM     21  C   UNL A   1      31.672  24.851  24.696  1.00  0.00     0.001 A 
ATOM     22  C   UNL A   1      31.061  25.567  25.723  1.00  0.00     0.014 A 
ATOM     23  C   UNL A   1      31.525  23.458  24.664  1.00  0.00     0.014 A 
ATOM     24  C   UNL A   1      30.364  24.898  26.732  1.00  0.00     0.047 A 
ATOM     25  C   UNL A   1      30.800  22.791  25.655  1.00  0.00     0.047 A 
ATOM     26  C   UNL A   1      30.222  23.509  26.700  1.00  0.00     0.118 A 
BRANCH  26  27
ATOM     27  O   UNL A   1      29.504  22.980  27.736  1.00  0.00    -0.497 OA
ATOM     28  C   UNL A   1      28.414  22.137  27.390  1.00  0.00     0.278 C 
ENDBRANCH  26  27
ENDBRANCH  11  21
ENDBRANCH   7   8
ENDBRANCH   4   7
ENDBRANCH   2   3
ENDBRANCH   1   2
BRANCH   1  29
ATOM     29  C   UNL A   1      32.538  29.615  27.252  1.00  0.00     0.023 C 
BRANCH  29  30
ATOM     30  C   UNL A   1      34.023  29.831  27.513  1.00  0.00     0.116 C 
BRANCH  30  31
ATOM     31  N   UNL A   1      34.468  31.183  27.179  1.00  0.00    -0.352 N 
ATOM     32  C   UNL A   1      35.576  31.854  27.664  1.00  0.00     0.251 C 
ATOM     33  H   UNL A   1      33.912  31.675  26.532  1.00  0.00     0.163 HD
ATOM     34  O   UNL A   1      35.634  33.073  27.637  1.00  0.00    -0.269 OA
BRANCH  32  35
ATOM     35  C   UNL A   1      36.698  31.066  28.208  1.00  0.00     0.039 A 
ATOM     36  C   UNL A   1      36.869  29.721  27.864  1.00  0.00     0.014 A 
ATOM     37  C   UNL A   1      37.597  31.703  29.061  1.00  0.00     0.014 A 
ATOM     38  C   UNL A   1      38.001  29.048  28.317  1.00  0.00     0.010 A 
ATOM     39  C   UNL A   1      38.770  31.079  29.406  1.00  0.00     0.010 A 
ATOM     40  C   UNL A   1      38.961  29.741  29.070  1.00  0.00    -0.014 A 
BRANCH  40  41
ATOM     41  C   UNL A   1      40.270  29.144  29.339  1.00  0.00     0.031 A 
ATOM     42  C   UNL A   1      40.496  28.847  30.787  1.00  0.00     0.074 A 
ATOM     43  C   UNL A   1      41.057  28.665  28.347  1.00  0.00     0.049 A 
ATOM     44  N   UNL A   1      41.417  29.315  31.565  1.00  0.00    -0.248 NA
ATOM     45  C   UNL A   1      39.466  28.068  31.502  1.00  0.00     0.031 C 
ATOM     46  C   UNL A   1      40.738  28.636  26.912  1.00  0.00     0.029 A 
ATOM     47  N   UNL A   1      42.215  27.944  28.403  1.00  0.00    -0.354 N 
ATOM     48  C   UNL A   1      41.234  28.666  32.788  1.00  0.00     0.074 A 
ATOM     49  C   UNL A   1      39.903  28.129  32.760  1.00  0.00     0.031 C 
ATOM     50  C   UNL A   1      41.504  27.710  26.297  1.00  0.00     0.029 A 
ATOM     51  C   UNL A   1      42.468  27.195  27.249  1.00  0.00     0.049 A 
ATOM     52  H   UNL A   1      42.815  27.949  29.184  1.00  0.00     0.167 HD
ATOM     53  C   UNL A   1      42.300  28.349  33.577  1.00  0.00     0.034 A 
ATOM     54  C   UNL A   1      43.353  26.176  27.099  1.00  0.00     0.034 A 
ATOM     55  C   UNL A   1      43.461  29.114  33.195  1.00  0.00     0.049 A 
ATOM     56  C   UNL A   1      44.306  26.253  28.224  1.00  0.00     0.074 A 
ATOM     57  C   UNL A   1      43.761  30.457  33.077  1.00  0.00     0.029 A 
ATOM     58  N   UNL A   1      44.418  28.443  32.477  1.00  0.00    -0.354 N 
ATOM     59  N   UNL A   1      45.168  27.216  28.376  1.00  0.00    -0.248 NA
ATOM     60  C   UNL A   1      44.010  25.476  29.415  1.00  0.00     0.031 C 
ATOM     61  C   UNL A   1      44.600  30.545  31.928  1.00  0.00     0.029 A 
ATOM     62  C   UNL A   1      44.841  29.251  31.463  1.00  0.00     0.049 A 
ATOM     63  H   UNL A   1      44.745  27.533  32.663  1.00  0.00     0.167 HD
ATOM     64  C   UNL A   1      45.136  27.479  29.737  1.00  0.00     0.074 A 
ATOM     65  C   UNL A   1      44.508  26.303  30.337  1.00  0.00     0.031 C 
ATOM     66  C   UNL A   1      45.338  28.745  30.203  1.00  0.00     0.034 A 
BRANCH  53  67
ATOM     67  C   UNL A   1      42.446  27.056  34.370  1.00  0.00     0.023 A 
ATOM     68  C   UNL A   1      42.011  27.085  35.718  1.00  0.00     0.012 A 
ATOM     69  C   UNL A   1      43.237  25.946  33.991  1.00  0.00     0.148 A 
ATOM     70  C   UNL A   1      42.422  26.126  36.651  1.00  0.00     0.002 A 
ATOM     71  C   UNL A   1      43.581  24.953  34.903  1.00  0.00     0.091 A 
ATOM     72  F   UNL A   1      43.778  25.884  32.774  1.00  0.00    -0.205 F 
ATOM     73  C   UNL A   1      43.210  25.058  36.243  1.00  0.00     0.022 A 
BRANCH  71  74
ATOM     74  S   UNL A   1      44.563  23.525  34.420  1.00  0.00     0.127 S 
ATOM     75  O   UNL A   1      45.919  24.047  34.551  1.00  0.00    -0.237 OA
ATOM     76  O   UNL A   1      44.172  22.543  35.431  1.00  0.00    -0.237 OA
ATOM     77  O   UNL A   1      44.137  23.190  33.067  1.00  0.00    -0.744 OA
ENDBRANCH  71  74
ENDBRANCH  53  67
BRANCH  54  78
ATOM     78  C   UNL A   1      43.328  24.986  26.211  1.00  0.00     0.023 A 
ATOM     79  C   UNL A   1      44.312  24.841  25.210  1.00  0.00     0.012 A 
ATOM     80  C   UNL A   1      42.536  23.860  26.527  1.00  0.00     0.148 A 
ATOM     81  C   UNL A   1      44.529  23.610  24.577  1.00  0.00     0.002 A 
ATOM     82  C   UNL A   1      42.750  22.640  25.889  1.00  0.00     0.091 A 
ATOM     83  F   UNL A   1      41.641  23.959  27.519  1.00  0.00    -0.205 F 
ATOM     84  C   UNL A   1      43.756  22.507  24.923  1.00  0.00     0.022 A 
BRANCH  82  85
ATOM     85  S   UNL A   1      41.806  21.166  26.303  1.00  0.00     0.127 S 
ATOM     86  O   UNL A   1      42.175  20.954  27.703  1.00  0.00    -0.237 OA
ATOM     87  O   UNL A   1      40.434  21.619  26.092  1.00  0.00    -0.237 OA
ATOM     88  O   UNL A   1      42.278  20.126  25.397  1.00  0.00    -0.744 OA
ENDBRANCH  82  85
ENDBRANCH  54  78
BRANCH  66  89
ATOM     89  C   UNL A   1      45.937  29.759  29.266  1.00  0.00     0.023 A 
ATOM     90  C   UNL A   1      47.322  29.884  29.035  1.00  0.00     0.012 A 
ATOM     91  C   UNL A   1      45.046  30.514  28.488  1.00  0.00     0.148 A 
ATOM     92  C   UNL A   1      47.804  30.766  28.062  1.00  0.00     0.002 A 
ATOM     93  C   UNL A   1      45.524  31.348  27.489  1.00  0.00     0.091 A 
ATOM     94  F   UNL A   1      43.732  30.388  28.727  1.00  0.00    -0.205 F 
ATOM     95  C   UNL A   1      46.904  31.488  27.278  1.00  0.00     0.022 A 
BRANCH  93  96
ATOM     96  S   UNL A   1      44.396  32.194  26.381  1.00  0.00     0.127 S 
ATOM     97  O   UNL A   1      43.455  31.133  26.035  1.00  0.00    -0.237 OA
ATOM     98  O   UNL A   1      43.845  33.249  27.234  1.00  0.00    -0.237 OA
ATOM     99  O   UNL A   1      45.219  32.691  25.285  1.00  0.00    -0.744 OA
ENDBRANCH  93  96
ENDBRANCH  66  89
ENDBRANCH  40  41
ENDBRANCH  32  35
ENDBRANCH  30  31
ENDBRANCH  29  30
ENDBRANCH   1  29
TORSDOF 19
ENDMDL
MODEL 2
REMARK VINA RESULT:     -12.3      3.596      9.395
REMARK SMILES COc1ccc(-c2ncn(CC(=O)NCCCCNC(=O)c3ccc(-c4c5nc(c(-c6cccc(S(=O)(=O)[O-])c6F)c6ccc([nH]6)c(-c6cccc(S(=O)(=O)[O-])c6F)c6nc(c(-c7cccc(S(=O)(=O)[O-])c7F)c7ccc4[nH]7)C=C6)C=C5)cc3)c2-c2ccc(OC)cc2)cc1
REMARK SMILES IDX 16 1 15 2 14 3 12 4 13 5 11 7 10 8 7 9 8 10 85 11 9 12 6 13
REMARK SMILES IDX 3 14 4 15 95 16 5 17 94 18 2 19 1 20 86 21 87 22 93 23 88 24
REMARK SMILES IDX 92 25 89 26 90 27 91 28 17 29 18 30 19 31 20 32 21 34 22 35
REMARK SMILES IDX 23 36 84 37 24 38 83 39 25 40 26 41 27 42 77 43 28 44 82 45
REMARK SMILES IDX 76 46 78 47 29 48 81 49 75 50 74 51 30 53 62 54 42 55 61 56
REMARK SMILES IDX 43 57 46 58 60 59 79 60 44 61 45 62 59 64 80 65 47 66 31 67
REMARK SMILES IDX 32 68 40 69 33 70 35 71 41 72 34 73 36 74 37 75 38 76 39 77
REMARK SMILES IDX 63 78 64 79 72 80 65 81 67 82 73 83 66 84 68 85 69 86 70 87
REMARK SMILES IDX 71 88 48 89 49 90 57 91 50 92 52 93 58 94 51 95 53 96 54 97
REMARK SMILES IDX 55 98 56 99
REMARK H PARENT 14 6 19 33 78 52 46 63
REMARK Flexibility Score: inf
ROOT
ATOM      1  C   UNL A   1      36.971  23.598  26.321  1.00  0.00     0.023 C 
ENDROOT
BRANCH   1   2
ATOM      2  C   UNL A   1      35.925  22.491  26.154  1.00  0.00     0.116 C 
BRANCH   2   3
ATOM      3  N   UNL A   1      34.627  22.842  26.694  1.00  0.00    -0.355 N 
ATOM      4  C   UNL A   1      33.580  23.490  26.105  1.00  0.00     0.239 C 
ATOM      5  O   UNL A   1      32.536  23.605  26.751  1.00  0.00    -0.273 OA
ATOM      6  H   UNL A   1      34.477  22.572  27.629  1.00  0.00     0.163 HD
BRANCH   4   7
ATOM      7  C   UNL A   1      33.672  24.028  24.694  1.00  0.00     0.223 C 
BRANCH   7   8
ATOM      8  N   UNL A   1      32.428  24.571  24.173  1.00  0.00    -0.321 N 
ATOM      9  C   UNL A   1      30.724  25.806  23.613  1.00  0.00     0.096 A 
ATOM     10  N   UNL A   1      30.463  24.548  23.128  1.00  0.00    -0.236 NA
ATOM     11  C   UNL A   1      31.913  25.841  24.332  1.00  0.00     0.076 A 
ATOM     12  C   UNL A   1      31.494  23.826  23.498  1.00  0.00     0.201 A 
BRANCH   9  13
ATOM     13  C   UNL A   1      29.812  26.922  23.472  1.00  0.00     0.003 A 
ATOM     14  C   UNL A   1      28.016  29.010  22.967  1.00  0.00     0.118 A 
ATOM     15  C   UNL A   1      27.574  27.845  23.594  1.00  0.00     0.047 A 
ATOM     16  C   UNL A   1      29.367  29.157  22.647  1.00  0.00     0.047 A 
ATOM     17  C   UNL A   1      28.466  26.801  23.840  1.00  0.00     0.014 A 
ATOM     18  C   UNL A   1      30.265  28.116  22.906  1.00  0.00     0.014 A 
BRANCH  14  19
ATOM     19  O   UNL A   1      27.066  29.971  22.754  1.00  0.00    -0.497 OA
ATOM     20  C   UNL A   1      27.593  31.231  22.346  1.00  0.00     0.278 C 
ENDBRANCH  14  19
ENDBRANCH   9  13
BRANCH  11  21
ATOM     21  C   UNL A   1      32.466  26.899  25.172  1.00  0.00     0.001 A 
ATOM     22  C   UNL A   1      32.022  27.121  26.474  1.00  0.00     0.014 A 
ATOM     23  C   UNL A   1      33.518  27.679  24.676  1.00  0.00     0.014 A 
ATOM     24  C   UNL A   1      32.580  28.144  27.245  1.00  0.00     0.047 A 
ATOM     25  C   UNL A   1      34.099  28.680  25.458  1.00  0.00     0.047 A 
ATOM     26  C   UNL A   1      33.625  28.923  26.746  1.00  0.00     0.118 A 
BRANCH  26  27
ATOM     27  O   UNL A   1      34.093  29.877  27.607  1.00  0.00    -0.497 OA
ATOM     28  C   UNL A   1      35.502  30.039  27.674  1.00  0.00     0.278 C 
ENDBRANCH  26  27
ENDBRANCH  11  21
ENDBRANCH   7   8
ENDBRANCH   4   7
ENDBRANCH   2   3
ENDBRANCH   1   2
BRANCH   1  29
ATOM     29  C   UNL A   1      38.398  23.261  25.869  1.00  0.00     0.023 C 
BRANCH  29  30
ATOM     30  C   UNL A   1      39.496  23.687  26.833  1.00  0.00     0.116 C 
BRANCH  30  31
ATOM     31  N   UNL A   1      40.829  23.641  26.234  1.00  0.00    -0.352 N 
ATOM     32  C   UNL A   1      41.731  24.680  26.091  1.00  0.00     0.251 C 
ATOM     33  H   UNL A   1      41.119  22.764  25.890  1.00  0.00     0.163 HD
ATOM     34  O   UNL A   1      42.613  24.634  25.249  1.00  0.00    -0.269 OA
BRANCH  32  35
ATOM     35  C   UNL A   1      41.614  25.846  26.987  1.00  0.00     0.039 A 
ATOM     36  C   UNL A   1      42.279  25.881  28.216  1.00  0.00     0.014 A 
ATOM     37  C   UNL A   1      40.836  26.923  26.566  1.00  0.00     0.014 A 
ATOM     38  C   UNL A   1      42.224  27.045  28.980  1.00  0.00     0.010 A 
ATOM     39  C   UNL A   1      40.881  28.108  27.256  1.00  0.00     0.010 A 
ATOM     40  C   UNL A   1      41.542  28.165  28.482  1.00  0.00    -0.014 A 
BRANCH  40  41
ATOM     41  C   UNL A   1      41.680  29.471  29.129  1.00  0.00     0.031 A 
ATOM     42  C   UNL A   1      42.875  30.237  28.659  1.00  0.00     0.074 A 
ATOM     43  C   UNL A   1      40.679  30.020  29.856  1.00  0.00     0.049 A 
ATOM     44  N   UNL A   1      43.881  30.655  29.355  1.00  0.00    -0.248 NA
ATOM     45  C   UNL A   1      43.057  30.410  27.205  1.00  0.00     0.031 C 
ATOM     46  C   UNL A   1      39.345  29.446  30.085  1.00  0.00     0.029 A 
ATOM     47  N   UNL A   1      40.556  31.269  30.395  1.00  0.00    -0.354 N 
ATOM     48  C   UNL A   1      44.675  31.379  28.463  1.00  0.00     0.074 A 
ATOM     49  C   UNL A   1      44.261  30.980  27.147  1.00  0.00     0.031 C 
ATOM     50  C   UNL A   1      38.486  30.425  30.442  1.00  0.00     0.029 A 
ATOM     51  C   UNL A   1      39.231  31.657  30.619  1.00  0.00     0.049 A 
ATOM     52  H   UNL A   1      41.328  31.843  30.604  1.00  0.00     0.167 HD
ATOM     53  C   UNL A   1      45.371  32.476  28.877  1.00  0.00     0.034 A 
ATOM     54  C   UNL A   1      38.762  32.908  30.863  1.00  0.00     0.034 A 
ATOM     55  C   UNL A   1      45.495  32.486  30.314  1.00  0.00     0.049 A 
ATOM     56  C   UNL A   1      39.915  33.736  31.270  1.00  0.00     0.074 A 
ATOM     57  C   UNL A   1      46.003  31.624  31.265  1.00  0.00     0.029 A 
ATOM     58  N   UNL A   1      44.677  33.359  30.985  1.00  0.00    -0.354 N 
ATOM     59  N   UNL A   1      40.567  33.571  32.383  1.00  0.00    -0.248 NA
ATOM     60  C   UNL A   1      40.611  34.479  30.234  1.00  0.00     0.031 C 
ATOM     61  C   UNL A   1      45.111  31.734  32.372  1.00  0.00     0.029 A 
ATOM     62  C   UNL A   1      44.167  32.718  32.077  1.00  0.00     0.049 A 
ATOM     63  H   UNL A   1      44.490  34.290  30.725  1.00  0.00     0.167 HD
ATOM     64  C   UNL A   1      41.895  33.738  32.019  1.00  0.00     0.074 A 
ATOM     65  C   UNL A   1      41.851  34.416  30.724  1.00  0.00     0.031 C 
ATOM     66  C   UNL A   1      42.880  33.039  32.652  1.00  0.00     0.034 A 
BRANCH  53  67
ATOM     67  C   UNL A   1      45.541  33.758  28.071  1.00  0.00     0.023 A 
ATOM     68  C   UNL A   1      46.868  34.130  27.743  1.00  0.00     0.012 A 
ATOM     69  C   UNL A   1      44.549  34.750  27.889  1.00  0.00     0.148 A 
ATOM     70  C   UNL A   1      47.198  35.434  27.356  1.00  0.00     0.002 A 
ATOM     71  C   UNL A   1      44.870  36.023  27.430  1.00  0.00     0.091 A 
ATOM     72  F   UNL A   1      43.290  34.527  28.267  1.00  0.00    -0.205 F 
ATOM     73  C   UNL A   1      46.198  36.384  27.200  1.00  0.00     0.022 A 
BRANCH  71  74
ATOM     74  S   UNL A   1      43.609  37.280  27.168  1.00  0.00     0.127 S 
ATOM     75  O   UNL A   1      43.125  37.494  28.528  1.00  0.00    -0.237 OA
ATOM     76  O   UNL A   1      44.398  38.376  26.606  1.00  0.00    -0.237 OA
ATOM     77  O   UNL A   1      42.653  36.694  26.236  1.00  0.00    -0.744 OA
ENDBRANCH  71  74
ENDBRANCH  53  67
BRANCH  54  78
ATOM     78  C   UNL A   1      37.453  33.536  30.554  1.00  0.00     0.023 A 
ATOM     79  C   UNL A   1      36.986  33.556  29.222  1.00  0.00     0.012 A 
ATOM     80  C   UNL A   1      36.535  33.845  31.580  1.00  0.00     0.148 A 
ATOM     81  C   UNL A   1      35.644  33.832  28.926  1.00  0.00     0.002 A 
ATOM     82  C   UNL A   1      35.203  34.128  31.282  1.00  0.00     0.091 A 
ATOM     83  F   UNL A   1      36.942  33.768  32.855  1.00  0.00    -0.205 F 
ATOM     84  C   UNL A   1      34.751  34.107  29.956  1.00  0.00     0.022 A 
BRANCH  82  85
ATOM     85  S   UNL A   1      33.987  34.468  32.562  1.00  0.00     0.127 S 
ATOM     86  O   UNL A   1      32.891  35.053  31.789  1.00  0.00    -0.237 OA
ATOM     87  O   UNL A   1      33.721  33.131  33.086  1.00  0.00    -0.237 OA
ATOM     88  O   UNL A   1      34.631  35.396  33.483  1.00  0.00    -0.744 OA
ENDBRANCH  82  85
ENDBRANCH  54  78
BRANCH  66  89
ATOM     89  C   UNL A   1      42.549  32.371  33.960  1.00  0.00     0.023 A 
ATOM     90  C   UNL A   1      42.427  33.064  35.181  1.00  0.00     0.012 A 
ATOM     91  C   UNL A   1      42.210  31.010  33.913  1.00  0.00     0.148 A 
ATOM     92  C   UNL A   1      41.999  32.400  36.336  1.00  0.00     0.002 A 
ATOM     93  C   UNL A   1      41.737  30.367  35.046  1.00  0.00     0.091 A 
ATOM     94  F   UNL A   1      42.340  30.364  32.744  1.00  0.00    -0.205 F 
ATOM     95  C   UNL A   1      41.640  31.054  36.265  1.00  0.00     0.022 A 
BRANCH  93  96
ATOM     96  S   UNL A   1      41.149  28.676  34.966  1.00  0.00     0.127 S 
ATOM     97  O   UNL A   1      40.055  28.779  34.003  1.00  0.00    -0.237 OA
ATOM     98  O   UNL A   1      42.326  27.953  34.481  1.00  0.00    -0.237 OA
ATOM     99  O   UNL A   1      40.761  28.327  36.328  1.00  0.00    -0.744 OA
ENDBRANCH  93  96
ENDBRANCH  66  89
ENDBRANCH  40  41
ENDBRANCH  32  35
ENDBRANCH  30  31
ENDBRANCH  29  30
ENDBRANCH   1  29
TORSDOF 19
ENDMDL
MODEL 3
REMARK VINA RESULT:     -12.0      3.078      9.059
REMARK SMILES COc1ccc(-c2ncn(CC(=O)NCCCCNC(=O)c3ccc(-c4c5nc(c(-c6cccc(S(=O)(=O)[O-])c6F)c6ccc([nH]6)c(-c6cccc(S(=O)(=O)[O-])c6F)c6nc(c(-c7cccc(S(=O)(=O)[O-])c7F)c7ccc4[nH]7)C=C6)C=C5)cc3)c2-c2ccc(OC)cc2)cc1
REMARK SMILES IDX 16 1 15 2 14 3 12 4 13 5 11 7 10 8 7 9 8 10 85 11 9 12 6 13
REMARK SMILES IDX 3 14 4 15 95 16 5 17 94 18 2 19 1 20 86 21 87 22 93 23 88 24
REMARK SMILES IDX 92 25 89 26 90 27 91 28 17 29 18 30 19 31 20 32 21 34 22 35
REMARK SMILES IDX 23 36 84 37 24 38 83 39 25 40 26 41 27 42 77 43 28 44 82 45
REMARK SMILES IDX 76 46 78 47 29 48 81 49 75 50 74 51 30 53 62 54 42 55 61 56
REMARK SMILES IDX 43 57 46 58 60 59 79 60 44 61 45 62 59 64 80 65 47 66 31 67
REMARK SMILES IDX 32 68 40 69 33 70 35 71 41 72 34 73 36 74 37 75 38 76 39 77
REMARK SMILES IDX 63 78 64 79 72 80 65 81 67 82 73 83 66 84 68 85 69 86 70 87
REMARK SMILES IDX 71 88 48 89 49 90 57 91 50 92 52 93 58 94 51 95 53 96 54 97
REMARK SMILES IDX 55 98 56 99
REMARK H PARENT 14 6 19 33 78 52 46 63
REMARK Flexibility Score: inf
ROOT
ATOM      1  C   UNL A   1      36.027  21.960  25.159  1.00  0.00     0.023 C 
ENDROOT
BRANCH   1   2
ATOM      2  C   UNL A   1      34.736  21.208  25.499  1.00  0.00     0.116 C 
BRANCH   2   3
ATOM      3  N   UNL A   1      33.810  21.988  26.295  1.00  0.00    -0.355 N 
ATOM      4  C   UNL A   1      33.100  23.106  25.965  1.00  0.00     0.239 C 
ATOM      5  O   UNL A   1      32.307  23.551  26.798  1.00  0.00    -0.273 OA
ATOM      6  H   UNL A   1      33.672  21.662  27.214  1.00  0.00     0.163 HD
BRANCH   4   7
ATOM      7  C   UNL A   1      33.248  23.771  24.614  1.00  0.00     0.223 C 
BRANCH   7   8
ATOM      8  N   UNL A   1      32.038  24.409  24.121  1.00  0.00    -0.321 N 
ATOM      9  C   UNL A   1      30.450  25.782  23.544  1.00  0.00     0.096 A 
ATOM     10  N   UNL A   1      30.009  24.525  23.213  1.00  0.00    -0.236 NA
ATOM     11  C   UNL A   1      31.686  25.741  24.177  1.00  0.00     0.076 A 
ATOM     12  C   UNL A   1      30.976  23.722  23.590  1.00  0.00     0.201 A 
BRANCH   9  13
ATOM     13  C   UNL A   1      29.664  26.983  23.346  1.00  0.00     0.003 A 
ATOM     14  C   UNL A   1      28.095  29.221  22.737  1.00  0.00     0.118 A 
ATOM     15  C   UNL A   1      27.551  28.164  23.466  1.00  0.00     0.047 A 
ATOM     16  C   UNL A   1      29.440  29.187  22.364  1.00  0.00     0.047 A 
ATOM     17  C   UNL A   1      28.329  27.045  23.765  1.00  0.00     0.014 A 
ATOM     18  C   UNL A   1      30.225  28.072  22.674  1.00  0.00     0.014 A 
BRANCH  14  19
ATOM     19  O   UNL A   1      27.252  30.267  22.479  1.00  0.00    -0.497 OA
ATOM     20  C   UNL A   1      27.585  31.468  23.170  1.00  0.00     0.278 C 
ENDBRANCH  14  19
ENDBRANCH   9  13
BRANCH  11  21
ATOM     21  C   UNL A   1      32.420  26.800  24.864  1.00  0.00     0.001 A 
ATOM     22  C   UNL A   1      32.267  27.046  26.227  1.00  0.00     0.014 A 
ATOM     23  C   UNL A   1      33.353  27.556  24.143  1.00  0.00     0.014 A 
ATOM     24  C   UNL A   1      32.990  28.070  26.845  1.00  0.00     0.047 A 
ATOM     25  C   UNL A   1      34.102  28.557  24.768  1.00  0.00     0.047 A 
ATOM     26  C   UNL A   1      33.916  28.824  26.123  1.00  0.00     0.118 A 
BRANCH  26  27
ATOM     27  O   UNL A   1      34.569  29.781  26.849  1.00  0.00    -0.497 OA
ATOM     28  C   UNL A   1      35.481  29.320  27.836  1.00  0.00     0.278 C 
ENDBRANCH  26  27
ENDBRANCH  11  21
ENDBRANCH   7   8
ENDBRANCH   4   7
ENDBRANCH   2   3
ENDBRANCH   1   2
BRANCH   1  29
ATOM     29  C   UNL A   1      36.534  22.954  26.213  1.00  0.00     0.023 C 
BRANCH  29  30
ATOM     30  C   UNL A   1      37.824  23.676  25.848  1.00  0.00     0.116 C 
BRANCH  30  31
ATOM     31  N   UNL A   1      39.002  22.812  25.932  1.00  0.00    -0.352 N 
ATOM     32  C   UNL A   1      40.262  23.141  26.396  1.00  0.00     0.251 C 
ATOM     33  H   UNL A   1      38.882  21.886  25.619  1.00  0.00     0.163 HD
ATOM     34  O   UNL A   1      41.243  22.495  26.061  1.00  0.00    -0.269 OA
BRANCH  32  35
ATOM     35  C   UNL A   1      40.401  24.284  27.318  1.00  0.00     0.039 A 
ATOM     36  C   UNL A   1      41.557  24.457  28.085  1.00  0.00     0.014 A 
ATOM     37  C   UNL A   1      39.354  25.201  27.390  1.00  0.00     0.014 A 
ATOM     38  C   UNL A   1      41.687  25.606  28.861  1.00  0.00     0.010 A 
ATOM     39  C   UNL A   1      39.531  26.388  28.056  1.00  0.00     0.010 A 
ATOM     40  C   UNL A   1      40.678  26.581  28.823  1.00  0.00    -0.014 A 
BRANCH  40  41
ATOM     41  C   UNL A   1      40.896  27.902  29.415  1.00  0.00     0.031 A 
ATOM     42  C   UNL A   1      41.877  28.734  28.653  1.00  0.00     0.074 A 
ATOM     43  C   UNL A   1      40.083  28.399  30.377  1.00  0.00     0.049 A 
ATOM     44  N   UNL A   1      43.000  29.224  29.067  1.00  0.00    -0.248 NA
ATOM     45  C   UNL A   1      41.667  28.896  27.202  1.00  0.00     0.031 C 
ATOM     46  C   UNL A   1      38.892  27.747  30.941  1.00  0.00     0.029 A 
ATOM     47  N   UNL A   1      40.023  29.646  30.931  1.00  0.00    -0.354 N 
ATOM     48  C   UNL A   1      43.489  29.982  28.001  1.00  0.00     0.074 A 
ATOM     49  C   UNL A   1      42.777  29.539  26.836  1.00  0.00     0.031 C 
ATOM     50  C   UNL A   1      38.094  28.676  31.510  1.00  0.00     0.029 A 
ATOM     51  C   UNL A   1      38.779  29.954  31.491  1.00  0.00     0.049 A 
ATOM     52  H   UNL A   1      40.785  30.270  30.935  1.00  0.00     0.167 HD
ATOM     53  C   UNL A   1      44.197  31.125  28.223  1.00  0.00     0.034 A 
ATOM     54  C   UNL A   1      38.311  31.177  31.850  1.00  0.00     0.034 A 
ATOM     55  C   UNL A   1      44.687  31.165  29.579  1.00  0.00     0.049 A 
ATOM     56  C   UNL A   1      39.475  32.081  31.946  1.00  0.00     0.074 A 
ATOM     57  C   UNL A   1      45.477  30.350  30.365  1.00  0.00     0.029 A 
ATOM     58  N   UNL A   1      44.016  31.995  30.441  1.00  0.00    -0.354 N 
ATOM     59  N   UNL A   1      40.401  31.973  32.854  1.00  0.00    -0.248 NA
ATOM     60  C   UNL A   1      39.831  32.851  30.767  1.00  0.00     0.031 C 
ATOM     61  C   UNL A   1      44.896  30.421  31.666  1.00  0.00     0.029 A 
ATOM     62  C   UNL A   1      43.846  31.340  31.626  1.00  0.00     0.049 A 
ATOM     63  H   UNL A   1      43.710  32.909  30.239  1.00  0.00     0.167 HD
ATOM     64  C   UNL A   1      41.576  32.217  32.159  1.00  0.00     0.074 A 
ATOM     65  C   UNL A   1      41.157  32.871  30.921  1.00  0.00     0.031 C 
ATOM     66  C   UNL A   1      42.734  31.589  32.515  1.00  0.00     0.034 A 
BRANCH  53  67
ATOM     67  C   UNL A   1      44.073  32.404  27.403  1.00  0.00     0.023 A 
ATOM     68  C   UNL A   1      44.897  32.506  26.256  1.00  0.00     0.012 A 
ATOM     69  C   UNL A   1      43.452  33.599  27.837  1.00  0.00     0.148 A 
ATOM     70  C   UNL A   1      45.167  33.735  25.644  1.00  0.00     0.002 A 
ATOM     71  C   UNL A   1      43.662  34.807  27.179  1.00  0.00     0.091 A 
ATOM     72  F   UNL A   1      42.742  33.623  28.965  1.00  0.00    -0.205 F 
ATOM     73  C   UNL A   1      44.549  34.889  26.106  1.00  0.00     0.022 A 
BRANCH  71  74
ATOM     74  S   UNL A   1      42.853  36.325  27.708  1.00  0.00     0.127 S 
ATOM     75  O   UNL A   1      42.709  37.034  26.441  1.00  0.00    -0.237 OA
ATOM     76  O   UNL A   1      41.609  35.812  28.281  1.00  0.00    -0.237 OA
ATOM     77  O   UNL A   1      43.751  36.934  28.682  1.00  0.00    -0.744 OA
ENDBRANCH  71  74
ENDBRANCH  53  67
BRANCH  54  78
ATOM     78  C   UNL A   1      36.929  31.718  31.891  1.00  0.00     0.023 A 
ATOM     79  C   UNL A   1      36.334  32.017  33.135  1.00  0.00     0.012 A 
ATOM     80  C   UNL A   1      36.309  32.217  30.725  1.00  0.00     0.148 A 
ATOM     81  C   UNL A   1      35.187  32.820  33.218  1.00  0.00     0.002 A 
ATOM     82  C   UNL A   1      35.164  33.007  30.810  1.00  0.00     0.091 A 
ATOM     83  F   UNL A   1      36.895  31.999  29.539  1.00  0.00    -0.205 F 
ATOM     84  C   UNL A   1      34.609  33.322  32.057  1.00  0.00     0.022 A 
BRANCH  82  85
ATOM     85  S   UNL A   1      34.378  33.712  29.356  1.00  0.00     0.127 S 
ATOM     86  O   UNL A   1      35.463  34.508  28.781  1.00  0.00    -0.237 OA
ATOM     87  O   UNL A   1      34.025  32.517  28.596  1.00  0.00    -0.237 OA
ATOM     88  O   UNL A   1      33.258  34.502  29.854  1.00  0.00    -0.744 OA
ENDBRANCH  82  85
ENDBRANCH  54  78
BRANCH  66  89
ATOM     89  C   UNL A   1      42.794  30.921  33.862  1.00  0.00     0.023 A 
ATOM     90  C   UNL A   1      43.026  31.615  35.067  1.00  0.00     0.012 A 
ATOM     91  C   UNL A   1      42.461  29.559  33.914  1.00  0.00     0.148 A 
ATOM     92  C   UNL A   1      42.950  30.950  36.296  1.00  0.00     0.002 A 
ATOM     93  C   UNL A   1      42.335  28.916  35.136  1.00  0.00     0.091 A 
ATOM     94  F   UNL A   1      42.251  28.912  32.757  1.00  0.00    -0.205 F 
ATOM     95  C   UNL A   1      42.590  29.604  36.332  1.00  0.00     0.022 A 
BRANCH  93  96
ATOM     96  S   UNL A   1      41.754  27.222  35.228  1.00  0.00     0.127 S 
ATOM     97  O   UNL A   1      41.364  27.110  36.631  1.00  0.00    -0.237 OA
ATOM     98  O   UNL A   1      40.639  27.218  34.279  1.00  0.00    -0.237 OA
ATOM     99  O   UNL A   1      42.882  26.395  34.817  1.00  0.00    -0.744 OA
ENDBRANCH  93  96
ENDBRANCH  66  89
ENDBRANCH  40  41
ENDBRANCH  32  35
ENDBRANCH  30  31
ENDBRANCH  29  30
ENDBRANCH   1  29
TORSDOF 19
ENDMDL
