MODEL 1
REMARK VINA RESULT:     -10.5      0.000      0.000
REMARK SMILES C#CC[C@@]1(C(=O)NCCCCNC(=O)c2ccc(-c3c4nc(c(-c5cccc(S(=O)(=O)[O-])c5F)c5ccc([nH]5)c(-c5cccc(S(=O)(=O)[O-])c5F)c5nc(c(-c6cccc(S(=O)(=O)[O-])c6F)c6ccc3[nH]6)C=C5)C=C4)cc2)CCCN1C(=O)OC(C)(C)C
REMARK SMILES IDX 9 1 8 2 7 3 5 4 6 5 4 7 78 8 81 9 79 10 80 11 3 12 2 13 1 14
REMARK SMILES IDX 82 15 83 16 84 17 85 18 86 19 87 20 88 21 10 22 11 23 12 24
REMARK SMILES IDX 13 25 14 27 15 28 16 29 77 30 17 31 76 32 18 33 19 34 20 35
REMARK SMILES IDX 70 36 21 37 75 38 69 39 71 40 22 41 74 42 68 43 67 44 23 46
REMARK SMILES IDX 55 47 35 48 54 49 36 50 39 51 53 52 72 53 37 54 38 55 52 57
REMARK SMILES IDX 73 58 40 59 24 60 25 61 33 62 26 63 28 64 34 65 27 66 29 67
REMARK SMILES IDX 30 68 31 69 32 70 56 71 57 72 65 73 58 74 60 75 66 76 59 77
REMARK SMILES IDX 61 78 62 79 63 80 64 81 41 82 42 83 50 84 43 85 45 86 51 87
REMARK SMILES IDX 44 88 46 89 47 90 48 91 49 92
REMARK H PARENT 7 6 12 26 71 45 39 56
REMARK Flexibility Score: inf
ROOT
ATOM      1  C   UNL A   1      31.780  27.933  27.224  1.00  0.00     0.023 C 
ENDROOT
BRANCH   1   2
ATOM      2  C   UNL A   1      31.676  26.594  26.501  1.00  0.00     0.116 C 
BRANCH   2   3
ATOM      3  N   UNL A   1      30.821  26.709  25.346  1.00  0.00    -0.354 N 
ATOM      4  C   UNL A   1      30.919  26.345  24.049  1.00  0.00     0.247 C 
ATOM      5  O   UNL A   1      29.904  26.622  23.391  1.00  0.00    -0.272 OA
ATOM      6  H   UNL A   1      29.968  27.156  25.550  1.00  0.00     0.163 HD
BRANCH   4   7
ATOM      7  C   UNL A   1      32.141  25.642  23.362  1.00  0.00     0.136 C 
ATOM      8  C   UNL A   1      32.146  25.600  21.814  1.00  0.00     0.042 C 
ATOM      9  N   UNL A   1      32.303  24.160  23.605  1.00  0.00    -0.292 N 
ATOM     10  C   UNL A   1      33.225  24.589  21.460  1.00  0.00     0.025 C 
ATOM     11  C   UNL A   1      32.965  23.504  22.483  1.00  0.00     0.124 C 
BRANCH   7  12
ATOM     12  C   UNL A   1      33.383  26.416  23.909  1.00  0.00     0.128 C 
BRANCH  12  13
ATOM     13  C   UNL A   1      33.588  27.778  23.267  1.00  0.00    -0.104 C 
ATOM     14  C   UNL A   1      33.765  28.947  22.718  1.00  0.00     0.004 C 
ENDBRANCH  12  13
ENDBRANCH   7  12
BRANCH   9  15
ATOM     15  C   UNL A   1      32.063  23.377  24.714  1.00  0.00     0.411 C 
ATOM     16  O   UNL A   1      31.039  22.713  24.817  1.00  0.00    -0.224 OA
BRANCH  15  17
ATOM     17  O   UNL A   1      33.001  23.481  25.676  1.00  0.00    -0.444 OA
BRANCH  17  18
ATOM     18  C   UNL A   1      34.098  22.527  25.736  1.00  0.00     0.106 C 
ATOM     19  C   UNL A   1      33.694  21.184  25.112  1.00  0.00     0.056 C 
ATOM     20  C   UNL A   1      35.380  23.084  25.101  1.00  0.00     0.056 C 
ATOM     21  C   UNL A   1      34.361  22.304  27.233  1.00  0.00     0.056 C 
ENDBRANCH  17  18
ENDBRANCH  15  17
ENDBRANCH   9  15
ENDBRANCH   4   7
ENDBRANCH   2   3
ENDBRANCH   1   2
BRANCH   1  22
ATOM     22  C   UNL A   1      31.482  29.132  26.318  1.00  0.00     0.023 C 
BRANCH  22  23
ATOM     23  C   UNL A   1      32.681  30.032  26.035  1.00  0.00     0.116 C 
BRANCH  23  24
ATOM     24  N   UNL A   1      32.460  31.417  26.429  1.00  0.00    -0.352 N 
ATOM     25  C   UNL A   1      33.210  32.181  27.289  1.00  0.00     0.251 C 
ATOM     26  H   UNL A   1      31.676  31.860  26.031  1.00  0.00     0.163 HD
ATOM     27  O   UNL A   1      32.833  33.297  27.627  1.00  0.00    -0.269 OA
BRANCH  25  28
ATOM     28  C   UNL A   1      34.461  31.612  27.823  1.00  0.00     0.039 A 
ATOM     29  C   UNL A   1      35.562  32.449  28.001  1.00  0.00     0.014 A 
ATOM     30  C   UNL A   1      34.509  30.272  28.216  1.00  0.00     0.014 A 
ATOM     31  C   UNL A   1      36.702  31.952  28.633  1.00  0.00     0.010 A 
ATOM     32  C   UNL A   1      35.613  29.804  28.916  1.00  0.00     0.010 A 
ATOM     33  C   UNL A   1      36.723  30.637  29.127  1.00  0.00    -0.014 A 
BRANCH  33  34
ATOM     34  C   UNL A   1      37.893  30.118  29.876  1.00  0.00     0.031 A 
ATOM     35  C   UNL A   1      38.152  30.580  31.284  1.00  0.00     0.074 A 
ATOM     36  C   UNL A   1      38.767  29.296  29.259  1.00  0.00     0.049 A 
ATOM     37  N   UNL A   1      39.142  30.271  32.081  1.00  0.00    -0.248 NA
ATOM     38  C   UNL A   1      37.191  31.533  31.864  1.00  0.00     0.031 C 
ATOM     39  C   UNL A   1      38.669  28.845  27.870  1.00  0.00     0.029 A 
ATOM     40  N   UNL A   1      39.924  28.715  29.715  1.00  0.00    -0.354 N 
ATOM     41  C   UNL A   1      38.944  31.019  33.236  1.00  0.00     0.074 A 
ATOM     42  C   UNL A   1      37.760  31.822  33.024  1.00  0.00     0.031 C 
ATOM     43  C   UNL A   1      39.716  28.053  27.588  1.00  0.00     0.029 A 
ATOM     44  C   UNL A   1      40.578  27.968  28.763  1.00  0.00     0.049 A 
ATOM     45  H   UNL A   1      40.254  28.823  30.637  1.00  0.00     0.167 HD
ATOM     46  C   UNL A   1      39.668  31.018  34.380  1.00  0.00     0.034 A 
ATOM     47  C   UNL A   1      41.748  27.301  28.825  1.00  0.00     0.034 A 
ATOM     48  C   UNL A   1      40.822  30.190  34.599  1.00  0.00     0.049 A 
ATOM     49  C   UNL A   1      42.512  27.290  30.121  1.00  0.00     0.074 A 
ATOM     50  C   UNL A   1      41.566  30.042  35.756  1.00  0.00     0.029 A 
ATOM     51  N   UNL A   1      41.411  29.383  33.638  1.00  0.00    -0.354 N 
ATOM     52  N   UNL A   1      42.217  27.869  31.260  1.00  0.00    -0.248 NA
ATOM     53  C   UNL A   1      43.753  26.503  30.154  1.00  0.00     0.031 C 
ATOM     54  C   UNL A   1      42.630  29.177  35.482  1.00  0.00     0.029 A 
ATOM     55  C   UNL A   1      42.521  28.750  34.168  1.00  0.00     0.049 A 
ATOM     56  H   UNL A   1      41.088  29.277  32.713  1.00  0.00     0.167 HD
ATOM     57  C   UNL A   1      43.210  27.486  32.152  1.00  0.00     0.074 A 
ATOM     58  C   UNL A   1      44.106  26.608  31.428  1.00  0.00     0.031 C 
ATOM     59  C   UNL A   1      43.375  27.839  33.451  1.00  0.00     0.034 A 
BRANCH  46  60
ATOM     60  C   UNL A   1      39.211  31.914  35.501  1.00  0.00     0.023 A 
ATOM     61  C   UNL A   1      38.312  31.425  36.470  1.00  0.00     0.012 A 
ATOM     62  C   UNL A   1      39.721  33.221  35.632  1.00  0.00     0.148 A 
ATOM     63  C   UNL A   1      37.899  32.231  37.529  1.00  0.00     0.002 A 
ATOM     64  C   UNL A   1      39.345  34.001  36.718  1.00  0.00     0.091 A 
ATOM     65  F   UNL A   1      40.560  33.676  34.689  1.00  0.00    -0.205 F 
ATOM     66  C   UNL A   1      38.424  33.514  37.659  1.00  0.00     0.022 A 
BRANCH  64  67
ATOM     67  S   UNL A   1      40.029  35.634  37.021  1.00  0.00     0.127 S 
ATOM     68  O   UNL A   1      39.379  35.995  38.281  1.00  0.00    -0.237 OA
ATOM     69  O   UNL A   1      41.459  35.350  37.132  1.00  0.00    -0.237 OA
ATOM     70  O   UNL A   1      39.655  36.448  35.873  1.00  0.00    -0.744 OA
ENDBRANCH  64  67
ENDBRANCH  46  60
BRANCH  47  71
ATOM     71  C   UNL A   1      42.245  26.549  27.638  1.00  0.00     0.023 A 
ATOM     72  C   UNL A   1      43.007  27.217  26.659  1.00  0.00     0.012 A 
ATOM     73  C   UNL A   1      41.973  25.177  27.477  1.00  0.00     0.148 A 
ATOM     74  C   UNL A   1      43.455  26.542  25.523  1.00  0.00     0.002 A 
ATOM     75  C   UNL A   1      42.472  24.497  26.373  1.00  0.00     0.091 A 
ATOM     76  F   UNL A   1      41.239  24.562  28.415  1.00  0.00    -0.205 F 
ATOM     77  C   UNL A   1      43.195  25.181  25.384  1.00  0.00     0.022 A 
BRANCH  75  78
ATOM     78  S   UNL A   1      42.299  22.720  26.179  1.00  0.00     0.127 S 
ATOM     79  O   UNL A   1      40.847  22.562  26.159  1.00  0.00    -0.237 OA
ATOM     80  O   UNL A   1      42.961  22.492  24.894  1.00  0.00    -0.237 OA
ATOM     81  O   UNL A   1      42.985  22.130  27.320  1.00  0.00    -0.744 OA
ENDBRANCH  75  78
ENDBRANCH  47  71
BRANCH  59  82
ATOM     82  C   UNL A   1      44.538  27.239  34.198  1.00  0.00     0.023 A 
ATOM     83  C   UNL A   1      45.768  27.922  34.260  1.00  0.00     0.012 A 
ATOM     84  C   UNL A   1      44.383  26.027  34.902  1.00  0.00     0.148 A 
ATOM     85  C   UNL A   1      46.838  27.391  34.979  1.00  0.00     0.002 A 
ATOM     86  C   UNL A   1      45.436  25.533  35.662  1.00  0.00     0.091 A 
ATOM     87  F   UNL A   1      43.209  25.385  34.817  1.00  0.00    -0.205 F 
ATOM     88  C   UNL A   1      46.668  26.205  35.689  1.00  0.00     0.022 A 
BRANCH  86  89
ATOM     89  S   UNL A   1      45.276  24.069  36.689  1.00  0.00     0.127 S 
ATOM     90  O   UNL A   1      46.663  23.830  37.086  1.00  0.00    -0.237 OA
ATOM     91  O   UNL A   1      44.406  24.541  37.767  1.00  0.00    -0.237 OA
ATOM     92  O   UNL A   1      44.685  23.043  35.841  1.00  0.00    -0.744 OA
ENDBRANCH  86  89
ENDBRANCH  59  82
ENDBRANCH  33  34
ENDBRANCH  25  28
ENDBRANCH  23  24
ENDBRANCH  22  23
ENDBRANCH   1  22
TORSDOF 19
ENDMDL
MODEL 2
REMARK VINA RESULT:     -10.4      1.351      3.068
REMARK SMILES C#CC[C@@]1(C(=O)NCCCCNC(=O)c2ccc(-c3c4nc(c(-c5cccc(S(=O)(=O)[O-])c5F)c5ccc([nH]5)c(-c5cccc(S(=O)(=O)[O-])c5F)c5nc(c(-c6cccc(S(=O)(=O)[O-])c6F)c6ccc3[nH]6)C=C5)C=C4)cc2)CCCN1C(=O)OC(C)(C)C
REMARK SMILES IDX 9 1 8 2 7 3 5 4 6 5 4 7 78 8 81 9 79 10 80 11 3 12 2 13 1 14
REMARK SMILES IDX 82 15 83 16 84 17 85 18 86 19 87 20 88 21 10 22 11 23 12 24
REMARK SMILES IDX 13 25 14 27 15 28 16 29 77 30 17 31 76 32 18 33 19 34 20 35
REMARK SMILES IDX 70 36 21 37 75 38 69 39 71 40 22 41 74 42 68 43 67 44 23 46
REMARK SMILES IDX 55 47 35 48 54 49 36 50 39 51 53 52 72 53 37 54 38 55 52 57
REMARK SMILES IDX 73 58 40 59 24 60 25 61 33 62 26 63 28 64 34 65 27 66 29 67
REMARK SMILES IDX 30 68 31 69 32 70 56 71 57 72 65 73 58 74 60 75 66 76 59 77
REMARK SMILES IDX 61 78 62 79 63 80 64 81 41 82 42 83 50 84 43 85 45 86 51 87
REMARK SMILES IDX 44 88 46 89 47 90 48 91 49 92
REMARK H PARENT 7 6 12 26 71 45 39 56
REMARK Flexibility Score: inf
ROOT
ATOM      1  C   UNL A   1      31.690  28.232  27.651  1.00  0.00     0.023 C 
ENDROOT
BRANCH   1   2
ATOM      2  C   UNL A   1      32.165  26.963  26.951  1.00  0.00     0.116 C 
BRANCH   2   3
ATOM      3  N   UNL A   1      31.089  26.370  26.196  1.00  0.00    -0.354 N 
ATOM      4  C   UNL A   1      30.755  26.326  24.889  1.00  0.00     0.247 C 
ATOM      5  O   UNL A   1      29.731  25.659  24.674  1.00  0.00    -0.272 OA
ATOM      6  H   UNL A   1      30.450  25.884  26.766  1.00  0.00     0.163 HD
BRANCH   4   7
ATOM      7  C   UNL A   1      31.519  27.009  23.701  1.00  0.00     0.136 C 
ATOM      8  C   UNL A   1      33.000  27.389  23.946  1.00  0.00     0.042 C 
ATOM      9  N   UNL A   1      31.030  28.369  23.266  1.00  0.00    -0.292 N 
ATOM     10  C   UNL A   1      33.354  28.314  22.793  1.00  0.00     0.025 C 
ATOM     11  C   UNL A   1      32.110  29.171  22.703  1.00  0.00     0.124 C 
BRANCH   7  12
ATOM     12  C   UNL A   1      31.385  25.988  22.526  1.00  0.00     0.128 C 
BRANCH  12  13
ATOM     13  C   UNL A   1      32.068  24.656  22.790  1.00  0.00    -0.104 C 
ATOM     14  C   UNL A   1      32.652  23.513  23.016  1.00  0.00     0.004 C 
ENDBRANCH  12  13
ENDBRANCH   7  12
BRANCH   9  15
ATOM     15  C   UNL A   1      29.765  28.913  23.191  1.00  0.00     0.411 C 
ATOM     16  O   UNL A   1      28.813  28.262  22.777  1.00  0.00    -0.224 OA
BRANCH  15  17
ATOM     17  O   UNL A   1      29.703  30.215  23.531  1.00  0.00    -0.444 OA
BRANCH  17  18
ATOM     18  C   UNL A   1      28.772  31.107  22.856  1.00  0.00     0.106 C 
ATOM     19  C   UNL A   1      29.258  32.562  22.923  1.00  0.00     0.056 C 
ATOM     20  C   UNL A   1      28.499  30.667  21.411  1.00  0.00     0.056 C 
ATOM     21  C   UNL A   1      27.460  31.000  23.647  1.00  0.00     0.056 C 
ENDBRANCH  17  18
ENDBRANCH  15  17
ENDBRANCH   9  15
ENDBRANCH   4   7
ENDBRANCH   2   3
ENDBRANCH   1   2
BRANCH   1  22
ATOM     22  C   UNL A   1      31.394  29.381  26.681  1.00  0.00     0.023 C 
BRANCH  22  23
ATOM     23  C   UNL A   1      32.610  30.213  26.289  1.00  0.00     0.116 C 
BRANCH  23  24
ATOM     24  N   UNL A   1      32.453  31.631  26.592  1.00  0.00    -0.352 N 
ATOM     25  C   UNL A   1      33.260  32.422  27.371  1.00  0.00     0.251 C 
ATOM     26  H   UNL A   1      31.673  32.074  26.189  1.00  0.00     0.163 HD
ATOM     27  O   UNL A   1      32.935  33.573  27.642  1.00  0.00    -0.269 OA
BRANCH  25  28
ATOM     28  C   UNL A   1      34.507  31.844  27.902  1.00  0.00     0.039 A 
ATOM     29  C   UNL A   1      35.628  32.664  28.039  1.00  0.00     0.014 A 
ATOM     30  C   UNL A   1      34.535  30.516  28.335  1.00  0.00     0.014 A 
ATOM     31  C   UNL A   1      36.767  32.163  28.668  1.00  0.00     0.010 A 
ATOM     32  C   UNL A   1      35.641  30.047  29.032  1.00  0.00     0.010 A 
ATOM     33  C   UNL A   1      36.770  30.863  29.201  1.00  0.00    -0.014 A 
BRANCH  33  34
ATOM     34  C   UNL A   1      37.942  30.343  29.947  1.00  0.00     0.031 A 
ATOM     35  C   UNL A   1      38.218  30.822  31.346  1.00  0.00     0.074 A 
ATOM     36  C   UNL A   1      38.801  29.503  29.336  1.00  0.00     0.049 A 
ATOM     37  N   UNL A   1      39.211  30.515  32.139  1.00  0.00    -0.248 NA
ATOM     38  C   UNL A   1      37.271  31.794  31.920  1.00  0.00     0.031 C 
ATOM     39  C   UNL A   1      38.686  29.033  27.954  1.00  0.00     0.029 A 
ATOM     40  N   UNL A   1      39.956  28.917  29.789  1.00  0.00    -0.354 N 
ATOM     41  C   UNL A   1      39.031  31.282  33.285  1.00  0.00     0.074 A 
ATOM     42  C   UNL A   1      37.854  32.093  33.071  1.00  0.00     0.031 C 
ATOM     43  C   UNL A   1      39.724  28.226  27.675  1.00  0.00     0.029 A 
ATOM     44  C   UNL A   1      40.594  28.149  28.843  1.00  0.00     0.049 A 
ATOM     45  H   UNL A   1      40.296  29.034  30.707  1.00  0.00     0.167 HD
ATOM     46  C   UNL A   1      39.765  31.290  34.422  1.00  0.00     0.034 A 
ATOM     47  C   UNL A   1      41.758  27.471  28.905  1.00  0.00     0.034 A 
ATOM     48  C   UNL A   1      40.912  30.453  34.643  1.00  0.00     0.049 A 
ATOM     49  C   UNL A   1      42.533  27.471  30.194  1.00  0.00     0.074 A 
ATOM     50  C   UNL A   1      41.665  30.314  35.796  1.00  0.00     0.029 A 
ATOM     51  N   UNL A   1      41.485  29.627  33.689  1.00  0.00    -0.354 N 
ATOM     52  N   UNL A   1      42.254  28.070  31.327  1.00  0.00    -0.248 NA
ATOM     53  C   UNL A   1      43.766  26.671  30.228  1.00  0.00     0.031 C 
ATOM     54  C   UNL A   1      42.717  29.434  35.526  1.00  0.00     0.029 A 
ATOM     55  C   UNL A   1      42.593  28.989  34.219  1.00  0.00     0.049 A 
ATOM     56  H   UNL A   1      41.153  29.510  32.769  1.00  0.00     0.167 HD
ATOM     57  C   UNL A   1      43.251  27.690  32.216  1.00  0.00     0.074 A 
ATOM     58  C   UNL A   1      44.131  26.791  31.497  1.00  0.00     0.031 C 
ATOM     59  C   UNL A   1      43.431  28.059  33.508  1.00  0.00     0.034 A 
BRANCH  46  60
ATOM     60  C   UNL A   1      39.327  32.207  35.534  1.00  0.00     0.023 A 
ATOM     61  C   UNL A   1      38.460  31.730  36.538  1.00  0.00     0.012 A 
ATOM     62  C   UNL A   1      39.825  33.522  35.620  1.00  0.00     0.148 A 
ATOM     63  C   UNL A   1      38.065  32.556  37.589  1.00  0.00     0.002 A 
ATOM     64  C   UNL A   1      39.468  34.324  36.698  1.00  0.00     0.091 A 
ATOM     65  F   UNL A   1      40.632  33.965  34.645  1.00  0.00    -0.205 F 
ATOM     66  C   UNL A   1      38.578  33.847  37.674  1.00  0.00     0.022 A 
BRANCH  64  67
ATOM     67  S   UNL A   1      40.139  35.971  36.945  1.00  0.00     0.127 S 
ATOM     68  O   UNL A   1      41.564  35.685  37.116  1.00  0.00    -0.237 OA
ATOM     69  O   UNL A   1      39.797  36.632  35.686  1.00  0.00    -0.237 OA
ATOM     70  O   UNL A   1      39.467  36.509  38.119  1.00  0.00    -0.744 OA
ENDBRANCH  64  67
ENDBRANCH  46  60
BRANCH  47  71
ATOM     71  C   UNL A   1      42.237  26.697  27.725  1.00  0.00     0.023 A 
ATOM     72  C   UNL A   1      42.971  27.349  26.715  1.00  0.00     0.012 A 
ATOM     73  C   UNL A   1      41.975  25.319  27.601  1.00  0.00     0.148 A 
ATOM     74  C   UNL A   1      43.401  26.653  25.584  1.00  0.00     0.002 A 
ATOM     75  C   UNL A   1      42.457  24.619  26.502  1.00  0.00     0.091 A 
ATOM     76  F   UNL A   1      41.267  24.718  28.567  1.00  0.00    -0.205 F 
ATOM     77  C   UNL A   1      43.152  25.287  25.482  1.00  0.00     0.022 A 
BRANCH  75  78
ATOM     78  S   UNL A   1      42.297  22.836  26.351  1.00  0.00     0.127 S 
ATOM     79  O   UNL A   1      42.659  22.620  24.953  1.00  0.00    -0.237 OA
ATOM     80  O   UNL A   1      43.283  22.363  27.323  1.00  0.00    -0.237 OA
ATOM     81  O   UNL A   1      40.916  22.533  26.702  1.00  0.00    -0.744 OA
ENDBRANCH  75  78
ENDBRANCH  47  71
BRANCH  59  82
ATOM     82  C   UNL A   1      44.594  27.458  34.254  1.00  0.00     0.023 A 
ATOM     83  C   UNL A   1      45.822  28.145  34.322  1.00  0.00     0.012 A 
ATOM     84  C   UNL A   1      44.442  26.242  34.950  1.00  0.00     0.148 A 
ATOM     85  C   UNL A   1      46.892  27.612  35.040  1.00  0.00     0.002 A 
ATOM     86  C   UNL A   1      45.494  25.746  35.709  1.00  0.00     0.091 A 
ATOM     87  F   UNL A   1      43.270  25.596  34.859  1.00  0.00    -0.205 F 
ATOM     88  C   UNL A   1      46.724  26.422  35.743  1.00  0.00     0.022 A 
BRANCH  86  89
ATOM     89  S   UNL A   1      45.337  24.275  36.728  1.00  0.00     0.127 S 
ATOM     90  O   UNL A   1      46.716  24.067  37.165  1.00  0.00    -0.237 OA
ATOM     91  O   UNL A   1      44.424  24.724  37.779  1.00  0.00    -0.237 OA
ATOM     92  O   UNL A   1      44.795  23.239  35.859  1.00  0.00    -0.744 OA
ENDBRANCH  86  89
ENDBRANCH  59  82
ENDBRANCH  33  34
ENDBRANCH  25  28
ENDBRANCH  23  24
ENDBRANCH  22  23
ENDBRANCH   1  22
TORSDOF 19
ENDMDL
MODEL 3
REMARK VINA RESULT:     -10.3      2.162      8.236
REMARK SMILES C#CC[C@@]1(C(=O)NCCCCNC(=O)c2ccc(-c3c4nc(c(-c5cccc(S(=O)(=O)[O-])c5F)c5ccc([nH]5)c(-c5cccc(S(=O)(=O)[O-])c5F)c5nc(c(-c6cccc(S(=O)(=O)[O-])c6F)c6ccc3[nH]6)C=C5)C=C4)cc2)CCCN1C(=O)OC(C)(C)C
REMARK SMILES IDX 9 1 8 2 7 3 5 4 6 5 4 7 78 8 81 9 79 10 80 11 3 12 2 13 1 14
REMARK SMILES IDX 82 15 83 16 84 17 85 18 86 19 87 20 88 21 10 22 11 23 12 24
REMARK SMILES IDX 13 25 14 27 15 28 16 29 77 30 17 31 76 32 18 33 19 34 20 35
REMARK SMILES IDX 70 36 21 37 75 38 69 39 71 40 22 41 74 42 68 43 67 44 23 46
REMARK SMILES IDX 55 47 35 48 54 49 36 50 39 51 53 52 72 53 37 54 38 55 52 57
REMARK SMILES IDX 73 58 40 59 24 60 25 61 33 62 26 63 28 64 34 65 27 66 29 67
REMARK SMILES IDX 30 68 31 69 32 70 56 71 57 72 65 73 58 74 60 75 66 76 59 77
REMARK SMILES IDX 61 78 62 79 63 80 64 81 41 82 42 83 50 84 43 85 45 86 51 87
REMARK SMILES IDX 44 88 46 89 47 90 48 91 49 92
REMARK H PARENT 7 6 12 26 71 45 39 56
REMARK Flexibility Score: inf
ROOT
ATOM      1  C   UNL A   1      32.007  30.058  27.172  1.00  0.00     0.023 C 
ENDROOT
BRANCH   1   2
ATOM      2  C   UNL A   1      31.751  29.076  26.033  1.00  0.00     0.116 C 
BRANCH   2   3
ATOM      3  N   UNL A   1      32.624  29.356  24.920  1.00  0.00    -0.354 N 
ATOM      4  C   UNL A   1      33.003  28.680  23.814  1.00  0.00     0.247 C 
ATOM      5  O   UNL A   1      33.770  29.331  23.089  1.00  0.00    -0.272 OA
ATOM      6  H   UNL A   1      33.038  30.247  24.979  1.00  0.00     0.163 HD
BRANCH   4   7
ATOM      7  C   UNL A   1      32.570  27.228  23.407  1.00  0.00     0.136 C 
ATOM      8  C   UNL A   1      33.390  26.539  22.289  1.00  0.00     0.042 C 
ATOM      9  N   UNL A   1      31.204  27.072  22.782  1.00  0.00    -0.292 N 
ATOM     10  C   UNL A   1      32.552  25.338  21.883  1.00  0.00     0.025 C 
ATOM     11  C   UNL A   1      31.161  25.934  21.871  1.00  0.00     0.124 C 
BRANCH   7  12
ATOM     12  C   UNL A   1      32.646  26.420  24.742  1.00  0.00     0.128 C 
BRANCH  12  13
ATOM     13  C   UNL A   1      33.879  25.539  24.856  1.00  0.00    -0.104 C 
ATOM     14  C   UNL A   1      34.936  24.783  24.956  1.00  0.00     0.004 C 
ENDBRANCH  12  13
ENDBRANCH   7  12
BRANCH   9  15
ATOM     15  C   UNL A   1      30.006  27.712  23.015  1.00  0.00     0.411 C 
ATOM     16  O   UNL A   1      29.300  27.419  23.972  1.00  0.00    -0.224 OA
BRANCH  15  17
ATOM     17  O   UNL A   1      29.665  28.606  22.065  1.00  0.00    -0.444 OA
BRANCH  17  18
ATOM     18  C   UNL A   1      28.863  29.771  22.408  1.00  0.00     0.106 C 
ATOM     19  C   UNL A   1      29.434  30.487  23.640  1.00  0.00     0.056 C 
ATOM     20  C   UNL A   1      28.703  30.729  21.220  1.00  0.00     0.056 C 
ATOM     21  C   UNL A   1      27.477  29.219  22.771  1.00  0.00     0.056 C 
ENDBRANCH  17  18
ENDBRANCH  15  17
ENDBRANCH   9  15
ENDBRANCH   4   7
ENDBRANCH   2   3
ENDBRANCH   1   2
BRANCH   1  22
ATOM     22  C   UNL A   1      31.478  31.467  26.884  1.00  0.00     0.023 C 
BRANCH  22  23
ATOM     23  C   UNL A   1      32.554  32.501  26.572  1.00  0.00     0.116 C 
BRANCH  23  24
ATOM     24  N   UNL A   1      32.326  33.779  27.234  1.00  0.00    -0.352 N 
ATOM     25  C   UNL A   1      33.030  34.326  28.278  1.00  0.00     0.251 C 
ATOM     26  H   UNL A   1      31.576  34.315  26.890  1.00  0.00     0.163 HD
ATOM     27  O   UNL A   1      32.645  35.357  28.819  1.00  0.00    -0.269 OA
BRANCH  25  28
ATOM     28  C   UNL A   1      34.235  33.627  28.755  1.00  0.00     0.039 A 
ATOM     29  C   UNL A   1      35.470  34.271  28.669  1.00  0.00     0.014 A 
ATOM     30  C   UNL A   1      34.124  32.371  29.356  1.00  0.00     0.014 A 
ATOM     31  C   UNL A   1      36.592  33.675  29.243  1.00  0.00     0.010 A 
ATOM     32  C   UNL A   1      35.226  31.819  29.996  1.00  0.00     0.010 A 
ATOM     33  C   UNL A   1      36.472  32.461  29.942  1.00  0.00    -0.014 A 
BRANCH  33  34
ATOM     34  C   UNL A   1      37.638  31.856  30.630  1.00  0.00     0.031 A 
ATOM     35  C   UNL A   1      38.473  30.819  29.930  1.00  0.00     0.074 A 
ATOM     36  C   UNL A   1      37.895  32.179  31.914  1.00  0.00     0.049 A 
ATOM     37  N   UNL A   1      39.502  30.149  30.380  1.00  0.00    -0.248 NA
ATOM     38  C   UNL A   1      38.087  30.467  28.552  1.00  0.00     0.031 C 
ATOM     39  C   UNL A   1      37.107  33.108  32.726  1.00  0.00     0.029 A 
ATOM     40  N   UNL A   1      38.876  31.743  32.769  1.00  0.00    -0.354 N 
ATOM     41  C   UNL A   1      39.859  29.273  29.362  1.00  0.00     0.074 A 
ATOM     42  C   UNL A   1      38.918  29.471  28.283  1.00  0.00     0.031 C 
ATOM     43  C   UNL A   1      37.639  33.177  33.958  1.00  0.00     0.029 A 
ATOM     44  C   UNL A   1      38.782  32.273  34.034  1.00  0.00     0.049 A 
ATOM     45  H   UNL A   1      39.581  31.109  32.501  1.00  0.00     0.167 HD
ATOM     46  C   UNL A   1      40.893  28.402  29.320  1.00  0.00     0.034 A 
ATOM     47  C   UNL A   1      39.524  32.046  35.136  1.00  0.00     0.034 A 
ATOM     48  C   UNL A   1      41.849  28.237  30.381  1.00  0.00     0.049 A 
ATOM     49  C   UNL A   1      40.688  31.098  35.048  1.00  0.00     0.074 A 
ATOM     50  C   UNL A   1      42.988  27.452  30.396  1.00  0.00     0.029 A 
ATOM     51  N   UNL A   1      41.768  28.850  31.620  1.00  0.00    -0.354 N 
ATOM     52  N   UNL A   1      41.113  30.405  34.019  1.00  0.00    -0.248 NA
ATOM     53  C   UNL A   1      41.500  30.927  36.261  1.00  0.00     0.031 C 
ATOM     54  C   UNL A   1      43.575  27.560  31.661  1.00  0.00     0.029 A 
ATOM     55  C   UNL A   1      42.826  28.448  32.417  1.00  0.00     0.049 A 
ATOM     56  H   UNL A   1      41.062  29.479  31.895  1.00  0.00     0.167 HD
ATOM     57  C   UNL A   1      42.260  29.748  34.448  1.00  0.00     0.074 A 
ATOM     58  C   UNL A   1      42.476  30.143  35.825  1.00  0.00     0.031 C 
ATOM     59  C   UNL A   1      43.057  28.887  33.769  1.00  0.00     0.034 A 
BRANCH  46  60
ATOM     60  C   UNL A   1      41.071  27.583  28.067  1.00  0.00     0.023 A 
ATOM     61  C   UNL A   1      41.682  28.157  26.933  1.00  0.00     0.012 A 
ATOM     62  C   UNL A   1      40.692  26.227  28.034  1.00  0.00     0.148 A 
ATOM     63  C   UNL A   1      41.878  27.407  25.775  1.00  0.00     0.002 A 
ATOM     64  C   UNL A   1      40.937  25.472  26.894  1.00  0.00     0.091 A 
ATOM     65  F   UNL A   1      40.093  25.704  29.115  1.00  0.00    -0.205 F 
ATOM     66  C   UNL A   1      41.517  26.063  25.760  1.00  0.00     0.022 A 
BRANCH  64  67
ATOM     67  S   UNL A   1      40.586  23.713  26.802  1.00  0.00     0.127 S 
ATOM     68  O   UNL A   1      39.198  23.714  26.340  1.00  0.00    -0.237 OA
ATOM     69  O   UNL A   1      41.560  23.259  25.809  1.00  0.00    -0.237 OA
ATOM     70  O   UNL A   1      40.795  23.189  28.145  1.00  0.00    -0.744 OA
ENDBRANCH  64  67
ENDBRANCH  46  60
BRANCH  47  71
ATOM     71  C   UNL A   1      39.218  32.764  36.406  1.00  0.00     0.023 A 
ATOM     72  C   UNL A   1      39.778  34.036  36.640  1.00  0.00     0.012 A 
ATOM     73  C   UNL A   1      38.371  32.199  37.378  1.00  0.00     0.148 A 
ATOM     74  C   UNL A   1      39.534  34.713  37.835  1.00  0.00     0.002 A 
ATOM     75  C   UNL A   1      38.084  32.904  38.541  1.00  0.00     0.091 A 
ATOM     76  F   UNL A   1      37.855  30.985  37.142  1.00  0.00    -0.205 F 
ATOM     77  C   UNL A   1      38.681  34.152  38.781  1.00  0.00     0.022 A 
BRANCH  75  78
ATOM     78  S   UNL A   1      36.896  32.319  39.753  1.00  0.00     0.127 S 
ATOM     79  O   UNL A   1      37.533  31.094  40.230  1.00  0.00    -0.237 OA
ATOM     80  O   UNL A   1      36.879  33.421  40.715  1.00  0.00    -0.237 OA
ATOM     81  O   UNL A   1      35.647  32.139  39.025  1.00  0.00    -0.744 OA
ENDBRANCH  75  78
ENDBRANCH  47  71
BRANCH  59  82
ATOM     82  C   UNL A   1      44.269  28.345  34.480  1.00  0.00     0.023 A 
ATOM     83  C   UNL A   1      45.488  29.050  34.439  1.00  0.00     0.012 A 
ATOM     84  C   UNL A   1      44.177  27.168  35.250  1.00  0.00     0.148 A 
ATOM     85  C   UNL A   1      46.605  28.574  35.124  1.00  0.00     0.002 A 
ATOM     86  C   UNL A   1      45.278  26.730  35.975  1.00  0.00     0.091 A 
ATOM     87  F   UNL A   1      43.012  26.502  35.262  1.00  0.00    -0.205 F 
ATOM     88  C   UNL A   1      46.497  27.423  35.901  1.00  0.00     0.022 A 
BRANCH  86  89
ATOM     89  S   UNL A   1      45.202  25.317  37.081  1.00  0.00     0.127 S 
ATOM     90  O   UNL A   1      44.498  25.878  38.233  1.00  0.00    -0.237 OA
ATOM     91  O   UNL A   1      44.426  24.354  36.300  1.00  0.00    -0.237 OA
ATOM     92  O   UNL A   1      46.583  24.922  37.326  1.00  0.00    -0.744 OA
ENDBRANCH  86  89
ENDBRANCH  59  82
ENDBRANCH  33  34
ENDBRANCH  25  28
ENDBRANCH  23  24
ENDBRANCH  22  23
ENDBRANCH   1  22
TORSDOF 19
ENDMDL
