MODEL 1
REMARK VINA RESULT:      -8.4      0.000      0.000
REMARK SMILES N#Cc1ccccc1C[C@@H](NC(=O)OCC1c2ccccc2-c2ccccc21)C(=O)NCCCCNC(=O)c1ccc(-c2c3nc(c(-c4cccc(S(=O)(=O)[O-])c4F)c4ccc([nH]4)c(-c4cccc(S(=O)(=O)[O-])c4F)c4nc(c(-c5cccc(S(=O)(=O)[O-])c5F)c5ccc2[nH]5)C=C4)C=C3)cc1
REMARK SMILES IDX 33 1 32 2 31 3 29 4 30 5 10 7 9 8 8 9 3 10 4 11 5 12 7 13
REMARK SMILES IDX 6 14 2 15 1 16 11 17 12 18 13 20 14 21 15 22 16 23 17 24
REMARK SMILES IDX 28 25 18 26 22 27 23 28 27 29 19 30 21 31 24 32 26 33 20 34
REMARK SMILES IDX 25 35 34 36 35 37 36 38 37 39 38 41 39 42 40 43 101 44 41 45
REMARK SMILES IDX 100 46 42 47 43 48 44 49 94 50 45 51 99 52 93 53 95 54 46 55
REMARK SMILES IDX 98 56 92 57 91 58 47 60 79 61 59 62 78 63 60 64 63 65 77 66
REMARK SMILES IDX 96 67 61 68 62 69 76 71 97 72 64 73 48 74 49 75 57 76 50 77
REMARK SMILES IDX 52 78 58 79 51 80 53 81 54 82 55 83 56 84 80 85 81 86 89 87
REMARK SMILES IDX 82 88 84 89 90 90 83 91 85 92 86 93 87 94 88 95 65 96 66 97
REMARK SMILES IDX 74 98 67 99 69 100 75 101 68 102 70 103 71 104 72 105 73 106
REMARK H PARENT 31 6 11 19 36 40 95 59 63 70
REMARK Flexibility Score: inf
ROOT
ATOM      1  C   UNL A   1      40.230  35.001  34.689  1.00  0.00     0.023 C 
ENDROOT
BRANCH   1   2
ATOM      2  C   UNL A   1      39.207  34.296  33.817  1.00  0.00     0.116 C 
BRANCH   2   3
ATOM      3  N   UNL A   1      37.906  34.944  33.880  1.00  0.00    -0.354 N 
ATOM      4  C   UNL A   1      36.785  34.723  33.124  1.00  0.00     0.243 C 
ATOM      5  O   UNL A   1      35.747  35.324  33.408  1.00  0.00    -0.273 OA
ATOM      6  H   UNL A   1      37.818  35.644  34.567  1.00  0.00     0.163 HD
BRANCH   4   7
ATOM      7  C   UNL A   1      36.849  33.778  31.905  1.00  0.00     0.179 C 
BRANCH   7   8
ATOM      8  C   UNL A   1      35.433  33.152  31.710  1.00  0.00     0.072 C 
BRANCH   8   9
ATOM      9  C   UNL A   1      34.891  33.052  30.295  1.00  0.00    -0.028 A 
ATOM     10  C   UNL A   1      34.024  34.022  29.753  1.00  0.00     0.055 A 
ATOM     11  C   UNL A   1      33.543  33.882  28.443  1.00  0.00     0.020 A 
ATOM     12  C   UNL A   1      33.928  32.800  27.654  1.00  0.00     0.001 A 
ATOM     13  C   UNL A   1      35.344  32.026  29.443  1.00  0.00     0.005 A 
ATOM     14  C   UNL A   1      34.842  31.879  28.149  1.00  0.00     0.000 A 
BRANCH  10  15
ATOM     15  C   UNL A   1      33.658  35.211  30.477  1.00  0.00     0.099 C 
ATOM     16  N   UNL A   1      33.368  36.152  31.084  1.00  0.00    -0.192 NA
ENDBRANCH  10  15
ENDBRANCH   8   9
ENDBRANCH   7   8
BRANCH   7  17
ATOM     17  N   UNL A   1      37.426  34.371  30.694  1.00  0.00    -0.309 N 
ATOM     18  C   UNL A   1      38.642  34.129  30.136  1.00  0.00     0.407 C 
ATOM     19  H   UNL A   1      36.860  35.027  30.226  1.00  0.00     0.167 HD
ATOM     20  O   UNL A   1      39.295  35.046  29.655  1.00  0.00    -0.225 OA
BRANCH  18  21
ATOM     21  O   UNL A   1      38.976  32.818  30.134  1.00  0.00    -0.449 OA
BRANCH  21  22
ATOM     22  C   UNL A   1      40.332  32.491  30.494  1.00  0.00     0.248 C 
BRANCH  22  23
ATOM     23  C   UNL A   1      40.491  30.995  30.818  1.00  0.00     0.088 C 
ATOM     24  C   UNL A   1      39.162  30.360  31.220  1.00  0.00    -0.029 A 
ATOM     25  C   UNL A   1      40.821  30.214  29.549  1.00  0.00    -0.029 A 
ATOM     26  C   UNL A   1      38.418  30.579  32.370  1.00  0.00     0.005 A 
ATOM     27  C   UNL A   1      38.693  29.522  30.191  1.00  0.00    -0.014 A 
ATOM     28  C   UNL A   1      39.737  29.377  29.198  1.00  0.00    -0.014 A 
ATOM     29  C   UNL A   1      41.979  30.252  28.786  1.00  0.00     0.005 A 
ATOM     30  C   UNL A   1      37.116  30.083  32.414  1.00  0.00     0.000 A 
ATOM     31  C   UNL A   1      37.409  29.008  30.245  1.00  0.00     0.009 A 
ATOM     32  C   UNL A   1      39.815  28.555  28.088  1.00  0.00     0.009 A 
ATOM     33  C   UNL A   1      42.053  29.424  27.664  1.00  0.00     0.000 A 
ATOM     34  C   UNL A   1      36.609  29.322  31.350  1.00  0.00     0.001 A 
ATOM     35  C   UNL A   1      40.983  28.579  27.321  1.00  0.00     0.001 A 
ENDBRANCH  22  23
ENDBRANCH  21  22
ENDBRANCH  18  21
ENDBRANCH   7  17
ENDBRANCH   4   7
ENDBRANCH   2   3
ENDBRANCH   1   2
BRANCH   1  36
ATOM     36  C   UNL A   1      39.677  35.373  36.060  1.00  0.00     0.023 C 
BRANCH  36  37
ATOM     37  C   UNL A   1      40.705  35.318  37.184  1.00  0.00     0.116 C 
BRANCH  37  38
ATOM     38  N   UNL A   1      40.270  34.491  38.302  1.00  0.00    -0.352 N 
ATOM     39  C   UNL A   1      40.269  33.120  38.392  1.00  0.00     0.251 C 
ATOM     40  H   UNL A   1      39.936  34.975  39.091  1.00  0.00     0.163 HD
ATOM     41  O   UNL A   1      39.692  32.553  39.313  1.00  0.00    -0.269 OA
BRANCH  39  42
ATOM     42  C   UNL A   1      40.952  32.346  37.339  1.00  0.00     0.039 A 
ATOM     43  C   UNL A   1      40.197  31.769  36.319  1.00  0.00     0.014 A 
ATOM     44  C   UNL A   1      42.348  32.262  37.329  1.00  0.00     0.014 A 
ATOM     45  C   UNL A   1      40.852  31.158  35.248  1.00  0.00     0.010 A 
ATOM     46  C   UNL A   1      42.995  31.741  36.216  1.00  0.00     0.010 A 
ATOM     47  C   UNL A   1      42.255  31.175  35.168  1.00  0.00    -0.014 A 
BRANCH  47  48
ATOM     48  C   UNL A   1      42.962  30.608  33.993  1.00  0.00     0.031 A 
ATOM     49  C   UNL A   1      43.331  29.149  33.965  1.00  0.00     0.074 A 
ATOM     50  C   UNL A   1      43.329  31.417  32.979  1.00  0.00     0.049 A 
ATOM     51  N   UNL A   1      43.977  28.481  33.044  1.00  0.00    -0.248 NA
ATOM     52  C   UNL A   1      42.948  28.338  35.134  1.00  0.00     0.031 C 
ATOM     53  C   UNL A   1      43.093  32.862  32.921  1.00  0.00     0.029 A 
ATOM     54  N   UNL A   1      43.998  31.145  31.812  1.00  0.00    -0.354 N 
ATOM     55  C   UNL A   1      44.102  27.187  33.532  1.00  0.00     0.074 A 
ATOM     56  C   UNL A   1      43.506  27.171  34.850  1.00  0.00     0.031 C 
ATOM     57  C   UNL A   1      43.592  33.344  31.771  1.00  0.00     0.029 A 
ATOM     58  C   UNL A   1      44.222  32.255  31.032  1.00  0.00     0.049 A 
ATOM     59  H   UNL A   1      44.289  30.239  31.557  1.00  0.00     0.167 HD
ATOM     60  C   UNL A   1      44.639  26.100  32.929  1.00  0.00     0.034 A 
ATOM     61  C   UNL A   1      44.876  32.385  29.860  1.00  0.00     0.034 A 
ATOM     62  C   UNL A   1      45.212  26.114  31.611  1.00  0.00     0.049 A 
ATOM     63  C   UNL A   1      45.464  31.161  29.213  1.00  0.00     0.074 A 
ATOM     64  C   UNL A   1      45.716  25.051  30.883  1.00  0.00     0.029 A 
ATOM     65  N   UNL A   1      45.378  27.248  30.831  1.00  0.00    -0.354 N 
ATOM     66  N   UNL A   1      45.444  29.917  29.626  1.00  0.00    -0.248 NA
ATOM     67  C   UNL A   1      46.138  31.354  27.920  1.00  0.00     0.031 C 
ATOM     68  C   UNL A   1      46.232  25.549  29.684  1.00  0.00     0.029 A 
ATOM     69  C   UNL A   1      45.996  26.914  29.638  1.00  0.00     0.049 A 
ATOM     70  H   UNL A   1      45.098  28.156  31.087  1.00  0.00     0.167 HD
ATOM     71  C   UNL A   1      46.064  29.175  28.627  1.00  0.00     0.074 A 
ATOM     72  C   UNL A   1      46.430  30.106  27.580  1.00  0.00     0.031 C 
ATOM     73  C   UNL A   1      46.317  27.843  28.585  1.00  0.00     0.034 A 
BRANCH  60  74
ATOM     74  C   UNL A   1      44.607  24.795  33.681  1.00  0.00     0.023 A 
ATOM     75  C   UNL A   1      43.448  23.991  33.647  1.00  0.00     0.012 A 
ATOM     76  C   UNL A   1      45.743  24.336  34.376  1.00  0.00     0.148 A 
ATOM     77  C   UNL A   1      43.406  22.773  34.324  1.00  0.00     0.002 A 
ATOM     78  C   UNL A   1      45.712  23.097  35.004  1.00  0.00     0.091 A 
ATOM     79  F   UNL A   1      46.829  25.121  34.413  1.00  0.00    -0.205 F 
ATOM     80  C   UNL A   1      44.541  22.322  34.992  1.00  0.00     0.022 A 
BRANCH  78  81
ATOM     81  S   UNL A   1      47.145  22.389  35.823  1.00  0.00     0.127 S 
ATOM     82  O   UNL A   1      47.294  23.278  36.975  1.00  0.00    -0.237 OA
ATOM     83  O   UNL A   1      46.675  21.042  36.148  1.00  0.00    -0.237 OA
ATOM     84  O   UNL A   1      48.230  22.440  34.855  1.00  0.00    -0.744 OA
ENDBRANCH  78  81
ENDBRANCH  60  74
BRANCH  61  85
ATOM     85  C   UNL A   1      44.978  33.719  29.202  1.00  0.00     0.023 A 
ATOM     86  C   UNL A   1      46.175  34.456  29.300  1.00  0.00     0.012 A 
ATOM     87  C   UNL A   1      43.896  34.260  28.483  1.00  0.00     0.148 A 
ATOM     88  C   UNL A   1      46.278  35.725  28.730  1.00  0.00     0.002 A 
ATOM     89  C   UNL A   1      44.025  35.498  27.866  1.00  0.00     0.091 A 
ATOM     90  F   UNL A   1      42.764  33.546  28.407  1.00  0.00    -0.205 F 
ATOM     91  C   UNL A   1      45.206  36.243  28.006  1.00  0.00     0.022 A 
BRANCH  89  92
ATOM     92  S   UNL A   1      42.746  36.188  26.812  1.00  0.00     0.127 S 
ATOM     93  O   UNL A   1      43.292  37.508  26.504  1.00  0.00    -0.237 OA
ATOM     94  O   UNL A   1      42.740  35.245  25.694  1.00  0.00    -0.237 OA
ATOM     95  O   UNL A   1      41.528  36.180  27.612  1.00  0.00    -0.744 OA
ENDBRANCH  89  92
ENDBRANCH  61  85
BRANCH  73  96
ATOM     96  C   UNL A   1      46.974  27.294  27.344  1.00  0.00     0.023 A 
ATOM     97  C   UNL A   1      46.213  27.055  26.182  1.00  0.00     0.012 A 
ATOM     98  C   UNL A   1      48.366  27.078  27.314  1.00  0.00     0.148 A 
ATOM     99  C   UNL A   1      46.821  26.571  25.025  1.00  0.00     0.002 A 
ATOM    100  C   UNL A   1      48.973  26.652  26.141  1.00  0.00     0.091 A 
ATOM    101  F   UNL A   1      49.071  27.298  28.434  1.00  0.00    -0.205 F 
ATOM    102  C   UNL A   1      48.202  26.381  25.000  1.00  0.00     0.022 A 
BRANCH 100 103
ATOM    103  S   UNL A   1      50.754  26.477  25.984  1.00  0.00     0.127 S 
ATOM    104  O   UNL A   1      51.003  25.260  26.756  1.00  0.00    -0.237 OA
ATOM    105  O   UNL A   1      50.922  26.329  24.539  1.00  0.00    -0.237 OA
ATOM    106  O   UNL A   1      51.331  27.693  26.541  1.00  0.00    -0.744 OA
ENDBRANCH 100 103
ENDBRANCH  73  96
ENDBRANCH  47  48
ENDBRANCH  39  42
ENDBRANCH  37  38
ENDBRANCH  36  37
ENDBRANCH   1  36
TORSDOF 21
ENDMDL
MODEL 2
REMARK VINA RESULT:      -8.3      3.499     12.296
REMARK SMILES N#Cc1ccccc1C[C@@H](NC(=O)OCC1c2ccccc2-c2ccccc21)C(=O)NCCCCNC(=O)c1ccc(-c2c3nc(c(-c4cccc(S(=O)(=O)[O-])c4F)c4ccc([nH]4)c(-c4cccc(S(=O)(=O)[O-])c4F)c4nc(c(-c5cccc(S(=O)(=O)[O-])c5F)c5ccc2[nH]5)C=C4)C=C3)cc1
REMARK SMILES IDX 33 1 32 2 31 3 29 4 30 5 10 7 9 8 8 9 3 10 4 11 5 12 7 13
REMARK SMILES IDX 6 14 2 15 1 16 11 17 12 18 13 20 14 21 15 22 16 23 17 24
REMARK SMILES IDX 28 25 18 26 22 27 23 28 27 29 19 30 21 31 24 32 26 33 20 34
REMARK SMILES IDX 25 35 34 36 35 37 36 38 37 39 38 41 39 42 40 43 101 44 41 45
REMARK SMILES IDX 100 46 42 47 43 48 44 49 94 50 45 51 99 52 93 53 95 54 46 55
REMARK SMILES IDX 98 56 92 57 91 58 47 60 79 61 59 62 78 63 60 64 63 65 77 66
REMARK SMILES IDX 96 67 61 68 62 69 76 71 97 72 64 73 48 74 49 75 57 76 50 77
REMARK SMILES IDX 52 78 58 79 51 80 53 81 54 82 55 83 56 84 80 85 81 86 89 87
REMARK SMILES IDX 82 88 84 89 90 90 83 91 85 92 86 93 87 94 88 95 65 96 66 97
REMARK SMILES IDX 74 98 67 99 69 100 75 101 68 102 70 103 71 104 72 105 73 106
REMARK H PARENT 31 6 11 19 36 40 95 59 63 70
REMARK Flexibility Score: inf
ROOT
ATOM      1  C   UNL A   1      46.873  27.411  24.423  1.00  0.00     0.023 C 
ENDROOT
BRANCH   1   2
ATOM      2  C   UNL A   1      45.865  26.440  25.010  1.00  0.00     0.116 C 
BRANCH   2   3
ATOM      3  N   UNL A   1      46.516  25.362  25.739  1.00  0.00    -0.354 N 
ATOM      4  C   UNL A   1      45.961  24.306  26.412  1.00  0.00     0.243 C 
ATOM      5  O   UNL A   1      46.704  23.445  26.887  1.00  0.00    -0.273 OA
ATOM      6  H   UNL A   1      47.500  25.397  25.750  1.00  0.00     0.163 HD
BRANCH   4   7
ATOM      7  C   UNL A   1      44.432  24.237  26.614  1.00  0.00     0.179 C 
BRANCH   7   8
ATOM      8  C   UNL A   1      43.820  23.500  25.382  1.00  0.00     0.072 C 
BRANCH   8   9
ATOM      9  C   UNL A   1      43.096  22.188  25.629  1.00  0.00    -0.028 A 
ATOM     10  C   UNL A   1      43.739  20.941  25.501  1.00  0.00     0.055 A 
ATOM     11  C   UNL A   1      43.027  19.754  25.731  1.00  0.00     0.020 A 
ATOM     12  C   UNL A   1      41.685  19.791  26.108  1.00  0.00     0.001 A 
ATOM     13  C   UNL A   1      41.772  22.198  26.109  1.00  0.00     0.005 A 
ATOM     14  C   UNL A   1      41.062  21.015  26.312  1.00  0.00     0.000 A 
BRANCH  10  15
ATOM     15  C   UNL A   1      45.144  20.831  25.206  1.00  0.00     0.099 C 
ATOM     16  N   UNL A   1      46.270  20.712  24.967  1.00  0.00    -0.192 NA
ENDBRANCH  10  15
ENDBRANCH   8   9
ENDBRANCH   7   8
BRANCH   7  17
ATOM     17  N   UNL A   1      44.004  23.710  27.915  1.00  0.00    -0.309 N 
ATOM     18  C   UNL A   1      43.456  24.388  28.958  1.00  0.00     0.407 C 
ATOM     19  H   UNL A   1      44.130  22.742  28.048  1.00  0.00     0.167 HD
ATOM     20  O   UNL A   1      43.775  24.115  30.108  1.00  0.00    -0.225 OA
BRANCH  18  21
ATOM     21  O   UNL A   1      42.532  25.297  28.574  1.00  0.00    -0.449 OA
BRANCH  21  22
ATOM     22  C   UNL A   1      41.162  24.852  28.524  1.00  0.00     0.248 C 
BRANCH  22  23
ATOM     23  C   UNL A   1      40.244  25.905  27.877  1.00  0.00     0.088 C 
ATOM     24  C   UNL A   1      39.762  26.936  28.894  1.00  0.00    -0.029 A 
ATOM     25  C   UNL A   1      41.044  26.783  26.920  1.00  0.00    -0.029 A 
ATOM     26  C   UNL A   1      38.886  26.754  29.954  1.00  0.00     0.005 A 
ATOM     27  C   UNL A   1      40.406  28.169  28.677  1.00  0.00    -0.014 A 
ATOM     28  C   UNL A   1      41.137  28.098  27.430  1.00  0.00    -0.014 A 
ATOM     29  C   UNL A   1      41.628  26.436  25.710  1.00  0.00     0.005 A 
ATOM     30  C   UNL A   1      38.783  27.771  30.902  1.00  0.00     0.000 A 
ATOM     31  C   UNL A   1      40.285  29.188  29.607  1.00  0.00     0.009 A 
ATOM     32  C   UNL A   1      41.803  29.082  26.720  1.00  0.00     0.009 A 
ATOM     33  C   UNL A   1      42.303  27.429  24.998  1.00  0.00     0.000 A 
ATOM     34  C   UNL A   1      39.495  28.969  30.741  1.00  0.00     0.001 A 
ATOM     35  C   UNL A   1      42.385  28.742  25.495  1.00  0.00     0.001 A 
ENDBRANCH  22  23
ENDBRANCH  21  22
ENDBRANCH  18  21
ENDBRANCH   7  17
ENDBRANCH   4   7
ENDBRANCH   2   3
ENDBRANCH   1   2
BRANCH   1  36
ATOM     36  C   UNL A   1      48.311  26.923  24.564  1.00  0.00     0.023 C 
BRANCH  36  37
ATOM     37  C   UNL A   1      49.241  27.914  25.256  1.00  0.00     0.116 C 
BRANCH  37  38
ATOM     38  N   UNL A   1      50.280  27.255  26.037  1.00  0.00    -0.352 N 
ATOM     39  C   UNL A   1      50.398  27.187  27.404  1.00  0.00     0.251 C 
ATOM     40  H   UNL A   1      50.984  26.802  25.520  1.00  0.00     0.163 HD
ATOM     41  O   UNL A   1      51.427  26.770  27.925  1.00  0.00    -0.269 OA
BRANCH  39  42
ATOM     42  C   UNL A   1      49.270  27.654  28.231  1.00  0.00     0.039 A 
ATOM     43  C   UNL A   1      49.376  28.872  28.902  1.00  0.00     0.014 A 
ATOM     44  C   UNL A   1      48.083  26.916  28.274  1.00  0.00     0.014 A 
ATOM     45  C   UNL A   1      48.261  29.382  29.568  1.00  0.00     0.010 A 
ATOM     46  C   UNL A   1      46.951  27.473  28.854  1.00  0.00     0.010 A 
ATOM     47  C   UNL A   1      47.029  28.706  29.516  1.00  0.00    -0.014 A 
BRANCH  47  48
ATOM     48  C   UNL A   1      45.813  29.280  30.144  1.00  0.00     0.031 A 
ATOM     49  C   UNL A   1      45.244  30.580  29.642  1.00  0.00     0.074 A 
ATOM     50  C   UNL A   1      45.257  28.666  31.208  1.00  0.00     0.049 A 
ATOM     51  N   UNL A   1      44.212  31.252  30.082  1.00  0.00    -0.248 NA
ATOM     52  C   UNL A   1      45.939  31.223  28.513  1.00  0.00     0.031 C 
ATOM     53  C   UNL A   1      45.756  27.439  31.834  1.00  0.00     0.029 A 
ATOM     54  N   UNL A   1      44.162  29.000  31.964  1.00  0.00    -0.354 N 
ATOM     55  C   UNL A   1      44.152  32.404  29.309  1.00  0.00     0.074 A 
ATOM     56  C   UNL A   1      45.276  32.364  28.400  1.00  0.00     0.031 C 
ATOM     57  C   UNL A   1      44.960  27.116  32.866  1.00  0.00     0.029 A 
ATOM     58  C   UNL A   1      43.922  28.132  33.004  1.00  0.00     0.049 A 
ATOM     59  H   UNL A   1      43.600  29.788  31.780  1.00  0.00     0.167 HD
ATOM     60  C   UNL A   1      43.228  33.394  29.331  1.00  0.00     0.034 A 
ATOM     61  C   UNL A   1      42.983  28.160  33.970  1.00  0.00     0.034 A 
ATOM     62  C   UNL A   1      42.100  33.420  30.222  1.00  0.00     0.049 A 
ATOM     63  C   UNL A   1      41.971  29.272  33.973  1.00  0.00     0.074 A 
ATOM     64  C   UNL A   1      41.069  34.342  30.274  1.00  0.00     0.029 A 
ATOM     65  N   UNL A   1      41.864  32.498  31.229  1.00  0.00    -0.354 N 
ATOM     66  N   UNL A   1      41.845  30.277  33.140  1.00  0.00    -0.248 NA
ATOM     67  C   UNL A   1      40.948  29.237  35.029  1.00  0.00     0.031 C 
ATOM     68  C   UNL A   1      40.236  34.004  31.344  1.00  0.00     0.029 A 
ATOM     69  C   UNL A   1      40.715  32.839  31.922  1.00  0.00     0.049 A 
ATOM     70  H   UNL A   1      42.429  31.716  31.423  1.00  0.00     0.167 HD
ATOM     71  C   UNL A   1      40.710  30.969  33.547  1.00  0.00     0.074 A 
ATOM     72  C   UNL A   1      40.172  30.256  34.687  1.00  0.00     0.031 C 
ATOM     73  C   UNL A   1      40.166  32.099  33.029  1.00  0.00     0.034 A 
BRANCH  60  74
ATOM     74  C   UNL A   1      43.385  34.520  28.343  1.00  0.00     0.023 A 
ATOM     75  C   UNL A   1      42.868  34.387  27.037  1.00  0.00     0.012 A 
ATOM     76  C   UNL A   1      43.995  35.731  28.722  1.00  0.00     0.148 A 
ATOM     77  C   UNL A   1      42.991  35.425  26.114  1.00  0.00     0.002 A 
ATOM     78  C   UNL A   1      44.066  36.780  27.814  1.00  0.00     0.091 A 
ATOM     79  F   UNL A   1      44.496  35.834  29.961  1.00  0.00    -0.205 F 
ATOM     80  C   UNL A   1      43.579  36.623  26.506  1.00  0.00     0.022 A 
BRANCH  78  81
ATOM     81  S   UNL A   1      44.731  38.392  28.243  1.00  0.00     0.127 S 
ATOM     82  O   UNL A   1      43.576  39.027  28.876  1.00  0.00    -0.237 OA
ATOM     83  O   UNL A   1      45.813  38.040  29.163  1.00  0.00    -0.237 OA
ATOM     84  O   UNL A   1      45.165  38.997  26.993  1.00  0.00    -0.744 OA
ENDBRANCH  78  81
ENDBRANCH  60  74
BRANCH  61  85
ATOM     85  C   UNL A   1      42.931  27.081  34.997  1.00  0.00     0.023 A 
ATOM     86  C   UNL A   1      42.061  25.988  34.819  1.00  0.00     0.012 A 
ATOM     87  C   UNL A   1      43.739  27.134  36.150  1.00  0.00     0.148 A 
ATOM     88  C   UNL A   1      41.963  24.990  35.789  1.00  0.00     0.002 A 
ATOM     89  C   UNL A   1      43.681  26.106  37.082  1.00  0.00     0.091 A 
ATOM     90  F   UNL A   1      44.556  28.185  36.304  1.00  0.00    -0.205 F 
ATOM     91  C   UNL A   1      42.779  25.044  36.916  1.00  0.00     0.022 A 
BRANCH  89  92
ATOM     92  S   UNL A   1      44.781  26.028  38.499  1.00  0.00     0.127 S 
ATOM     93  O   UNL A   1      44.625  24.638  38.922  1.00  0.00    -0.237 OA
ATOM     94  O   UNL A   1      46.073  26.348  37.892  1.00  0.00    -0.237 OA
ATOM     95  O   UNL A   1      44.291  27.031  39.435  1.00  0.00    -0.744 OA
ENDBRANCH  89  92
ENDBRANCH  61  85
BRANCH  73  96
ATOM     96  C   UNL A   1      38.892  32.611  33.651  1.00  0.00     0.023 A 
ATOM     97  C   UNL A   1      38.908  33.184  34.937  1.00  0.00     0.012 A 
ATOM     98  C   UNL A   1      37.685  32.582  32.923  1.00  0.00     0.148 A 
ATOM     99  C   UNL A   1      37.736  33.681  35.506  1.00  0.00     0.002 A 
ATOM    100  C   UNL A   1      36.535  33.132  33.471  1.00  0.00     0.091 A 
ATOM    101  F   UNL A   1      37.687  32.020  31.705  1.00  0.00    -0.205 F 
ATOM    102  C   UNL A   1      36.554  33.666  34.769  1.00  0.00     0.022 A 
BRANCH 100 103
ATOM    103  S   UNL A   1      34.991  33.249  32.561  1.00  0.00     0.127 S 
ATOM    104  O   UNL A   1      34.030  33.492  33.636  1.00  0.00    -0.237 OA
ATOM    105  O   UNL A   1      35.235  34.396  31.688  1.00  0.00    -0.237 OA
ATOM    106  O   UNL A   1      34.834  31.978  31.866  1.00  0.00    -0.744 OA
ENDBRANCH 100 103
ENDBRANCH  73  96
ENDBRANCH  47  48
ENDBRANCH  39  42
ENDBRANCH  37  38
ENDBRANCH  36  37
ENDBRANCH   1  36
TORSDOF 21
ENDMDL
MODEL 3
REMARK VINA RESULT:      -8.1      3.291      9.253
REMARK SMILES N#Cc1ccccc1C[C@@H](NC(=O)OCC1c2ccccc2-c2ccccc21)C(=O)NCCCCNC(=O)c1ccc(-c2c3nc(c(-c4cccc(S(=O)(=O)[O-])c4F)c4ccc([nH]4)c(-c4cccc(S(=O)(=O)[O-])c4F)c4nc(c(-c5cccc(S(=O)(=O)[O-])c5F)c5ccc2[nH]5)C=C4)C=C3)cc1
REMARK SMILES IDX 33 1 32 2 31 3 29 4 30 5 10 7 9 8 8 9 3 10 4 11 5 12 7 13
REMARK SMILES IDX 6 14 2 15 1 16 11 17 12 18 13 20 14 21 15 22 16 23 17 24
REMARK SMILES IDX 28 25 18 26 22 27 23 28 27 29 19 30 21 31 24 32 26 33 20 34
REMARK SMILES IDX 25 35 34 36 35 37 36 38 37 39 38 41 39 42 40 43 101 44 41 45
REMARK SMILES IDX 100 46 42 47 43 48 44 49 94 50 45 51 99 52 93 53 95 54 46 55
REMARK SMILES IDX 98 56 92 57 91 58 47 60 79 61 59 62 78 63 60 64 63 65 77 66
REMARK SMILES IDX 96 67 61 68 62 69 76 71 97 72 64 73 48 74 49 75 57 76 50 77
REMARK SMILES IDX 52 78 58 79 51 80 53 81 54 82 55 83 56 84 80 85 81 86 89 87
REMARK SMILES IDX 82 88 84 89 90 90 83 91 85 92 86 93 87 94 88 95 65 96 66 97
REMARK SMILES IDX 74 98 67 99 69 100 75 101 68 102 70 103 71 104 72 105 73 106
REMARK H PARENT 31 6 11 19 36 40 95 59 63 70
REMARK Flexibility Score: inf
ROOT
ATOM      1  C   UNL A   1      36.044  32.219  31.669  1.00  0.00     0.023 C 
ENDROOT
BRANCH   1   2
ATOM      2  C   UNL A   1      35.961  32.844  33.049  1.00  0.00     0.116 C 
BRANCH   2   3
ATOM      3  N   UNL A   1      37.139  33.643  33.351  1.00  0.00    -0.354 N 
ATOM      4  C   UNL A   1      38.371  33.244  33.798  1.00  0.00     0.243 C 
ATOM      5  O   UNL A   1      39.268  34.083  33.902  1.00  0.00    -0.273 OA
ATOM      6  H   UNL A   1      37.035  34.612  33.215  1.00  0.00     0.163 HD
BRANCH   4   7
ATOM      7  C   UNL A   1      38.603  31.776  34.216  1.00  0.00     0.179 C 
BRANCH   7   8
ATOM      8  C   UNL A   1      40.135  31.577  34.434  1.00  0.00     0.072 C 
BRANCH   8   9
ATOM      9  C   UNL A   1      40.676  30.158  34.412  1.00  0.00    -0.028 A 
ATOM     10  C   UNL A   1      41.554  29.675  35.403  1.00  0.00     0.055 A 
ATOM     11  C   UNL A   1      42.034  28.358  35.336  1.00  0.00     0.020 A 
ATOM     12  C   UNL A   1      41.637  27.506  34.307  1.00  0.00     0.001 A 
ATOM     13  C   UNL A   1      40.212  29.247  33.444  1.00  0.00     0.005 A 
ATOM     14  C   UNL A   1      40.713  27.947  33.368  1.00  0.00     0.000 A 
BRANCH  10  15
ATOM     15  C   UNL A   1      41.932  30.468  36.543  1.00  0.00     0.099 C 
ATOM     16  N   UNL A   1      42.266  31.098  37.454  1.00  0.00    -0.192 NA
ENDBRANCH  10  15
ENDBRANCH   8   9
ENDBRANCH   7   8
BRANCH   7  17
ATOM     17  N   UNL A   1      37.764  31.310  35.326  1.00  0.00    -0.309 N 
ATOM     18  C   UNL A   1      38.059  31.291  36.653  1.00  0.00     0.407 C 
ATOM     19  H   UNL A   1      36.875  30.968  35.077  1.00  0.00     0.167 HD
ATOM     20  O   UNL A   1      37.714  30.345  37.349  1.00  0.00    -0.225 OA
BRANCH  18  21
ATOM     21  O   UNL A   1      38.688  32.412  37.075  1.00  0.00    -0.449 OA
BRANCH  21  22
ATOM     22  C   UNL A   1      37.862  33.562  37.338  1.00  0.00     0.248 C 
BRANCH  22  23
ATOM     23  C   UNL A   1      38.516  34.513  38.357  1.00  0.00     0.088 C 
ATOM     24  C   UNL A   1      39.069  33.755  39.562  1.00  0.00    -0.029 A 
ATOM     25  C   UNL A   1      39.791  35.113  37.773  1.00  0.00    -0.029 A 
ATOM     26  C   UNL A   1      38.366  33.094  40.558  1.00  0.00     0.005 A 
ATOM     27  C   UNL A   1      40.475  33.729  39.514  1.00  0.00    -0.014 A 
ATOM     28  C   UNL A   1      40.921  34.615  38.461  1.00  0.00    -0.014 A 
ATOM     29  C   UNL A   1      39.922  36.017  36.728  1.00  0.00     0.005 A 
ATOM     30  C   UNL A   1      39.077  32.260  41.420  1.00  0.00     0.000 A 
ATOM     31  C   UNL A   1      41.184  32.919  40.385  1.00  0.00     0.009 A 
ATOM     32  C   UNL A   1      42.194  35.036  38.117  1.00  0.00     0.009 A 
ATOM     33  C   UNL A   1      41.208  36.437  36.382  1.00  0.00     0.000 A 
ATOM     34  C   UNL A   1      40.473  32.157  41.320  1.00  0.00     0.001 A 
ATOM     35  C   UNL A   1      42.334  35.956  37.073  1.00  0.00     0.001 A 
ENDBRANCH  22  23
ENDBRANCH  21  22
ENDBRANCH  18  21
ENDBRANCH   7  17
ENDBRANCH   4   7
ENDBRANCH   2   3
ENDBRANCH   1   2
BRANCH   1  36
ATOM     36  C   UNL A   1      34.794  32.471  30.832  1.00  0.00     0.023 C 
BRANCH  36  37
ATOM     37  C   UNL A   1      35.063  32.621  29.339  1.00  0.00     0.116 C 
BRANCH  37  38
ATOM     38  N   UNL A   1      34.245  31.727  28.530  1.00  0.00    -0.352 N 
ATOM     39  C   UNL A   1      34.625  30.564  27.905  1.00  0.00     0.251 C 
ATOM     40  H   UNL A   1      33.303  31.989  28.419  1.00  0.00     0.163 HD
ATOM     41  O   UNL A   1      33.884  30.016  27.096  1.00  0.00    -0.269 OA
BRANCH  39  42
ATOM     42  C   UNL A   1      35.955  30.005  28.209  1.00  0.00     0.039 A 
ATOM     43  C   UNL A   1      36.988  30.165  27.286  1.00  0.00     0.014 A 
ATOM     44  C   UNL A   1      36.189  29.390  29.443  1.00  0.00     0.014 A 
ATOM     45  C   UNL A   1      38.279  29.763  27.631  1.00  0.00     0.010 A 
ATOM     46  C   UNL A   1      37.490  29.082  29.819  1.00  0.00     0.010 A 
ATOM     47  C   UNL A   1      38.548  29.256  28.914  1.00  0.00    -0.014 A 
BRANCH  47  48
ATOM     48  C   UNL A   1      39.930  28.907  29.326  1.00  0.00     0.031 A 
ATOM     49  C   UNL A   1      40.777  29.912  30.061  1.00  0.00     0.074 A 
ATOM     50  C   UNL A   1      40.448  27.710  28.984  1.00  0.00     0.049 A 
ATOM     51  N   UNL A   1      42.013  29.802  30.473  1.00  0.00    -0.248 NA
ATOM     52  C   UNL A   1      40.164  31.220  30.350  1.00  0.00     0.031 C 
ATOM     53  C   UNL A   1      39.754  26.677  28.211  1.00  0.00     0.029 A 
ATOM     54  N   UNL A   1      41.685  27.167  29.224  1.00  0.00    -0.354 N 
ATOM     55  C   UNL A   1      42.334  31.029  31.039  1.00  0.00     0.074 A 
ATOM     56  C   UNL A   1      41.179  31.885  30.880  1.00  0.00     0.031 C 
ATOM     57  C   UNL A   1      40.568  25.621  28.056  1.00  0.00     0.029 A 
ATOM     58  C   UNL A   1      41.854  25.915  28.678  1.00  0.00     0.049 A 
ATOM     59  H   UNL A   1      42.386  27.629  29.739  1.00  0.00     0.167 HD
ATOM     60  C   UNL A   1      43.476  31.405  31.662  1.00  0.00     0.034 A 
ATOM     61  C   UNL A   1      42.930  25.104  28.666  1.00  0.00     0.034 A 
ATOM     62  C   UNL A   1      44.615  30.544  31.837  1.00  0.00     0.049 A 
ATOM     63  C   UNL A   1      44.187  25.545  29.364  1.00  0.00     0.074 A 
ATOM     64  C   UNL A   1      45.791  30.806  32.517  1.00  0.00     0.029 A 
ATOM     65  N   UNL A   1      44.731  29.267  31.313  1.00  0.00    -0.354 N 
ATOM     66  N   UNL A   1      44.420  26.656  30.021  1.00  0.00    -0.248 NA
ATOM     67  C   UNL A   1      45.319  24.608  29.348  1.00  0.00     0.031 C 
ATOM     68  C   UNL A   1      46.639  29.706  32.362  1.00  0.00     0.029 A 
ATOM     69  C   UNL A   1      45.968  28.735  31.635  1.00  0.00     0.049 A 
ATOM     70  H   UNL A   1      44.037  28.806  30.788  1.00  0.00     0.167 HD
ATOM     71  C   UNL A   1      45.709  26.533  30.529  1.00  0.00     0.074 A 
ATOM     72  C   UNL A   1      46.196  25.232  30.122  1.00  0.00     0.031 C 
ATOM     73  C   UNL A   1      46.427  27.422  31.261  1.00  0.00     0.034 A 
BRANCH  60  74
ATOM     74  C   UNL A   1      43.540  32.800  32.226  1.00  0.00     0.023 A 
ATOM     75  C   UNL A   1      43.150  33.038  33.561  1.00  0.00     0.012 A 
ATOM     76  C   UNL A   1      44.040  33.866  31.454  1.00  0.00     0.148 A 
ATOM     77  C   UNL A   1      43.217  34.321  34.104  1.00  0.00     0.002 A 
ATOM     78  C   UNL A   1      44.154  35.130  32.019  1.00  0.00     0.091 A 
ATOM     79  F   UNL A   1      44.390  33.625  30.183  1.00  0.00    -0.205 F 
ATOM     80  C   UNL A   1      43.729  35.362  33.337  1.00  0.00     0.022 A 
BRANCH  78  81
ATOM     81  S   UNL A   1      44.877  36.522  31.143  1.00  0.00     0.127 S 
ATOM     82  O   UNL A   1      43.855  37.551  31.335  1.00  0.00    -0.237 OA
ATOM     83  O   UNL A   1      46.114  36.744  31.890  1.00  0.00    -0.237 OA
ATOM     84  O   UNL A   1      45.064  36.082  29.768  1.00  0.00    -0.744 OA
ENDBRANCH  78  81
ENDBRANCH  60  74
BRANCH  61  85
ATOM     85  C   UNL A   1      42.857  23.772  27.999  1.00  0.00     0.023 A 
ATOM     86  C   UNL A   1      42.026  22.768  28.533  1.00  0.00     0.012 A 
ATOM     87  C   UNL A   1      43.608  23.496  26.840  1.00  0.00     0.148 A 
ATOM     88  C   UNL A   1      41.977  21.501  27.951  1.00  0.00     0.002 A 
ATOM     89  C   UNL A   1      43.508  22.252  26.231  1.00  0.00     0.091 A 
ATOM     90  F   UNL A   1      44.397  24.463  26.351  1.00  0.00    -0.205 F 
ATOM     91  C   UNL A   1      42.711  21.245  26.796  1.00  0.00     0.022 A 
BRANCH  89  92
ATOM     92  S   UNL A   1      44.318  21.874  24.674  1.00  0.00     0.127 S 
ATOM     93  O   UNL A   1      44.044  20.446  24.533  1.00  0.00    -0.237 OA
ATOM     94  O   UNL A   1      43.593  22.738  23.742  1.00  0.00    -0.237 OA
ATOM     95  O   UNL A   1      45.718  22.232  24.860  1.00  0.00    -0.744 OA
ENDBRANCH  89  92
ENDBRANCH  61  85
BRANCH  73  96
ATOM     96  C   UNL A   1      47.800  27.003  31.719  1.00  0.00     0.023 A 
ATOM     97  C   UNL A   1      47.971  26.363  32.963  1.00  0.00     0.012 A 
ATOM     98  C   UNL A   1      48.916  27.188  30.879  1.00  0.00     0.148 A 
ATOM     99  C   UNL A   1      49.236  25.952  33.380  1.00  0.00     0.002 A 
ATOM    100  C   UNL A   1      50.163  26.723  31.275  1.00  0.00     0.091 A 
ATOM    101  F   UNL A   1      48.736  27.811  29.705  1.00  0.00    -0.205 F 
ATOM    102  C   UNL A   1      50.329  26.121  32.532  1.00  0.00     0.022 A 
BRANCH 100 103
ATOM    103  S   UNL A   1      51.607  26.804  30.210  1.00  0.00     0.127 S 
ATOM    104  O   UNL A   1      52.595  26.062  30.992  1.00  0.00    -0.237 OA
ATOM    105  O   UNL A   1      51.141  26.118  29.006  1.00  0.00    -0.237 OA
ATOM    106  O   UNL A   1      51.896  28.221  30.029  1.00  0.00    -0.744 OA
ENDBRANCH 100 103
ENDBRANCH  73  96
ENDBRANCH  47  48
ENDBRANCH  39  42
ENDBRANCH  37  38
ENDBRANCH  36  37
ENDBRANCH   1  36
TORSDOF 21
ENDMDL
