MODEL 1
REMARK VINA RESULT:     -10.0      0.000      0.000
REMARK SMILES CC1(C)CC[C@@]2(C(=O)NCCCCNC(=O)c3ccc(-c4c5nc(c(-c6cccc(S(=O)(=O)[O-])c6F)c6ccc([nH]6)c(-c6cccc(S(=O)(=O)[O-])c6F)c6nc(c(-c7cccc(S(=O)(=O)[O-])c7F)c7ccc4[nH]7)C=C6)C=C5)cc3)CC[C@@]3(C)C(=CC[C@H]4[C@@]5(C)CC[C@H](O)C(C)(C)[C@@H]5CC[C@]43C)[C@@H]2C1
REMARK SMILES IDX 12 1 11 2 10 3 9 4 7 5 8 6 6 8 1 9 2 10 3 11 4 12 103 13
REMARK SMILES IDX 5 14 102 15 84 16 80 17 82 18 85 19 81 20 83 21 100 22 86 23
REMARK SMILES IDX 87 24 99 25 101 26 88 27 98 28 89 29 90 30 97 31 91 32 94 33
REMARK SMILES IDX 92 34 95 35 96 36 93 37 13 39 14 40 15 41 16 43 17 44 18 45
REMARK SMILES IDX 79 46 19 47 78 48 20 49 21 50 22 51 72 52 23 53 77 54 71 55
REMARK SMILES IDX 73 56 24 57 76 58 70 59 69 60 25 62 57 63 37 64 56 65 38 66
REMARK SMILES IDX 41 67 55 68 74 69 39 70 40 71 54 73 75 74 42 75 26 76 27 77
REMARK SMILES IDX 35 78 28 79 30 80 36 81 29 82 31 83 32 84 33 85 34 86 58 87
REMARK SMILES IDX 59 88 67 89 60 90 62 91 68 92 61 93 63 94 64 95 65 96 66 97
REMARK SMILES IDX 43 98 44 99 52 100 45 101 47 102 53 103 46 104 48 105 49 106
REMARK SMILES IDX 50 107 51 108
REMARK H PARENT 9 7 93 38 14 42 73 61 41 72
REMARK Flexibility Score: inf
ROOT
ATOM      1  C   UNL A   1      44.890  36.426  33.394  1.00  0.00     0.023 C 
ENDROOT
BRANCH   1   2
ATOM      2  C   UNL A   1      44.207  36.670  34.749  1.00  0.00     0.023 C 
BRANCH   2   3
ATOM      3  C   UNL A   1      43.608  35.509  35.538  1.00  0.00     0.116 C 
BRANCH   3   4
ATOM      4  N   UNL A   1      43.998  34.136  35.370  1.00  0.00    -0.356 N 
ATOM      5  C   UNL A   1      43.196  33.051  35.106  1.00  0.00     0.226 C 
ATOM      6  O   UNL A   1      42.885  32.279  36.011  1.00  0.00    -0.274 OA
ATOM      7  H   UNL A   1      44.961  33.949  35.455  1.00  0.00     0.163 HD
BRANCH   5   8
ATOM      8  C   UNL A   1      42.758  32.798  33.627  1.00  0.00     0.056 C 
ATOM      9  C   UNL A   1      44.241  29.330  31.990  1.00  0.00     0.011 C 
ATOM     10  C   UNL A   1      43.941  30.016  33.344  1.00  0.00    -0.035 C 
ATOM     11  C   UNL A   1      44.508  28.997  34.394  1.00  0.00     0.011 C 
ATOM     12  C   UNL A   1      44.788  31.309  33.374  1.00  0.00     0.007 C 
ATOM     13  C   UNL A   1      42.347  30.235  33.459  1.00  0.00     0.015 C 
ATOM     14  C   UNL A   1      44.045  32.514  32.836  1.00  0.00     0.018 C 
ATOM     15  C   UNL A   1      41.694  31.693  33.459  1.00  0.00     0.031 C 
ATOM     16  C   UNL A   1      40.469  32.108  34.399  1.00  0.00    -0.064 C 
ATOM     17  C   UNL A   1      42.141  34.069  33.000  1.00  0.00     0.018 C 
ATOM     18  C   UNL A   1      39.908  33.584  34.314  1.00  0.00    -0.006 C 
ATOM     19  C   UNL A   1      39.972  31.276  35.332  1.00  0.00    -0.027 C 
ATOM     20  C   UNL A   1      40.968  34.604  33.805  1.00  0.00     0.013 C 
ATOM     21  C   UNL A   1      38.876  33.442  33.135  1.00  0.00     0.017 C 
ATOM     22  C   UNL A   1      39.155  34.175  35.732  1.00  0.00    -0.020 C 
ATOM     23  C   UNL A   1      39.273  31.720  36.589  1.00  0.00     0.032 C 
ATOM     24  C   UNL A   1      39.374  33.233  36.982  1.00  0.00     0.006 C 
ATOM     25  C   UNL A   1      39.410  35.701  36.126  1.00  0.00     0.008 C 
ATOM     26  C   UNL A   1      37.589  34.139  35.499  1.00  0.00     0.012 C 
ATOM     27  C   UNL A   1      40.307  33.702  38.265  1.00  0.00    -0.025 C 
ATOM     28  C   UNL A   1      39.801  36.050  37.592  1.00  0.00     0.005 C 
ATOM     29  C   UNL A   1      39.382  33.487  39.498  1.00  0.00     0.012 C 
ATOM     30  C   UNL A   1      41.545  32.873  38.541  1.00  0.00     0.010 C 
ATOM     31  C   UNL A   1      40.905  35.134  38.100  1.00  0.00     0.003 C 
ATOM     32  C   UNL A   1      42.401  33.177  39.759  1.00  0.00     0.033 C 
ATOM     33  C   UNL A   1      41.882  35.629  39.297  1.00  0.00    -0.006 C 
ATOM     34  C   UNL A   1      43.004  34.561  39.548  1.00  0.00     0.120 C 
ATOM     35  C   UNL A   1      41.190  35.922  40.643  1.00  0.00     0.014 C 
ATOM     36  C   UNL A   1      42.607  36.935  38.887  1.00  0.00     0.014 C 
BRANCH  34  37
ATOM     37  O   UNL A   1      43.841  34.873  40.662  1.00  0.00    -0.393 OA
ATOM     38  H   UNL A   1      43.441  34.528  41.475  1.00  0.00     0.210 HD
ENDBRANCH  34  37
ENDBRANCH   5   8
ENDBRANCH   3   4
ENDBRANCH   2   3
ENDBRANCH   1   2
BRANCH   1  39
ATOM     39  C   UNL A   1      44.140  36.945  32.177  1.00  0.00     0.116 C 
BRANCH  39  40
ATOM     40  N   UNL A   1      45.081  37.561  31.266  1.00  0.00    -0.352 N 
ATOM     41  C   UNL A   1      45.882  36.883  30.364  1.00  0.00     0.251 C 
ATOM     42  H   UNL A   1      45.157  38.542  31.289  1.00  0.00     0.163 HD
ATOM     43  O   UNL A   1      46.953  37.353  30.015  1.00  0.00    -0.269 OA
BRANCH  41  44
ATOM     44  C   UNL A   1      45.414  35.572  29.851  1.00  0.00     0.039 A 
ATOM     45  C   UNL A   1      44.494  35.504  28.801  1.00  0.00     0.014 A 
ATOM     46  C   UNL A   1      45.892  34.401  30.440  1.00  0.00     0.014 A 
ATOM     47  C   UNL A   1      44.055  34.254  28.348  1.00  0.00     0.010 A 
ATOM     48  C   UNL A   1      45.556  33.168  29.906  1.00  0.00     0.010 A 
ATOM     49  C   UNL A   1      44.581  33.075  28.902  1.00  0.00    -0.014 A 
BRANCH  49  50
ATOM     50  C   UNL A   1      44.057  31.724  28.573  1.00  0.00     0.031 A 
ATOM     51  C   UNL A   1      42.702  31.326  29.113  1.00  0.00     0.074 A 
ATOM     52  C   UNL A   1      44.812  30.830  27.907  1.00  0.00     0.049 A 
ATOM     53  N   UNL A   1      42.124  30.155  29.127  1.00  0.00    -0.248 NA
ATOM     54  C   UNL A   1      41.919  32.381  29.784  1.00  0.00     0.031 C 
ATOM     55  C   UNL A   1      46.161  31.072  27.392  1.00  0.00     0.029 A 
ATOM     56  N   UNL A   1      44.562  29.521  27.580  1.00  0.00    -0.354 N 
ATOM     57  C   UNL A   1      40.958  30.319  29.867  1.00  0.00     0.074 A 
ATOM     58  C   UNL A   1      40.936  31.685  30.331  1.00  0.00     0.031 C 
ATOM     59  C   UNL A   1      46.616  29.950  26.810  1.00  0.00     0.029 A 
ATOM     60  C   UNL A   1      45.612  28.899  26.945  1.00  0.00     0.049 A 
ATOM     61  H   UNL A   1      43.710  29.070  27.781  1.00  0.00     0.167 HD
ATOM     62  C   UNL A   1      39.969  29.426  30.106  1.00  0.00     0.034 A 
ATOM     63  C   UNL A   1      45.749  27.623  26.535  1.00  0.00     0.034 A 
ATOM     64  C   UNL A   1      39.959  28.098  29.565  1.00  0.00     0.049 A 
ATOM     65  C   UNL A   1      44.608  26.664  26.751  1.00  0.00     0.074 A 
ATOM     66  C   UNL A   1      38.964  27.141  29.649  1.00  0.00     0.029 A 
ATOM     67  N   UNL A   1      40.993  27.543  28.827  1.00  0.00    -0.354 N 
ATOM     68  N   UNL A   1      43.457  26.871  27.344  1.00  0.00    -0.248 NA
ATOM     69  C   UNL A   1      44.766  25.305  26.212  1.00  0.00     0.031 C 
ATOM     70  C   UNL A   1      39.410  25.996  28.983  1.00  0.00     0.029 A 
ATOM     71  C   UNL A   1      40.664  26.255  28.450  1.00  0.00     0.049 A 
ATOM     72  H   UNL A   1      41.837  27.999  28.605  1.00  0.00     0.167 HD
ATOM     73  C   UNL A   1      42.736  25.690  27.207  1.00  0.00     0.074 A 
ATOM     74  C   UNL A   1      43.579  24.773  26.468  1.00  0.00     0.031 C 
ATOM     75  C   UNL A   1      41.494  25.387  27.656  1.00  0.00     0.034 A 
BRANCH  62  76
ATOM     76  C   UNL A   1      38.799  29.875  30.944  1.00  0.00     0.023 A 
ATOM     77  C   UNL A   1      38.719  29.501  32.302  1.00  0.00     0.012 A 
ATOM     78  C   UNL A   1      37.796  30.701  30.398  1.00  0.00     0.148 A 
ATOM     79  C   UNL A   1      37.637  29.895  33.088  1.00  0.00     0.002 A 
ATOM     80  C   UNL A   1      36.750  31.137  31.203  1.00  0.00     0.091 A 
ATOM     81  F   UNL A   1      37.876  31.033  29.102  1.00  0.00    -0.205 F 
ATOM     82  C   UNL A   1      36.660  30.722  32.541  1.00  0.00     0.022 A 
BRANCH  80  83
ATOM     83  S   UNL A   1      35.488  32.274  30.622  1.00  0.00     0.127 S 
ATOM     84  O   UNL A   1      34.928  31.539  29.488  1.00  0.00    -0.237 OA
ATOM     85  O   UNL A   1      34.603  32.369  31.783  1.00  0.00    -0.237 OA
ATOM     86  O   UNL A   1      36.182  33.508  30.282  1.00  0.00    -0.744 OA
ENDBRANCH  80  83
ENDBRANCH  62  76
BRANCH  63  87
ATOM     87  C   UNL A   1      46.985  27.195  25.820  1.00  0.00     0.023 A 
ATOM     88  C   UNL A   1      47.923  26.380  26.485  1.00  0.00     0.012 A 
ATOM     89  C   UNL A   1      47.225  27.562  24.483  1.00  0.00     0.148 A 
ATOM     90  C   UNL A   1      49.094  25.972  25.846  1.00  0.00     0.002 A 
ATOM     91  C   UNL A   1      48.367  27.107  23.833  1.00  0.00     0.091 A 
ATOM     92  F   UNL A   1      46.325  28.342  23.867  1.00  0.00    -0.205 F 
ATOM     93  C   UNL A   1      49.311  26.327  24.518  1.00  0.00     0.022 A 
BRANCH  91  94
ATOM     94  S   UNL A   1      48.669  27.407  22.088  1.00  0.00     0.127 S 
ATOM     95  O   UNL A   1      48.764  26.047  21.563  1.00  0.00    -0.237 OA
ATOM     96  O   UNL A   1      47.463  28.137  21.695  1.00  0.00    -0.237 OA
ATOM     97  O   UNL A   1      49.894  28.193  22.030  1.00  0.00    -0.744 OA
ENDBRANCH  91  94
ENDBRANCH  63  87
BRANCH  75  98
ATOM     98  C   UNL A   1      40.926  24.039  27.306  1.00  0.00     0.023 A 
ATOM     99  C   UNL A   1      41.481  22.870  27.859  1.00  0.00     0.012 A 
ATOM    100  C   UNL A   1      39.764  23.951  26.513  1.00  0.00     0.148 A 
ATOM    101  C   UNL A   1      40.900  21.627  27.609  1.00  0.00     0.002 A 
ATOM    102  C   UNL A   1      39.160  22.717  26.315  1.00  0.00     0.091 A 
ATOM    103  F   UNL A   1      39.264  25.077  25.986  1.00  0.00    -0.205 F 
ATOM    104  C   UNL A   1      39.733  21.553  26.850  1.00  0.00     0.022 A 
BRANCH 102 105
ATOM    105  S   UNL A   1      37.597  22.539  25.446  1.00  0.00     0.127 S 
ATOM    106  O   UNL A   1      37.705  23.580  24.426  1.00  0.00    -0.237 OA
ATOM    107  O   UNL A   1      37.683  21.172  24.934  1.00  0.00    -0.237 OA
ATOM    108  O   UNL A   1      36.556  22.750  26.442  1.00  0.00    -0.744 OA
ENDBRANCH 102 105
ENDBRANCH  75  98
ENDBRANCH  49  50
ENDBRANCH  41  44
ENDBRANCH  39  40
ENDBRANCH   1  39
TORSDOF 15
ENDMDL
MODEL 2
REMARK VINA RESULT:      -9.7      4.219     14.035
REMARK SMILES CC1(C)CC[C@@]2(C(=O)NCCCCNC(=O)c3ccc(-c4c5nc(c(-c6cccc(S(=O)(=O)[O-])c6F)c6ccc([nH]6)c(-c6cccc(S(=O)(=O)[O-])c6F)c6nc(c(-c7cccc(S(=O)(=O)[O-])c7F)c7ccc4[nH]7)C=C6)C=C5)cc3)CC[C@@]3(C)C(=CC[C@H]4[C@@]5(C)CC[C@H](O)C(C)(C)[C@@H]5CC[C@]43C)[C@@H]2C1
REMARK SMILES IDX 12 1 11 2 10 3 9 4 7 5 8 6 6 8 1 9 2 10 3 11 4 12 103 13
REMARK SMILES IDX 5 14 102 15 84 16 80 17 82 18 85 19 81 20 83 21 100 22 86 23
REMARK SMILES IDX 87 24 99 25 101 26 88 27 98 28 89 29 90 30 97 31 91 32 94 33
REMARK SMILES IDX 92 34 95 35 96 36 93 37 13 39 14 40 15 41 16 43 17 44 18 45
REMARK SMILES IDX 79 46 19 47 78 48 20 49 21 50 22 51 72 52 23 53 77 54 71 55
REMARK SMILES IDX 73 56 24 57 76 58 70 59 69 60 25 62 57 63 37 64 56 65 38 66
REMARK SMILES IDX 41 67 55 68 74 69 39 70 40 71 54 73 75 74 42 75 26 76 27 77
REMARK SMILES IDX 35 78 28 79 30 80 36 81 29 82 31 83 32 84 33 85 34 86 58 87
REMARK SMILES IDX 59 88 67 89 60 90 62 91 68 92 61 93 63 94 64 95 65 96 66 97
REMARK SMILES IDX 43 98 44 99 52 100 45 101 47 102 53 103 46 104 48 105 49 106
REMARK SMILES IDX 50 107 51 108
REMARK H PARENT 9 7 93 38 14 42 73 61 41 72
REMARK Flexibility Score: inf
ROOT
ATOM      1  C   UNL A   1      39.193  27.522  28.350  1.00  0.00     0.023 C 
ENDROOT
BRANCH   1   2
ATOM      2  C   UNL A   1      40.055  26.523  27.560  1.00  0.00     0.023 C 
BRANCH   2   3
ATOM      3  C   UNL A   1      41.546  26.777  27.351  1.00  0.00     0.116 C 
BRANCH   3   4
ATOM      4  N   UNL A   1      42.355  26.072  26.395  1.00  0.00    -0.356 N 
ATOM      5  C   UNL A   1      43.470  25.304  26.627  1.00  0.00     0.226 C 
ATOM      6  O   UNL A   1      44.591  25.763  26.416  1.00  0.00    -0.274 OA
ATOM      7  H   UNL A   1      42.076  26.152  25.454  1.00  0.00     0.163 HD
BRANCH   5   8
ATOM      8  C   UNL A   1      43.266  23.827  27.096  1.00  0.00     0.056 C 
ATOM      9  C   UNL A   1      44.814  21.006  24.537  1.00  0.00     0.011 C 
ATOM     10  C   UNL A   1      44.924  22.499  24.928  1.00  0.00    -0.035 C 
ATOM     11  C   UNL A   1      45.939  23.070  23.876  1.00  0.00     0.011 C 
ATOM     12  C   UNL A   1      43.529  23.118  24.683  1.00  0.00     0.007 C 
ATOM     13  C   UNL A   1      45.457  22.587  26.447  1.00  0.00     0.015 C 
ATOM     14  C   UNL A   1      42.641  23.077  25.908  1.00  0.00     0.018 C 
ATOM     15  C   UNL A   1      44.543  23.146  27.632  1.00  0.00     0.031 C 
ATOM     16  C   UNL A   1      45.094  24.089  28.799  1.00  0.00    -0.064 C 
ATOM     17  C   UNL A   1      42.236  23.741  28.246  1.00  0.00     0.018 C 
ATOM     18  C   UNL A   1      44.091  24.585  29.917  1.00  0.00    -0.006 C 
ATOM     19  C   UNL A   1      46.355  24.559  28.801  1.00  0.00    -0.027 C 
ATOM     20  C   UNL A   1      42.613  24.615  29.431  1.00  0.00     0.013 C 
ATOM     21  C   UNL A   1      44.165  23.386  30.934  1.00  0.00     0.017 C 
ATOM     22  C   UNL A   1      44.494  26.066  30.672  1.00  0.00    -0.020 C 
ATOM     23  C   UNL A   1      46.790  25.838  29.466  1.00  0.00     0.032 C 
ATOM     24  C   UNL A   1      45.673  26.826  29.942  1.00  0.00     0.006 C 
ATOM     25  C   UNL A   1      43.303  27.072  31.014  1.00  0.00     0.008 C 
ATOM     26  C   UNL A   1      45.085  25.735  32.104  1.00  0.00     0.012 C 
ATOM     27  C   UNL A   1      45.416  28.248  29.136  1.00  0.00    -0.025 C 
ATOM     28  C   UNL A   1      43.444  28.573  30.629  1.00  0.00     0.005 C 
ATOM     29  C   UNL A   1      46.474  29.217  29.741  1.00  0.00     0.012 C 
ATOM     30  C   UNL A   1      45.685  28.239  27.645  1.00  0.00     0.010 C 
ATOM     31  C   UNL A   1      43.934  28.730  29.196  1.00  0.00     0.003 C 
ATOM     32  C   UNL A   1      45.569  29.527  26.850  1.00  0.00     0.033 C 
ATOM     33  C   UNL A   1      43.602  30.087  28.371  1.00  0.00    -0.006 C 
ATOM     34  C   UNL A   1      44.105  29.949  26.890  1.00  0.00     0.120 C 
ATOM     35  C   UNL A   1      44.193  31.384  28.958  1.00  0.00     0.014 C 
ATOM     36  C   UNL A   1      42.071  30.303  28.293  1.00  0.00     0.014 C 
BRANCH  34  37
ATOM     37  O   UNL A   1      43.948  31.145  26.127  1.00  0.00    -0.393 OA
ATOM     38  H   UNL A   1      43.046  31.485  26.238  1.00  0.00     0.210 HD
ENDBRANCH  34  37
ENDBRANCH   5   8
ENDBRANCH   3   4
ENDBRANCH   2   3
ENDBRANCH   1   2
BRANCH   1  39
ATOM     39  C   UNL A   1      39.676  27.837  29.757  1.00  0.00     0.116 C 
BRANCH  39  40
ATOM     40  N   UNL A   1      38.698  27.359  30.712  1.00  0.00    -0.352 N 
ATOM     41  C   UNL A   1      38.616  27.749  32.036  1.00  0.00     0.251 C 
ATOM     42  H   UNL A   1      38.037  26.703  30.393  1.00  0.00     0.163 HD
ATOM     43  O   UNL A   1      38.152  26.995  32.876  1.00  0.00    -0.269 OA
BRANCH  41  44
ATOM     44  C   UNL A   1      39.120  29.094  32.408  1.00  0.00     0.039 A 
ATOM     45  C   UNL A   1      38.264  30.199  32.417  1.00  0.00     0.014 A 
ATOM     46  C   UNL A   1      40.467  29.250  32.736  1.00  0.00     0.014 A 
ATOM     47  C   UNL A   1      38.769  31.461  32.754  1.00  0.00     0.010 A 
ATOM     48  C   UNL A   1      40.935  30.471  33.192  1.00  0.00     0.010 A 
ATOM     49  C   UNL A   1      40.113  31.606  33.140  1.00  0.00    -0.014 A 
BRANCH  49  50
ATOM     50  C   UNL A   1      40.749  32.930  33.368  1.00  0.00     0.031 A 
ATOM     51  C   UNL A   1      41.339  33.659  32.182  1.00  0.00     0.074 A 
ATOM     52  C   UNL A   1      40.900  33.421  34.612  1.00  0.00     0.049 A 
ATOM     53  N   UNL A   1      42.106  34.716  32.154  1.00  0.00    -0.248 NA
ATOM     54  C   UNL A   1      41.082  33.078  30.850  1.00  0.00     0.031 C 
ATOM     55  C   UNL A   1      40.433  32.781  35.843  1.00  0.00     0.029 A 
ATOM     56  N   UNL A   1      41.526  34.563  35.048  1.00  0.00    -0.354 N 
ATOM     57  C   UNL A   1      42.476  34.878  30.823  1.00  0.00     0.074 A 
ATOM     58  C   UNL A   1      41.898  33.781  30.083  1.00  0.00     0.031 C 
ATOM     59  C   UNL A   1      40.784  33.541  36.893  1.00  0.00     0.029 A 
ATOM     60  C   UNL A   1      41.534  34.699  36.417  1.00  0.00     0.049 A 
ATOM     61  H   UNL A   1      41.930  35.221  34.438  1.00  0.00     0.167 HD
ATOM     62  C   UNL A   1      43.198  35.872  30.255  1.00  0.00     0.034 A 
ATOM     63  C   UNL A   1      42.097  35.646  37.194  1.00  0.00     0.034 A 
ATOM     64  C   UNL A   1      43.691  37.003  30.986  1.00  0.00     0.049 A 
ATOM     65  C   UNL A   1      42.838  36.780  36.536  1.00  0.00     0.074 A 
ATOM     66  C   UNL A   1      44.341  38.124  30.502  1.00  0.00     0.029 A 
ATOM     67  N   UNL A   1      43.577  37.163  32.358  1.00  0.00    -0.354 N 
ATOM     68  N   UNL A   1      43.073  36.984  35.262  1.00  0.00    -0.248 NA
ATOM     69  C   UNL A   1      43.363  37.835  37.416  1.00  0.00     0.031 C 
ATOM     70  C   UNL A   1      44.645  38.949  31.588  1.00  0.00     0.029 A 
ATOM     71  C   UNL A   1      44.146  38.361  32.742  1.00  0.00     0.049 A 
ATOM     72  H   UNL A   1      43.154  36.516  32.968  1.00  0.00     0.167 HD
ATOM     73  C   UNL A   1      43.726  38.209  35.183  1.00  0.00     0.074 A 
ATOM     74  C   UNL A   1      43.844  38.705  36.538  1.00  0.00     0.031 C 
ATOM     75  C   UNL A   1      44.191  38.862  34.090  1.00  0.00     0.034 A 
BRANCH  62  76
ATOM     76  C   UNL A   1      43.449  35.803  28.770  1.00  0.00     0.023 A 
ATOM     77  C   UNL A   1      42.553  36.425  27.874  1.00  0.00     0.012 A 
ATOM     78  C   UNL A   1      44.591  35.154  28.260  1.00  0.00     0.148 A 
ATOM     79  C   UNL A   1      42.761  36.359  26.497  1.00  0.00     0.002 A 
ATOM     80  C   UNL A   1      44.821  35.141  26.890  1.00  0.00     0.091 A 
ATOM     81  F   UNL A   1      45.422  34.551  29.122  1.00  0.00    -0.205 F 
ATOM     82  C   UNL A   1      43.900  35.727  26.007  1.00  0.00     0.022 A 
BRANCH  80  83
ATOM     83  S   UNL A   1      46.301  34.430  26.161  1.00  0.00     0.127 S 
ATOM     84  O   UNL A   1      46.241  33.055  26.653  1.00  0.00    -0.237 OA
ATOM     85  O   UNL A   1      46.038  34.578  24.729  1.00  0.00    -0.237 OA
ATOM     86  O   UNL A   1      47.416  35.223  26.661  1.00  0.00    -0.744 OA
ENDBRANCH  80  83
ENDBRANCH  62  76
BRANCH  63  87
ATOM     87  C   UNL A   1      41.927  35.598  38.674  1.00  0.00     0.023 A 
ATOM     88  C   UNL A   1      42.948  35.042  39.471  1.00  0.00     0.012 A 
ATOM     89  C   UNL A   1      40.780  36.122  39.299  1.00  0.00     0.148 A 
ATOM     90  C   UNL A   1      42.812  34.975  40.858  1.00  0.00     0.002 A 
ATOM     91  C   UNL A   1      40.675  36.102  40.685  1.00  0.00     0.091 A 
ATOM     92  F   UNL A   1      39.816  36.642  38.524  1.00  0.00    -0.205 F 
ATOM     93  C   UNL A   1      41.682  35.513  41.466  1.00  0.00     0.022 A 
BRANCH  91  94
ATOM     94  S   UNL A   1      39.315  36.884  41.562  1.00  0.00     0.127 S 
ATOM     95  O   UNL A   1      38.181  36.059  41.150  1.00  0.00    -0.237 OA
ATOM     96  O   UNL A   1      39.724  36.719  42.957  1.00  0.00    -0.237 OA
ATOM     97  O   UNL A   1      39.292  38.265  41.100  1.00  0.00    -0.744 OA
ENDBRANCH  91  94
ENDBRANCH  63  87
BRANCH  75  98
ATOM     98  C   UNL A   1      44.808  40.220  34.290  1.00  0.00     0.023 A 
ATOM     99  C   UNL A   1      46.174  40.339  34.609  1.00  0.00     0.012 A 
ATOM    100  C   UNL A   1      44.046  41.380  34.045  1.00  0.00     0.148 A 
ATOM    101  C   UNL A   1      46.768  41.596  34.705  1.00  0.00     0.002 A 
ATOM    102  C   UNL A   1      44.658  42.625  34.087  1.00  0.00     0.091 A 
ATOM    103  F   UNL A   1      42.745  41.240  33.758  1.00  0.00    -0.205 F 
ATOM    104  C   UNL A   1      46.015  42.737  34.430  1.00  0.00     0.022 A 
BRANCH 102 105
ATOM    105  S   UNL A   1      43.796  44.137  33.641  1.00  0.00     0.127 S 
ATOM    106  O   UNL A   1      43.560  43.933  32.213  1.00  0.00    -0.237 OA
ATOM    107  O   UNL A   1      42.597  44.065  34.475  1.00  0.00    -0.237 OA
ATOM    108  O   UNL A   1      44.701  45.230  33.971  1.00  0.00    -0.744 OA
ENDBRANCH 102 105
ENDBRANCH  75  98
ENDBRANCH  49  50
ENDBRANCH  41  44
ENDBRANCH  39  40
ENDBRANCH   1  39
TORSDOF 15
ENDMDL
MODEL 3
REMARK VINA RESULT:      -9.6      5.873      9.535
REMARK SMILES CC1(C)CC[C@@]2(C(=O)NCCCCNC(=O)c3ccc(-c4c5nc(c(-c6cccc(S(=O)(=O)[O-])c6F)c6ccc([nH]6)c(-c6cccc(S(=O)(=O)[O-])c6F)c6nc(c(-c7cccc(S(=O)(=O)[O-])c7F)c7ccc4[nH]7)C=C6)C=C5)cc3)CC[C@@]3(C)C(=CC[C@H]4[C@@]5(C)CC[C@H](O)C(C)(C)[C@@H]5CC[C@]43C)[C@@H]2C1
REMARK SMILES IDX 12 1 11 2 10 3 9 4 7 5 8 6 6 8 1 9 2 10 3 11 4 12 103 13
REMARK SMILES IDX 5 14 102 15 84 16 80 17 82 18 85 19 81 20 83 21 100 22 86 23
REMARK SMILES IDX 87 24 99 25 101 26 88 27 98 28 89 29 90 30 97 31 91 32 94 33
REMARK SMILES IDX 92 34 95 35 96 36 93 37 13 39 14 40 15 41 16 43 17 44 18 45
REMARK SMILES IDX 79 46 19 47 78 48 20 49 21 50 22 51 72 52 23 53 77 54 71 55
REMARK SMILES IDX 73 56 24 57 76 58 70 59 69 60 25 62 57 63 37 64 56 65 38 66
REMARK SMILES IDX 41 67 55 68 74 69 39 70 40 71 54 73 75 74 42 75 26 76 27 77
REMARK SMILES IDX 35 78 28 79 30 80 36 81 29 82 31 83 32 84 33 85 34 86 58 87
REMARK SMILES IDX 59 88 67 89 60 90 62 91 68 92 61 93 63 94 64 95 65 96 66 97
REMARK SMILES IDX 43 98 44 99 52 100 45 101 47 102 53 103 46 104 48 105 49 106
REMARK SMILES IDX 50 107 51 108
REMARK H PARENT 9 7 93 38 14 42 73 61 41 72
REMARK Flexibility Score: inf
ROOT
ATOM      1  C   UNL A   1      39.246  28.073  28.362  1.00  0.00     0.023 C 
ENDROOT
BRANCH   1   2
ATOM      2  C   UNL A   1      38.176  28.771  29.218  1.00  0.00     0.023 C 
BRANCH   2   3
ATOM      3  C   UNL A   1      38.577  29.725  30.340  1.00  0.00     0.116 C 
BRANCH   3   4
ATOM      4  N   UNL A   1      37.643  30.354  31.233  1.00  0.00    -0.356 N 
ATOM      5  C   UNL A   1      37.651  31.647  31.698  1.00  0.00     0.226 C 
ATOM      6  O   UNL A   1      38.059  31.894  32.831  1.00  0.00    -0.274 OA
ATOM      7  H   UNL A   1      36.905  29.786  31.554  1.00  0.00     0.163 HD
BRANCH   5   8
ATOM      8  C   UNL A   1      37.067  32.768  30.776  1.00  0.00     0.056 C 
ATOM      9  C   UNL A   1      33.821  34.739  32.352  1.00  0.00     0.011 C 
ATOM     10  C   UNL A   1      35.043  33.876  32.748  1.00  0.00    -0.035 C 
ATOM     11  C   UNL A   1      34.843  33.662  34.291  1.00  0.00     0.011 C 
ATOM     12  C   UNL A   1      34.876  32.524  32.017  1.00  0.00     0.007 C 
ATOM     13  C   UNL A   1      36.382  34.695  32.382  1.00  0.00     0.015 C 
ATOM     14  C   UNL A   1      35.558  32.496  30.666  1.00  0.00     0.018 C 
ATOM     15  C   UNL A   1      37.387  34.204  31.240  1.00  0.00     0.031 C 
ATOM     16  C   UNL A   1      38.977  34.286  31.373  1.00  0.00    -0.064 C 
ATOM     17  C   UNL A   1      37.628  32.660  29.339  1.00  0.00     0.018 C 
ATOM     18  C   UNL A   1      39.870  33.764  30.176  1.00  0.00    -0.006 C 
ATOM     19  C   UNL A   1      39.579  34.685  32.508  1.00  0.00    -0.027 C 
ATOM     20  C   UNL A   1      39.147  32.697  29.304  1.00  0.00     0.013 C 
ATOM     21  C   UNL A   1      39.939  35.053  29.274  1.00  0.00     0.017 C 
ATOM     22  C   UNL A   1      41.435  33.218  30.600  1.00  0.00    -0.020 C 
ATOM     23  C   UNL A   1      40.962  34.269  32.935  1.00  0.00     0.032 C 
ATOM     24  C   UNL A   1      41.635  33.084  32.163  1.00  0.00     0.006 C 
ATOM     25  C   UNL A   1      41.998  31.927  29.848  1.00  0.00     0.008 C 
ATOM     26  C   UNL A   1      42.471  34.339  30.179  1.00  0.00     0.012 C 
ATOM     27  C   UNL A   1      41.813  31.608  32.888  1.00  0.00    -0.025 C 
ATOM     28  C   UNL A   1      42.643  30.784  30.685  1.00  0.00     0.005 C 
ATOM     29  C   UNL A   1      43.121  31.756  33.720  1.00  0.00     0.012 C 
ATOM     30  C   UNL A   1      40.745  31.211  33.886  1.00  0.00     0.010 C 
ATOM     31  C   UNL A   1      41.774  30.418  31.880  1.00  0.00     0.003 C 
ATOM     32  C   UNL A   1      40.886  29.916  34.669  1.00  0.00     0.033 C 
ATOM     33  C   UNL A   1      41.881  28.938  32.536  1.00  0.00    -0.006 C 
ATOM     34  C   UNL A   1      40.801  28.774  33.663  1.00  0.00     0.120 C 
ATOM     35  C   UNL A   1      43.254  28.570  33.130  1.00  0.00     0.014 C 
ATOM     36  C   UNL A   1      41.565  27.859  31.471  1.00  0.00     0.014 C 
BRANCH  34  37
ATOM     37  O   UNL A   1      40.902  27.534  34.365  1.00  0.00    -0.393 OA
ATOM     38  H   UNL A   1      41.133  26.827  33.742  1.00  0.00     0.210 HD
ENDBRANCH  34  37
ENDBRANCH   5   8
ENDBRANCH   3   4
ENDBRANCH   2   3
ENDBRANCH   1   2
BRANCH   1  39
ATOM     39  C   UNL A   1      40.432  28.937  27.962  1.00  0.00     0.116 C 
BRANCH  39  40
ATOM     40  N   UNL A   1      40.600  28.876  26.525  1.00  0.00    -0.352 N 
ATOM     41  C   UNL A   1      41.813  28.846  25.862  1.00  0.00     0.251 C 
ATOM     42  H   UNL A   1      39.784  28.853  25.975  1.00  0.00     0.163 HD
ATOM     43  O   UNL A   1      41.910  29.292  24.730  1.00  0.00    -0.269 OA
BRANCH  41  44
ATOM     44  C   UNL A   1      42.989  28.278  26.566  1.00  0.00     0.039 A 
ATOM     45  C   UNL A   1      43.388  26.958  26.337  1.00  0.00     0.014 A 
ATOM     46  C   UNL A   1      43.687  29.073  27.476  1.00  0.00     0.014 A 
ATOM     47  C   UNL A   1      44.490  26.440  27.030  1.00  0.00     0.010 A 
ATOM     48  C   UNL A   1      44.851  28.601  28.061  1.00  0.00     0.010 A 
ATOM     49  C   UNL A   1      45.227  27.259  27.901  1.00  0.00    -0.014 A 
BRANCH  49  50
ATOM     50  C   UNL A   1      46.313  26.740  28.774  1.00  0.00     0.031 A 
ATOM     51  C   UNL A   1      45.942  26.184  30.129  1.00  0.00     0.074 A 
ATOM     52  C   UNL A   1      47.606  26.861  28.418  1.00  0.00     0.049 A 
ATOM     53  N   UNL A   1      46.713  25.857  31.132  1.00  0.00    -0.248 NA
ATOM     54  C   UNL A   1      44.502  26.037  30.417  1.00  0.00     0.031 C 
ATOM     55  C   UNL A   1      48.094  27.439  27.165  1.00  0.00     0.029 A 
ATOM     56  N   UNL A   1      48.750  26.534  29.102  1.00  0.00    -0.354 N 
ATOM     57  C   UNL A   1      45.854  25.540  32.180  1.00  0.00     0.074 A 
ATOM     58  C   UNL A   1      44.508  25.768  31.711  1.00  0.00     0.031 C 
ATOM     59  C   UNL A   1      49.437  27.422  27.168  1.00  0.00     0.029 A 
ATOM     60  C   UNL A   1      49.906  26.870  28.435  1.00  0.00     0.049 A 
ATOM     61  H   UNL A   1      48.744  26.100  29.985  1.00  0.00     0.167 HD
ATOM     62  C   UNL A   1      46.153  25.064  33.411  1.00  0.00     0.034 A 
ATOM     63  C   UNL A   1      51.194  26.756  28.814  1.00  0.00     0.034 A 
ATOM     64  C   UNL A   1      47.489  24.757  33.834  1.00  0.00     0.049 A 
ATOM     65  C   UNL A   1      51.505  26.159  30.162  1.00  0.00     0.074 A 
ATOM     66  C   UNL A   1      47.905  24.171  35.015  1.00  0.00     0.029 A 
ATOM     67  N   UNL A   1      48.627  25.004  33.082  1.00  0.00    -0.354 N 
ATOM     68  N   UNL A   1      50.678  25.748  31.093  1.00  0.00    -0.248 NA
ATOM     69  C   UNL A   1      52.924  25.975  30.499  1.00  0.00     0.031 C 
ATOM     70  C   UNL A   1      49.300  24.089  34.988  1.00  0.00     0.029 A 
ATOM     71  C   UNL A   1      49.747  24.585  33.773  1.00  0.00     0.049 A 
ATOM     72  H   UNL A   1      48.635  25.418  32.189  1.00  0.00     0.167 HD
ATOM     73  C   UNL A   1      51.471  25.214  32.102  1.00  0.00     0.074 A 
ATOM     74  C   UNL A   1      52.845  25.347  31.665  1.00  0.00     0.031 C 
ATOM     75  C   UNL A   1      51.099  24.669  33.285  1.00  0.00     0.034 A 
BRANCH  62  76
ATOM     76  C   UNL A   1      45.013  24.797  34.361  1.00  0.00     0.023 A 
ATOM     77  C   UNL A   1      44.375  23.538  34.361  1.00  0.00     0.012 A 
ATOM     78  C   UNL A   1      44.595  25.779  35.281  1.00  0.00     0.148 A 
ATOM     79  C   UNL A   1      43.309  23.278  35.222  1.00  0.00     0.002 A 
ATOM     80  C   UNL A   1      43.570  25.494  36.174  1.00  0.00     0.091 A 
ATOM     81  F   UNL A   1      45.197  26.977  35.256  1.00  0.00    -0.205 F 
ATOM     82  C   UNL A   1      42.915  24.252  36.135  1.00  0.00     0.022 A 
BRANCH  80  83
ATOM     83  S   UNL A   1      43.044  26.645  37.448  1.00  0.00     0.127 S 
ATOM     84  O   UNL A   1      42.919  27.888  36.689  1.00  0.00    -0.237 OA
ATOM     85  O   UNL A   1      41.772  26.064  37.880  1.00  0.00    -0.237 OA
ATOM     86  O   UNL A   1      44.093  26.634  38.458  1.00  0.00    -0.744 OA
ENDBRANCH  80  83
ENDBRANCH  62  76
BRANCH  63  87
ATOM     87  C   UNL A   1      52.288  27.156  27.882  1.00  0.00     0.023 A 
ATOM     88  C   UNL A   1      52.848  28.445  27.984  1.00  0.00     0.012 A 
ATOM     89  C   UNL A   1      52.794  26.263  26.919  1.00  0.00     0.148 A 
ATOM     90  C   UNL A   1      53.865  28.850  27.120  1.00  0.00     0.002 A 
ATOM     91  C   UNL A   1      53.845  26.654  26.097  1.00  0.00     0.091 A 
ATOM     92  F   UNL A   1      52.245  25.043  26.833  1.00  0.00    -0.205 F 
ATOM     93  C   UNL A   1      54.370  27.952  26.183  1.00  0.00     0.022 A 
BRANCH  91  94
ATOM     94  S   UNL A   1      54.644  25.526  24.949  1.00  0.00     0.127 S 
ATOM     95  O   UNL A   1      55.021  24.422  25.830  1.00  0.00    -0.237 OA
ATOM     96  O   UNL A   1      53.557  25.226  24.017  1.00  0.00    -0.237 OA
ATOM     97  O   UNL A   1      55.749  26.275  24.366  1.00  0.00    -0.744 OA
ENDBRANCH  91  94
ENDBRANCH  63  87
BRANCH  75  98
ATOM     98  C   UNL A   1      52.176  24.103  34.172  1.00  0.00     0.023 A 
ATOM     99  C   UNL A   1      52.746  24.892  35.188  1.00  0.00     0.012 A 
ATOM    100  C   UNL A   1      52.535  22.745  34.060  1.00  0.00     0.148 A 
ATOM    101  C   UNL A   1      53.677  24.343  36.067  1.00  0.00     0.002 A 
ATOM    102  C   UNL A   1      53.421  22.191  34.974  1.00  0.00     0.091 A 
ATOM    103  F   UNL A   1      51.990  22.019  33.074  1.00  0.00    -0.205 F 
ATOM    104  C   UNL A   1      54.003  22.991  35.970  1.00  0.00     0.022 A 
BRANCH 102 105
ATOM    105  S   UNL A   1      53.814  20.438  34.994  1.00  0.00     0.127 S 
ATOM    106  O   UNL A   1      55.096  20.429  35.695  1.00  0.00    -0.237 OA
ATOM    107  O   UNL A   1      52.697  19.881  35.756  1.00  0.00    -0.237 OA
ATOM    108  O   UNL A   1      53.865  20.021  33.599  1.00  0.00    -0.744 OA
ENDBRANCH 102 105
ENDBRANCH  75  98
ENDBRANCH  49  50
ENDBRANCH  41  44
ENDBRANCH  39  40
ENDBRANCH   1  39
TORSDOF 15
ENDMDL
