MODEL 1
REMARK VINA RESULT:     -11.2      0.000      0.000
REMARK SMILES C[C@H](Sc1ccc(N)c(Cl)c1)C(=O)NCCCCNC(=O)c1ccc(-c2c3nc(c(-c4cccc(S(=O)(=O)[O-])c4F)c4ccc([nH]4)c(-c4cccc(S(=O)(=O)[O-])c4F)c4nc(c(-c5cccc(S(=O)(=O)[O-])c5F)c5ccc2[nH]5)C=C4)C=C3)cc1
REMARK SMILES IDX 16 1 15 2 14 3 12 4 13 5 2 7 1 8 3 9 4 10 5 11 11 12 6 13
REMARK SMILES IDX 9 14 7 15 10 16 8 17 17 20 18 21 19 22 20 23 21 25 22 26
REMARK SMILES IDX 23 27 84 28 24 29 83 30 25 31 26 32 27 33 77 34 28 35 82 36
REMARK SMILES IDX 76 37 78 38 29 39 81 40 75 41 74 42 30 44 62 45 42 46 61 47
REMARK SMILES IDX 43 48 46 49 60 50 79 51 44 52 45 53 59 55 80 56 47 57 31 58
REMARK SMILES IDX 32 59 40 60 33 61 35 62 41 63 34 64 36 65 37 66 38 67 39 68
REMARK SMILES IDX 63 69 64 70 72 71 65 72 67 73 73 74 66 75 68 76 69 77 70 78
REMARK SMILES IDX 71 79 48 80 49 81 57 82 50 83 52 84 58 85 51 86 53 87 54 88
REMARK SMILES IDX 55 89 56 90
REMARK H PARENT 14 6 8 18 8 19 19 24 78 43 46 54
REMARK Flexibility Score: inf
ROOT
ATOM      1  C   UNL A   1      30.937  28.414  24.279  1.00  0.00     0.023 C 
ENDROOT
BRANCH   1   2
ATOM      2  C   UNL A   1      30.956  26.985  23.736  1.00  0.00     0.116 C 
BRANCH   2   3
ATOM      3  N   UNL A   1      31.992  26.790  22.742  1.00  0.00    -0.355 N 
ATOM      4  C   UNL A   1      33.117  26.028  22.755  1.00  0.00     0.233 C 
ATOM      5  O   UNL A   1      33.818  26.056  21.737  1.00  0.00    -0.274 OA
ATOM      6  H   UNL A   1      31.857  27.299  21.911  1.00  0.00     0.163 HD
BRANCH   4   7
ATOM      7  C   UNL A   1      33.506  25.106  23.906  1.00  0.00     0.137 C 
ATOM      8  C   UNL A   1      34.040  25.906  25.091  1.00  0.00     0.030 C 
BRANCH   7   9
ATOM      9  S   UNL A   1      34.669  23.760  23.469  1.00  0.00    -0.113 SA
BRANCH   9  10
ATOM     10  C   UNL A   1      34.174  22.363  24.468  1.00  0.00     0.010 A 
ATOM     11  C   UNL A   1      34.352  22.254  25.847  1.00  0.00     0.017 A 
ATOM     12  C   UNL A   1      33.584  21.291  23.788  1.00  0.00     0.037 A 
ATOM     13  C   UNL A   1      33.890  21.126  26.542  1.00  0.00     0.028 A 
ATOM     14  C   UNL A   1      33.142  20.159  24.481  1.00  0.00     0.065 A 
ATOM     15  C   UNL A   1      33.245  20.081  25.878  1.00  0.00     0.050 A 
ATOM     16  Cl  UNL A   1      32.439  18.865  23.570  1.00  0.00    -0.082 Cl
BRANCH  15  17
ATOM     17  N   UNL A   1      32.872  18.942  26.590  1.00  0.00    -0.398 N 
ATOM     18  H   UNL A   1      32.790  18.980  27.570  1.00  0.00     0.156 HD
ATOM     19  H   UNL A   1      32.693  18.101  26.112  1.00  0.00     0.156 HD
ENDBRANCH  15  17
ENDBRANCH   9  10
ENDBRANCH   7   9
ENDBRANCH   4   7
ENDBRANCH   2   3
ENDBRANCH   1   2
BRANCH   1  20
ATOM     20  C   UNL A   1      31.697  28.623  25.590  1.00  0.00     0.023 C 
BRANCH  20  21
ATOM     21  C   UNL A   1      32.839  29.631  25.537  1.00  0.00     0.116 C 
BRANCH  21  22
ATOM     22  N   UNL A   1      32.482  30.931  26.086  1.00  0.00    -0.352 N 
ATOM     23  C   UNL A   1      33.111  31.662  27.065  1.00  0.00     0.251 C 
ATOM     24  H   UNL A   1      31.675  31.345  25.702  1.00  0.00     0.163 HD
ATOM     25  O   UNL A   1      32.598  32.697  27.482  1.00  0.00    -0.269 OA
BRANCH  23  26
ATOM     26  C   UNL A   1      34.387  31.182  27.637  1.00  0.00     0.039 A 
ATOM     27  C   UNL A   1      35.403  32.107  27.891  1.00  0.00     0.014 A 
ATOM     28  C   UNL A   1      34.572  29.832  27.945  1.00  0.00     0.014 A 
ATOM     29  C   UNL A   1      36.577  31.689  28.520  1.00  0.00     0.010 A 
ATOM     30  C   UNL A   1      35.711  29.431  28.637  1.00  0.00     0.010 A 
ATOM     31  C   UNL A   1      36.726  30.355  28.932  1.00  0.00    -0.014 A 
BRANCH  31  32
ATOM     32  C   UNL A   1      37.923  29.909  29.691  1.00  0.00     0.031 A 
ATOM     33  C   UNL A   1      38.189  30.444  31.072  1.00  0.00     0.074 A 
ATOM     34  C   UNL A   1      38.822  29.097  29.100  1.00  0.00     0.049 A 
ATOM     35  N   UNL A   1      39.213  30.227  31.857  1.00  0.00    -0.248 NA
ATOM     36  C   UNL A   1      37.191  31.369  31.633  1.00  0.00     0.031 C 
ATOM     37  C   UNL A   1      38.723  28.578  27.733  1.00  0.00     0.029 A 
ATOM     38  N   UNL A   1      40.012  28.589  29.561  1.00  0.00    -0.354 N 
ATOM     39  C   UNL A   1      39.001  31.011  32.984  1.00  0.00     0.074 A 
ATOM     40  C   UNL A   1      37.768  31.738  32.766  1.00  0.00     0.031 C 
ATOM     41  C   UNL A   1      39.805  27.829  27.467  1.00  0.00     0.029 A 
ATOM     42  C   UNL A   1      40.687  27.834  28.629  1.00  0.00     0.049 A 
ATOM     43  H   UNL A   1      40.349  28.750  30.471  1.00  0.00     0.167 HD
ATOM     44  C   UNL A   1      39.744  31.095  34.113  1.00  0.00     0.034 A 
ATOM     45  C   UNL A   1      41.885  27.221  28.700  1.00  0.00     0.034 A 
ATOM     46  C   UNL A   1      40.943  30.336  34.347  1.00  0.00     0.049 A 
ATOM     47  C   UNL A   1      42.666  27.288  29.985  1.00  0.00     0.074 A 
ATOM     48  C   UNL A   1      41.718  30.284  35.492  1.00  0.00     0.029 A 
ATOM     49  N   UNL A   1      41.543  29.501  33.419  1.00  0.00    -0.354 N 
ATOM     50  N   UNL A   1      42.365  27.905  31.102  1.00  0.00    -0.248 NA
ATOM     51  C   UNL A   1      43.933  26.544  30.033  1.00  0.00     0.031 C 
ATOM     52  C   UNL A   1      42.798  29.428  35.249  1.00  0.00     0.029 A 
ATOM     53  C   UNL A   1      42.683  28.931  33.961  1.00  0.00     0.049 A 
ATOM     54  H   UNL A   1      41.209  29.336  32.508  1.00  0.00     0.167 HD
ATOM     55  C   UNL A   1      43.384  27.596  31.996  1.00  0.00     0.074 A 
ATOM     56  C   UNL A   1      44.300  26.719  31.296  1.00  0.00     0.031 C 
ATOM     57  C   UNL A   1      43.556  28.015  33.273  1.00  0.00     0.034 A 
BRANCH  44  58
ATOM     58  C   UNL A   1      39.244  31.997  35.212  1.00  0.00     0.023 A 
ATOM     59  C   UNL A   1      38.267  31.517  36.110  1.00  0.00     0.012 A 
ATOM     60  C   UNL A   1      39.772  33.290  35.393  1.00  0.00     0.148 A 
ATOM     61  C   UNL A   1      37.796  32.322  37.145  1.00  0.00     0.002 A 
ATOM     62  C   UNL A   1      39.330  34.070  36.456  1.00  0.00     0.091 A 
ATOM     63  F   UNL A   1      40.684  33.737  34.519  1.00  0.00    -0.205 F 
ATOM     64  C   UNL A   1      38.335  33.593  37.325  1.00  0.00     0.022 A 
BRANCH  62  65
ATOM     65  S   UNL A   1      40.016  35.690  36.819  1.00  0.00     0.127 S 
ATOM     66  O   UNL A   1      41.439  35.384  36.955  1.00  0.00    -0.237 OA
ATOM     67  O   UNL A   1      39.669  36.449  35.617  1.00  0.00    -0.237 OA
ATOM     68  O   UNL A   1      39.354  36.143  38.034  1.00  0.00    -0.744 OA
ENDBRANCH  62  65
ENDBRANCH  44  58
BRANCH  45  69
ATOM     69  C   UNL A   1      42.384  26.429  27.540  1.00  0.00     0.023 A 
ATOM     70  C   UNL A   1      43.235  27.042  26.600  1.00  0.00     0.012 A 
ATOM     71  C   UNL A   1      42.051  25.070  27.381  1.00  0.00     0.148 A 
ATOM     72  C   UNL A   1      43.720  26.325  25.506  1.00  0.00     0.002 A 
ATOM     73  C   UNL A   1      42.581  24.346  26.320  1.00  0.00     0.091 A 
ATOM     74  F   UNL A   1      41.229  24.508  28.280  1.00  0.00    -0.205 F 
ATOM     75  C   UNL A   1      43.403  24.976  25.372  1.00  0.00     0.022 A 
BRANCH  73  76
ATOM     76  S   UNL A   1      42.335  22.575  26.144  1.00  0.00     0.127 S 
ATOM     77  O   UNL A   1      43.043  22.298  24.896  1.00  0.00    -0.237 OA
ATOM     78  O   UNL A   1      42.984  22.056  27.349  1.00  0.00    -0.237 OA
ATOM     79  O   UNL A   1      40.892  22.382  26.111  1.00  0.00    -0.744 OA
ENDBRANCH  73  76
ENDBRANCH  45  69
BRANCH  57  80
ATOM     80  C   UNL A   1      44.761  27.507  34.021  1.00  0.00     0.023 A 
ATOM     81  C   UNL A   1      45.955  28.255  34.013  1.00  0.00     0.012 A 
ATOM     82  C   UNL A   1      44.687  26.332  34.794  1.00  0.00     0.148 A 
ATOM     83  C   UNL A   1      47.065  27.825  34.738  1.00  0.00     0.002 A 
ATOM     84  C   UNL A   1      45.782  25.935  35.552  1.00  0.00     0.091 A 
ATOM     85  F   UNL A   1      43.547  25.624  34.773  1.00  0.00    -0.205 F 
ATOM     86  C   UNL A   1      46.974  26.673  35.517  1.00  0.00     0.022 A 
BRANCH  84  87
ATOM     87  S   UNL A   1      45.723  24.519  36.656  1.00  0.00     0.127 S 
ATOM     88  O   UNL A   1      44.625  24.881  37.549  1.00  0.00    -0.237 OA
ATOM     89  O   UNL A   1      45.425  23.420  35.736  1.00  0.00    -0.237 OA
ATOM     90  O   UNL A   1      47.038  24.442  37.279  1.00  0.00    -0.744 OA
ENDBRANCH  84  87
ENDBRANCH  57  80
ENDBRANCH  31  32
ENDBRANCH  23  26
ENDBRANCH  21  22
ENDBRANCH  20  21
ENDBRANCH   1  20
TORSDOF 17
ENDMDL
MODEL 2
REMARK VINA RESULT:     -11.1      4.967      9.994
REMARK SMILES C[C@H](Sc1ccc(N)c(Cl)c1)C(=O)NCCCCNC(=O)c1ccc(-c2c3nc(c(-c4cccc(S(=O)(=O)[O-])c4F)c4ccc([nH]4)c(-c4cccc(S(=O)(=O)[O-])c4F)c4nc(c(-c5cccc(S(=O)(=O)[O-])c5F)c5ccc2[nH]5)C=C4)C=C3)cc1
REMARK SMILES IDX 16 1 15 2 14 3 12 4 13 5 2 7 1 8 3 9 4 10 5 11 11 12 6 13
REMARK SMILES IDX 9 14 7 15 10 16 8 17 17 20 18 21 19 22 20 23 21 25 22 26
REMARK SMILES IDX 23 27 84 28 24 29 83 30 25 31 26 32 27 33 77 34 28 35 82 36
REMARK SMILES IDX 76 37 78 38 29 39 81 40 75 41 74 42 30 44 62 45 42 46 61 47
REMARK SMILES IDX 43 48 46 49 60 50 79 51 44 52 45 53 59 55 80 56 47 57 31 58
REMARK SMILES IDX 32 59 40 60 33 61 35 62 41 63 34 64 36 65 37 66 38 67 39 68
REMARK SMILES IDX 63 69 64 70 72 71 65 72 67 73 73 74 66 75 68 76 69 77 70 78
REMARK SMILES IDX 71 79 48 80 49 81 57 82 50 83 52 84 58 85 51 86 53 87 54 88
REMARK SMILES IDX 55 89 56 90
REMARK H PARENT 14 6 8 18 8 19 19 24 78 43 46 54
REMARK Flexibility Score: inf
ROOT
ATOM      1  C   UNL A   1      35.784  23.280  23.612  1.00  0.00     0.023 C 
ENDROOT
BRANCH   1   2
ATOM      2  C   UNL A   1      34.891  23.728  24.769  1.00  0.00     0.116 C 
BRANCH   2   3
ATOM      3  N   UNL A   1      33.529  23.980  24.345  1.00  0.00    -0.355 N 
ATOM      4  C   UNL A   1      32.575  23.152  23.846  1.00  0.00     0.233 C 
ATOM      5  O   UNL A   1      31.481  23.662  23.578  1.00  0.00    -0.274 OA
ATOM      6  H   UNL A   1      33.244  24.918  24.433  1.00  0.00     0.163 HD
BRANCH   4   7
ATOM      7  C   UNL A   1      32.760  21.647  23.677  1.00  0.00     0.137 C 
ATOM      8  C   UNL A   1      32.139  21.164  22.368  1.00  0.00     0.030 C 
BRANCH   7   9
ATOM      9  S   UNL A   1      32.170  20.625  25.078  1.00  0.00    -0.113 SA
BRANCH   9  10
ATOM     10  C   UNL A   1      33.145  19.128  25.015  1.00  0.00     0.010 A 
ATOM     11  C   UNL A   1      34.474  19.047  24.601  1.00  0.00     0.017 A 
ATOM     12  C   UNL A   1      32.494  17.947  25.393  1.00  0.00     0.037 A 
ATOM     13  C   UNL A   1      35.159  17.823  24.627  1.00  0.00     0.028 A 
ATOM     14  C   UNL A   1      33.174  16.725  25.400  1.00  0.00     0.065 A 
ATOM     15  C   UNL A   1      34.534  16.653  25.063  1.00  0.00     0.050 A 
ATOM     16  Cl  UNL A   1      32.299  15.304  25.861  1.00  0.00    -0.082 Cl
BRANCH  15  17
ATOM     17  N   UNL A   1      35.222  15.443  24.998  1.00  0.00    -0.398 N 
ATOM     18  H   UNL A   1      35.561  15.115  24.134  1.00  0.00     0.156 HD
ATOM     19  H   UNL A   1      35.368  14.916  25.816  1.00  0.00     0.156 HD
ENDBRANCH  15  17
ENDBRANCH   9  10
ENDBRANCH   7   9
ENDBRANCH   4   7
ENDBRANCH   2   3
ENDBRANCH   1   2
BRANCH   1  20
ATOM     20  C   UNL A   1      36.687  22.082  23.911  1.00  0.00     0.023 C 
BRANCH  20  21
ATOM     21  C   UNL A   1      36.871  21.746  25.386  1.00  0.00     0.116 C 
BRANCH  21  22
ATOM     22  N   UNL A   1      37.908  20.751  25.621  1.00  0.00    -0.352 N 
ATOM     23  C   UNL A   1      39.185  20.925  26.096  1.00  0.00     0.251 C 
ATOM     24  H   UNL A   1      37.657  19.821  25.410  1.00  0.00     0.163 HD
ATOM     25  O   UNL A   1      39.963  19.975  26.123  1.00  0.00    -0.269 OA
BRANCH  23  26
ATOM     26  C   UNL A   1      39.629  22.263  26.540  1.00  0.00     0.039 A 
ATOM     27  C   UNL A   1      40.544  22.355  27.593  1.00  0.00     0.014 A 
ATOM     28  C   UNL A   1      39.168  23.419  25.906  1.00  0.00     0.014 A 
ATOM     29  C   UNL A   1      41.048  23.603  27.963  1.00  0.00     0.010 A 
ATOM     30  C   UNL A   1      39.727  24.653  26.227  1.00  0.00     0.010 A 
ATOM     31  C   UNL A   1      40.673  24.759  27.259  1.00  0.00    -0.014 A 
BRANCH  31  32
ATOM     32  C   UNL A   1      41.273  26.082  27.568  1.00  0.00     0.031 A 
ATOM     33  C   UNL A   1      42.689  26.388  27.162  1.00  0.00     0.074 A 
ATOM     34  C   UNL A   1      40.576  26.974  28.301  1.00  0.00     0.049 A 
ATOM     35  N   UNL A   1      43.404  27.457  27.405  1.00  0.00    -0.248 NA
ATOM     36  C   UNL A   1      43.407  25.346  26.410  1.00  0.00     0.031 C 
ATOM     37  C   UNL A   1      39.227  26.763  28.830  1.00  0.00     0.029 A 
ATOM     38  N   UNL A   1      40.917  28.224  28.754  1.00  0.00    -0.354 N 
ATOM     39  C   UNL A   1      44.661  27.202  26.870  1.00  0.00     0.074 A 
ATOM     40  C   UNL A   1      44.623  25.864  26.320  1.00  0.00     0.031 C 
ATOM     41  C   UNL A   1      38.856  27.843  29.536  1.00  0.00     0.029 A 
ATOM     42  C   UNL A   1      39.947  28.812  29.534  1.00  0.00     0.049 A 
ATOM     43  H   UNL A   1      41.775  28.658  28.542  1.00  0.00     0.167 HD
ATOM     44  C   UNL A   1      45.740  28.019  26.810  1.00  0.00     0.034 A 
ATOM     45  C   UNL A   1      39.939  29.995  30.180  1.00  0.00     0.034 A 
ATOM     46  C   UNL A   1      45.760  29.366  27.314  1.00  0.00     0.049 A 
ATOM     47  C   UNL A   1      41.132  30.905  30.054  1.00  0.00     0.074 A 
ATOM     48  C   UNL A   1      46.773  30.303  27.223  1.00  0.00     0.029 A 
ATOM     49  N   UNL A   1      44.722  29.966  28.008  1.00  0.00    -0.354 N 
ATOM     50  N   UNL A   1      42.253  30.710  29.402  1.00  0.00    -0.248 NA
ATOM     51  C   UNL A   1      41.045  32.213  30.719  1.00  0.00     0.031 C 
ATOM     52  C   UNL A   1      46.353  31.466  27.877  1.00  0.00     0.029 A 
ATOM     53  C   UNL A   1      45.069  31.260  28.357  1.00  0.00     0.049 A 
ATOM     54  H   UNL A   1      43.862  29.536  28.222  1.00  0.00     0.167 HD
ATOM     55  C   UNL A   1      42.988  31.881  29.548  1.00  0.00     0.074 A 
ATOM     56  C   UNL A   1      42.176  32.788  30.333  1.00  0.00     0.031 C 
ATOM     57  C   UNL A   1      44.230  32.172  29.090  1.00  0.00     0.034 A 
BRANCH  44  58
ATOM     58  C   UNL A   1      46.971  27.497  26.116  1.00  0.00     0.023 A 
ATOM     59  C   UNL A   1      47.147  27.745  24.739  1.00  0.00     0.012 A 
ATOM     60  C   UNL A   1      47.977  26.815  26.828  1.00  0.00     0.148 A 
ATOM     61  C   UNL A   1      48.283  27.289  24.072  1.00  0.00     0.002 A 
ATOM     62  C   UNL A   1      49.128  26.403  26.165  1.00  0.00     0.091 A 
ATOM     63  F   UNL A   1      47.784  26.570  28.131  1.00  0.00    -0.205 F 
ATOM     64  C   UNL A   1      49.277  26.628  24.787  1.00  0.00     0.022 A 
BRANCH  62  65
ATOM     65  S   UNL A   1      50.501  25.612  27.012  1.00  0.00     0.127 S 
ATOM     66  O   UNL A   1      51.446  25.408  25.916  1.00  0.00    -0.237 OA
ATOM     67  O   UNL A   1      50.900  26.637  27.977  1.00  0.00    -0.237 OA
ATOM     68  O   UNL A   1      49.960  24.399  27.607  1.00  0.00    -0.744 OA
ENDBRANCH  62  65
ENDBRANCH  44  58
BRANCH  45  69
ATOM     69  C   UNL A   1      38.732  30.415  30.945  1.00  0.00     0.023 A 
ATOM     70  C   UNL A   1      38.662  30.150  32.326  1.00  0.00     0.012 A 
ATOM     71  C   UNL A   1      37.673  31.104  30.324  1.00  0.00     0.148 A 
ATOM     72  C   UNL A   1      37.545  30.535  33.069  1.00  0.00     0.002 A 
ATOM     73  C   UNL A   1      36.588  31.533  31.080  1.00  0.00     0.091 A 
ATOM     74  F   UNL A   1      37.752  31.337  29.005  1.00  0.00    -0.205 F 
ATOM     75  C   UNL A   1      36.514  31.235  32.449  1.00  0.00     0.022 A 
BRANCH  73  76
ATOM     76  S   UNL A   1      35.280  32.557  30.393  1.00  0.00     0.127 S 
ATOM     77  O   UNL A   1      34.817  31.740  29.274  1.00  0.00    -0.237 OA
ATOM     78  O   UNL A   1      34.346  32.651  31.516  1.00  0.00    -0.237 OA
ATOM     79  O   UNL A   1      35.917  33.818  30.037  1.00  0.00    -0.744 OA
ENDBRANCH  73  76
ENDBRANCH  45  69
BRANCH  57  80
ATOM     80  C   UNL A   1      44.784  33.540  29.391  1.00  0.00     0.023 A 
ATOM     81  C   UNL A   1      45.508  33.754  30.582  1.00  0.00     0.012 A 
ATOM     82  C   UNL A   1      44.658  34.590  28.461  1.00  0.00     0.148 A 
ATOM     83  C   UNL A   1      46.069  35.001  30.854  1.00  0.00     0.002 A 
ATOM     84  C   UNL A   1      45.261  35.815  28.717  1.00  0.00     0.091 A 
ATOM     85  F   UNL A   1      43.949  34.371  27.343  1.00  0.00    -0.205 F 
ATOM     86  C   UNL A   1      45.956  36.026  29.918  1.00  0.00     0.022 A 
BRANCH  84  87
ATOM     87  S   UNL A   1      45.248  37.161  27.527  1.00  0.00     0.127 S 
ATOM     88  O   UNL A   1      43.819  37.302  27.251  1.00  0.00    -0.237 OA
ATOM     89  O   UNL A   1      45.832  38.261  28.295  1.00  0.00    -0.237 OA
ATOM     90  O   UNL A   1      46.061  36.712  26.406  1.00  0.00    -0.744 OA
ENDBRANCH  84  87
ENDBRANCH  57  80
ENDBRANCH  31  32
ENDBRANCH  23  26
ENDBRANCH  21  22
ENDBRANCH  20  21
ENDBRANCH   1  20
TORSDOF 17
ENDMDL
MODEL 3
REMARK VINA RESULT:     -11.0      2.259      3.055
REMARK SMILES C[C@H](Sc1ccc(N)c(Cl)c1)C(=O)NCCCCNC(=O)c1ccc(-c2c3nc(c(-c4cccc(S(=O)(=O)[O-])c4F)c4ccc([nH]4)c(-c4cccc(S(=O)(=O)[O-])c4F)c4nc(c(-c5cccc(S(=O)(=O)[O-])c5F)c5ccc2[nH]5)C=C4)C=C3)cc1
REMARK SMILES IDX 16 1 15 2 14 3 12 4 13 5 2 7 1 8 3 9 4 10 5 11 11 12 6 13
REMARK SMILES IDX 9 14 7 15 10 16 8 17 17 20 18 21 19 22 20 23 21 25 22 26
REMARK SMILES IDX 23 27 84 28 24 29 83 30 25 31 26 32 27 33 77 34 28 35 82 36
REMARK SMILES IDX 76 37 78 38 29 39 81 40 75 41 74 42 30 44 62 45 42 46 61 47
REMARK SMILES IDX 43 48 46 49 60 50 79 51 44 52 45 53 59 55 80 56 47 57 31 58
REMARK SMILES IDX 32 59 40 60 33 61 35 62 41 63 34 64 36 65 37 66 38 67 39 68
REMARK SMILES IDX 63 69 64 70 72 71 65 72 67 73 73 74 66 75 68 76 69 77 70 78
REMARK SMILES IDX 71 79 48 80 49 81 57 82 50 83 52 84 58 85 51 86 53 87 54 88
REMARK SMILES IDX 55 89 56 90
REMARK H PARENT 14 6 8 18 8 19 19 24 78 43 46 54
REMARK Flexibility Score: inf
ROOT
ATOM      1  C   UNL A   1      32.768  27.765  25.126  1.00  0.00     0.023 C 
ENDROOT
BRANCH   1   2
ATOM      2  C   UNL A   1      32.900  26.242  25.114  1.00  0.00     0.116 C 
BRANCH   2   3
ATOM      3  N   UNL A   1      33.166  25.725  23.787  1.00  0.00    -0.355 N 
ATOM      4  C   UNL A   1      33.975  24.721  23.359  1.00  0.00     0.233 C 
ATOM      5  O   UNL A   1      33.988  24.498  22.142  1.00  0.00    -0.274 OA
ATOM      6  H   UNL A   1      32.673  26.182  23.067  1.00  0.00     0.163 HD
BRANCH   4   7
ATOM      7  C   UNL A   1      34.789  23.830  24.292  1.00  0.00     0.137 C 
ATOM      8  C   UNL A   1      35.776  22.971  23.504  1.00  0.00     0.030 C 
BRANCH   7   9
ATOM      9  S   UNL A   1      33.804  22.786  25.431  1.00  0.00    -0.113 SA
BRANCH   9  10
ATOM     10  C   UNL A   1      33.204  21.431  24.432  1.00  0.00     0.010 A 
ATOM     11  C   UNL A   1      32.436  21.560  23.275  1.00  0.00     0.017 A 
ATOM     12  C   UNL A   1      33.521  20.142  24.879  1.00  0.00     0.037 A 
ATOM     13  C   UNL A   1      32.049  20.428  22.543  1.00  0.00     0.028 A 
ATOM     14  C   UNL A   1      33.117  19.014  24.156  1.00  0.00     0.065 A 
ATOM     15  C   UNL A   1      32.415  19.143  22.949  1.00  0.00     0.050 A 
ATOM     16  Cl  UNL A   1      33.529  17.453  24.780  1.00  0.00    -0.082 Cl
BRANCH  15  17
ATOM     17  N   UNL A   1      31.943  18.039  22.240  1.00  0.00    -0.398 N 
ATOM     18  H   UNL A   1      31.939  17.149  22.661  1.00  0.00     0.156 HD
ATOM     19  H   UNL A   1      31.616  18.150  21.319  1.00  0.00     0.156 HD
ENDBRANCH  15  17
ENDBRANCH   9  10
ENDBRANCH   7   9
ENDBRANCH   4   7
ENDBRANCH   2   3
ENDBRANCH   1   2
BRANCH   1  20
ATOM     20  C   UNL A   1      33.835  28.507  25.932  1.00  0.00     0.023 C 
BRANCH  20  21
ATOM     21  C   UNL A   1      33.430  28.914  27.344  1.00  0.00     0.116 C 
BRANCH  21  22
ATOM     22  N   UNL A   1      33.536  30.347  27.579  1.00  0.00    -0.352 N 
ATOM     23  C   UNL A   1      34.570  31.061  28.135  1.00  0.00     0.251 C 
ATOM     24  H   UNL A   1      32.756  30.880  27.299  1.00  0.00     0.163 HD
ATOM     25  O   UNL A   1      34.436  32.261  28.358  1.00  0.00    -0.269 OA
BRANCH  23  26
ATOM     26  C   UNL A   1      35.829  30.374  28.495  1.00  0.00     0.039 A 
ATOM     27  C   UNL A   1      36.916  30.457  27.621  1.00  0.00     0.014 A 
ATOM     28  C   UNL A   1      35.945  29.675  29.699  1.00  0.00     0.014 A 
ATOM     29  C   UNL A   1      38.142  29.898  27.988  1.00  0.00     0.010 A 
ATOM     30  C   UNL A   1      37.186  29.183  30.094  1.00  0.00     0.010 A 
ATOM     31  C   UNL A   1      38.298  29.289  29.244  1.00  0.00    -0.014 A 
BRANCH  31  32
ATOM     32  C   UNL A   1      39.617  28.776  29.696  1.00  0.00     0.031 A 
ATOM     33  C   UNL A   1      40.377  29.490  30.780  1.00  0.00     0.074 A 
ATOM     34  C   UNL A   1      40.174  27.724  29.065  1.00  0.00     0.049 A 
ATOM     35  N   UNL A   1      41.568  29.234  31.258  1.00  0.00    -0.248 NA
ATOM     36  C   UNL A   1      39.729  30.664  31.388  1.00  0.00     0.031 C 
ATOM     37  C   UNL A   1      39.578  26.999  27.941  1.00  0.00     0.029 A 
ATOM     38  N   UNL A   1      41.383  27.100  29.257  1.00  0.00    -0.354 N 
ATOM     39  C   UNL A   1      41.826  30.230  32.191  1.00  0.00     0.074 A 
ATOM     40  C   UNL A   1      40.682  31.117  32.188  1.00  0.00     0.031 C 
ATOM     41  C   UNL A   1      40.420  26.032  27.542  1.00  0.00     0.029 A 
ATOM     42  C   UNL A   1      41.627  26.083  28.362  1.00  0.00     0.049 A 
ATOM     43  H   UNL A   1      42.014  27.356  29.967  1.00  0.00     0.167 HD
ATOM     44  C   UNL A   1      42.901  30.377  33.003  1.00  0.00     0.034 A 
ATOM     45  C   UNL A   1      42.704  25.287  28.212  1.00  0.00     0.034 A 
ATOM     46  C   UNL A   1      44.014  29.468  33.037  1.00  0.00     0.049 A 
ATOM     47  C   UNL A   1      43.863  25.438  29.161  1.00  0.00     0.074 A 
ATOM     48  C   UNL A   1      45.109  29.481  33.884  1.00  0.00     0.029 A 
ATOM     49  N   UNL A   1      44.180  28.388  32.186  1.00  0.00    -0.354 N 
ATOM     50  N   UNL A   1      44.014  26.287  30.149  1.00  0.00    -0.248 NA
ATOM     51  C   UNL A   1      44.982  24.499  29.000  1.00  0.00     0.031 C 
ATOM     52  C   UNL A   1      45.945  28.415  33.532  1.00  0.00     0.029 A 
ATOM     53  C   UNL A   1      45.360  27.727  32.481  1.00  0.00     0.049 A 
ATOM     54  H   UNL A   1      43.551  28.128  31.474  1.00  0.00     0.167 HD
ATOM     55  C   UNL A   1      45.226  25.963  30.748  1.00  0.00     0.074 A 
ATOM     56  C   UNL A   1      45.757  24.825  30.025  1.00  0.00     0.031 C 
ATOM     57  C   UNL A   1      45.850  26.562  31.791  1.00  0.00     0.034 A 
BRANCH  44  58
ATOM     58  C   UNL A   1      42.892  31.534  33.968  1.00  0.00     0.023 A 
ATOM     59  C   UNL A   1      43.408  32.781  33.559  1.00  0.00     0.012 A 
ATOM     60  C   UNL A   1      42.328  31.408  35.253  1.00  0.00     0.148 A 
ATOM     61  C   UNL A   1      43.399  33.874  34.424  1.00  0.00     0.002 A 
ATOM     62  C   UNL A   1      42.282  32.515  36.094  1.00  0.00     0.091 A 
ATOM     63  F   UNL A   1      41.861  30.211  35.633  1.00  0.00    -0.205 F 
ATOM     64  C   UNL A   1      42.827  33.744  35.687  1.00  0.00     0.022 A 
BRANCH  62  65
ATOM     65  S   UNL A   1      41.497  32.471  37.709  1.00  0.00     0.127 S 
ATOM     66  O   UNL A   1      41.593  33.870  38.122  1.00  0.00    -0.237 OA
ATOM     67  O   UNL A   1      40.142  32.024  37.382  1.00  0.00    -0.237 OA
ATOM     68  O   UNL A   1      42.270  31.528  38.505  1.00  0.00    -0.744 OA
ENDBRANCH  62  65
ENDBRANCH  44  58
BRANCH  45  69
ATOM     69  C   UNL A   1      42.703  24.226  27.165  1.00  0.00     0.023 A 
ATOM     70  C   UNL A   1      43.363  24.461  25.944  1.00  0.00     0.012 A 
ATOM     71  C   UNL A   1      42.087  22.979  27.384  1.00  0.00     0.148 A 
ATOM     72  C   UNL A   1      43.382  23.485  24.946  1.00  0.00     0.002 A 
ATOM     73  C   UNL A   1      42.157  21.991  26.409  1.00  0.00     0.091 A 
ATOM     74  F   UNL A   1      41.454  22.778  28.549  1.00  0.00    -0.205 F 
ATOM     75  C   UNL A   1      42.789  22.248  25.182  1.00  0.00     0.022 A 
BRANCH  73  76
ATOM     76  S   UNL A   1      41.539  20.325  26.679  1.00  0.00     0.127 S 
ATOM     77  O   UNL A   1      40.104  20.557  26.818  1.00  0.00    -0.237 OA
ATOM     78  O   UNL A   1      41.938  19.649  25.444  1.00  0.00    -0.237 OA
ATOM     79  O   UNL A   1      42.223  19.844  27.872  1.00  0.00    -0.744 OA
ENDBRANCH  73  76
ENDBRANCH  45  69
BRANCH  57  80
ATOM     80  C   UNL A   1      47.166  25.986  32.244  1.00  0.00     0.023 A 
ATOM     81  C   UNL A   1      48.367  26.449  31.671  1.00  0.00     0.012 A 
ATOM     82  C   UNL A   1      47.218  25.046  33.291  1.00  0.00     0.148 A 
ATOM     83  C   UNL A   1      49.597  25.963  32.112  1.00  0.00     0.002 A 
ATOM     84  C   UNL A   1      48.449  24.601  33.758  1.00  0.00     0.091 A 
ATOM     85  F   UNL A   1      46.063  24.603  33.811  1.00  0.00    -0.205 F 
ATOM     86  C   UNL A   1      49.638  25.049  33.163  1.00  0.00     0.022 A 
BRANCH  84  87
ATOM     87  S   UNL A   1      48.601  23.497  35.168  1.00  0.00     0.127 S 
ATOM     88  O   UNL A   1      47.929  24.261  36.218  1.00  0.00    -0.237 OA
ATOM     89  O   UNL A   1      47.872  22.312  34.714  1.00  0.00    -0.237 OA
ATOM     90  O   UNL A   1      50.029  23.287  35.361  1.00  0.00    -0.744 OA
ENDBRANCH  84  87
ENDBRANCH  57  80
ENDBRANCH  31  32
ENDBRANCH  23  26
ENDBRANCH  21  22
ENDBRANCH  20  21
ENDBRANCH   1  20
TORSDOF 17
ENDMDL
