MODEL 1
REMARK VINA RESULT:     -10.4      0.000      0.000
REMARK SMILES C#CC[N@H+](CC(=O)NCCCCNC(=O)c1ccc(-c2c3nc(c(-c4cccc(S(=O)(=O)[O-])c4F)c4ccc([nH]4)c(-c4cccc(S(=O)(=O)[O-])c4F)c4nc(c(-c5cccc(S(=O)(=O)[O-])c5F)c5ccc2[nH]5)C=C4)C=C3)cc1)[C@H](C)C(=O)NCCC
REMARK SMILES IDX 9 1 8 2 6 3 7 4 5 6 4 7 3 9 2 10 1 11 79 12 80 13 81 14
REMARK SMILES IDX 82 15 83 16 84 18 85 19 86 20 10 21 11 22 12 23 13 24 14 25
REMARK SMILES IDX 15 27 16 28 17 29 78 30 18 31 77 32 19 33 20 34 21 35 71 36
REMARK SMILES IDX 22 37 76 38 70 39 72 40 23 41 75 42 69 43 68 44 24 46 56 47
REMARK SMILES IDX 36 48 55 49 37 50 40 51 54 52 73 53 38 54 39 55 53 57 74 58
REMARK SMILES IDX 41 59 25 60 26 61 34 62 27 63 29 64 35 65 28 66 30 67 31 68
REMARK SMILES IDX 32 69 33 70 57 71 58 72 66 73 59 74 61 75 67 76 60 77 62 78
REMARK SMILES IDX 63 79 64 80 65 81 42 82 43 83 51 84 44 85 46 86 52 87 45 88
REMARK SMILES IDX 47 89 48 90 49 91 50 92
REMARK H PARENT 8 5 4 8 83 17 13 26 72 45 40 56
REMARK Flexibility Score: inf
ROOT
ATOM      1  C   UNL A   1      32.305  26.592  26.406  1.00  0.00     0.116 C 
ENDROOT
BRANCH   1   2
ATOM      2  N   UNL A   1      31.535  25.446  26.868  1.00  0.00    -0.351 N 
ATOM      3  C   UNL A   1      31.785  24.097  26.764  1.00  0.00     0.275 C 
ATOM      4  O   UNL A   1      30.945  23.315  27.212  1.00  0.00    -0.269 OA
ATOM      5  H   UNL A   1      30.697  25.674  27.330  1.00  0.00     0.163 HD
BRANCH   3   6
ATOM      6  C   UNL A   1      33.105  23.595  26.141  1.00  0.00     0.364 C 
BRANCH   6   7
ATOM      7  N   UNL A   1      33.120  23.383  24.657  1.00  0.00    -0.307 N 
ATOM      8  H   UNL A   1      32.194  23.577  24.277  1.00  0.00     0.350 HD
BRANCH   7   9
ATOM      9  C   UNL A   1      33.948  24.367  23.978  1.00  0.00     0.355 C 
BRANCH   9  10
ATOM     10  C   UNL A   1      33.377  25.379  23.082  1.00  0.00    -0.047 C 
ATOM     11  C   UNL A   1      33.132  26.345  22.418  1.00  0.00     0.010 C 
ENDBRANCH   9  10
ENDBRANCH   7   9
BRANCH   7  12
ATOM     12  C   UNL A   1      33.306  21.939  24.293  1.00  0.00     0.272 C 
ATOM     13  C   UNL A   1      32.119  21.102  23.773  1.00  0.00     0.086 C 
BRANCH  12  14
ATOM     14  C   UNL A   1      34.142  21.085  25.274  1.00  0.00     0.278 C 
ATOM     15  O   UNL A   1      33.592  20.346  26.099  1.00  0.00    -0.268 OA
ATOM     16  N   UNL A   1      35.509  21.152  25.316  1.00  0.00    -0.351 N 
ATOM     17  H   UNL A   1      35.915  20.699  26.090  1.00  0.00     0.163 HD
BRANCH  16  18
ATOM     18  C   UNL A   1      36.462  21.776  24.415  1.00  0.00     0.116 C 
BRANCH  18  19
ATOM     19  C   UNL A   1      37.546  22.551  25.154  1.00  0.00     0.018 C 
ATOM     20  C   UNL A   1      36.969  23.658  26.026  1.00  0.00     0.006 C 
ENDBRANCH  18  19
ENDBRANCH  16  18
ENDBRANCH  12  14
ENDBRANCH   7  12
ENDBRANCH   6   7
ENDBRANCH   3   6
ENDBRANCH   1   2
BRANCH   1  21
ATOM     21  C   UNL A   1      31.816  27.914  27.021  1.00  0.00     0.023 C 
BRANCH  21  22
ATOM     22  C   UNL A   1      31.605  29.054  26.049  1.00  0.00     0.023 C 
BRANCH  22  23
ATOM     23  C   UNL A   1      32.735  30.053  26.046  1.00  0.00     0.116 C 
BRANCH  23  24
ATOM     24  N   UNL A   1      32.307  31.392  26.449  1.00  0.00    -0.352 N 
ATOM     25  C   UNL A   1      32.965  32.266  27.285  1.00  0.00     0.251 C 
ATOM     26  H   UNL A   1      31.449  31.704  26.081  1.00  0.00     0.163 HD
ATOM     27  O   UNL A   1      32.433  33.302  27.666  1.00  0.00    -0.269 OA
BRANCH  25  28
ATOM     28  C   UNL A   1      34.318  31.888  27.728  1.00  0.00     0.039 A 
ATOM     29  C   UNL A   1      35.298  32.871  27.870  1.00  0.00     0.014 A 
ATOM     30  C   UNL A   1      34.537  30.582  28.172  1.00  0.00     0.014 A 
ATOM     31  C   UNL A   1      36.480  32.557  28.540  1.00  0.00     0.010 A 
ATOM     32  C   UNL A   1      35.649  30.315  28.950  1.00  0.00     0.010 A 
ATOM     33  C   UNL A   1      36.642  31.291  29.127  1.00  0.00    -0.014 A 
BRANCH  33  34
ATOM     34  C   UNL A   1      37.851  30.917  29.898  1.00  0.00     0.031 A 
ATOM     35  C   UNL A   1      38.840  29.972  29.273  1.00  0.00     0.074 A 
ATOM     36  C   UNL A   1      38.002  31.318  31.176  1.00  0.00     0.049 A 
ATOM     37  N   UNL A   1      39.860  29.366  29.815  1.00  0.00    -0.248 NA
ATOM     38  C   UNL A   1      38.621  29.626  27.855  1.00  0.00     0.031 C 
ATOM     39  C   UNL A   1      37.087  32.197  31.910  1.00  0.00     0.029 A 
ATOM     40  N   UNL A   1      38.969  31.004  32.100  1.00  0.00    -0.354 N 
ATOM     41  C   UNL A   1      40.374  28.538  28.824  1.00  0.00     0.074 A 
ATOM     42  C   UNL A   1      39.523  28.678  27.665  1.00  0.00     0.031 C 
ATOM     43  C   UNL A   1      37.540  32.354  33.165  1.00  0.00     0.029 A 
ATOM     44  C   UNL A   1      38.741  31.547  33.344  1.00  0.00     0.049 A 
ATOM     45  H   UNL A   1      39.752  30.445  31.891  1.00  0.00     0.167 HD
ATOM     46  C   UNL A   1      41.473  27.753  28.864  1.00  0.00     0.034 A 
ATOM     47  C   UNL A   1      39.412  31.386  34.503  1.00  0.00     0.034 A 
ATOM     48  C   UNL A   1      42.331  27.644  30.008  1.00  0.00     0.049 A 
ATOM     49  C   UNL A   1      40.625  30.493  34.526  1.00  0.00     0.074 A 
ATOM     50  C   UNL A   1      43.507  26.927  30.134  1.00  0.00     0.029 A 
ATOM     51  N   UNL A   1      42.101  28.260  31.228  1.00  0.00    -0.354 N 
ATOM     52  N   UNL A   1      41.158  29.801  33.549  1.00  0.00    -0.248 NA
ATOM     53  C   UNL A   1      41.348  30.380  35.802  1.00  0.00     0.031 C 
ATOM     54  C   UNL A   1      43.963  27.072  31.445  1.00  0.00     0.029 A 
ATOM     55  C   UNL A   1      43.108  27.932  32.116  1.00  0.00     0.049 A 
ATOM     56  H   UNL A   1      41.335  28.844  31.431  1.00  0.00     0.167 HD
ATOM     57  C   UNL A   1      42.306  29.220  34.075  1.00  0.00     0.074 A 
ATOM     58  C   UNL A   1      42.392  29.639  35.458  1.00  0.00     0.031 C 
ATOM     59  C   UNL A   1      43.210  28.413  33.469  1.00  0.00     0.034 A 
BRANCH  46  60
ATOM     60  C   UNL A   1      41.822  26.973  27.624  1.00  0.00     0.023 A 
ATOM     61  C   UNL A   1      42.320  27.644  26.488  1.00  0.00     0.012 A 
ATOM     62  C   UNL A   1      41.697  25.571  27.599  1.00  0.00     0.148 A 
ATOM     63  C   UNL A   1      42.648  26.938  25.333  1.00  0.00     0.002 A 
ATOM     64  C   UNL A   1      42.079  24.869  26.465  1.00  0.00     0.091 A 
ATOM     65  F   UNL A   1      41.203  24.955  28.682  1.00  0.00    -0.205 F 
ATOM     66  C   UNL A   1      42.539  25.550  25.326  1.00  0.00     0.022 A 
BRANCH  64  67
ATOM     67  S   UNL A   1      42.055  23.076  26.383  1.00  0.00     0.127 S 
ATOM     68  O   UNL A   1      42.632  22.834  25.061  1.00  0.00    -0.237 OA
ATOM     69  O   UNL A   1      42.921  22.709  27.504  1.00  0.00    -0.237 OA
ATOM     70  O   UNL A   1      40.662  22.682  26.533  1.00  0.00    -0.744 OA
ENDBRANCH  64  67
ENDBRANCH  46  60
BRANCH  47  71
ATOM     71  C   UNL A   1      38.977  32.106  35.734  1.00  0.00     0.023 A 
ATOM     72  C   UNL A   1      39.320  33.463  35.902  1.00  0.00     0.012 A 
ATOM     73  C   UNL A   1      38.238  31.457  36.742  1.00  0.00     0.148 A 
ATOM     74  C   UNL A   1      38.977  34.146  37.070  1.00  0.00     0.002 A 
ATOM     75  C   UNL A   1      37.850  32.159  37.877  1.00  0.00     0.091 A 
ATOM     76  F   UNL A   1      37.924  30.166  36.565  1.00  0.00    -0.205 F 
ATOM     77  C   UNL A   1      38.236  33.496  38.053  1.00  0.00     0.022 A 
BRANCH  75  78
ATOM     78  S   UNL A   1      36.795  31.443  39.142  1.00  0.00     0.127 S 
ATOM     79  O   UNL A   1      36.499  30.129  38.575  1.00  0.00    -0.237 OA
ATOM     80  O   UNL A   1      37.687  31.429  40.301  1.00  0.00    -0.237 OA
ATOM     81  O   UNL A   1      35.659  32.345  39.265  1.00  0.00    -0.744 OA
ENDBRANCH  75  78
ENDBRANCH  47  71
BRANCH  59  82
ATOM     82  C   UNL A   1      44.428  27.996  34.247  1.00  0.00     0.023 A 
ATOM     83  C   UNL A   1      45.568  28.820  34.292  1.00  0.00     0.012 A 
ATOM     84  C   UNL A   1      44.380  26.830  35.040  1.00  0.00     0.148 A 
ATOM     85  C   UNL A   1      46.650  28.480  35.103  1.00  0.00     0.002 A 
ATOM     86  C   UNL A   1      45.436  26.530  35.888  1.00  0.00     0.091 A 
ATOM     87  F   UNL A   1      43.288  26.055  34.967  1.00  0.00    -0.205 F 
ATOM     88  C   UNL A   1      46.577  27.347  35.912  1.00  0.00     0.022 A 
BRANCH  86  89
ATOM     89  S   UNL A   1      45.383  25.156  37.042  1.00  0.00     0.127 S 
ATOM     90  O   UNL A   1      45.374  24.008  36.137  1.00  0.00    -0.237 OA
ATOM     91  O   UNL A   1      46.629  25.336  37.788  1.00  0.00    -0.237 OA
ATOM     92  O   UNL A   1      44.170  25.331  37.829  1.00  0.00    -0.744 OA
ENDBRANCH  86  89
ENDBRANCH  59  82
ENDBRANCH  33  34
ENDBRANCH  25  28
ENDBRANCH  23  24
ENDBRANCH  22  23
ENDBRANCH  21  22
ENDBRANCH   1  21
TORSDOF 21
ENDMDL
MODEL 2
REMARK VINA RESULT:     -10.2      2.698      3.592
REMARK SMILES C#CC[N@H+](CC(=O)NCCCCNC(=O)c1ccc(-c2c3nc(c(-c4cccc(S(=O)(=O)[O-])c4F)c4ccc([nH]4)c(-c4cccc(S(=O)(=O)[O-])c4F)c4nc(c(-c5cccc(S(=O)(=O)[O-])c5F)c5ccc2[nH]5)C=C4)C=C3)cc1)[C@H](C)C(=O)NCCC
REMARK SMILES IDX 9 1 8 2 6 3 7 4 5 6 4 7 3 9 2 10 1 11 79 12 80 13 81 14
REMARK SMILES IDX 82 15 83 16 84 18 85 19 86 20 10 21 11 22 12 23 13 24 14 25
REMARK SMILES IDX 15 27 16 28 17 29 78 30 18 31 77 32 19 33 20 34 21 35 71 36
REMARK SMILES IDX 22 37 76 38 70 39 72 40 23 41 75 42 69 43 68 44 24 46 56 47
REMARK SMILES IDX 36 48 55 49 37 50 40 51 54 52 73 53 38 54 39 55 53 57 74 58
REMARK SMILES IDX 41 59 25 60 26 61 34 62 27 63 29 64 35 65 28 66 30 67 31 68
REMARK SMILES IDX 32 69 33 70 57 71 58 72 66 73 59 74 61 75 67 76 60 77 62 78
REMARK SMILES IDX 63 79 64 80 65 81 42 82 43 83 51 84 44 85 46 86 52 87 45 88
REMARK SMILES IDX 47 89 48 90 49 91 50 92
REMARK H PARENT 8 5 4 8 83 17 13 26 72 45 40 56
REMARK Flexibility Score: inf
ROOT
ATOM      1  C   UNL A   1      33.033  29.728  25.823  1.00  0.00     0.116 C 
ENDROOT
BRANCH   1   2
ATOM      2  N   UNL A   1      33.560  29.695  24.467  1.00  0.00    -0.351 N 
ATOM      3  C   UNL A   1      33.495  28.715  23.503  1.00  0.00     0.275 C 
ATOM      4  O   UNL A   1      34.061  28.919  22.429  1.00  0.00    -0.269 OA
ATOM      5  H   UNL A   1      34.043  30.508  24.194  1.00  0.00     0.163 HD
BRANCH   3   6
ATOM      6  C   UNL A   1      32.692  27.422  23.760  1.00  0.00     0.364 C 
BRANCH   6   7
ATOM      7  N   UNL A   1      31.200  27.552  23.840  1.00  0.00    -0.307 N 
ATOM      8  H   UNL A   1      30.959  28.337  24.444  1.00  0.00     0.350 HD
BRANCH   7   9
ATOM      9  C   UNL A   1      30.623  27.951  22.566  1.00  0.00     0.355 C 
BRANCH   9  10
ATOM     10  C   UNL A   1      29.772  29.139  22.435  1.00  0.00    -0.047 C 
ATOM     11  C   UNL A   1      29.097  30.115  22.597  1.00  0.00     0.010 C 
ENDBRANCH   9  10
ENDBRANCH   7   9
BRANCH   7  12
ATOM     12  C   UNL A   1      30.569  26.399  24.564  1.00  0.00     0.272 C 
ATOM     13  C   UNL A   1      29.042  26.180  24.507  1.00  0.00     0.086 C 
BRANCH  12  14
ATOM     14  C   UNL A   1      31.070  26.135  26.003  1.00  0.00     0.278 C 
ATOM     15  O   UNL A   1      30.881  26.961  26.903  1.00  0.00    -0.268 OA
ATOM     16  N   UNL A   1      31.787  25.015  26.329  1.00  0.00    -0.351 N 
ATOM     17  H   UNL A   1      32.196  25.040  27.225  1.00  0.00     0.163 HD
BRANCH  16  18
ATOM     18  C   UNL A   1      32.049  23.797  25.583  1.00  0.00     0.116 C 
BRANCH  18  19
ATOM     19  C   UNL A   1      33.351  23.861  24.794  1.00  0.00     0.018 C 
ATOM     20  C   UNL A   1      34.437  24.627  25.538  1.00  0.00     0.006 C 
ENDBRANCH  18  19
ENDBRANCH  16  18
ENDBRANCH  12  14
ENDBRANCH   7  12
ENDBRANCH   6   7
ENDBRANCH   3   6
ENDBRANCH   1   2
BRANCH   1  21
ATOM     21  C   UNL A   1      31.601  30.288  25.884  1.00  0.00     0.023 C 
BRANCH  21  22
ATOM     22  C   UNL A   1      31.477  31.733  26.314  1.00  0.00     0.023 C 
BRANCH  22  23
ATOM     23  C   UNL A   1      32.649  32.214  27.132  1.00  0.00     0.116 C 
BRANCH  23  24
ATOM     24  N   UNL A   1      32.465  33.575  27.637  1.00  0.00    -0.352 N 
ATOM     25  C   UNL A   1      33.264  34.253  28.529  1.00  0.00     0.251 C 
ATOM     26  H   UNL A   1      31.678  34.061  27.300  1.00  0.00     0.163 HD
ATOM     27  O   UNL A   1      32.925  35.336  28.990  1.00  0.00    -0.269 OA
BRANCH  25  28
ATOM     28  C   UNL A   1      34.527  33.608  28.931  1.00  0.00     0.039 A 
ATOM     29  C   UNL A   1      35.737  34.272  28.731  1.00  0.00     0.014 A 
ATOM     30  C   UNL A   1      34.467  32.424  29.670  1.00  0.00     0.014 A 
ATOM     31  C   UNL A   1      36.887  33.785  29.350  1.00  0.00     0.010 A 
ATOM     32  C   UNL A   1      35.580  32.025  30.388  1.00  0.00     0.010 A 
ATOM     33  C   UNL A   1      36.806  32.687  30.223  1.00  0.00    -0.014 A 
BRANCH  33  34
ATOM     34  C   UNL A   1      37.983  32.160  30.953  1.00  0.00     0.031 A 
ATOM     35  C   UNL A   1      38.732  30.995  30.365  1.00  0.00     0.074 A 
ATOM     36  C   UNL A   1      38.302  32.631  32.175  1.00  0.00     0.049 A 
ATOM     37  N   UNL A   1      39.664  30.257  30.901  1.00  0.00    -0.248 NA
ATOM     38  C   UNL A   1      38.346  30.578  29.003  1.00  0.00     0.031 C 
ATOM     39  C   UNL A   1      37.622  33.725  32.873  1.00  0.00     0.029 A 
ATOM     40  N   UNL A   1      39.265  32.221  33.064  1.00  0.00    -0.354 N 
ATOM     41  C   UNL A   1      39.941  29.265  29.967  1.00  0.00     0.074 A 
ATOM     42  C   UNL A   1      39.043  29.465  28.852  1.00  0.00     0.031 C 
ATOM     43  C   UNL A   1      38.191  33.900  34.077  1.00  0.00     0.029 A 
ATOM     44  C   UNL A   1      39.236  32.899  34.262  1.00  0.00     0.049 A 
ATOM     45  H   UNL A   1      39.914  31.508  32.864  1.00  0.00     0.167 HD
ATOM     46  C   UNL A   1      40.879  28.294  30.016  1.00  0.00     0.034 A 
ATOM     47  C   UNL A   1      39.953  32.714  35.389  1.00  0.00     0.034 A 
ATOM     48  C   UNL A   1      41.788  28.123  31.112  1.00  0.00     0.049 A 
ATOM     49  C   UNL A   1      40.982  31.614  35.425  1.00  0.00     0.074 A 
ATOM     50  C   UNL A   1      42.820  27.211  31.236  1.00  0.00     0.029 A 
ATOM     51  N   UNL A   1      41.769  28.873  32.278  1.00  0.00    -0.354 N 
ATOM     52  N   UNL A   1      41.303  30.754  34.490  1.00  0.00    -0.248 NA
ATOM     53  C   UNL A   1      41.768  31.475  36.661  1.00  0.00     0.031 C 
ATOM     54  C   UNL A   1      43.395  27.378  32.498  1.00  0.00     0.029 A 
ATOM     55  C   UNL A   1      42.764  28.437  33.132  1.00  0.00     0.049 A 
ATOM     56  H   UNL A   1      41.140  29.605  32.468  1.00  0.00     0.167 HD
ATOM     57  C   UNL A   1      42.364  30.014  35.001  1.00  0.00     0.074 A 
ATOM     58  C   UNL A   1      42.630  30.525  36.329  1.00  0.00     0.031 C 
ATOM     59  C   UNL A   1      43.056  29.003  34.423  1.00  0.00     0.034 A 
BRANCH  46  60
ATOM     60  C   UNL A   1      40.983  27.361  28.840  1.00  0.00     0.023 A 
ATOM     61  C   UNL A   1      40.115  26.255  28.740  1.00  0.00     0.012 A 
ATOM     62  C   UNL A   1      41.913  27.604  27.811  1.00  0.00     0.148 A 
ATOM     63  C   UNL A   1      40.198  25.381  27.658  1.00  0.00     0.002 A 
ATOM     64  C   UNL A   1      41.953  26.762  26.709  1.00  0.00     0.091 A 
ATOM     65  F   UNL A   1      42.744  28.649  27.935  1.00  0.00    -0.205 F 
ATOM     66  C   UNL A   1      41.108  25.642  26.637  1.00  0.00     0.022 A 
BRANCH  64  67
ATOM     67  S   UNL A   1      43.030  27.057  25.304  1.00  0.00     0.127 S 
ATOM     68  O   UNL A   1      42.926  25.789  24.582  1.00  0.00    -0.237 OA
ATOM     69  O   UNL A   1      42.373  28.188  24.649  1.00  0.00    -0.237 OA
ATOM     70  O   UNL A   1      44.345  27.350  25.856  1.00  0.00    -0.744 OA
ENDBRANCH  64  67
ENDBRANCH  46  60
BRANCH  47  71
ATOM     71  C   UNL A   1      39.752  33.605  36.567  1.00  0.00     0.023 A 
ATOM     72  C   UNL A   1      38.611  33.437  37.377  1.00  0.00     0.012 A 
ATOM     73  C   UNL A   1      40.674  34.620  36.886  1.00  0.00     0.148 A 
ATOM     74  C   UNL A   1      38.367  34.294  38.452  1.00  0.00     0.002 A 
ATOM     75  C   UNL A   1      40.455  35.433  37.991  1.00  0.00     0.091 A 
ATOM     76  F   UNL A   1      41.752  34.765  36.102  1.00  0.00    -0.205 F 
ATOM     77  C   UNL A   1      39.293  35.286  38.763  1.00  0.00     0.022 A 
BRANCH  75  78
ATOM     78  S   UNL A   1      41.647  36.658  38.541  1.00  0.00     0.127 S 
ATOM     79  O   UNL A   1      42.517  35.863  39.403  1.00  0.00    -0.237 OA
ATOM     80  O   UNL A   1      42.249  37.078  37.275  1.00  0.00    -0.237 OA
ATOM     81  O   UNL A   1      40.870  37.692  39.211  1.00  0.00    -0.744 OA
ENDBRANCH  75  78
ENDBRANCH  47  71
BRANCH  59  82
ATOM     82  C   UNL A   1      44.235  28.431  35.163  1.00  0.00     0.023 A 
ATOM     83  C   UNL A   1      45.529  28.944  34.958  1.00  0.00     0.012 A 
ATOM     84  C   UNL A   1      44.022  27.460  36.164  1.00  0.00     0.148 A 
ATOM     85  C   UNL A   1      46.597  28.486  35.728  1.00  0.00     0.002 A 
ATOM     86  C   UNL A   1      45.079  27.052  36.963  1.00  0.00     0.091 A 
ATOM     87  F   UNL A   1      42.781  26.977  36.328  1.00  0.00    -0.205 F 
ATOM     88  C   UNL A   1      46.370  27.555  36.739  1.00  0.00     0.022 A 
BRANCH  86  89
ATOM     89  S   UNL A   1      44.859  25.942  38.357  1.00  0.00     0.127 S 
ATOM     90  O   UNL A   1      44.407  24.719  37.694  1.00  0.00    -0.237 OA
ATOM     91  O   UNL A   1      46.212  25.873  38.909  1.00  0.00    -0.237 OA
ATOM     92  O   UNL A   1      43.875  26.571  39.228  1.00  0.00    -0.744 OA
ENDBRANCH  86  89
ENDBRANCH  59  82
ENDBRANCH  33  34
ENDBRANCH  25  28
ENDBRANCH  23  24
ENDBRANCH  22  23
ENDBRANCH  21  22
ENDBRANCH   1  21
TORSDOF 21
ENDMDL
MODEL 3
REMARK VINA RESULT:     -10.2      2.200      3.182
REMARK SMILES C#CC[N@H+](CC(=O)NCCCCNC(=O)c1ccc(-c2c3nc(c(-c4cccc(S(=O)(=O)[O-])c4F)c4ccc([nH]4)c(-c4cccc(S(=O)(=O)[O-])c4F)c4nc(c(-c5cccc(S(=O)(=O)[O-])c5F)c5ccc2[nH]5)C=C4)C=C3)cc1)[C@H](C)C(=O)NCCC
REMARK SMILES IDX 9 1 8 2 6 3 7 4 5 6 4 7 3 9 2 10 1 11 79 12 80 13 81 14
REMARK SMILES IDX 82 15 83 16 84 18 85 19 86 20 10 21 11 22 12 23 13 24 14 25
REMARK SMILES IDX 15 27 16 28 17 29 78 30 18 31 77 32 19 33 20 34 21 35 71 36
REMARK SMILES IDX 22 37 76 38 70 39 72 40 23 41 75 42 69 43 68 44 24 46 56 47
REMARK SMILES IDX 36 48 55 49 37 50 40 51 54 52 73 53 38 54 39 55 53 57 74 58
REMARK SMILES IDX 41 59 25 60 26 61 34 62 27 63 29 64 35 65 28 66 30 67 31 68
REMARK SMILES IDX 32 69 33 70 57 71 58 72 66 73 59 74 61 75 67 76 60 77 62 78
REMARK SMILES IDX 63 79 64 80 65 81 42 82 43 83 51 84 44 85 46 86 52 87 45 88
REMARK SMILES IDX 47 89 48 90 49 91 50 92
REMARK H PARENT 8 5 4 8 83 17 13 26 72 45 40 56
REMARK Flexibility Score: inf
ROOT
ATOM      1  C   UNL A   1      31.397  29.867  25.159  1.00  0.00     0.116 C 
ENDROOT
BRANCH   1   2
ATOM      2  N   UNL A   1      32.578  29.676  24.330  1.00  0.00    -0.351 N 
ATOM      3  C   UNL A   1      32.833  28.772  23.325  1.00  0.00     0.275 C 
ATOM      4  O   UNL A   1      33.943  28.793  22.792  1.00  0.00    -0.269 OA
ATOM      5  H   UNL A   1      33.318  30.297  24.521  1.00  0.00     0.163 HD
BRANCH   3   6
ATOM      6  C   UNL A   1      31.732  27.795  22.859  1.00  0.00     0.364 C 
BRANCH   6   7
ATOM      7  N   UNL A   1      31.877  26.360  23.270  1.00  0.00    -0.307 N 
ATOM      8  H   UNL A   1      32.388  26.309  24.151  1.00  0.00     0.350 HD
BRANCH   7   9
ATOM      9  C   UNL A   1      30.596  25.765  23.619  1.00  0.00     0.355 C 
BRANCH   9  10
ATOM     10  C   UNL A   1      30.356  25.145  24.926  1.00  0.00    -0.047 C 
ATOM     11  C   UNL A   1      30.403  24.533  25.954  1.00  0.00     0.010 C 
ENDBRANCH   9  10
ENDBRANCH   7   9
BRANCH   7  12
ATOM     12  C   UNL A   1      32.777  25.594  22.346  1.00  0.00     0.272 C 
ATOM     13  C   UNL A   1      32.550  25.633  20.821  1.00  0.00     0.086 C 
BRANCH  12  14
ATOM     14  C   UNL A   1      33.131  24.151  22.773  1.00  0.00     0.278 C 
ATOM     15  O   UNL A   1      32.674  23.178  22.161  1.00  0.00    -0.268 OA
ATOM     16  N   UNL A   1      33.908  23.885  23.868  1.00  0.00    -0.351 N 
ATOM     17  H   UNL A   1      33.921  22.939  24.139  1.00  0.00     0.163 HD
BRANCH  16  18
ATOM     18  C   UNL A   1      34.718  24.760  24.700  1.00  0.00     0.116 C 
BRANCH  18  19
ATOM     19  C   UNL A   1      34.044  25.097  26.024  1.00  0.00     0.018 C 
ATOM     20  C   UNL A   1      33.653  26.566  26.113  1.00  0.00     0.006 C 
ENDBRANCH  18  19
ENDBRANCH  16  18
ENDBRANCH  12  14
ENDBRANCH   7  12
ENDBRANCH   6   7
ENDBRANCH   3   6
ENDBRANCH   1   2
BRANCH   1  21
ATOM     21  C   UNL A   1      31.598  30.955  26.227  1.00  0.00     0.023 C 
BRANCH  21  22
ATOM     22  C   UNL A   1      32.709  30.704  27.222  1.00  0.00     0.023 C 
BRANCH  22  23
ATOM     23  C   UNL A   1      33.693  31.844  27.317  1.00  0.00     0.116 C 
BRANCH  23  24
ATOM     24  N   UNL A   1      33.039  33.141  27.485  1.00  0.00    -0.352 N 
ATOM     25  C   UNL A   1      33.256  34.065  28.481  1.00  0.00     0.251 C 
ATOM     26  H   UNL A   1      32.367  33.381  26.807  1.00  0.00     0.163 HD
ATOM     27  O   UNL A   1      32.540  35.052  28.599  1.00  0.00    -0.269 OA
BRANCH  25  28
ATOM     28  C   UNL A   1      34.361  33.802  29.420  1.00  0.00     0.039 A 
ATOM     29  C   UNL A   1      34.152  32.968  30.517  1.00  0.00     0.014 A 
ATOM     30  C   UNL A   1      35.642  34.249  29.087  1.00  0.00     0.014 A 
ATOM     31  C   UNL A   1      35.254  32.510  31.240  1.00  0.00     0.010 A 
ATOM     32  C   UNL A   1      36.735  33.686  29.721  1.00  0.00     0.010 A 
ATOM     33  C   UNL A   1      36.555  32.826  30.816  1.00  0.00    -0.014 A 
BRANCH  33  34
ATOM     34  C   UNL A   1      37.764  32.324  31.509  1.00  0.00     0.031 A 
ATOM     35  C   UNL A   1      38.545  31.205  30.873  1.00  0.00     0.074 A 
ATOM     36  C   UNL A   1      38.091  32.773  32.737  1.00  0.00     0.049 A 
ATOM     37  N   UNL A   1      39.514  30.488  31.370  1.00  0.00    -0.248 NA
ATOM     38  C   UNL A   1      38.147  30.811  29.508  1.00  0.00     0.031 C 
ATOM     39  C   UNL A   1      37.384  33.821  33.478  1.00  0.00     0.029 A 
ATOM     40  N   UNL A   1      39.086  32.374  33.596  1.00  0.00    -0.354 N 
ATOM     41  C   UNL A   1      39.809  29.534  30.403  1.00  0.00     0.074 A 
ATOM     42  C   UNL A   1      38.882  29.730  29.312  1.00  0.00     0.031 C 
ATOM     43  C   UNL A   1      37.970  33.984  34.676  1.00  0.00     0.029 A 
ATOM     44  C   UNL A   1      39.056  33.018  34.812  1.00  0.00     0.049 A 
ATOM     45  H   UNL A   1      39.757  31.693  33.363  1.00  0.00     0.167 HD
ATOM     46  C   UNL A   1      40.783  28.598  30.407  1.00  0.00     0.034 A 
ATOM     47  C   UNL A   1      39.802  32.829  35.919  1.00  0.00     0.034 A 
ATOM     48  C   UNL A   1      41.720  28.431  31.480  1.00  0.00     0.049 A 
ATOM     49  C   UNL A   1      40.872  31.769  35.905  1.00  0.00     0.074 A 
ATOM     50  C   UNL A   1      42.788  27.556  31.558  1.00  0.00     0.029 A 
ATOM     51  N   UNL A   1      41.697  29.147  32.666  1.00  0.00    -0.354 N 
ATOM     52  N   UNL A   1      41.206  30.947  34.939  1.00  0.00    -0.248 NA
ATOM     53  C   UNL A   1      41.688  31.626  37.121  1.00  0.00     0.031 C 
ATOM     54  C   UNL A   1      43.382  27.709  32.812  1.00  0.00     0.029 A 
ATOM     55  C   UNL A   1      42.725  28.726  33.488  1.00  0.00     0.049 A 
ATOM     56  H   UNL A   1      41.045  29.850  32.890  1.00  0.00     0.167 HD
ATOM     57  C   UNL A   1      42.304  30.235  35.409  1.00  0.00     0.074 A 
ATOM     58  C   UNL A   1      42.578  30.718  36.745  1.00  0.00     0.031 C 
ATOM     59  C   UNL A   1      43.021  29.267  34.789  1.00  0.00     0.034 A 
BRANCH  46  60
ATOM     60  C   UNL A   1      40.899  27.702  29.202  1.00  0.00     0.023 A 
ATOM     61  C   UNL A   1      40.122  26.528  29.122  1.00  0.00     0.012 A 
ATOM     62  C   UNL A   1      41.744  28.046  28.131  1.00  0.00     0.148 A 
ATOM     63  C   UNL A   1      40.217  25.688  28.014  1.00  0.00     0.002 A 
ATOM     64  C   UNL A   1      41.792  27.234  27.006  1.00  0.00     0.091 A 
ATOM     65  F   UNL A   1      42.490  29.155  28.236  1.00  0.00    -0.205 F 
ATOM     66  C   UNL A   1      41.042  26.047  26.952  1.00  0.00     0.022 A 
BRANCH  64  67
ATOM     67  S   UNL A   1      42.758  27.650  25.552  1.00  0.00     0.127 S 
ATOM     68  O   UNL A   1      42.136  28.906  25.135  1.00  0.00    -0.237 OA
ATOM     69  O   UNL A   1      44.103  27.791  26.111  1.00  0.00    -0.237 OA
ATOM     70  O   UNL A   1      42.595  26.540  24.626  1.00  0.00    -0.744 OA
ENDBRANCH  64  67
ENDBRANCH  46  60
BRANCH  47  71
ATOM     71  C   UNL A   1      39.592  33.679  37.126  1.00  0.00     0.023 A 
ATOM     72  C   UNL A   1      40.129  34.982  37.159  1.00  0.00     0.012 A 
ATOM     73  C   UNL A   1      38.878  33.204  38.243  1.00  0.00     0.148 A 
ATOM     74  C   UNL A   1      39.998  35.778  38.299  1.00  0.00     0.002 A 
ATOM     75  C   UNL A   1      38.702  34.023  39.352  1.00  0.00     0.091 A 
ATOM     76  F   UNL A   1      38.378  31.962  38.193  1.00  0.00    -0.205 F 
ATOM     77  C   UNL A   1      39.279  35.301  39.391  1.00  0.00     0.022 A 
BRANCH  75  78
ATOM     78  S   UNL A   1      37.692  33.542  40.757  1.00  0.00     0.127 S 
ATOM     79  O   UNL A   1      37.559  34.807  41.475  1.00  0.00    -0.237 OA
ATOM     80  O   UNL A   1      36.471  33.073  40.101  1.00  0.00    -0.237 OA
ATOM     81  O   UNL A   1      38.444  32.502  41.446  1.00  0.00    -0.744 OA
ENDBRANCH  75  78
ENDBRANCH  47  71
BRANCH  59  82
ATOM     82  C   UNL A   1      44.236  28.720  35.489  1.00  0.00     0.023 A 
ATOM     83  C   UNL A   1      45.491  29.336  35.337  1.00  0.00     0.012 A 
ATOM     84  C   UNL A   1      44.088  27.659  36.407  1.00  0.00     0.148 A 
ATOM     85  C   UNL A   1      46.587  28.892  36.075  1.00  0.00     0.002 A 
ATOM     86  C   UNL A   1      45.169  27.261  37.180  1.00  0.00     0.091 A 
ATOM     87  F   UNL A   1      42.884  27.079  36.522  1.00  0.00    -0.205 F 
ATOM     88  C   UNL A   1      46.423  27.868  37.007  1.00  0.00     0.022 A 
BRANCH  86  89
ATOM     89  S   UNL A   1      45.024  26.029  38.478  1.00  0.00     0.127 S 
ATOM     90  O   UNL A   1      46.406  25.926  38.945  1.00  0.00    -0.237 OA
ATOM     91  O   UNL A   1      44.109  26.680  39.416  1.00  0.00    -0.237 OA
ATOM     92  O   UNL A   1      44.496  24.829  37.844  1.00  0.00    -0.744 OA
ENDBRANCH  86  89
ENDBRANCH  59  82
ENDBRANCH  33  34
ENDBRANCH  25  28
ENDBRANCH  23  24
ENDBRANCH  22  23
ENDBRANCH  21  22
ENDBRANCH   1  21
TORSDOF 21
ENDMDL
