MODEL 1
REMARK VINA RESULT:     -10.8      0.000      0.000
REMARK SMILES C[N@H+](CC(=O)NCCCCNC(=O)c1ccc(-c2c3nc(c(-c4cccc(S(=O)(=O)[O-])c4F)c4ccc([nH]4)c(-c4cccc(S(=O)(=O)[O-])c4F)c4nc(c(-c5cccc(S(=O)(=O)[O-])c5F)c5ccc2[nH]5)C=C4)C=C3)cc1)Cc1noc(-c2ccccc2Cl)n1
REMARK SMILES IDX 8 1 7 2 6 3 4 4 5 5 3 7 2 8 1 9 77 11 78 12 79 13 89 14
REMARK SMILES IDX 80 15 81 16 82 17 83 18 87 19 84 20 86 21 88 22 85 23 9 24
REMARK SMILES IDX 10 25 11 26 12 27 13 29 14 30 15 31 76 32 16 33 75 34 17 35
REMARK SMILES IDX 18 36 19 37 69 38 20 39 74 40 68 41 70 42 21 43 73 44 67 45
REMARK SMILES IDX 66 46 22 48 54 49 34 50 53 51 35 52 38 53 52 54 71 55 36 56
REMARK SMILES IDX 37 57 51 59 72 60 39 61 23 62 24 63 32 64 25 65 27 66 33 67
REMARK SMILES IDX 26 68 28 69 29 70 30 71 31 72 55 73 56 74 64 75 57 76 59 77
REMARK SMILES IDX 65 78 58 79 60 80 61 81 62 82 63 83 40 84 41 85 49 86 42 87
REMARK SMILES IDX 44 88 50 89 43 90 45 91 46 92 47 93 48 94
REMARK H PARENT 6 6 2 10 11 28 70 47 38 58
REMARK Flexibility Score: inf
ROOT
ATOM      1  C   UNL A   1      33.518  27.918  24.721  1.00  0.00     0.023 C 
ENDROOT
BRANCH   1   2
ATOM      2  C   UNL A   1      33.354  26.708  25.655  1.00  0.00     0.116 C 
BRANCH   2   3
ATOM      3  N   UNL A   1      34.453  25.766  25.747  1.00  0.00    -0.351 N 
ATOM      4  C   UNL A   1      34.680  24.589  25.083  1.00  0.00     0.275 C 
ATOM      5  O   UNL A   1      35.781  24.040  25.169  1.00  0.00    -0.269 OA
ATOM      6  H   UNL A   1      35.151  26.013  26.396  1.00  0.00     0.163 HD
BRANCH   4   7
ATOM      7  C   UNL A   1      33.587  24.006  24.197  1.00  0.00     0.363 C 
BRANCH   7   8
ATOM      8  N   UNL A   1      32.862  22.935  24.900  1.00  0.00    -0.323 N 
ATOM      9  C   UNL A   1      33.216  22.891  26.313  1.00  0.00     0.333 C 
ATOM     10  H   UNL A   1      33.167  22.064  24.468  1.00  0.00     0.348 HD
BRANCH   8  11
ATOM     11  C   UNL A   1      31.397  22.985  24.706  1.00  0.00     0.345 C 
BRANCH  11  12
ATOM     12  C   UNL A   1      30.759  24.354  24.645  1.00  0.00     0.226 A 
ATOM     13  N   UNL A   1      30.373  24.947  25.786  1.00  0.00    -0.056 NA
ATOM     14  N   UNL A   1      30.480  25.093  23.513  1.00  0.00    -0.186 NA
ATOM     15  O   UNL A   1      29.855  26.165  25.360  1.00  0.00    -0.334 OA
ATOM     16  C   UNL A   1      29.968  26.210  23.992  1.00  0.00     0.259 A 
BRANCH  16  17
ATOM     17  C   UNL A   1      29.450  27.435  23.354  1.00  0.00     0.058 A 
ATOM     18  C   UNL A   1      30.338  28.255  22.624  1.00  0.00     0.015 A 
ATOM     19  C   UNL A   1      28.117  27.879  23.431  1.00  0.00     0.053 A 
ATOM     20  C   UNL A   1      29.936  29.474  22.065  1.00  0.00     0.001 A 
ATOM     21  C   UNL A   1      27.729  29.129  22.920  1.00  0.00     0.021 A 
ATOM     22  Cl  UNL A   1      26.815  26.935  24.033  1.00  0.00    -0.083 Cl
ATOM     23  C   UNL A   1      28.639  29.928  22.243  1.00  0.00     0.002 A 
ENDBRANCH  16  17
ENDBRANCH  11  12
ENDBRANCH   8  11
ENDBRANCH   7   8
ENDBRANCH   4   7
ENDBRANCH   2   3
ENDBRANCH   1   2
BRANCH   1  24
ATOM     24  C   UNL A   1      33.715  29.304  25.328  1.00  0.00     0.023 C 
BRANCH  24  25
ATOM     25  C   UNL A   1      33.003  29.585  26.639  1.00  0.00     0.116 C 
BRANCH  25  26
ATOM     26  N   UNL A   1      32.935  30.994  26.980  1.00  0.00    -0.352 N 
ATOM     27  C   UNL A   1      33.842  31.764  27.674  1.00  0.00     0.251 C 
ATOM     28  H   UNL A   1      32.127  31.465  26.671  1.00  0.00     0.163 HD
ATOM     29  O   UNL A   1      33.589  32.940  27.898  1.00  0.00    -0.269 OA
BRANCH  27  30
ATOM     30  C   UNL A   1      35.098  31.164  28.194  1.00  0.00     0.039 A 
ATOM     31  C   UNL A   1      36.292  31.871  28.019  1.00  0.00     0.014 A 
ATOM     32  C   UNL A   1      35.117  29.928  28.847  1.00  0.00     0.014 A 
ATOM     33  C   UNL A   1      37.487  31.374  28.553  1.00  0.00     0.010 A 
ATOM     34  C   UNL A   1      36.293  29.470  29.442  1.00  0.00     0.010 A 
ATOM     35  C   UNL A   1      37.493  30.184  29.297  1.00  0.00    -0.014 A 
BRANCH  35  36
ATOM     36  C   UNL A   1      38.743  29.659  29.913  1.00  0.00     0.031 A 
ATOM     37  C   UNL A   1      39.224  30.214  31.229  1.00  0.00     0.074 A 
ATOM     38  C   UNL A   1      39.485  28.742  29.261  1.00  0.00     0.049 A 
ATOM     39  N   UNL A   1      40.326  29.947  31.884  1.00  0.00    -0.248 NA
ATOM     40  C   UNL A   1      38.369  31.219  31.882  1.00  0.00     0.031 C 
ATOM     41  C   UNL A   1      39.169  28.169  27.951  1.00  0.00     0.029 A 
ATOM     42  N   UNL A   1      40.677  28.148  29.600  1.00  0.00    -0.354 N 
ATOM     43  C   UNL A   1      40.313  30.774  33.002  1.00  0.00     0.074 A 
ATOM     44  C   UNL A   1      39.113  31.576  32.919  1.00  0.00     0.031 C 
ATOM     45  C   UNL A   1      40.136  27.305  27.602  1.00  0.00     0.029 A 
ATOM     46  C   UNL A   1      41.156  27.280  28.646  1.00  0.00     0.049 A 
ATOM     47  H   UNL A   1      41.145  28.325  30.449  1.00  0.00     0.167 HD
ATOM     48  C   UNL A   1      41.199  30.838  34.023  1.00  0.00     0.034 A 
ATOM     49  C   UNL A   1      42.289  26.549  28.613  1.00  0.00     0.034 A 
ATOM     50  C   UNL A   1      42.361  29.999  34.139  1.00  0.00     0.049 A 
ATOM     51  C   UNL A   1      43.235  26.607  29.784  1.00  0.00     0.074 A 
ATOM     52  C   UNL A   1      43.284  29.945  35.169  1.00  0.00     0.029 A 
ATOM     53  N   UNL A   1      42.756  29.061  33.198  1.00  0.00    -0.354 N 
ATOM     54  N   UNL A   1      43.135  27.299  30.893  1.00  0.00    -0.248 NA
ATOM     55  C   UNL A   1      44.433  25.756  29.717  1.00  0.00     0.031 C 
ATOM     56  C   UNL A   1      44.240  28.976  34.848  1.00  0.00     0.029 A 
ATOM     57  C   UNL A   1      43.904  28.417  33.626  1.00  0.00     0.049 A 
ATOM     58  H   UNL A   1      42.289  28.879  32.352  1.00  0.00     0.167 HD
ATOM     59  C   UNL A   1      44.226  26.932  31.672  1.00  0.00     0.074 A 
ATOM     60  C   UNL A   1      44.970  25.947  30.915  1.00  0.00     0.031 C 
ATOM     61  C   UNL A   1      44.590  27.383  32.898  1.00  0.00     0.034 A 
BRANCH  48  62
ATOM     62  C   UNL A   1      40.909  31.804  35.142  1.00  0.00     0.023 A 
ATOM     63  C   UNL A   1      41.655  32.996  35.233  1.00  0.00     0.012 A 
ATOM     64  C   UNL A   1      39.866  31.568  36.059  1.00  0.00     0.148 A 
ATOM     65  C   UNL A   1      41.391  33.925  36.239  1.00  0.00     0.002 A 
ATOM     66  C   UNL A   1      39.579  32.519  37.033  1.00  0.00     0.091 A 
ATOM     67  F   UNL A   1      39.180  30.420  35.968  1.00  0.00    -0.205 F 
ATOM     68  C   UNL A   1      40.347  33.691  37.130  1.00  0.00     0.022 A 
BRANCH  66  69
ATOM     69  S   UNL A   1      38.209  32.349  38.181  1.00  0.00     0.127 S 
ATOM     70  O   UNL A   1      37.567  31.128  37.695  1.00  0.00    -0.237 OA
ATOM     71  O   UNL A   1      38.897  32.206  39.464  1.00  0.00    -0.237 OA
ATOM     72  O   UNL A   1      37.420  33.566  38.047  1.00  0.00    -0.744 OA
ENDBRANCH  66  69
ENDBRANCH  48  62
BRANCH  49  73
ATOM     73  C   UNL A   1      42.562  25.636  27.466  1.00  0.00     0.023 A 
ATOM     74  C   UNL A   1      43.320  26.108  26.376  1.00  0.00     0.012 A 
ATOM     75  C   UNL A   1      42.082  24.312  27.445  1.00  0.00     0.148 A 
ATOM     76  C   UNL A   1      43.566  25.292  25.272  1.00  0.00     0.002 A 
ATOM     77  C   UNL A   1      42.376  23.486  26.365  1.00  0.00     0.091 A 
ATOM     78  F   UNL A   1      41.347  23.885  28.481  1.00  0.00    -0.205 F 
ATOM     79  C   UNL A   1      43.103  23.978  25.269  1.00  0.00     0.022 A 
BRANCH  77  80
ATOM     80  S   UNL A   1      41.922  21.749  26.339  1.00  0.00     0.127 S 
ATOM     81  O   UNL A   1      42.768  21.232  25.268  1.00  0.00    -0.237 OA
ATOM     82  O   UNL A   1      42.297  21.314  27.686  1.00  0.00    -0.237 OA
ATOM     83  O   UNL A   1      40.487  21.728  26.085  1.00  0.00    -0.744 OA
ENDBRANCH  77  80
ENDBRANCH  49  73
BRANCH  61  84
ATOM     84  C   UNL A   1      45.815  26.783  33.534  1.00  0.00     0.023 A 
ATOM     85  C   UNL A   1      47.076  27.374  33.321  1.00  0.00     0.012 A 
ATOM     86  C   UNL A   1      45.701  25.692  34.419  1.00  0.00     0.148 A 
ATOM     87  C   UNL A   1      48.209  26.872  33.960  1.00  0.00     0.002 A 
ATOM     88  C   UNL A   1      46.828  25.226  35.086  1.00  0.00     0.091 A 
ATOM     89  F   UNL A   1      44.495  25.133  34.593  1.00  0.00    -0.205 F 
ATOM     90  C   UNL A   1      48.084  25.808  34.850  1.00  0.00     0.022 A 
BRANCH  88  91
ATOM     91  S   UNL A   1      46.743  23.924  36.322  1.00  0.00     0.127 S 
ATOM     92  O   UNL A   1      45.714  24.436  37.224  1.00  0.00    -0.237 OA
ATOM     93  O   UNL A   1      46.335  22.766  35.525  1.00  0.00    -0.237 OA
ATOM     94  O   UNL A   1      48.081  23.823  36.889  1.00  0.00    -0.744 OA
ENDBRANCH  88  91
ENDBRANCH  61  84
ENDBRANCH  35  36
ENDBRANCH  27  30
ENDBRANCH  25  26
ENDBRANCH  24  25
ENDBRANCH   1  24
TORSDOF 18
ENDMDL
MODEL 2
REMARK VINA RESULT:     -10.7      1.998      2.298
REMARK SMILES C[N@H+](CC(=O)NCCCCNC(=O)c1ccc(-c2c3nc(c(-c4cccc(S(=O)(=O)[O-])c4F)c4ccc([nH]4)c(-c4cccc(S(=O)(=O)[O-])c4F)c4nc(c(-c5cccc(S(=O)(=O)[O-])c5F)c5ccc2[nH]5)C=C4)C=C3)cc1)Cc1noc(-c2ccccc2Cl)n1
REMARK SMILES IDX 8 1 7 2 6 3 4 4 5 5 3 7 2 8 1 9 77 11 78 12 79 13 89 14
REMARK SMILES IDX 80 15 81 16 82 17 83 18 87 19 84 20 86 21 88 22 85 23 9 24
REMARK SMILES IDX 10 25 11 26 12 27 13 29 14 30 15 31 76 32 16 33 75 34 17 35
REMARK SMILES IDX 18 36 19 37 69 38 20 39 74 40 68 41 70 42 21 43 73 44 67 45
REMARK SMILES IDX 66 46 22 48 54 49 34 50 53 51 35 52 38 53 52 54 71 55 36 56
REMARK SMILES IDX 37 57 51 59 72 60 39 61 23 62 24 63 32 64 25 65 27 66 33 67
REMARK SMILES IDX 26 68 28 69 29 70 30 71 31 72 55 73 56 74 64 75 57 76 59 77
REMARK SMILES IDX 65 78 58 79 60 80 61 81 62 82 63 83 40 84 41 85 49 86 42 87
REMARK SMILES IDX 44 88 50 89 43 90 45 91 46 92 47 93 48 94
REMARK H PARENT 6 6 2 10 11 28 70 47 38 58
REMARK Flexibility Score: inf
ROOT
ATOM      1  C   UNL A   1      33.622  27.816  25.055  1.00  0.00     0.023 C 
ENDROOT
BRANCH   1   2
ATOM      2  C   UNL A   1      33.511  26.492  25.829  1.00  0.00     0.116 C 
BRANCH   2   3
ATOM      3  N   UNL A   1      34.596  25.537  25.703  1.00  0.00    -0.351 N 
ATOM      4  C   UNL A   1      34.809  24.544  24.784  1.00  0.00     0.275 C 
ATOM      5  O   UNL A   1      35.902  23.972  24.743  1.00  0.00    -0.269 OA
ATOM      6  H   UNL A   1      35.294  25.617  26.393  1.00  0.00     0.163 HD
BRANCH   4   7
ATOM      7  C   UNL A   1      33.714  24.198  23.785  1.00  0.00     0.363 C 
BRANCH   7   8
ATOM      8  N   UNL A   1      33.011  22.969  24.185  1.00  0.00    -0.323 N 
ATOM      9  C   UNL A   1      33.274  22.634  25.579  1.00  0.00     0.333 C 
ATOM     10  H   UNL A   1      33.395  22.227  23.601  1.00  0.00     0.348 HD
BRANCH   8  11
ATOM     11  C   UNL A   1      31.561  22.994  23.895  1.00  0.00     0.345 C 
BRANCH  11  12
ATOM     12  C   UNL A   1      30.847  24.313  24.080  1.00  0.00     0.226 A 
ATOM     13  N   UNL A   1      30.537  24.721  25.320  1.00  0.00    -0.056 NA
ATOM     14  N   UNL A   1      30.424  25.176  23.088  1.00  0.00    -0.186 NA
ATOM     15  O   UNL A   1      29.916  25.948  25.113  1.00  0.00    -0.334 OA
ATOM     16  C   UNL A   1      29.898  26.182  23.759  1.00  0.00     0.259 A 
BRANCH  16  17
ATOM     17  C   UNL A   1      29.258  27.444  23.344  1.00  0.00     0.058 A 
ATOM     18  C   UNL A   1      27.880  27.627  23.593  1.00  0.00     0.015 A 
ATOM     19  C   UNL A   1      29.915  28.501  22.687  1.00  0.00     0.053 A 
ATOM     20  C   UNL A   1      27.188  28.761  23.150  1.00  0.00     0.001 A 
ATOM     21  C   UNL A   1      29.208  29.611  22.194  1.00  0.00     0.021 A 
ATOM     22  Cl  UNL A   1      31.619  28.622  22.511  1.00  0.00    -0.083 Cl
ATOM     23  C   UNL A   1      27.846  29.738  22.420  1.00  0.00     0.002 A 
ENDBRANCH  16  17
ENDBRANCH  11  12
ENDBRANCH   8  11
ENDBRANCH   7   8
ENDBRANCH   4   7
ENDBRANCH   2   3
ENDBRANCH   1   2
BRANCH   1  24
ATOM     24  C   UNL A   1      34.072  29.073  25.792  1.00  0.00     0.023 C 
BRANCH  24  25
ATOM     25  C   UNL A   1      33.531  29.274  27.196  1.00  0.00     0.116 C 
BRANCH  25  26
ATOM     26  N   UNL A   1      33.538  30.658  27.634  1.00  0.00    -0.352 N 
ATOM     27  C   UNL A   1      34.512  31.346  28.323  1.00  0.00     0.251 C 
ATOM     28  H   UNL A   1      32.732  31.177  27.406  1.00  0.00     0.163 HD
ATOM     29  O   UNL A   1      34.317  32.512  28.640  1.00  0.00    -0.269 OA
BRANCH  27  30
ATOM     30  C   UNL A   1      35.772  30.668  28.725  1.00  0.00     0.039 A 
ATOM     31  C   UNL A   1      36.961  31.054  28.098  1.00  0.00     0.014 A 
ATOM     32  C   UNL A   1      35.799  29.671  29.704  1.00  0.00     0.014 A 
ATOM     33  C   UNL A   1      38.178  30.489  28.494  1.00  0.00     0.010 A 
ATOM     34  C   UNL A   1      37.020  29.163  30.149  1.00  0.00     0.010 A 
ATOM     35  C   UNL A   1      38.224  29.561  29.546  1.00  0.00    -0.014 A 
BRANCH  35  36
ATOM     36  C   UNL A   1      39.512  28.981  30.016  1.00  0.00     0.031 A 
ATOM     37  C   UNL A   1      40.207  29.566  31.219  1.00  0.00     0.074 A 
ATOM     38  C   UNL A   1      40.097  27.983  29.325  1.00  0.00     0.049 A 
ATOM     39  N   UNL A   1      41.370  29.255  31.733  1.00  0.00    -0.248 NA
ATOM     40  C   UNL A   1      39.516  30.660  31.922  1.00  0.00     0.031 C 
ATOM     41  C   UNL A   1      39.565  27.368  28.107  1.00  0.00     0.029 A 
ATOM     42  N   UNL A   1      41.285  27.323  29.534  1.00  0.00    -0.354 N 
ATOM     43  C   UNL A   1      41.565  30.136  32.791  1.00  0.00     0.074 A 
ATOM     44  C   UNL A   1      40.418  31.016  32.825  1.00  0.00     0.031 C 
ATOM     45  C   UNL A   1      40.417  26.422  27.681  1.00  0.00     0.029 A 
ATOM     46  C   UNL A   1      41.570  26.377  28.576  1.00  0.00     0.049 A 
ATOM     47  H   UNL A   1      41.876  27.510  30.298  1.00  0.00     0.167 HD
ATOM     48  C   UNL A   1      42.588  30.188  33.677  1.00  0.00     0.034 A 
ATOM     49  C   UNL A   1      42.639  25.568  28.432  1.00  0.00     0.034 A 
ATOM     50  C   UNL A   1      43.699  29.277  33.683  1.00  0.00     0.049 A 
ATOM     51  C   UNL A   1      43.741  25.618  29.459  1.00  0.00     0.074 A 
ATOM     52  C   UNL A   1      44.752  29.209  34.579  1.00  0.00     0.029 A 
ATOM     53  N   UNL A   1      43.899  28.267  32.755  1.00  0.00    -0.354 N 
ATOM     54  N   UNL A   1      43.841  26.369  30.528  1.00  0.00    -0.248 NA
ATOM     55  C   UNL A   1      44.862  24.682  29.279  1.00  0.00     0.031 C 
ATOM     56  C   UNL A   1      45.591  28.161  34.189  1.00  0.00     0.029 A 
ATOM     57  C   UNL A   1      45.053  27.567  33.059  1.00  0.00     0.049 A 
ATOM     58  H   UNL A   1      43.308  28.077  31.992  1.00  0.00     0.167 HD
ATOM     59  C   UNL A   1      45.005  25.966  31.172  1.00  0.00     0.074 A 
ATOM     60  C   UNL A   1      45.572  24.895  30.380  1.00  0.00     0.031 C 
ATOM     61  C   UNL A   1      45.564  26.451  32.307  1.00  0.00     0.034 A 
BRANCH  48  62
ATOM     62  C   UNL A   1      42.518  31.227  34.765  1.00  0.00     0.023 A 
ATOM     63  C   UNL A   1      41.966  30.881  36.015  1.00  0.00     0.012 A 
ATOM     64  C   UNL A   1      43.051  32.518  34.578  1.00  0.00     0.148 A 
ATOM     65  C   UNL A   1      41.915  31.811  37.052  1.00  0.00     0.002 A 
ATOM     66  C   UNL A   1      43.036  33.426  35.631  1.00  0.00     0.091 A 
ATOM     67  F   UNL A   1      43.554  32.836  33.377  1.00  0.00    -0.205 F 
ATOM     68  C   UNL A   1      42.459  33.078  36.863  1.00  0.00     0.022 A 
BRANCH  66  69
ATOM     69  S   UNL A   1      43.778  35.058  35.515  1.00  0.00     0.127 S 
ATOM     70  O   UNL A   1      45.167  34.728  35.197  1.00  0.00    -0.237 OA
ATOM     71  O   UNL A   1      43.027  35.661  34.413  1.00  0.00    -0.237 OA
ATOM     72  O   UNL A   1      43.566  35.688  36.811  1.00  0.00    -0.744 OA
ENDBRANCH  66  69
ENDBRANCH  48  62
BRANCH  49  73
ATOM     73  C   UNL A   1      42.691  24.582  27.315  1.00  0.00     0.023 A 
ATOM     74  C   UNL A   1      43.317  24.944  26.106  1.00  0.00     0.012 A 
ATOM     75  C   UNL A   1      42.131  23.296  27.439  1.00  0.00     0.148 A 
ATOM     76  C   UNL A   1      43.355  24.058  25.029  1.00  0.00     0.002 A 
ATOM     77  C   UNL A   1      42.219  22.398  26.379  1.00  0.00     0.091 A 
ATOM     78  F   UNL A   1      41.523  22.974  28.589  1.00  0.00    -0.205 F 
ATOM     79  C   UNL A   1      42.814  22.782  25.168  1.00  0.00     0.022 A 
BRANCH  77  80
ATOM     80  S   UNL A   1      41.657  20.698  26.519  1.00  0.00     0.127 S 
ATOM     81  O   UNL A   1      42.238  20.293  27.796  1.00  0.00    -0.237 OA
ATOM     82  O   UNL A   1      40.201  20.856  26.526  1.00  0.00    -0.237 OA
ATOM     83  O   UNL A   1      42.177  20.020  25.338  1.00  0.00    -0.744 OA
ENDBRANCH  77  80
ENDBRANCH  49  73
BRANCH  61  84
ATOM     84  C   UNL A   1      46.826  25.799  32.806  1.00  0.00     0.023 A 
ATOM     85  C   UNL A   1      48.080  26.327  32.438  1.00  0.00     0.012 A 
ATOM     86  C   UNL A   1      46.766  24.723  33.714  1.00  0.00     0.148 A 
ATOM     87  C   UNL A   1      49.255  25.777  32.948  1.00  0.00     0.002 A 
ATOM     88  C   UNL A   1      47.940  24.210  34.252  1.00  0.00     0.091 A 
ATOM     89  F   UNL A   1      45.564  24.224  34.035  1.00  0.00    -0.205 F 
ATOM     90  C   UNL A   1      49.185  24.729  33.862  1.00  0.00     0.022 A 
BRANCH  88  91
ATOM     91  S   UNL A   1      47.940  22.925  35.508  1.00  0.00     0.127 S 
ATOM     92  O   UNL A   1      47.203  23.570  36.593  1.00  0.00    -0.237 OA
ATOM     93  O   UNL A   1      47.220  21.839  34.841  1.00  0.00    -0.237 OA
ATOM     94  O   UNL A   1      49.341  22.637  35.785  1.00  0.00    -0.744 OA
ENDBRANCH  88  91
ENDBRANCH  61  84
ENDBRANCH  35  36
ENDBRANCH  27  30
ENDBRANCH  25  26
ENDBRANCH  24  25
ENDBRANCH   1  24
TORSDOF 18
ENDMDL
MODEL 3
REMARK VINA RESULT:     -10.6      4.849      9.068
REMARK SMILES C[N@H+](CC(=O)NCCCCNC(=O)c1ccc(-c2c3nc(c(-c4cccc(S(=O)(=O)[O-])c4F)c4ccc([nH]4)c(-c4cccc(S(=O)(=O)[O-])c4F)c4nc(c(-c5cccc(S(=O)(=O)[O-])c5F)c5ccc2[nH]5)C=C4)C=C3)cc1)Cc1noc(-c2ccccc2Cl)n1
REMARK SMILES IDX 8 1 7 2 6 3 4 4 5 5 3 7 2 8 1 9 77 11 78 12 79 13 89 14
REMARK SMILES IDX 80 15 81 16 82 17 83 18 87 19 84 20 86 21 88 22 85 23 9 24
REMARK SMILES IDX 10 25 11 26 12 27 13 29 14 30 15 31 76 32 16 33 75 34 17 35
REMARK SMILES IDX 18 36 19 37 69 38 20 39 74 40 68 41 70 42 21 43 73 44 67 45
REMARK SMILES IDX 66 46 22 48 54 49 34 50 53 51 35 52 38 53 52 54 71 55 36 56
REMARK SMILES IDX 37 57 51 59 72 60 39 61 23 62 24 63 32 64 25 65 27 66 33 67
REMARK SMILES IDX 26 68 28 69 29 70 30 71 31 72 55 73 56 74 64 75 57 76 59 77
REMARK SMILES IDX 65 78 58 79 60 80 61 81 62 82 63 83 40 84 41 85 49 86 42 87
REMARK SMILES IDX 44 88 50 89 43 90 45 91 46 92 47 93 48 94
REMARK H PARENT 6 6 2 10 11 28 70 47 38 58
REMARK Flexibility Score: inf
ROOT
ATOM      1  C   UNL A   1      36.195  34.209  32.291  1.00  0.00     0.023 C 
ENDROOT
BRANCH   1   2
ATOM      2  C   UNL A   1      35.736  33.408  33.520  1.00  0.00     0.116 C 
BRANCH   2   3
ATOM      3  N   UNL A   1      36.531  32.262  33.922  1.00  0.00    -0.351 N 
ATOM      4  C   UNL A   1      37.626  32.178  34.740  1.00  0.00     0.275 C 
ATOM      5  O   UNL A   1      38.031  31.072  35.109  1.00  0.00    -0.269 OA
ATOM      6  H   UNL A   1      36.232  31.404  33.543  1.00  0.00     0.163 HD
BRANCH   4   7
ATOM      7  C   UNL A   1      38.294  33.454  35.233  1.00  0.00     0.363 C 
BRANCH   7   8
ATOM      8  N   UNL A   1      38.578  33.372  36.674  1.00  0.00    -0.323 N 
ATOM      9  C   UNL A   1      39.549  34.379  37.084  1.00  0.00     0.333 C 
ATOM     10  H   UNL A   1      38.991  32.452  36.824  1.00  0.00     0.348 HD
BRANCH   8  11
ATOM     11  C   UNL A   1      37.366  33.407  37.521  1.00  0.00     0.345 C 
BRANCH  11  12
ATOM     12  C   UNL A   1      37.295  32.414  38.658  1.00  0.00     0.226 A 
ATOM     13  N   UNL A   1      37.187  31.106  38.379  1.00  0.00    -0.056 NA
ATOM     14  N   UNL A   1      37.293  32.695  40.010  1.00  0.00    -0.186 NA
ATOM     15  O   UNL A   1      37.161  30.506  39.633  1.00  0.00    -0.334 OA
ATOM     16  C   UNL A   1      37.254  31.504  40.573  1.00  0.00     0.259 A 
BRANCH  16  17
ATOM     17  C   UNL A   1      37.227  31.054  41.977  1.00  0.00     0.058 A 
ATOM     18  C   UNL A   1      38.192  30.122  42.417  1.00  0.00     0.015 A 
ATOM     19  C   UNL A   1      36.285  31.469  42.936  1.00  0.00     0.053 A 
ATOM     20  C   UNL A   1      38.175  29.587  43.711  1.00  0.00     0.001 A 
ATOM     21  C   UNL A   1      36.233  30.889  44.215  1.00  0.00     0.021 A 
ATOM     22  Cl  UNL A   1      35.190  32.774  42.716  1.00  0.00    -0.083 Cl
ATOM     23  C   UNL A   1      37.174  29.945  44.600  1.00  0.00     0.002 A 
ENDBRANCH  16  17
ENDBRANCH  11  12
ENDBRANCH   8  11
ENDBRANCH   7   8
ENDBRANCH   4   7
ENDBRANCH   2   3
ENDBRANCH   1   2
BRANCH   1  24
ATOM     24  C   UNL A   1      35.758  33.755  30.902  1.00  0.00     0.023 C 
BRANCH  24  25
ATOM     25  C   UNL A   1      34.660  32.709  30.838  1.00  0.00     0.116 C 
BRANCH  25  26
ATOM     26  N   UNL A   1      34.257  32.364  29.487  1.00  0.00    -0.352 N 
ATOM     27  C   UNL A   1      34.864  31.513  28.589  1.00  0.00     0.251 C 
ATOM     28  H   UNL A   1      33.432  32.798  29.168  1.00  0.00     0.163 HD
ATOM     29  O   UNL A   1      34.389  31.377  27.470  1.00  0.00    -0.269 OA
BRANCH  27  30
ATOM     30  C   UNL A   1      36.117  30.802  28.954  1.00  0.00     0.039 A 
ATOM     31  C   UNL A   1      37.335  31.349  28.535  1.00  0.00     0.014 A 
ATOM     32  C   UNL A   1      36.111  29.619  29.698  1.00  0.00     0.014 A 
ATOM     33  C   UNL A   1      38.541  30.748  28.915  1.00  0.00     0.010 A 
ATOM     34  C   UNL A   1      37.312  29.064  30.138  1.00  0.00     0.010 A 
ATOM     35  C   UNL A   1      38.542  29.618  29.746  1.00  0.00    -0.014 A 
BRANCH  35  36
ATOM     36  C   UNL A   1      39.813  28.989  30.201  1.00  0.00     0.031 A 
ATOM     37  C   UNL A   1      40.529  29.527  31.412  1.00  0.00     0.074 A 
ATOM     38  C   UNL A   1      40.364  27.986  29.488  1.00  0.00     0.049 A 
ATOM     39  N   UNL A   1      41.683  29.171  31.916  1.00  0.00    -0.248 NA
ATOM     40  C   UNL A   1      39.875  30.629  32.139  1.00  0.00     0.031 C 
ATOM     41  C   UNL A   1      39.810  27.412  28.260  1.00  0.00     0.029 A 
ATOM     42  N   UNL A   1      41.531  27.286  29.680  1.00  0.00    -0.354 N 
ATOM     43  C   UNL A   1      41.909  30.024  32.990  1.00  0.00     0.074 A 
ATOM     44  C   UNL A   1      40.790  30.939  33.045  1.00  0.00     0.031 C 
ATOM     45  C   UNL A   1      40.631  26.448  27.813  1.00  0.00     0.029 A 
ATOM     46  C   UNL A   1      41.784  26.350  28.703  1.00  0.00     0.049 A 
ATOM     47  H   UNL A   1      42.131  27.439  30.446  1.00  0.00     0.167 HD
ATOM     48  C   UNL A   1      42.936  30.027  33.873  1.00  0.00     0.034 A 
ATOM     49  C   UNL A   1      42.827  25.511  28.540  1.00  0.00     0.034 A 
ATOM     50  C   UNL A   1      44.018  29.081  33.857  1.00  0.00     0.049 A 
ATOM     51  C   UNL A   1      43.933  25.506  29.563  1.00  0.00     0.074 A 
ATOM     52  C   UNL A   1      45.071  28.963  34.748  1.00  0.00     0.029 A 
ATOM     53  N   UNL A   1      44.183  28.084  32.909  1.00  0.00    -0.354 N 
ATOM     54  N   UNL A   1      44.059  26.233  30.646  1.00  0.00    -0.248 NA
ATOM     55  C   UNL A   1      45.023  24.539  29.362  1.00  0.00     0.031 C 
ATOM     56  C   UNL A   1      45.876  27.897  34.335  1.00  0.00     0.029 A 
ATOM     57  C   UNL A   1      45.316  27.342  33.196  1.00  0.00     0.049 A 
ATOM     58  H   UNL A   1      43.584  27.927  32.145  1.00  0.00     0.167 HD
ATOM     59  C   UNL A   1      45.212  25.781  31.278  1.00  0.00     0.074 A 
ATOM     60  C   UNL A   1      45.743  24.708  30.463  1.00  0.00     0.031 C 
ATOM     61  C   UNL A   1      45.789  26.226  32.421  1.00  0.00     0.034 A 
BRANCH  48  62
ATOM     62  C   UNL A   1      42.902  31.046  34.981  1.00  0.00     0.023 A 
ATOM     63  C   UNL A   1      42.358  30.688  36.231  1.00  0.00     0.012 A 
ATOM     64  C   UNL A   1      43.461  32.328  34.812  1.00  0.00     0.148 A 
ATOM     65  C   UNL A   1      42.339  31.599  37.287  1.00  0.00     0.002 A 
ATOM     66  C   UNL A   1      43.478  33.217  35.882  1.00  0.00     0.091 A 
ATOM     67  F   UNL A   1      43.956  32.658  33.611  1.00  0.00    -0.205 F 
ATOM     68  C   UNL A   1      42.909  32.857  37.115  1.00  0.00     0.022 A 
BRANCH  66  69
ATOM     69  S   UNL A   1      44.255  34.834  35.788  1.00  0.00     0.127 S 
ATOM     70  O   UNL A   1      43.482  35.469  34.721  1.00  0.00    -0.237 OA
ATOM     71  O   UNL A   1      44.006  35.374  37.125  1.00  0.00    -0.237 OA
ATOM     72  O   UNL A   1      45.657  34.588  35.483  1.00  0.00    -0.744 OA
ENDBRANCH  66  69
ENDBRANCH  48  62
BRANCH  49  73
ATOM     73  C   UNL A   1      42.844  24.545  27.403  1.00  0.00     0.023 A 
ATOM     74  C   UNL A   1      43.472  24.914  26.197  1.00  0.00     0.012 A 
ATOM     75  C   UNL A   1      42.251  23.272  27.506  1.00  0.00     0.148 A 
ATOM     76  C   UNL A   1      43.478  24.048  25.103  1.00  0.00     0.002 A 
ATOM     77  C   UNL A   1      42.307  22.393  26.429  1.00  0.00     0.091 A 
ATOM     78  F   UNL A   1      41.642  22.945  28.654  1.00  0.00    -0.205 F 
ATOM     79  C   UNL A   1      42.905  22.785  25.221  1.00  0.00     0.022 A 
BRANCH  77  80
ATOM     80  S   UNL A   1      41.701  20.707  26.540  1.00  0.00     0.127 S 
ATOM     81  O   UNL A   1      40.255  20.902  26.473  1.00  0.00    -0.237 OA
ATOM     82  O   UNL A   1      42.295  20.088  25.354  1.00  0.00    -0.237 OA
ATOM     83  O   UNL A   1      42.217  20.192  27.802  1.00  0.00    -0.744 OA
ENDBRANCH  77  80
ENDBRANCH  49  73
BRANCH  61  84
ATOM     84  C   UNL A   1      47.032  25.525  32.902  1.00  0.00     0.023 A 
ATOM     85  C   UNL A   1      48.300  26.007  32.521  1.00  0.00     0.012 A 
ATOM     86  C   UNL A   1      46.942  24.449  33.807  1.00  0.00     0.148 A 
ATOM     87  C   UNL A   1      49.460  25.411  33.014  1.00  0.00     0.002 A 
ATOM     88  C   UNL A   1      48.103  23.890  34.329  1.00  0.00     0.091 A 
ATOM     89  F   UNL A   1      45.726  23.994  34.141  1.00  0.00    -0.205 F 
ATOM     90  C   UNL A   1      49.362  24.363  33.927  1.00  0.00     0.022 A 
BRANCH  88  91
ATOM     91  S   UNL A   1      48.069  22.601  35.582  1.00  0.00     0.127 S 
ATOM     92  O   UNL A   1      47.447  21.496  34.854  1.00  0.00    -0.237 OA
ATOM     93  O   UNL A   1      49.491  22.416  35.875  1.00  0.00    -0.237 OA
ATOM     94  O   UNL A   1      47.291  23.140  36.689  1.00  0.00    -0.744 OA
ENDBRANCH  88  91
ENDBRANCH  61  84
ENDBRANCH  35  36
ENDBRANCH  27  30
ENDBRANCH  25  26
ENDBRANCH  24  25
ENDBRANCH   1  24
TORSDOF 18
ENDMDL
