MODEL 1
REMARK VINA RESULT:     -10.8      0.000      0.000
REMARK SMILES C[C@H]1[C@H](C(=O)NCCCCNC(=O)c2ccc(-c3c4nc(c(-c5cccc(S(=O)(=O)[O-])c5F)c5ccc([nH]5)c(-c5cccc(S(=O)(=O)[O-])c5F)c5nc(c(-c6cccc(S(=O)(=O)[O-])c6F)c6ccc3[nH]6)C=C5)C=C4)cc2)CCN1C(=O)CC[NH2+]C1CC1
REMARK SMILES IDX 7 1 6 2 4 3 5 4 3 6 1 7 2 8 79 9 77 10 78 11 80 12 81 13
REMARK SMILES IDX 82 14 83 15 84 16 85 19 86 20 87 21 8 22 9 23 10 24 11 25
REMARK SMILES IDX 12 26 13 28 14 29 15 30 76 31 16 32 75 33 17 34 18 35 19 36
REMARK SMILES IDX 69 37 20 38 74 39 68 40 70 41 21 42 73 43 67 44 66 45 22 47
REMARK SMILES IDX 54 48 34 49 53 50 35 51 38 52 52 53 71 54 36 55 37 56 51 58
REMARK SMILES IDX 72 59 39 60 23 61 24 62 32 63 25 64 27 65 33 66 26 67 28 68
REMARK SMILES IDX 29 69 30 70 31 71 55 72 56 73 64 74 57 75 59 76 65 77 58 78
REMARK SMILES IDX 60 79 61 80 62 81 63 82 40 83 41 84 49 85 42 86 44 87 50 88
REMARK SMILES IDX 43 89 45 90 46 91 47 92 48 93
REMARK H PARENT 6 5 84 17 84 18 11 27 70 46 38 57
REMARK Flexibility Score: inf
ROOT
ATOM      1  C   UNL A   1      34.362  29.669  27.373  1.00  0.00     0.116 C 
ENDROOT
BRANCH   1   2
ATOM      2  N   UNL A   1      33.038  29.179  27.701  1.00  0.00    -0.356 N 
ATOM      3  C   UNL A   1      32.382  28.054  27.319  1.00  0.00     0.225 C 
ATOM      4  O   UNL A   1      31.245  27.878  27.766  1.00  0.00    -0.275 OA
ATOM      5  H   UNL A   1      32.526  29.763  28.306  1.00  0.00     0.163 HD
BRANCH   3   6
ATOM      6  C   UNL A   1      32.967  27.041  26.349  1.00  0.00     0.102 C 
ATOM      7  C   UNL A   1      32.180  24.691  26.020  1.00  0.00     0.032 C 
ATOM      8  C   UNL A   1      31.885  26.160  25.708  1.00  0.00     0.094 C 
ATOM      9  N   UNL A   1      32.005  26.404  24.270  1.00  0.00    -0.339 N 
ATOM     10  C   UNL A   1      33.803  27.615  25.203  1.00  0.00     0.037 C 
ATOM     11  C   UNL A   1      33.337  26.880  23.953  1.00  0.00     0.120 C 
BRANCH   9  12
ATOM     12  C   UNL A   1      31.069  26.208  23.275  1.00  0.00     0.228 C 
ATOM     13  O   UNL A   1      30.693  25.076  22.961  1.00  0.00    -0.275 OA
BRANCH  12  14
ATOM     14  C   UNL A   1      30.526  27.414  22.526  1.00  0.00     0.161 C 
BRANCH  14  15
ATOM     15  C   UNL A   1      29.493  28.192  23.338  1.00  0.00     0.270 C 
BRANCH  15  16
ATOM     16  N   UNL A   1      29.875  29.602  23.467  1.00  0.00    -0.343 N 
ATOM     17  H   UNL A   1      30.791  29.726  23.034  1.00  0.00     0.346 HD
ATOM     18  H   UNL A   1      29.878  29.814  24.465  1.00  0.00     0.346 HD
BRANCH  16  19
ATOM     19  C   UNL A   1      28.941  30.541  22.843  1.00  0.00     0.182 C 
ATOM     20  C   UNL A   1      27.615  30.890  23.462  1.00  0.00     0.071 C 
ATOM     21  C   UNL A   1      28.736  31.882  23.501  1.00  0.00     0.071 C 
ENDBRANCH  16  19
ENDBRANCH  15  16
ENDBRANCH  14  15
ENDBRANCH  12  14
ENDBRANCH   9  12
ENDBRANCH   3   6
ENDBRANCH   1   2
BRANCH   1  22
ATOM     22  C   UNL A   1      34.664  31.008  28.038  1.00  0.00     0.023 C 
BRANCH  22  23
ATOM     23  C   UNL A   1      33.466  31.947  28.186  1.00  0.00     0.023 C 
BRANCH  23  24
ATOM     24  C   UNL A   1      33.416  33.109  27.200  1.00  0.00     0.116 C 
BRANCH  24  25
ATOM     25  N   UNL A   1      32.817  34.314  27.755  1.00  0.00    -0.352 N 
ATOM     26  C   UNL A   1      33.178  35.000  28.890  1.00  0.00     0.251 C 
ATOM     27  H   UNL A   1      32.056  34.686  27.252  1.00  0.00     0.163 HD
ATOM     28  O   UNL A   1      32.515  35.961  29.271  1.00  0.00    -0.269 OA
BRANCH  26  29
ATOM     29  C   UNL A   1      34.345  34.541  29.669  1.00  0.00     0.039 A 
ATOM     30  C   UNL A   1      34.131  33.928  30.906  1.00  0.00     0.014 A 
ATOM     31  C   UNL A   1      35.638  34.666  29.153  1.00  0.00     0.014 A 
ATOM     32  C   UNL A   1      35.212  33.375  31.595  1.00  0.00     0.010 A 
ATOM     33  C   UNL A   1      36.701  34.054  29.809  1.00  0.00     0.010 A 
ATOM     34  C   UNL A   1      36.499  33.402  31.034  1.00  0.00    -0.014 A 
BRANCH  34  35
ATOM     35  C   UNL A   1      37.645  32.737  31.703  1.00  0.00     0.031 A 
ATOM     36  C   UNL A   1      38.340  31.581  31.037  1.00  0.00     0.074 A 
ATOM     37  C   UNL A   1      37.996  33.110  32.950  1.00  0.00     0.049 A 
ATOM     38  N   UNL A   1      39.317  30.838  31.489  1.00  0.00    -0.248 NA
ATOM     39  C   UNL A   1      37.855  31.188  29.704  1.00  0.00     0.031 C 
ATOM     40  C   UNL A   1      37.339  34.157  33.736  1.00  0.00     0.029 A 
ATOM     41  N   UNL A   1      38.973  32.631  33.787  1.00  0.00    -0.354 N 
ATOM     42  C   UNL A   1      39.537  29.870  30.516  1.00  0.00     0.074 A 
ATOM     43  C   UNL A   1      38.571  30.100  29.465  1.00  0.00     0.031 C 
ATOM     44  C   UNL A   1      37.931  34.242  34.938  1.00  0.00     0.029 A 
ATOM     45  C   UNL A   1      38.994  33.245  35.018  1.00  0.00     0.049 A 
ATOM     46  H   UNL A   1      39.598  31.915  33.531  1.00  0.00     0.167 HD
ATOM     47  C   UNL A   1      40.481  28.900  30.483  1.00  0.00     0.034 A 
ATOM     48  C   UNL A   1      39.782  33.028  36.090  1.00  0.00     0.034 A 
ATOM     49  C   UNL A   1      41.476  28.712  31.503  1.00  0.00     0.049 A 
ATOM     50  C   UNL A   1      40.863  31.985  36.002  1.00  0.00     0.074 A 
ATOM     51  C   UNL A   1      42.538  27.824  31.517  1.00  0.00     0.029 A 
ATOM     52  N   UNL A   1      41.534  29.423  32.692  1.00  0.00    -0.354 N 
ATOM     53  N   UNL A   1      41.168  31.195  35.000  1.00  0.00    -0.248 NA
ATOM     54  C   UNL A   1      41.735  31.830  37.175  1.00  0.00     0.031 C 
ATOM     55  C   UNL A   1      43.231  27.992  32.720  1.00  0.00     0.029 A 
ATOM     56  C   UNL A   1      42.610  28.992  33.449  1.00  0.00     0.049 A 
ATOM     57  H   UNL A   1      40.903  30.130  32.958  1.00  0.00     0.167 HD
ATOM     58  C   UNL A   1      42.283  30.475  35.409  1.00  0.00     0.074 A 
ATOM     59  C   UNL A   1      42.616  30.937  36.741  1.00  0.00     0.031 C 
ATOM     60  C   UNL A   1      42.962  29.504  34.749  1.00  0.00     0.034 A 
BRANCH  47  61
ATOM     61  C   UNL A   1      40.525  28.009  29.270  1.00  0.00     0.023 A 
ATOM     62  C   UNL A   1      39.636  26.918  29.182  1.00  0.00     0.012 A 
ATOM     63  C   UNL A   1      41.401  28.276  28.199  1.00  0.00     0.148 A 
ATOM     64  C   UNL A   1      39.640  26.087  28.064  1.00  0.00     0.002 A 
ATOM     65  C   UNL A   1      41.369  27.467  27.069  1.00  0.00     0.091 A 
ATOM     66  F   UNL A   1      42.256  29.302  28.311  1.00  0.00    -0.205 F 
ATOM     67  C   UNL A   1      40.498  26.366  27.004  1.00  0.00     0.022 A 
BRANCH  65  68
ATOM     68  S   UNL A   1      42.384  27.788  25.621  1.00  0.00     0.127 S 
ATOM     69  O   UNL A   1      41.819  29.049  25.140  1.00  0.00    -0.237 OA
ATOM     70  O   UNL A   1      43.723  27.903  26.201  1.00  0.00    -0.237 OA
ATOM     71  O   UNL A   1      42.200  26.641  24.744  1.00  0.00    -0.744 OA
ENDBRANCH  65  68
ENDBRANCH  47  61
BRANCH  48  72
ATOM     72  C   UNL A   1      39.629  33.874  37.307  1.00  0.00     0.023 A 
ATOM     73  C   UNL A   1      40.152  35.182  37.304  1.00  0.00     0.012 A 
ATOM     74  C   UNL A   1      38.945  33.411  38.448  1.00  0.00     0.148 A 
ATOM     75  C   UNL A   1      40.022  36.004  38.423  1.00  0.00     0.002 A 
ATOM     76  C   UNL A   1      38.774  34.253  39.540  1.00  0.00     0.091 A 
ATOM     77  F   UNL A   1      38.467  32.159  38.437  1.00  0.00    -0.205 F 
ATOM     78  C   UNL A   1      39.325  35.544  39.537  1.00  0.00     0.022 A 
BRANCH  76  79
ATOM     79  S   UNL A   1      37.776  33.788  40.961  1.00  0.00     0.127 S 
ATOM     80  O   UNL A   1      37.529  35.082  41.589  1.00  0.00    -0.237 OA
ATOM     81  O   UNL A   1      36.606  33.178  40.326  1.00  0.00    -0.237 OA
ATOM     82  O   UNL A   1      38.595  32.855  41.723  1.00  0.00    -0.744 OA
ENDBRANCH  76  79
ENDBRANCH  48  72
BRANCH  60  83
ATOM     83  C   UNL A   1      44.150  28.890  35.439  1.00  0.00     0.023 A 
ATOM     84  C   UNL A   1      45.431  29.442  35.246  1.00  0.00     0.012 A 
ATOM     85  C   UNL A   1      43.986  27.819  36.340  1.00  0.00     0.148 A 
ATOM     86  C   UNL A   1      46.537  28.922  35.917  1.00  0.00     0.002 A 
ATOM     87  C   UNL A   1      45.085  27.335  37.041  1.00  0.00     0.091 A 
ATOM     88  F   UNL A   1      42.763  27.293  36.495  1.00  0.00    -0.205 F 
ATOM     89  C   UNL A   1      46.362  27.878  36.823  1.00  0.00     0.022 A 
BRANCH  87  90
ATOM     90  S   UNL A   1      44.935  26.057  38.294  1.00  0.00     0.127 S 
ATOM     91  O   UNL A   1      43.969  26.653  39.215  1.00  0.00    -0.237 OA
ATOM     92  O   UNL A   1      44.423  24.922  37.524  1.00  0.00    -0.237 OA
ATOM     93  O   UNL A   1      46.276  25.863  38.828  1.00  0.00    -0.744 OA
ENDBRANCH  87  90
ENDBRANCH  60  83
ENDBRANCH  34  35
ENDBRANCH  26  29
ENDBRANCH  24  25
ENDBRANCH  23  24
ENDBRANCH  22  23
ENDBRANCH   1  22
TORSDOF 19
ENDMDL
MODEL 2
REMARK VINA RESULT:     -10.8      2.972      8.711
REMARK SMILES C[C@H]1[C@H](C(=O)NCCCCNC(=O)c2ccc(-c3c4nc(c(-c5cccc(S(=O)(=O)[O-])c5F)c5ccc([nH]5)c(-c5cccc(S(=O)(=O)[O-])c5F)c5nc(c(-c6cccc(S(=O)(=O)[O-])c6F)c6ccc3[nH]6)C=C5)C=C4)cc2)CCN1C(=O)CC[NH2+]C1CC1
REMARK SMILES IDX 7 1 6 2 4 3 5 4 3 6 1 7 2 8 79 9 77 10 78 11 80 12 81 13
REMARK SMILES IDX 82 14 83 15 84 16 85 19 86 20 87 21 8 22 9 23 10 24 11 25
REMARK SMILES IDX 12 26 13 28 14 29 15 30 76 31 16 32 75 33 17 34 18 35 19 36
REMARK SMILES IDX 69 37 20 38 74 39 68 40 70 41 21 42 73 43 67 44 66 45 22 47
REMARK SMILES IDX 54 48 34 49 53 50 35 51 38 52 52 53 71 54 36 55 37 56 51 58
REMARK SMILES IDX 72 59 39 60 23 61 24 62 32 63 25 64 27 65 33 66 26 67 28 68
REMARK SMILES IDX 29 69 30 70 31 71 55 72 56 73 64 74 57 75 59 76 65 77 58 78
REMARK SMILES IDX 60 79 61 80 62 81 63 82 40 83 41 84 49 85 42 86 44 87 50 88
REMARK SMILES IDX 43 89 45 90 46 91 47 92 48 93
REMARK H PARENT 6 5 84 17 84 18 11 27 70 46 38 57
REMARK Flexibility Score: inf
ROOT
ATOM      1  C   UNL A   1      31.756  27.429  26.663  1.00  0.00     0.116 C 
ENDROOT
BRANCH   1   2
ATOM      2  N   UNL A   1      31.084  26.167  26.900  1.00  0.00    -0.356 N 
ATOM      3  C   UNL A   1      30.976  25.053  26.131  1.00  0.00     0.225 C 
ATOM      4  O   UNL A   1      30.341  24.101  26.593  1.00  0.00    -0.275 OA
ATOM      5  H   UNL A   1      30.627  26.106  27.770  1.00  0.00     0.163 HD
BRANCH   3   6
ATOM      6  C   UNL A   1      31.561  24.951  24.733  1.00  0.00     0.102 C 
ATOM      7  C   UNL A   1      33.647  26.067  23.923  1.00  0.00     0.032 C 
ATOM      8  C   UNL A   1      33.096  24.902  24.748  1.00  0.00     0.094 C 
ATOM      9  N   UNL A   1      33.437  23.629  24.113  1.00  0.00    -0.339 N 
ATOM     10  C   UNL A   1      31.091  23.761  23.893  1.00  0.00     0.037 C 
ATOM     11  C   UNL A   1      32.352  23.189  23.258  1.00  0.00     0.120 C 
BRANCH   9  12
ATOM     12  C   UNL A   1      34.601  22.893  24.213  1.00  0.00     0.228 C 
ATOM     13  O   UNL A   1      35.367  22.770  23.254  1.00  0.00    -0.275 OA
BRANCH  12  14
ATOM     14  C   UNL A   1      34.916  22.187  25.521  1.00  0.00     0.161 C 
BRANCH  14  15
ATOM     15  C   UNL A   1      34.987  20.670  25.366  1.00  0.00     0.270 C 
BRANCH  15  16
ATOM     16  N   UNL A   1      33.874  20.168  24.554  1.00  0.00    -0.343 N 
ATOM     17  H   UNL A   1      34.012  20.484  23.593  1.00  0.00     0.346 HD
ATOM     18  H   UNL A   1      33.019  20.536  24.972  1.00  0.00     0.346 HD
BRANCH  16  19
ATOM     19  C   UNL A   1      33.742  18.710  24.543  1.00  0.00     0.182 C 
ATOM     20  C   UNL A   1      32.755  17.985  25.417  1.00  0.00     0.071 C 
ATOM     21  C   UNL A   1      32.491  18.114  23.948  1.00  0.00     0.071 C 
ENDBRANCH  16  19
ENDBRANCH  15  16
ENDBRANCH  14  15
ENDBRANCH  12  14
ENDBRANCH   9  12
ENDBRANCH   3   6
ENDBRANCH   1   2
BRANCH   1  22
ATOM     22  C   UNL A   1      31.064  28.260  25.587  1.00  0.00     0.023 C 
BRANCH  22  23
ATOM     23  C   UNL A   1      31.938  29.325  24.925  1.00  0.00     0.023 C 
BRANCH  23  24
ATOM     24  C   UNL A   1      33.033  29.917  25.805  1.00  0.00     0.116 C 
BRANCH  24  25
ATOM     25  N   UNL A   1      32.697  31.226  26.347  1.00  0.00    -0.352 N 
ATOM     26  C   UNL A   1      33.375  31.953  27.297  1.00  0.00     0.251 C 
ATOM     27  H   UNL A   1      31.882  31.643  25.987  1.00  0.00     0.163 HD
ATOM     28  O   UNL A   1      32.914  33.013  27.711  1.00  0.00    -0.269 OA
BRANCH  26  29
ATOM     29  C   UNL A   1      34.640  31.422  27.844  1.00  0.00     0.039 A 
ATOM     30  C   UNL A   1      35.710  32.298  28.039  1.00  0.00     0.014 A 
ATOM     31  C   UNL A   1      34.746  30.078  28.213  1.00  0.00     0.014 A 
ATOM     32  C   UNL A   1      36.866  31.840  28.672  1.00  0.00     0.010 A 
ATOM     33  C   UNL A   1      35.872  29.643  28.905  1.00  0.00     0.010 A 
ATOM     34  C   UNL A   1      36.942  30.518  29.142  1.00  0.00    -0.014 A 
BRANCH  34  35
ATOM     35  C   UNL A   1      38.122  30.037  29.903  1.00  0.00     0.031 A 
ATOM     36  C   UNL A   1      38.382  30.546  31.294  1.00  0.00     0.074 A 
ATOM     37  C   UNL A   1      39.009  29.218  29.305  1.00  0.00     0.049 A 
ATOM     38  N   UNL A   1      39.387  30.288  32.089  1.00  0.00    -0.248 NA
ATOM     39  C   UNL A   1      37.402  31.492  31.853  1.00  0.00     0.031 C 
ATOM     40  C   UNL A   1      38.914  28.727  27.928  1.00  0.00     0.029 A 
ATOM     41  N   UNL A   1      40.183  28.676  29.769  1.00  0.00    -0.354 N 
ATOM     42  C   UNL A   1      39.182  31.066  33.223  1.00  0.00     0.074 A 
ATOM     43  C   UNL A   1      37.975  31.829  32.999  1.00  0.00     0.031 C 
ATOM     44  C   UNL A   1      39.981  27.958  27.660  1.00  0.00     0.029 A 
ATOM     45  C   UNL A   1      40.846  27.915  28.834  1.00  0.00     0.049 A 
ATOM     46  H   UNL A   1      40.517  28.820  30.683  1.00  0.00     0.167 HD
ATOM     47  C   UNL A   1      39.913  31.114  34.362  1.00  0.00     0.034 A 
ATOM     48  C   UNL A   1      42.020  27.258  28.916  1.00  0.00     0.034 A 
ATOM     49  C   UNL A   1      41.080  30.311  34.603  1.00  0.00     0.049 A 
ATOM     50  C   UNL A   1      42.779  27.279  30.215  1.00  0.00     0.074 A 
ATOM     51  C   UNL A   1      41.833  30.211  35.760  1.00  0.00     0.029 A 
ATOM     52  N   UNL A   1      41.667  29.469  33.671  1.00  0.00    -0.354 N 
ATOM     53  N   UNL A   1      42.476  27.883  31.339  1.00  0.00    -0.248 NA
ATOM     54  C   UNL A   1      44.022  26.496  30.272  1.00  0.00     0.031 C 
ATOM     55  C   UNL A   1      42.881  29.316  35.522  1.00  0.00     0.029 A 
ATOM     56  C   UNL A   1      42.774  28.848  34.223  1.00  0.00     0.049 A 
ATOM     57  H   UNL A   1      41.343  29.332  32.751  1.00  0.00     0.167 HD
ATOM     58  C   UNL A   1      43.469  27.528  32.243  1.00  0.00     0.074 A 
ATOM     59  C   UNL A   1      44.372  26.637  31.544  1.00  0.00     0.031 C 
ATOM     60  C   UNL A   1      43.630  27.918  33.532  1.00  0.00     0.034 A 
BRANCH  47  61
ATOM     61  C   UNL A   1      39.429  32.019  35.464  1.00  0.00     0.023 A 
ATOM     62  C   UNL A   1      38.522  31.518  36.420  1.00  0.00     0.012 A 
ATOM     63  C   UNL A   1      39.905  33.339  35.588  1.00  0.00     0.148 A 
ATOM     64  C   UNL A   1      38.070  32.324  37.463  1.00  0.00     0.002 A 
ATOM     65  C   UNL A   1      39.482  34.124  36.654  1.00  0.00     0.091 A 
ATOM     66  F   UNL A   1      40.747  33.807  34.655  1.00  0.00    -0.205 F 
ATOM     67  C   UNL A   1      38.557  33.623  37.586  1.00  0.00     0.022 A 
BRANCH  65  68
ATOM     68  S   UNL A   1      40.108  35.783  36.941  1.00  0.00     0.127 S 
ATOM     69  O   UNL A   1      39.669  36.478  35.732  1.00  0.00    -0.237 OA
ATOM     70  O   UNL A   1      39.400  36.175  38.161  1.00  0.00    -0.237 OA
ATOM     71  O   UNL A   1      41.549  35.643  37.098  1.00  0.00    -0.744 OA
ENDBRANCH  65  68
ENDBRANCH  47  61
BRANCH  48  72
ATOM     72  C   UNL A   1      42.504  26.456  27.757  1.00  0.00     0.023 A 
ATOM     73  C   UNL A   1      43.424  27.032  26.860  1.00  0.00     0.012 A 
ATOM     74  C   UNL A   1      42.090  25.125  27.556  1.00  0.00     0.148 A 
ATOM     75  C   UNL A   1      43.902  26.308  25.768  1.00  0.00     0.002 A 
ATOM     76  C   UNL A   1      42.611  24.392  26.496  1.00  0.00     0.091 A 
ATOM     77  F   UNL A   1      41.204  24.599  28.413  1.00  0.00    -0.205 F 
ATOM     78  C   UNL A   1      43.504  24.986  25.591  1.00  0.00     0.022 A 
BRANCH  76  79
ATOM     79  S   UNL A   1      42.255  22.644  26.273  1.00  0.00     0.127 S 
ATOM     80  O   UNL A   1      40.796  22.640  26.226  1.00  0.00    -0.237 OA
ATOM     81  O   UNL A   1      42.914  22.359  24.996  1.00  0.00    -0.237 OA
ATOM     82  O   UNL A   1      42.859  21.975  27.418  1.00  0.00    -0.744 OA
ENDBRANCH  76  79
ENDBRANCH  48  72
BRANCH  60  83
ATOM     83  C   UNL A   1      44.810  27.367  34.286  1.00  0.00     0.023 A 
ATOM     84  C   UNL A   1      46.042  28.047  34.244  1.00  0.00     0.012 A 
ATOM     85  C   UNL A   1      44.676  26.226  35.101  1.00  0.00     0.148 A 
ATOM     86  C   UNL A   1      47.133  27.584  34.979  1.00  0.00     0.002 A 
ATOM     87  C   UNL A   1      45.754  25.796  35.866  1.00  0.00     0.091 A 
ATOM     88  F   UNL A   1      43.501  25.580  35.112  1.00  0.00    -0.205 F 
ATOM     89  C   UNL A   1      46.986  26.467  35.799  1.00  0.00     0.022 A 
BRANCH  87  90
ATOM     90  S   UNL A   1      45.625  24.424  37.019  1.00  0.00     0.127 S 
ATOM     91  O   UNL A   1      46.918  24.483  37.699  1.00  0.00    -0.237 OA
ATOM     92  O   UNL A   1      44.484  24.818  37.847  1.00  0.00    -0.237 OA
ATOM     93  O   UNL A   1      45.395  23.239  36.205  1.00  0.00    -0.744 OA
ENDBRANCH  87  90
ENDBRANCH  60  83
ENDBRANCH  34  35
ENDBRANCH  26  29
ENDBRANCH  24  25
ENDBRANCH  23  24
ENDBRANCH  22  23
ENDBRANCH   1  22
TORSDOF 19
ENDMDL
MODEL 3
REMARK VINA RESULT:     -10.7      3.126      4.776
REMARK SMILES C[C@H]1[C@H](C(=O)NCCCCNC(=O)c2ccc(-c3c4nc(c(-c5cccc(S(=O)(=O)[O-])c5F)c5ccc([nH]5)c(-c5cccc(S(=O)(=O)[O-])c5F)c5nc(c(-c6cccc(S(=O)(=O)[O-])c6F)c6ccc3[nH]6)C=C5)C=C4)cc2)CCN1C(=O)CC[NH2+]C1CC1
REMARK SMILES IDX 7 1 6 2 4 3 5 4 3 6 1 7 2 8 79 9 77 10 78 11 80 12 81 13
REMARK SMILES IDX 82 14 83 15 84 16 85 19 86 20 87 21 8 22 9 23 10 24 11 25
REMARK SMILES IDX 12 26 13 28 14 29 15 30 76 31 16 32 75 33 17 34 18 35 19 36
REMARK SMILES IDX 69 37 20 38 74 39 68 40 70 41 21 42 73 43 67 44 66 45 22 47
REMARK SMILES IDX 54 48 34 49 53 50 35 51 38 52 52 53 71 54 36 55 37 56 51 58
REMARK SMILES IDX 72 59 39 60 23 61 24 62 32 63 25 64 27 65 33 66 26 67 28 68
REMARK SMILES IDX 29 69 30 70 31 71 55 72 56 73 64 74 57 75 59 76 65 77 58 78
REMARK SMILES IDX 60 79 61 80 62 81 63 82 40 83 41 84 49 85 42 86 44 87 50 88
REMARK SMILES IDX 43 89 45 90 46 91 47 92 48 93
REMARK H PARENT 6 5 84 17 84 18 11 27 70 46 38 57
REMARK Flexibility Score: inf
ROOT
ATOM      1  C   UNL A   1      31.588  27.480  26.567  1.00  0.00     0.116 C 
ENDROOT
BRANCH   1   2
ATOM      2  N   UNL A   1      30.876  26.256  26.872  1.00  0.00    -0.356 N 
ATOM      3  C   UNL A   1      30.864  25.050  26.250  1.00  0.00     0.225 C 
ATOM      4  O   UNL A   1      30.159  24.162  26.740  1.00  0.00    -0.275 OA
ATOM      5  H   UNL A   1      30.300  26.308  27.669  1.00  0.00     0.163 HD
BRANCH   3   6
ATOM      6  C   UNL A   1      31.639  24.767  24.974  1.00  0.00     0.102 C 
ATOM      7  C   UNL A   1      34.084  25.148  24.621  1.00  0.00     0.032 C 
ATOM      8  C   UNL A   1      33.046  24.222  25.259  1.00  0.00     0.094 C 
ATOM      9  N   UNL A   1      33.078  22.909  24.615  1.00  0.00    -0.339 N 
ATOM     10  C   UNL A   1      30.982  23.796  23.991  1.00  0.00     0.037 C 
ATOM     11  C   UNL A   1      32.091  22.848  23.554  1.00  0.00     0.120 C 
BRANCH   9  12
ATOM     12  C   UNL A   1      33.906  21.835  24.873  1.00  0.00     0.228 C 
ATOM     13  O   UNL A   1      34.828  21.537  24.109  1.00  0.00    -0.275 OA
BRANCH  12  14
ATOM     14  C   UNL A   1      33.643  20.981  26.102  1.00  0.00     0.161 C 
BRANCH  14  15
ATOM     15  C   UNL A   1      32.999  19.640  25.757  1.00  0.00     0.270 C 
BRANCH  15  16
ATOM     16  N   UNL A   1      33.910  18.801  24.973  1.00  0.00    -0.343 N 
ATOM     17  H   UNL A   1      34.633  18.443  25.599  1.00  0.00     0.346 HD
ATOM     18  H   UNL A   1      34.286  19.392  24.232  1.00  0.00     0.346 HD
BRANCH  16  19
ATOM     19  C   UNL A   1      33.268  17.661  24.315  1.00  0.00     0.182 C 
ATOM     20  C   UNL A   1      32.947  17.657  22.845  1.00  0.00     0.071 C 
ATOM     21  C   UNL A   1      34.091  16.837  23.357  1.00  0.00     0.071 C 
ENDBRANCH  16  19
ENDBRANCH  15  16
ENDBRANCH  14  15
ENDBRANCH  12  14
ENDBRANCH   9  12
ENDBRANCH   3   6
ENDBRANCH   1   2
BRANCH   1  22
ATOM     22  C   UNL A   1      31.136  28.100  25.249  1.00  0.00     0.023 C 
BRANCH  22  23
ATOM     23  C   UNL A   1      32.101  29.122  24.645  1.00  0.00     0.023 C 
BRANCH  23  24
ATOM     24  C   UNL A   1      33.074  29.765  25.626  1.00  0.00     0.116 C 
BRANCH  24  25
ATOM     25  N   UNL A   1      32.592  31.022  26.182  1.00  0.00    -0.352 N 
ATOM     26  C   UNL A   1      33.175  31.804  27.150  1.00  0.00     0.251 C 
ATOM     27  H   UNL A   1      31.739  31.353  25.818  1.00  0.00     0.163 HD
ATOM     28  O   UNL A   1      32.596  32.801  27.573  1.00  0.00    -0.269 OA
BRANCH  26  29
ATOM     29  C   UNL A   1      34.484  31.406  27.706  1.00  0.00     0.039 A 
ATOM     30  C   UNL A   1      35.495  32.366  27.802  1.00  0.00     0.014 A 
ATOM     31  C   UNL A   1      34.691  30.108  28.180  1.00  0.00     0.014 A 
ATOM     32  C   UNL A   1      36.693  32.040  28.440  1.00  0.00     0.010 A 
ATOM     33  C   UNL A   1      35.857  29.808  28.875  1.00  0.00     0.010 A 
ATOM     34  C   UNL A   1      36.869  30.770  29.013  1.00  0.00    -0.014 A 
BRANCH  34  35
ATOM     35  C   UNL A   1      38.094  30.433  29.780  1.00  0.00     0.031 A 
ATOM     36  C   UNL A   1      39.083  29.444  29.227  1.00  0.00     0.074 A 
ATOM     37  C   UNL A   1      38.267  30.944  31.015  1.00  0.00     0.049 A 
ATOM     38  N   UNL A   1      40.176  28.980  29.774  1.00  0.00    -0.248 NA
ATOM     39  C   UNL A   1      38.789  28.878  27.900  1.00  0.00     0.031 C 
ATOM     40  C   UNL A   1      37.333  31.843  31.698  1.00  0.00     0.029 A 
ATOM     41  N   UNL A   1      39.274  30.757  31.930  1.00  0.00    -0.354 N 
ATOM     42  C   UNL A   1      40.680  28.044  28.878  1.00  0.00     0.074 A 
ATOM     43  C   UNL A   1      39.756  27.981  27.769  1.00  0.00     0.031 C 
ATOM     44  C   UNL A   1      37.811  32.129  32.919  1.00  0.00     0.029 A 
ATOM     45  C   UNL A   1      39.071  31.421  33.117  1.00  0.00     0.049 A 
ATOM     46  H   UNL A   1      40.065  30.199  31.752  1.00  0.00     0.167 HD
ATOM     47  C   UNL A   1      41.826  27.327  28.956  1.00  0.00     0.034 A 
ATOM     48  C   UNL A   1      39.818  31.454  34.239  1.00  0.00     0.034 A 
ATOM     49  C   UNL A   1      42.770  27.436  30.035  1.00  0.00     0.049 A 
ATOM     50  C   UNL A   1      41.118  30.697  34.272  1.00  0.00     0.074 A 
ATOM     51  C   UNL A   1      44.008  26.829  30.159  1.00  0.00     0.029 A 
ATOM     52  N   UNL A   1      42.584  28.201  31.175  1.00  0.00    -0.354 N 
ATOM     53  N   UNL A   1      41.664  29.952  33.342  1.00  0.00    -0.248 NA
ATOM     54  C   UNL A   1      41.925  30.816  35.496  1.00  0.00     0.031 C 
ATOM     55  C   UNL A   1      44.564  27.220  31.381  1.00  0.00     0.029 A 
ATOM     56  C   UNL A   1      43.680  28.080  32.011  1.00  0.00     0.049 A 
ATOM     57  H   UNL A   1      41.788  28.750  31.363  1.00  0.00     0.167 HD
ATOM     58  C   UNL A   1      42.889  29.541  33.851  1.00  0.00     0.074 A 
ATOM     59  C   UNL A   1      43.017  30.138  35.165  1.00  0.00     0.031 C 
ATOM     60  C   UNL A   1      43.818  28.728  33.291  1.00  0.00     0.034 A 
BRANCH  47  61
ATOM     61  C   UNL A   1      42.155  26.411  27.808  1.00  0.00     0.023 A 
ATOM     62  C   UNL A   1      43.052  26.848  26.812  1.00  0.00     0.012 A 
ATOM     63  C   UNL A   1      41.625  25.108  27.738  1.00  0.00     0.148 A 
ATOM     64  C   UNL A   1      43.392  26.016  25.747  1.00  0.00     0.002 A 
ATOM     65  C   UNL A   1      42.002  24.269  26.695  1.00  0.00     0.091 A 
ATOM     66  F   UNL A   1      40.754  24.718  28.679  1.00  0.00    -0.205 F 
ATOM     67  C   UNL A   1      42.875  24.725  25.693  1.00  0.00     0.022 A 
BRANCH  65  68
ATOM     68  S   UNL A   1      41.448  22.563  26.577  1.00  0.00     0.127 S 
ATOM     69  O   UNL A   1      40.009  22.733  26.384  1.00  0.00    -0.237 OA
ATOM     70  O   UNL A   1      42.169  22.084  25.397  1.00  0.00    -0.237 OA
ATOM     71  O   UNL A   1      41.844  21.930  27.827  1.00  0.00    -0.744 OA
ENDBRANCH  65  68
ENDBRANCH  47  61
BRANCH  48  72
ATOM     72  C   UNL A   1      39.394  32.302  35.388  1.00  0.00     0.023 A 
ATOM     73  C   UNL A   1      38.524  31.761  36.355  1.00  0.00     0.012 A 
ATOM     74  C   UNL A   1      39.867  33.619  35.549  1.00  0.00     0.148 A 
ATOM     75  C   UNL A   1      38.111  32.524  37.447  1.00  0.00     0.002 A 
ATOM     76  C   UNL A   1      39.493  34.356  36.667  1.00  0.00     0.091 A 
ATOM     77  F   UNL A   1      40.683  34.120  34.611  1.00  0.00    -0.205 F 
ATOM     78  C   UNL A   1      38.603  33.817  37.609  1.00  0.00     0.022 A 
BRANCH  76  79
ATOM     79  S   UNL A   1      40.183  35.977  37.021  1.00  0.00     0.127 S 
ATOM     80  O   UNL A   1      41.610  35.682  37.107  1.00  0.00    -0.237 OA
ATOM     81  O   UNL A   1      39.782  36.744  35.840  1.00  0.00    -0.237 OA
ATOM     82  O   UNL A   1      39.547  36.409  38.258  1.00  0.00    -0.744 OA
ENDBRANCH  76  79
ENDBRANCH  48  72
BRANCH  60  83
ATOM     83  C   UNL A   1      45.071  28.452  34.078  1.00  0.00     0.023 A 
ATOM     84  C   UNL A   1      46.073  29.438  34.161  1.00  0.00     0.012 A 
ATOM     85  C   UNL A   1      45.219  27.251  34.800  1.00  0.00     0.148 A 
ATOM     86  C   UNL A   1      47.217  29.224  34.929  1.00  0.00     0.002 A 
ATOM     87  C   UNL A   1      46.341  27.063  35.599  1.00  0.00     0.091 A 
ATOM     88  F   UNL A   1      44.264  26.316  34.691  1.00  0.00    -0.205 F 
ATOM     89  C   UNL A   1      47.345  28.042  35.657  1.00  0.00     0.022 A 
BRANCH  87  90
ATOM     90  S   UNL A   1      46.542  25.614  36.642  1.00  0.00     0.127 S 
ATOM     91  O   UNL A   1      45.328  25.662  37.456  1.00  0.00    -0.237 OA
ATOM     92  O   UNL A   1      46.576  24.526  35.664  1.00  0.00    -0.237 OA
ATOM     93  O   UNL A   1      47.791  25.812  37.364  1.00  0.00    -0.744 OA
ENDBRANCH  87  90
ENDBRANCH  60  83
ENDBRANCH  34  35
ENDBRANCH  26  29
ENDBRANCH  24  25
ENDBRANCH  23  24
ENDBRANCH  22  23
ENDBRANCH   1  22
TORSDOF 19
ENDMDL
