MODEL 1
REMARK VINA RESULT:      -8.6      0.000      0.000
REMARK SMILES CCCCCCNC(=O)Oc1cccc(-c2ccc([C@@H](C)C(=O)NCCCCNC(=O)c3ccc(-c4c5nc(c(-c6cccc(S(=O)(=O)[O-])c6F)c6ccc([nH]6)c(-c6cccc(S(=O)(=O)[O-])c6F)c6nc(c(-c7cccc(S(=O)(=O)[O-])c7F)c7ccc4[nH]7)C=C6)C=C5)cc3)cc2)c1
REMARK SMILES IDX 20 1 21 2 19 3 16 4 17 5 96 6 18 7 95 8 15 9 11 10 12 11
REMARK SMILES IDX 97 12 13 13 14 14 10 15 8 16 7 17 9 19 6 20 5 21 4 22 3 23
REMARK SMILES IDX 2 24 1 25 22 26 23 27 24 28 25 30 26 31 27 32 28 33 29 34
REMARK SMILES IDX 30 35 31 37 32 38 33 39 94 40 34 41 93 42 35 43 36 44 37 45
REMARK SMILES IDX 87 46 38 47 92 48 86 49 88 50 39 51 91 52 85 53 84 54 40 56
REMARK SMILES IDX 72 57 52 58 71 59 53 60 56 61 70 62 89 63 54 64 55 65 69 67
REMARK SMILES IDX 90 68 57 69 41 70 42 71 50 72 43 73 45 74 51 75 44 76 46 77
REMARK SMILES IDX 47 78 48 79 49 80 73 81 74 82 82 83 75 84 77 85 83 86 76 87
REMARK SMILES IDX 78 88 79 89 80 90 81 91 58 92 59 93 67 94 60 95 62 96 68 97
REMARK SMILES IDX 61 98 63 99 64 100 65 101 66 102
REMARK H PARENT 7 18 24 29 29 36 88 55 56 66
REMARK Flexibility Score: inf
ROOT
ATOM      1  C   UNL A   1      41.547  24.254  26.520  1.00  0.00     0.105 C 
ATOM      2  C   UNL A   1      42.677  24.388  25.498  1.00  0.00     0.023 C 
ENDROOT
BRANCH   1   3
ATOM      3  C   UNL A   1      40.991  25.561  27.060  1.00  0.00    -0.036 A 
ATOM      4  C   UNL A   1      39.804  28.009  27.948  1.00  0.00    -0.018 A 
ATOM      5  C   UNL A   1      39.836  26.864  28.758  1.00  0.00     0.009 A 
ATOM      6  C   UNL A   1      40.408  27.904  26.685  1.00  0.00     0.009 A 
ATOM      7  C   UNL A   1      40.458  25.683  28.342  1.00  0.00     0.005 A 
ATOM      8  C   UNL A   1      40.970  26.699  26.239  1.00  0.00     0.005 A 
BRANCH   4   9
ATOM      9  C   UNL A   1      39.160  29.257  28.422  1.00  0.00    -0.015 A 
ATOM     10  C   UNL A   1      37.365  30.897  28.359  1.00  0.00     0.133 A 
ATOM     11  C   UNL A   1      37.963  31.651  29.363  1.00  0.00     0.047 A 
ATOM     12  C   UNL A   1      37.945  29.715  27.887  1.00  0.00     0.056 A 
ATOM     13  C   UNL A   1      39.159  31.212  29.912  1.00  0.00     0.004 A 
ATOM     14  C   UNL A   1      39.753  30.038  29.437  1.00  0.00     0.009 A 
BRANCH  10  15
ATOM     15  O   UNL A   1      36.234  31.453  27.744  1.00  0.00    -0.410 OA
BRANCH  15  16
ATOM     16  C   UNL A   1      34.982  30.994  28.121  1.00  0.00     0.412 C 
ATOM     17  N   UNL A   1      34.218  31.970  28.700  1.00  0.00    -0.321 N 
ATOM     18  H   UNL A   1      33.324  31.704  29.015  1.00  0.00     0.167 HD
ATOM     19  O   UNL A   1      34.557  29.855  27.981  1.00  0.00    -0.224 OA
BRANCH  17  20
ATOM     20  C   UNL A   1      34.594  33.355  28.899  1.00  0.00     0.119 C 
BRANCH  20  21
ATOM     21  C   UNL A   1      35.029  33.626  30.338  1.00  0.00     0.021 C 
BRANCH  21  22
ATOM     22  C   UNL A   1      34.756  32.475  31.314  1.00  0.00     0.002 C 
BRANCH  22  23
ATOM     23  C   UNL A   1      35.641  32.449  32.564  1.00  0.00    -0.000 C 
BRANCH  23  24
ATOM     24  C   UNL A   1      36.806  33.442  32.564  1.00  0.00    -0.003 C 
ATOM     25  C   UNL A   1      36.623  34.583  33.553  1.00  0.00     0.004 C 
ENDBRANCH  23  24
ENDBRANCH  22  23
ENDBRANCH  21  22
ENDBRANCH  20  21
ENDBRANCH  17  20
ENDBRANCH  15  16
ENDBRANCH  10  15
ENDBRANCH   4   9
ENDBRANCH   1   3
BRANCH   1  26
ATOM     26  C   UNL A   1      41.807  23.192  27.600  1.00  0.00     0.227 C 
ATOM     27  O   UNL A   1      41.055  22.213  27.684  1.00  0.00    -0.274 OA
ATOM     28  N   UNL A   1      42.847  23.237  28.477  1.00  0.00    -0.356 N 
ATOM     29  H   UNL A   1      42.915  22.450  29.064  1.00  0.00     0.163 HD
BRANCH  28  30
ATOM     30  C   UNL A   1      43.873  24.234  28.702  1.00  0.00     0.116 C 
BRANCH  30  31
ATOM     31  C   UNL A   1      45.282  23.649  28.590  1.00  0.00     0.023 C 
BRANCH  31  32
ATOM     32  C   UNL A   1      45.910  23.744  27.201  1.00  0.00     0.023 C 
BRANCH  32  33
ATOM     33  C   UNL A   1      47.206  24.544  27.131  1.00  0.00     0.116 C 
BRANCH  33  34
ATOM     34  N   UNL A   1      47.453  25.164  25.835  1.00  0.00    -0.352 N 
ATOM     35  C   UNL A   1      47.002  26.387  25.387  1.00  0.00     0.251 C 
ATOM     36  H   UNL A   1      48.008  24.650  25.207  1.00  0.00     0.163 HD
ATOM     37  O   UNL A   1      47.223  26.752  24.237  1.00  0.00    -0.269 OA
BRANCH  35  38
ATOM     38  C   UNL A   1      46.209  27.228  26.306  1.00  0.00     0.039 A 
ATOM     39  C   UNL A   1      44.816  27.132  26.286  1.00  0.00     0.014 A 
ATOM     40  C   UNL A   1      46.851  28.037  27.247  1.00  0.00     0.014 A 
ATOM     41  C   UNL A   1      44.069  27.790  27.263  1.00  0.00     0.010 A 
ATOM     42  C   UNL A   1      46.113  28.614  28.272  1.00  0.00     0.010 A 
ATOM     43  C   UNL A   1      44.714  28.502  28.290  1.00  0.00    -0.014 A 
BRANCH  43  44
ATOM     44  C   UNL A   1      43.949  29.125  29.399  1.00  0.00     0.031 A 
ATOM     45  C   UNL A   1      43.543  30.571  29.317  1.00  0.00     0.074 A 
ATOM     46  C   UNL A   1      43.716  28.423  30.527  1.00  0.00     0.049 A 
ATOM     47  N   UNL A   1      42.931  31.307  30.206  1.00  0.00    -0.248 NA
ATOM     48  C   UNL A   1      43.908  31.297  28.088  1.00  0.00     0.031 C 
ATOM     49  C   UNL A   1      44.153  27.047  30.774  1.00  0.00     0.029 A 
ATOM     50  N   UNL A   1      43.084  28.783  31.692  1.00  0.00    -0.354 N 
ATOM     51  C   UNL A   1      42.879  32.588  29.669  1.00  0.00     0.074 A 
ATOM     52  C   UNL A   1      43.555  32.538  28.392  1.00  0.00     0.031 C 
ATOM     53  C   UNL A   1      43.777  26.680  32.008  1.00  0.00     0.029 A 
ATOM     54  C   UNL A   1      43.098  27.800  32.653  1.00  0.00     0.049 A 
ATOM     55  H   UNL A   1      42.661  29.662  31.826  1.00  0.00     0.167 HD
ATOM     56  C   UNL A   1      42.297  33.699  30.177  1.00  0.00     0.034 A 
ATOM     57  C   UNL A   1      42.627  27.802  33.916  1.00  0.00     0.034 A 
ATOM     58  C   UNL A   1      41.580  33.730  31.422  1.00  0.00     0.049 A 
ATOM     59  C   UNL A   1      41.918  29.024  34.429  1.00  0.00     0.074 A 
ATOM     60  C   UNL A   1      40.848  34.771  31.967  1.00  0.00     0.029 A 
ATOM     61  N   UNL A   1      41.516  32.680  32.324  1.00  0.00    -0.354 N 
ATOM     62  N   UNL A   1      41.712  30.171  33.828  1.00  0.00    -0.248 NA
ATOM     63  C   UNL A   1      41.341  28.943  35.779  1.00  0.00     0.031 C 
ATOM     64  C   UNL A   1      40.368  34.358  33.215  1.00  0.00     0.029 A 
ATOM     65  C   UNL A   1      40.772  33.050  33.431  1.00  0.00     0.049 A 
ATOM     66  H   UNL A   1      41.939  31.799  32.197  1.00  0.00     0.167 HD
ATOM     67  C   UNL A   1      40.956  30.935  34.710  1.00  0.00     0.074 A 
ATOM     68  C   UNL A   1      40.723  30.112  35.879  1.00  0.00     0.031 C 
ATOM     69  C   UNL A   1      40.508  32.207  34.569  1.00  0.00     0.034 A 
BRANCH  56  70
ATOM     70  C   UNL A   1      42.373  34.963  29.361  1.00  0.00     0.023 A 
ATOM     71  C   UNL A   1      41.410  35.210  28.360  1.00  0.00     0.012 A 
ATOM     72  C   UNL A   1      43.370  35.926  29.611  1.00  0.00     0.148 A 
ATOM     73  C   UNL A   1      41.466  36.372  27.592  1.00  0.00     0.002 A 
ATOM     74  C   UNL A   1      43.389  37.104  28.875  1.00  0.00     0.091 A 
ATOM     75  F   UNL A   1      44.291  35.665  30.550  1.00  0.00    -0.205 F 
ATOM     76  C   UNL A   1      42.447  37.323  27.856  1.00  0.00     0.022 A 
BRANCH  74  77
ATOM     77  S   UNL A   1      44.560  38.427  29.197  1.00  0.00     0.127 S 
ATOM     78  O   UNL A   1      45.822  37.692  29.268  1.00  0.00    -0.237 OA
ATOM     79  O   UNL A   1      44.411  39.267  28.009  1.00  0.00    -0.237 OA
ATOM     80  O   UNL A   1      44.128  39.050  30.439  1.00  0.00    -0.744 OA
ENDBRANCH  74  77
ENDBRANCH  56  70
BRANCH  57  81
ATOM     81  C   UNL A   1      42.761  26.578  34.756  1.00  0.00     0.023 A 
ATOM     82  C   UNL A   1      41.676  25.687  34.864  1.00  0.00     0.012 A 
ATOM     83  C   UNL A   1      43.972  26.270  35.405  1.00  0.00     0.148 A 
ATOM     84  C   UNL A   1      41.786  24.523  35.627  1.00  0.00     0.002 A 
ATOM     85  C   UNL A   1      44.092  25.081  36.117  1.00  0.00     0.091 A 
ATOM     86  F   UNL A   1      44.989  27.135  35.295  1.00  0.00    -0.205 F 
ATOM     87  C   UNL A   1      42.995  24.215  36.243  1.00  0.00     0.022 A 
BRANCH  85  88
ATOM     88  S   UNL A   1      45.648  24.536  36.831  1.00  0.00     0.127 S 
ATOM     89  O   UNL A   1      45.954  25.629  37.750  1.00  0.00    -0.237 OA
ATOM     90  O   UNL A   1      45.259  23.280  37.472  1.00  0.00    -0.237 OA
ATOM     91  O   UNL A   1      46.564  24.381  35.708  1.00  0.00    -0.744 OA
ENDBRANCH  85  88
ENDBRANCH  57  81
BRANCH  69  92
ATOM     92  C   UNL A   1      39.689  32.790  35.691  1.00  0.00     0.023 A 
ATOM     93  C   UNL A   1      38.336  32.427  35.836  1.00  0.00     0.012 A 
ATOM     94  C   UNL A   1      40.286  33.634  36.649  1.00  0.00     0.148 A 
ATOM     95  C   UNL A   1      37.581  32.918  36.900  1.00  0.00     0.002 A 
ATOM     96  C   UNL A   1      39.541  34.079  37.735  1.00  0.00     0.091 A 
ATOM     97  F   UNL A   1      41.570  33.984  36.483  1.00  0.00    -0.205 F 
ATOM     98  C   UNL A   1      38.186  33.733  37.855  1.00  0.00     0.022 A 
BRANCH  96  99
ATOM     99  S   UNL A   1      40.264  35.047  39.064  1.00  0.00     0.127 S 
ATOM    100  O   UNL A   1      40.845  36.171  38.332  1.00  0.00    -0.237 OA
ATOM    101  O   UNL A   1      39.092  35.387  39.873  1.00  0.00    -0.237 OA
ATOM    102  O   UNL A   1      41.221  34.171  39.727  1.00  0.00    -0.744 OA
ENDBRANCH  96  99
ENDBRANCH  69  92
ENDBRANCH  43  44
ENDBRANCH  35  38
ENDBRANCH  33  34
ENDBRANCH  32  33
ENDBRANCH  31  32
ENDBRANCH  30  31
ENDBRANCH  28  30
ENDBRANCH   1  26
TORSDOF 23
ENDMDL
MODEL 2
REMARK VINA RESULT:      -8.3      1.909      2.582
REMARK SMILES CCCCCCNC(=O)Oc1cccc(-c2ccc([C@@H](C)C(=O)NCCCCNC(=O)c3ccc(-c4c5nc(c(-c6cccc(S(=O)(=O)[O-])c6F)c6ccc([nH]6)c(-c6cccc(S(=O)(=O)[O-])c6F)c6nc(c(-c7cccc(S(=O)(=O)[O-])c7F)c7ccc4[nH]7)C=C6)C=C5)cc3)cc2)c1
REMARK SMILES IDX 20 1 21 2 19 3 16 4 17 5 96 6 18 7 95 8 15 9 11 10 12 11
REMARK SMILES IDX 97 12 13 13 14 14 10 15 8 16 7 17 9 19 6 20 5 21 4 22 3 23
REMARK SMILES IDX 2 24 1 25 22 26 23 27 24 28 25 30 26 31 27 32 28 33 29 34
REMARK SMILES IDX 30 35 31 37 32 38 33 39 94 40 34 41 93 42 35 43 36 44 37 45
REMARK SMILES IDX 87 46 38 47 92 48 86 49 88 50 39 51 91 52 85 53 84 54 40 56
REMARK SMILES IDX 72 57 52 58 71 59 53 60 56 61 70 62 89 63 54 64 55 65 69 67
REMARK SMILES IDX 90 68 57 69 41 70 42 71 50 72 43 73 45 74 51 75 44 76 46 77
REMARK SMILES IDX 47 78 48 79 49 80 73 81 74 82 82 83 75 84 77 85 83 86 76 87
REMARK SMILES IDX 78 88 79 89 80 90 81 91 58 92 59 93 67 94 60 95 62 96 68 97
REMARK SMILES IDX 61 98 63 99 64 100 65 101 66 102
REMARK H PARENT 7 18 24 29 29 36 88 55 56 66
REMARK Flexibility Score: inf
ROOT
ATOM      1  C   UNL A   1      42.177  22.118  27.359  1.00  0.00     0.105 C 
ATOM      2  C   UNL A   1      41.592  21.048  28.282  1.00  0.00     0.023 C 
ENDROOT
BRANCH   1   3
ATOM      3  C   UNL A   1      41.795  23.551  27.692  1.00  0.00    -0.036 A 
ATOM      4  C   UNL A   1      40.922  26.181  28.405  1.00  0.00    -0.018 A 
ATOM      5  C   UNL A   1      42.070  25.604  28.967  1.00  0.00     0.009 A 
ATOM      6  C   UNL A   1      40.233  25.414  27.452  1.00  0.00     0.009 A 
ATOM      7  C   UNL A   1      42.523  24.339  28.583  1.00  0.00     0.005 A 
ATOM      8  C   UNL A   1      40.646  24.116  27.118  1.00  0.00     0.005 A 
BRANCH   4   9
ATOM      9  C   UNL A   1      40.476  27.536  28.810  1.00  0.00    -0.015 A 
ATOM     10  C   UNL A   1      40.072  29.240  30.497  1.00  0.00     0.133 A 
ATOM     11  C   UNL A   1      39.618  30.140  29.538  1.00  0.00     0.047 A 
ATOM     12  C   UNL A   1      40.498  27.955  30.150  1.00  0.00     0.056 A 
ATOM     13  C   UNL A   1      39.598  29.751  28.207  1.00  0.00     0.004 A 
ATOM     14  C   UNL A   1      40.009  28.462  27.852  1.00  0.00     0.009 A 
BRANCH  10  15
ATOM     15  O   UNL A   1      39.943  29.632  31.838  1.00  0.00    -0.410 OA
BRANCH  15  16
ATOM     16  C   UNL A   1      39.410  28.730  32.743  1.00  0.00     0.412 C 
ATOM     17  N   UNL A   1      38.083  28.956  32.989  1.00  0.00    -0.321 N 
ATOM     18  H   UNL A   1      37.647  28.364  33.645  1.00  0.00     0.167 HD
ATOM     19  O   UNL A   1      40.011  27.819  33.296  1.00  0.00    -0.224 OA
BRANCH  17  20
ATOM     20  C   UNL A   1      37.256  29.979  32.383  1.00  0.00     0.119 C 
BRANCH  20  21
ATOM     21  C   UNL A   1      37.209  31.249  33.232  1.00  0.00     0.021 C 
BRANCH  21  22
ATOM     22  C   UNL A   1      36.787  32.510  32.468  1.00  0.00     0.002 C 
BRANCH  22  23
ATOM     23  C   UNL A   1      37.813  33.044  31.463  1.00  0.00    -0.000 C 
BRANCH  23  24
ATOM     24  C   UNL A   1      37.314  33.174  30.023  1.00  0.00    -0.003 C 
ATOM     25  C   UNL A   1      38.250  33.976  29.133  1.00  0.00     0.004 C 
ENDBRANCH  23  24
ENDBRANCH  22  23
ENDBRANCH  21  22
ENDBRANCH  20  21
ENDBRANCH  17  20
ENDBRANCH  15  16
ENDBRANCH  10  15
ENDBRANCH   4   9
ENDBRANCH   1   3
BRANCH   1  26
ATOM     26  C   UNL A   1      42.077  21.776  25.865  1.00  0.00     0.227 C 
ATOM     27  O   UNL A   1      40.980  21.463  25.384  1.00  0.00    -0.274 OA
ATOM     28  N   UNL A   1      43.129  21.820  25.002  1.00  0.00    -0.356 N 
ATOM     29  H   UNL A   1      42.891  21.637  24.064  1.00  0.00     0.163 HD
BRANCH  28  30
ATOM     30  C   UNL A   1      44.536  22.087  25.214  1.00  0.00     0.116 C 
BRANCH  30  31
ATOM     31  C   UNL A   1      44.827  23.583  25.341  1.00  0.00     0.023 C 
BRANCH  31  32
ATOM     32  C   UNL A   1      45.575  23.988  26.610  1.00  0.00     0.023 C 
BRANCH  32  33
ATOM     33  C   UNL A   1      46.957  24.588  26.382  1.00  0.00     0.116 C 
BRANCH  33  34
ATOM     34  N   UNL A   1      47.097  25.301  25.118  1.00  0.00    -0.352 N 
ATOM     35  C   UNL A   1      46.665  26.574  24.817  1.00  0.00     0.251 C 
ATOM     36  H   UNL A   1      47.554  24.816  24.395  1.00  0.00     0.163 HD
ATOM     37  O   UNL A   1      46.780  27.021  23.681  1.00  0.00    -0.269 OA
BRANCH  35  38
ATOM     38  C   UNL A   1      46.019  27.372  25.879  1.00  0.00     0.039 A 
ATOM     39  C   UNL A   1      44.631  27.317  26.023  1.00  0.00     0.014 A 
ATOM     40  C   UNL A   1      46.799  28.093  26.787  1.00  0.00     0.014 A 
ATOM     41  C   UNL A   1      44.031  27.927  27.125  1.00  0.00     0.010 A 
ATOM     42  C   UNL A   1      46.210  28.618  27.930  1.00  0.00     0.010 A 
ATOM     43  C   UNL A   1      44.820  28.545  28.110  1.00  0.00    -0.014 A 
BRANCH  43  44
ATOM     44  C   UNL A   1      44.217  29.111  29.344  1.00  0.00     0.031 A 
ATOM     45  C   UNL A   1      43.803  30.557  29.387  1.00  0.00     0.074 A 
ATOM     46  C   UNL A   1      44.143  28.356  30.458  1.00  0.00     0.049 A 
ATOM     47  N   UNL A   1      43.321  31.246  30.386  1.00  0.00    -0.248 NA
ATOM     48  C   UNL A   1      43.993  31.342  28.155  1.00  0.00     0.031 C 
ATOM     49  C   UNL A   1      44.611  26.973  30.577  1.00  0.00     0.029 A 
ATOM     50  N   UNL A   1      43.680  28.656  31.715  1.00  0.00    -0.354 N 
ATOM     51  C   UNL A   1      43.196  32.550  29.923  1.00  0.00     0.074 A 
ATOM     52  C   UNL A   1      43.686  32.564  28.563  1.00  0.00     0.031 C 
ATOM     53  C   UNL A   1      44.410  26.546  31.833  1.00  0.00     0.029 A 
ATOM     54  C   UNL A   1      43.828  27.629  32.618  1.00  0.00     0.049 A 
ATOM     55  H   UNL A   1      43.279  29.526  31.948  1.00  0.00     0.167 HD
ATOM     56  C   UNL A   1      42.690  33.633  30.559  1.00  0.00     0.034 A 
ATOM     57  C   UNL A   1      43.537  27.569  33.933  1.00  0.00     0.034 A 
ATOM     58  C   UNL A   1      42.153  33.601  31.891  1.00  0.00     0.049 A 
ATOM     59  C   UNL A   1      42.906  28.762  34.597  1.00  0.00     0.074 A 
ATOM     60  C   UNL A   1      41.504  34.610  32.581  1.00  0.00     0.029 A 
ATOM     61  N   UNL A   1      42.215  32.509  32.743  1.00  0.00    -0.354 N 
ATOM     62  N   UNL A   1      42.618  29.934  34.085  1.00  0.00    -0.248 NA
ATOM     63  C   UNL A   1      42.523  28.614  36.008  1.00  0.00     0.031 C 
ATOM     64  C   UNL A   1      41.202  34.136  33.863  1.00  0.00     0.029 A 
ATOM     65  C   UNL A   1      41.632  32.823  33.959  1.00  0.00     0.049 A 
ATOM     66  H   UNL A   1      42.616  31.638  32.517  1.00  0.00     0.167 HD
ATOM     67  C   UNL A   1      41.993  30.651  35.098  1.00  0.00     0.074 A 
ATOM     68  C   UNL A   1      41.924  29.773  36.249  1.00  0.00     0.031 C 
ATOM     69  C   UNL A   1      41.530  31.925  35.081  1.00  0.00     0.034 A 
BRANCH  56  70
ATOM     70  C   UNL A   1      42.651  34.934  29.801  1.00  0.00     0.023 A 
ATOM     71  C   UNL A   1      41.595  35.191  28.902  1.00  0.00     0.012 A 
ATOM     72  C   UNL A   1      43.636  35.919  30.007  1.00  0.00     0.148 A 
ATOM     73  C   UNL A   1      41.543  36.388  28.189  1.00  0.00     0.002 A 
ATOM     74  C   UNL A   1      43.550  37.130  29.329  1.00  0.00     0.091 A 
ATOM     75  F   UNL A   1      44.646  35.650  30.847  1.00  0.00    -0.205 F 
ATOM     76  C   UNL A   1      42.513  37.360  28.410  1.00  0.00     0.022 A 
BRANCH  74  77
ATOM     77  S   UNL A   1      44.703  38.478  29.609  1.00  0.00     0.127 S 
ATOM     78  O   UNL A   1      44.282  39.442  28.594  1.00  0.00    -0.237 OA
ATOM     79  O   UNL A   1      44.395  38.867  30.985  1.00  0.00    -0.237 OA
ATOM     80  O   UNL A   1      46.032  37.913  29.422  1.00  0.00    -0.744 OA
ENDBRANCH  74  77
ENDBRANCH  56  70
BRANCH  57  81
ATOM     81  C   UNL A   1      43.787  26.309  34.688  1.00  0.00     0.023 A 
ATOM     82  C   UNL A   1      42.777  25.329  34.757  1.00  0.00     0.012 A 
ATOM     83  C   UNL A   1      45.033  26.056  35.291  1.00  0.00     0.148 A 
ATOM     84  C   UNL A   1      42.996  24.131  35.439  1.00  0.00     0.002 A 
ATOM     85  C   UNL A   1      45.263  24.838  35.920  1.00  0.00     0.091 A 
ATOM     86  F   UNL A   1      45.976  27.005  35.219  1.00  0.00    -0.205 F 
ATOM     87  C   UNL A   1      44.241  23.880  36.010  1.00  0.00     0.022 A 
BRANCH  85  88
ATOM     88  S   UNL A   1      46.874  24.374  36.567  1.00  0.00     0.127 S 
ATOM     89  O   UNL A   1      46.803  24.875  37.936  1.00  0.00    -0.237 OA
ATOM     90  O   UNL A   1      46.838  22.917  36.441  1.00  0.00    -0.237 OA
ATOM     91  O   UNL A   1      47.848  25.029  35.704  1.00  0.00    -0.744 OA
ENDBRANCH  85  88
ENDBRANCH  57  81
BRANCH  69  92
ATOM     92  C   UNL A   1      40.874  32.450  36.332  1.00  0.00     0.023 A 
ATOM     93  C   UNL A   1      41.573  33.339  37.172  1.00  0.00     0.012 A 
ATOM     94  C   UNL A   1      39.535  32.125  36.629  1.00  0.00     0.148 A 
ATOM     95  C   UNL A   1      40.960  33.873  38.305  1.00  0.00     0.002 A 
ATOM     96  C   UNL A   1      38.915  32.701  37.731  1.00  0.00     0.091 A 
ATOM     97  F   UNL A   1      38.893  31.263  35.828  1.00  0.00    -0.205 F 
ATOM     98  C   UNL A   1      39.628  33.564  38.577  1.00  0.00     0.022 A 
BRANCH  96  99
ATOM     99  S   UNL A   1      37.176  32.441  38.100  1.00  0.00     0.127 S 
ATOM    100  O   UNL A   1      36.530  33.073  36.951  1.00  0.00    -0.237 OA
ATOM    101  O   UNL A   1      37.079  30.980  38.126  1.00  0.00    -0.237 OA
ATOM    102  O   UNL A   1      36.935  33.084  39.384  1.00  0.00    -0.744 OA
ENDBRANCH  96  99
ENDBRANCH  69  92
ENDBRANCH  43  44
ENDBRANCH  35  38
ENDBRANCH  33  34
ENDBRANCH  32  33
ENDBRANCH  31  32
ENDBRANCH  30  31
ENDBRANCH  28  30
ENDBRANCH   1  26
TORSDOF 23
ENDMDL
MODEL 3
REMARK VINA RESULT:      -8.0      4.922     11.852
REMARK SMILES CCCCCCNC(=O)Oc1cccc(-c2ccc([C@@H](C)C(=O)NCCCCNC(=O)c3ccc(-c4c5nc(c(-c6cccc(S(=O)(=O)[O-])c6F)c6ccc([nH]6)c(-c6cccc(S(=O)(=O)[O-])c6F)c6nc(c(-c7cccc(S(=O)(=O)[O-])c7F)c7ccc4[nH]7)C=C6)C=C5)cc3)cc2)c1
REMARK SMILES IDX 20 1 21 2 19 3 16 4 17 5 96 6 18 7 95 8 15 9 11 10 12 11
REMARK SMILES IDX 97 12 13 13 14 14 10 15 8 16 7 17 9 19 6 20 5 21 4 22 3 23
REMARK SMILES IDX 2 24 1 25 22 26 23 27 24 28 25 30 26 31 27 32 28 33 29 34
REMARK SMILES IDX 30 35 31 37 32 38 33 39 94 40 34 41 93 42 35 43 36 44 37 45
REMARK SMILES IDX 87 46 38 47 92 48 86 49 88 50 39 51 91 52 85 53 84 54 40 56
REMARK SMILES IDX 72 57 52 58 71 59 53 60 56 61 70 62 89 63 54 64 55 65 69 67
REMARK SMILES IDX 90 68 57 69 41 70 42 71 50 72 43 73 45 74 51 75 44 76 46 77
REMARK SMILES IDX 47 78 48 79 49 80 73 81 74 82 82 83 75 84 77 85 83 86 76 87
REMARK SMILES IDX 78 88 79 89 80 90 81 91 58 92 59 93 67 94 60 95 62 96 68 97
REMARK SMILES IDX 61 98 63 99 64 100 65 101 66 102
REMARK H PARENT 7 18 24 29 29 36 88 55 56 66
REMARK Flexibility Score: inf
ROOT
ATOM      1  C   UNL A   1      35.645  31.380  28.436  1.00  0.00     0.105 C 
ATOM      2  C   UNL A   1      37.075  31.223  27.916  1.00  0.00     0.023 C 
ENDROOT
BRANCH   1   3
ATOM      3  C   UNL A   1      34.603  30.497  27.768  1.00  0.00    -0.036 A 
ATOM      4  C   UNL A   1      32.635  28.961  26.369  1.00  0.00    -0.018 A 
ATOM      5  C   UNL A   1      33.951  28.505  26.535  1.00  0.00     0.009 A 
ATOM      6  C   UNL A   1      32.321  30.201  26.948  1.00  0.00     0.009 A 
ATOM      7  C   UNL A   1      34.899  29.233  27.259  1.00  0.00     0.005 A 
ATOM      8  C   UNL A   1      33.290  30.966  27.613  1.00  0.00     0.005 A 
BRANCH   4   9
ATOM      9  C   UNL A   1      31.641  28.157  25.619  1.00  0.00    -0.015 A 
ATOM     10  C   UNL A   1      30.280  26.163  25.332  1.00  0.00     0.133 A 
ATOM     11  C   UNL A   1      29.733  26.656  24.152  1.00  0.00     0.047 A 
ATOM     12  C   UNL A   1      31.220  26.894  26.064  1.00  0.00     0.056 A 
ATOM     13  C   UNL A   1      30.127  27.906  23.699  1.00  0.00     0.004 A 
ATOM     14  C   UNL A   1      31.077  28.639  24.417  1.00  0.00     0.009 A 
BRANCH  10  15
ATOM     15  O   UNL A   1      29.953  24.841  25.672  1.00  0.00    -0.410 OA
BRANCH  15  16
ATOM     16  C   UNL A   1      30.952  24.019  26.168  1.00  0.00     0.412 C 
ATOM     17  N   UNL A   1      31.569  23.294  25.186  1.00  0.00    -0.321 N 
ATOM     18  H   UNL A   1      32.274  22.668  25.473  1.00  0.00     0.167 HD
ATOM     19  O   UNL A   1      31.283  23.910  27.340  1.00  0.00    -0.224 OA
BRANCH  17  20
ATOM     20  C   UNL A   1      31.288  23.351  23.766  1.00  0.00     0.119 C 
BRANCH  20  21
ATOM     21  C   UNL A   1      32.457  23.940  22.978  1.00  0.00     0.021 C 
BRANCH  21  22
ATOM     22  C   UNL A   1      33.353  24.891  23.782  1.00  0.00     0.002 C 
BRANCH  22  23
ATOM     23  C   UNL A   1      34.730  24.334  24.159  1.00  0.00    -0.000 C 
BRANCH  23  24
ATOM     24  C   UNL A   1      35.123  23.029  23.464  1.00  0.00    -0.003 C 
ATOM     25  C   UNL A   1      35.242  21.852  24.420  1.00  0.00     0.004 C 
ENDBRANCH  23  24
ENDBRANCH  22  23
ENDBRANCH  21  22
ENDBRANCH  20  21
ENDBRANCH  17  20
ENDBRANCH  15  16
ENDBRANCH  10  15
ENDBRANCH   4   9
ENDBRANCH   1   3
BRANCH   1  26
ATOM     26  C   UNL A   1      35.203  32.840  28.616  1.00  0.00     0.227 C 
ATOM     27  O   UNL A   1      35.290  33.625  27.663  1.00  0.00    -0.274 OA
ATOM     28  N   UNL A   1      34.684  33.341  29.771  1.00  0.00    -0.356 N 
ATOM     29  H   UNL A   1      34.388  34.278  29.708  1.00  0.00     0.163 HD
BRANCH  28  30
ATOM     30  C   UNL A   1      34.488  32.745  31.075  1.00  0.00     0.116 C 
BRANCH  30  31
ATOM     31  C   UNL A   1      35.177  33.541  32.184  1.00  0.00     0.023 C 
BRANCH  31  32
ATOM     32  C   UNL A   1      36.630  33.151  32.449  1.00  0.00     0.023 C 
BRANCH  32  33
ATOM     33  C   UNL A   1      37.126  31.938  31.671  1.00  0.00     0.116 C 
BRANCH  33  34
ATOM     34  N   UNL A   1      37.234  30.723  32.470  1.00  0.00    -0.352 N 
ATOM     35  C   UNL A   1      38.337  29.912  32.625  1.00  0.00     0.251 C 
ATOM     36  H   UNL A   1      36.423  30.450  32.957  1.00  0.00     0.163 HD
ATOM     37  O   UNL A   1      38.262  28.871  33.269  1.00  0.00    -0.269 OA
BRANCH  35  38
ATOM     38  C   UNL A   1      39.598  30.299  31.962  1.00  0.00     0.039 A 
ATOM     39  C   UNL A   1      39.710  30.156  30.577  1.00  0.00     0.014 A 
ATOM     40  C   UNL A   1      40.626  30.890  32.700  1.00  0.00     0.014 A 
ATOM     41  C   UNL A   1      40.827  30.678  29.922  1.00  0.00     0.010 A 
ATOM     42  C   UNL A   1      41.689  31.488  32.036  1.00  0.00     0.010 A 
ATOM     43  C   UNL A   1      41.804  31.386  30.642  1.00  0.00    -0.014 A 
BRANCH  43  44
ATOM     44  C   UNL A   1      42.949  32.039  29.957  1.00  0.00     0.031 A 
ATOM     45  C   UNL A   1      44.205  31.261  29.677  1.00  0.00     0.074 A 
ATOM     46  C   UNL A   1      42.901  33.359  29.686  1.00  0.00     0.049 A 
ATOM     47  N   UNL A   1      45.328  31.670  29.150  1.00  0.00    -0.248 NA
ATOM     48  C   UNL A   1      44.215  29.843  30.079  1.00  0.00     0.031 C 
ATOM     49  C   UNL A   1      41.782  34.249  30.007  1.00  0.00     0.029 A 
ATOM     50  N   UNL A   1      43.830  34.191  29.113  1.00  0.00    -0.354 N 
ATOM     51  C   UNL A   1      46.191  30.582  29.200  1.00  0.00     0.074 A 
ATOM     52  C   UNL A   1      45.473  29.503  29.842  1.00  0.00     0.031 C 
ATOM     53  C   UNL A   1      42.090  35.498  29.626  1.00  0.00     0.029 A 
ATOM     54  C   UNL A   1      43.435  35.507  29.061  1.00  0.00     0.049 A 
ATOM     55  H   UNL A   1      44.698  33.875  28.771  1.00  0.00     0.167 HD
ATOM     56  C   UNL A   1      47.455  30.477  28.728  1.00  0.00     0.034 A 
ATOM     57  C   UNL A   1      44.086  36.601  28.618  1.00  0.00     0.034 A 
ATOM     58  C   UNL A   1      48.144  31.535  28.042  1.00  0.00     0.049 A 
ATOM     59  C   UNL A   1      45.461  36.445  28.029  1.00  0.00     0.074 A 
ATOM     60  C   UNL A   1      49.377  31.494  27.415  1.00  0.00     0.029 A 
ATOM     61  N   UNL A   1      47.669  32.830  27.905  1.00  0.00    -0.354 N 
ATOM     62  N   UNL A   1      46.189  35.360  27.912  1.00  0.00    -0.248 NA
ATOM     63  C   UNL A   1      46.090  37.652  27.475  1.00  0.00     0.031 C 
ATOM     64  C   UNL A   1      49.660  32.774  26.927  1.00  0.00     0.029 A 
ATOM     65  C   UNL A   1      48.590  33.603  27.219  1.00  0.00     0.049 A 
ATOM     66  H   UNL A   1      46.803  33.153  28.246  1.00  0.00     0.167 HD
ATOM     67  C   UNL A   1      47.345  35.747  27.244  1.00  0.00     0.074 A 
ATOM     68  C   UNL A   1      47.212  37.162  26.964  1.00  0.00     0.031 C 
ATOM     69  C   UNL A   1      48.426  34.999  26.906  1.00  0.00     0.034 A 
BRANCH  56  70
ATOM     70  C   UNL A   1      48.158  29.155  28.897  1.00  0.00     0.023 A 
ATOM     71  C   UNL A   1      48.943  28.920  30.045  1.00  0.00     0.012 A 
ATOM     72  C   UNL A   1      48.009  28.130  27.943  1.00  0.00     0.148 A 
ATOM     73  C   UNL A   1      49.604  27.705  30.219  1.00  0.00     0.002 A 
ATOM     74  C   UNL A   1      48.630  26.904  28.148  1.00  0.00     0.091 A 
ATOM     75  F   UNL A   1      47.277  28.377  26.847  1.00  0.00    -0.205 F 
ATOM     76  C   UNL A   1      49.439  26.694  29.277  1.00  0.00     0.022 A 
BRANCH  74  77
ATOM     77  S   UNL A   1      48.410  25.511  27.035  1.00  0.00     0.127 S 
ATOM     78  O   UNL A   1      46.961  25.322  27.083  1.00  0.00    -0.237 OA
ATOM     79  O   UNL A   1      48.913  26.045  25.770  1.00  0.00    -0.237 OA
ATOM     80  O   UNL A   1      49.203  24.425  27.593  1.00  0.00    -0.744 OA
ENDBRANCH  74  77
ENDBRANCH  56  70
BRANCH  57  81
ATOM     81  C   UNL A   1      43.413  37.930  28.662  1.00  0.00     0.023 A 
ATOM     82  C   UNL A   1      42.463  38.261  27.676  1.00  0.00     0.012 A 
ATOM     83  C   UNL A   1      43.672  38.843  29.702  1.00  0.00     0.148 A 
ATOM     84  C   UNL A   1      41.803  39.490  27.709  1.00  0.00     0.002 A 
ATOM     85  C   UNL A   1      42.969  40.042  29.760  1.00  0.00     0.091 A 
ATOM     86  F   UNL A   1      44.584  38.511  30.625  1.00  0.00    -0.205 F 
ATOM     87  C   UNL A   1      42.047  40.375  28.756  1.00  0.00     0.022 A 
BRANCH  85  88
ATOM     88  S   UNL A   1      43.119  41.182  31.140  1.00  0.00     0.127 S 
ATOM     89  O   UNL A   1      42.456  40.444  32.211  1.00  0.00    -0.237 OA
ATOM     90  O   UNL A   1      44.571  41.297  31.277  1.00  0.00    -0.237 OA
ATOM     91  O   UNL A   1      42.456  42.407  30.713  1.00  0.00    -0.744 OA
ENDBRANCH  85  88
ENDBRANCH  57  81
BRANCH  69  92
ATOM     92  C   UNL A   1      49.545  35.681  26.164  1.00  0.00     0.023 A 
ATOM     93  C   UNL A   1      49.633  35.568  24.763  1.00  0.00     0.012 A 
ATOM     94  C   UNL A   1      50.462  36.503  26.851  1.00  0.00     0.148 A 
ATOM     95  C   UNL A   1      50.633  36.237  24.059  1.00  0.00     0.002 A 
ATOM     96  C   UNL A   1      51.425  37.206  26.137  1.00  0.00     0.091 A 
ATOM     97  F   UNL A   1      50.375  36.583  28.186  1.00  0.00    -0.205 F 
ATOM     98  C   UNL A   1      51.520  37.065  24.744  1.00  0.00     0.022 A 
BRANCH  96  99
ATOM     99  S   UNL A   1      52.543  38.373  26.924  1.00  0.00     0.127 S 
ATOM    100  O   UNL A   1      53.269  38.910  25.774  1.00  0.00    -0.237 OA
ATOM    101  O   UNL A   1      51.616  39.314  27.554  1.00  0.00    -0.237 OA
ATOM    102  O   UNL A   1      53.343  37.596  27.860  1.00  0.00    -0.744 OA
ENDBRANCH  96  99
ENDBRANCH  69  92
ENDBRANCH  43  44
ENDBRANCH  35  38
ENDBRANCH  33  34
ENDBRANCH  32  33
ENDBRANCH  31  32
ENDBRANCH  30  31
ENDBRANCH  28  30
ENDBRANCH   1  26
TORSDOF 23
ENDMDL
