MODEL 1
REMARK VINA RESULT:     -11.3      0.000      0.000
REMARK SMILES Cc1ccc(F)cc1NC(=O)CSCCC(=O)NCCCCNC(=O)c1ccc(-c2c3nc(c(-c4cccc(S(=O)(=O)[O-])c4F)c4ccc([nH]4)c(-c4cccc(S(=O)(=O)[O-])c4F)c4nc(c(-c5cccc(S(=O)(=O)[O-])c5F)c5ccc2[nH]5)C=C4)C=C3)cc1
REMARK SMILES IDX 19 1 18 2 16 3 17 4 15 6 14 7 13 8 12 9 10 10 9 11 11 13
REMARK SMILES IDX 8 14 1 15 2 16 3 17 4 18 7 19 5 20 6 21 20 22 21 23 22 24
REMARK SMILES IDX 23 25 24 26 25 28 26 29 27 30 88 31 28 32 87 33 29 34 30 35
REMARK SMILES IDX 31 36 81 37 32 38 86 39 80 40 82 41 33 42 85 43 79 44 78 45
REMARK SMILES IDX 34 47 66 48 46 49 65 50 47 51 50 52 64 53 83 54 48 55 49 56
REMARK SMILES IDX 63 58 84 59 51 60 35 61 36 62 44 63 37 64 39 65 45 66 38 67
REMARK SMILES IDX 40 68 41 69 42 70 43 71 67 72 68 73 76 74 69 75 71 76 77 77
REMARK SMILES IDX 70 78 72 79 73 80 74 81 75 82 52 83 53 84 61 85 54 86 56 87
REMARK SMILES IDX 62 88 55 89 57 90 58 91 59 92 60 93
REMARK H PARENT 18 5 9 12 23 27 82 46 50 57
REMARK Flexibility Score: inf
ROOT
ATOM      1  C   UNL A   1      32.773  28.868  23.027  1.00  0.00     0.116 C 
ENDROOT
BRANCH   1   2
ATOM      2  N   UNL A   1      33.044  27.526  22.542  1.00  0.00    -0.356 N 
ATOM      3  C   UNL A   1      32.220  26.456  22.383  1.00  0.00     0.220 C 
ATOM      4  O   UNL A   1      32.677  25.435  21.867  1.00  0.00    -0.275 OA
ATOM      5  H   UNL A   1      33.981  27.364  22.287  1.00  0.00     0.163 HD
BRANCH   3   6
ATOM      6  C   UNL A   1      30.778  26.517  22.824  1.00  0.00     0.111 C 
BRANCH   6   7
ATOM      7  C   UNL A   1      30.488  25.567  23.986  1.00  0.00     0.080 C 
BRANCH   7   8
ATOM      8  S   UNL A   1      30.620  26.312  25.650  1.00  0.00    -0.151 SA
BRANCH   8   9
ATOM      9  C   UNL A   1      32.237  25.660  26.181  1.00  0.00     0.169 C 
BRANCH   9  10
ATOM     10  C   UNL A   1      32.196  24.192  26.514  1.00  0.00     0.234 C 
ATOM     11  N   UNL A   1      33.087  23.262  26.080  1.00  0.00    -0.325 N 
ATOM     12  H   UNL A   1      32.834  22.356  26.369  1.00  0.00     0.169 HD
ATOM     13  O   UNL A   1      31.285  23.770  27.240  1.00  0.00    -0.274 OA
BRANCH  11  14
ATOM     14  C   UNL A   1      34.277  23.252  25.326  1.00  0.00     0.047 A 
ATOM     15  C   UNL A   1      32.999  22.185  23.339  1.00  0.00     0.046 C 
ATOM     16  C   UNL A   1      34.234  22.743  24.003  1.00  0.00    -0.027 A 
ATOM     17  C   UNL A   1      35.420  22.674  23.238  1.00  0.00     0.008 A 
ATOM     18  C   UNL A   1      36.632  23.117  23.751  1.00  0.00     0.039 A 
ATOM     19  C   UNL A   1      35.502  23.713  25.806  1.00  0.00     0.065 A 
ATOM     20  C   UNL A   1      36.658  23.641  25.029  1.00  0.00     0.125 A 
ATOM     21  F   UNL A   1      37.819  24.084  25.535  1.00  0.00    -0.207 F 
ENDBRANCH  11  14
ENDBRANCH   9  10
ENDBRANCH   8   9
ENDBRANCH   7   8
ENDBRANCH   6   7
ENDBRANCH   3   6
ENDBRANCH   1   2
BRANCH   1  22
ATOM     22  C   UNL A   1      33.010  29.028  24.528  1.00  0.00     0.023 C 
BRANCH  22  23
ATOM     23  C   UNL A   1      31.875  29.733  25.284  1.00  0.00     0.023 C 
BRANCH  23  24
ATOM     24  C   UNL A   1      32.249  30.204  26.681  1.00  0.00     0.116 C 
BRANCH  24  25
ATOM     25  N   UNL A   1      32.149  31.651  26.814  1.00  0.00    -0.352 N 
ATOM     26  C   UNL A   1      32.990  32.530  27.456  1.00  0.00     0.251 C 
ATOM     27  H   UNL A   1      31.364  32.060  26.382  1.00  0.00     0.163 HD
ATOM     28  O   UNL A   1      32.656  33.700  27.600  1.00  0.00    -0.269 OA
BRANCH  26  29
ATOM     29  C   UNL A   1      34.284  32.054  27.993  1.00  0.00     0.039 A 
ATOM     30  C   UNL A   1      35.349  32.955  28.090  1.00  0.00     0.014 A 
ATOM     31  C   UNL A   1      34.443  30.733  28.415  1.00  0.00     0.014 A 
ATOM     32  C   UNL A   1      36.549  32.547  28.677  1.00  0.00     0.010 A 
ATOM     33  C   UNL A   1      35.602  30.356  29.082  1.00  0.00     0.010 A 
ATOM     34  C   UNL A   1      36.669  31.257  29.216  1.00  0.00    -0.014 A 
BRANCH  34  35
ATOM     35  C   UNL A   1      37.889  30.825  29.943  1.00  0.00     0.031 A 
ATOM     36  C   UNL A   1      38.842  29.855  29.303  1.00  0.00     0.074 A 
ATOM     37  C   UNL A   1      38.073  31.220  31.220  1.00  0.00     0.049 A 
ATOM     38  N   UNL A   1      39.897  29.276  29.814  1.00  0.00    -0.248 NA
ATOM     39  C   UNL A   1      38.553  29.452  27.915  1.00  0.00     0.031 C 
ATOM     40  C   UNL A   1      37.172  32.096  31.973  1.00  0.00     0.029 A 
ATOM     41  N   UNL A   1      39.060  30.908  32.122  1.00  0.00    -0.354 N 
ATOM     42  C   UNL A   1      40.370  28.413  28.832  1.00  0.00     0.074 A 
ATOM     43  C   UNL A   1      39.469  28.518  27.707  1.00  0.00     0.031 C 
ATOM     44  C   UNL A   1      37.645  32.250  33.219  1.00  0.00     0.029 A 
ATOM     45  C   UNL A   1      38.857  31.453  33.369  1.00  0.00     0.049 A 
ATOM     46  H   UNL A   1      39.837  30.347  31.898  1.00  0.00     0.167 HD
ATOM     47  C   UNL A   1      41.470  27.624  28.857  1.00  0.00     0.034 A 
ATOM     48  C   UNL A   1      39.558  31.310  34.511  1.00  0.00     0.034 A 
ATOM     49  C   UNL A   1      42.382  27.562  29.965  1.00  0.00     0.049 A 
ATOM     50  C   UNL A   1      40.791  30.448  34.502  1.00  0.00     0.074 A 
ATOM     51  C   UNL A   1      43.582  26.878  30.052  1.00  0.00     0.029 A 
ATOM     52  N   UNL A   1      42.191  28.193  31.184  1.00  0.00    -0.354 N 
ATOM     53  N   UNL A   1      41.317  29.773  33.509  1.00  0.00    -0.248 NA
ATOM     54  C   UNL A   1      41.544  30.349  35.761  1.00  0.00     0.031 C 
ATOM     55  C   UNL A   1      44.096  27.066  31.339  1.00  0.00     0.029 A 
ATOM     56  C   UNL A   1      43.236  27.895  32.040  1.00  0.00     0.049 A 
ATOM     57  H   UNL A   1      41.423  28.768  31.407  1.00  0.00     0.167 HD
ATOM     58  C   UNL A   1      42.474  29.189  34.014  1.00  0.00     0.074 A 
ATOM     59  C   UNL A   1      42.586  29.615  35.394  1.00  0.00     0.031 C 
ATOM     60  C   UNL A   1      43.354  28.363  33.398  1.00  0.00     0.034 A 
BRANCH  47  61
ATOM     61  C   UNL A   1      41.770  26.796  27.636  1.00  0.00     0.023 A 
ATOM     62  C   UNL A   1      42.331  27.407  26.495  1.00  0.00     0.012 A 
ATOM     63  C   UNL A   1      41.555  25.403  27.636  1.00  0.00     0.148 A 
ATOM     64  C   UNL A   1      42.639  26.653  25.364  1.00  0.00     0.002 A 
ATOM     65  C   UNL A   1      41.910  24.651  26.523  1.00  0.00     0.091 A 
ATOM     66  F   UNL A   1      41.002  24.842  28.722  1.00  0.00    -0.205 F 
ATOM     67  C   UNL A   1      42.440  25.276  25.381  1.00  0.00     0.022 A 
BRANCH  65  68
ATOM     68  S   UNL A   1      41.767  22.861  26.474  1.00  0.00     0.127 S 
ATOM     69  O   UNL A   1      40.316  22.681  26.488  1.00  0.00    -0.237 OA
ATOM     70  O   UNL A   1      42.408  22.540  25.198  1.00  0.00    -0.237 OA
ATOM     71  O   UNL A   1      42.468  22.368  27.651  1.00  0.00    -0.744 OA
ENDBRANCH  65  68
ENDBRANCH  47  61
BRANCH  48  72
ATOM     72  C   UNL A   1      39.131  32.027  35.746  1.00  0.00     0.023 A 
ATOM     73  C   UNL A   1      39.486  33.379  35.922  1.00  0.00     0.012 A 
ATOM     74  C   UNL A   1      38.354  31.389  36.733  1.00  0.00     0.148 A 
ATOM     75  C   UNL A   1      39.106  34.072  37.072  1.00  0.00     0.002 A 
ATOM     76  C   UNL A   1      37.930  32.100  37.848  1.00  0.00     0.091 A 
ATOM     77  F   UNL A   1      38.035  30.099  36.552  1.00  0.00    -0.205 F 
ATOM     78  C   UNL A   1      38.320  33.436  38.030  1.00  0.00     0.022 A 
BRANCH  76  79
ATOM     79  S   UNL A   1      36.805  31.406  39.064  1.00  0.00     0.127 S 
ATOM     80  O   UNL A   1      35.658  32.305  38.958  1.00  0.00    -0.237 OA
ATOM     81  O   UNL A   1      36.584  30.060  38.534  1.00  0.00    -0.237 OA
ATOM     82  O   UNL A   1      37.523  31.444  40.329  1.00  0.00    -0.744 OA
ENDBRANCH  76  79
ENDBRANCH  48  72
BRANCH  60  83
ATOM     83  C   UNL A   1      44.533  27.876  34.197  1.00  0.00     0.023 A 
ATOM     84  C   UNL A   1      45.709  28.649  34.250  1.00  0.00     0.012 A 
ATOM     85  C   UNL A   1      44.440  26.701  34.968  1.00  0.00     0.148 A 
ATOM     86  C   UNL A   1      46.786  28.245  35.038  1.00  0.00     0.002 A 
ATOM     87  C   UNL A   1      45.495  26.332  35.791  1.00  0.00     0.091 A 
ATOM     88  F   UNL A   1      43.315  25.974  34.890  1.00  0.00    -0.205 F 
ATOM     89  C   UNL A   1      46.674  27.096  35.817  1.00  0.00     0.022 A 
BRANCH  87  90
ATOM     90  S   UNL A   1      45.408  24.927  36.905  1.00  0.00     0.127 S 
ATOM     91  O   UNL A   1      46.610  25.116  37.717  1.00  0.00    -0.237 OA
ATOM     92  O   UNL A   1      44.151  25.172  37.611  1.00  0.00    -0.237 OA
ATOM     93  O   UNL A   1      45.411  23.740  36.062  1.00  0.00    -0.744 OA
ENDBRANCH  87  90
ENDBRANCH  60  83
ENDBRANCH  34  35
ENDBRANCH  26  29
ENDBRANCH  24  25
ENDBRANCH  23  24
ENDBRANCH  22  23
ENDBRANCH   1  22
TORSDOF 19
ENDMDL
MODEL 2
REMARK VINA RESULT:     -11.1      1.718      7.737
REMARK SMILES Cc1ccc(F)cc1NC(=O)CSCCC(=O)NCCCCNC(=O)c1ccc(-c2c3nc(c(-c4cccc(S(=O)(=O)[O-])c4F)c4ccc([nH]4)c(-c4cccc(S(=O)(=O)[O-])c4F)c4nc(c(-c5cccc(S(=O)(=O)[O-])c5F)c5ccc2[nH]5)C=C4)C=C3)cc1
REMARK SMILES IDX 19 1 18 2 16 3 17 4 15 6 14 7 13 8 12 9 10 10 9 11 11 13
REMARK SMILES IDX 8 14 1 15 2 16 3 17 4 18 7 19 5 20 6 21 20 22 21 23 22 24
REMARK SMILES IDX 23 25 24 26 25 28 26 29 27 30 88 31 28 32 87 33 29 34 30 35
REMARK SMILES IDX 31 36 81 37 32 38 86 39 80 40 82 41 33 42 85 43 79 44 78 45
REMARK SMILES IDX 34 47 66 48 46 49 65 50 47 51 50 52 64 53 83 54 48 55 49 56
REMARK SMILES IDX 63 58 84 59 51 60 35 61 36 62 44 63 37 64 39 65 45 66 38 67
REMARK SMILES IDX 40 68 41 69 42 70 43 71 67 72 68 73 76 74 69 75 71 76 77 77
REMARK SMILES IDX 70 78 72 79 73 80 74 81 75 82 52 83 53 84 61 85 54 86 56 87
REMARK SMILES IDX 62 88 55 89 57 90 58 91 59 92 60 93
REMARK H PARENT 18 5 9 12 23 27 82 46 50 57
REMARK Flexibility Score: inf
ROOT
ATOM      1  C   UNL A   1      32.668  28.188  22.767  1.00  0.00     0.116 C 
ENDROOT
BRANCH   1   2
ATOM      2  N   UNL A   1      33.343  26.979  22.326  1.00  0.00    -0.356 N 
ATOM      3  C   UNL A   1      32.865  25.725  22.106  1.00  0.00     0.220 C 
ATOM      4  O   UNL A   1      33.633  24.878  21.648  1.00  0.00    -0.275 OA
ATOM      5  H   UNL A   1      34.308  27.086  22.160  1.00  0.00     0.163 HD
BRANCH   3   6
ATOM      6  C   UNL A   1      31.429  25.379  22.413  1.00  0.00     0.111 C 
BRANCH   6   7
ATOM      7  C   UNL A   1      31.279  24.671  23.759  1.00  0.00     0.080 C 
BRANCH   7   8
ATOM      8  S   UNL A   1      31.700  22.891  23.752  1.00  0.00    -0.151 SA
BRANCH   8   9
ATOM      9  C   UNL A   1      31.154  22.411  25.422  1.00  0.00     0.169 C 
BRANCH   9  10
ATOM     10  C   UNL A   1      31.908  23.127  26.513  1.00  0.00     0.234 C 
ATOM     11  N   UNL A   1      33.261  23.179  26.630  1.00  0.00    -0.325 N 
ATOM     12  H   UNL A   1      33.536  23.648  27.450  1.00  0.00     0.169 HD
ATOM     13  O   UNL A   1      31.266  23.723  27.389  1.00  0.00    -0.274 OA
BRANCH  11  14
ATOM     14  C   UNL A   1      34.375  22.738  25.888  1.00  0.00     0.047 A 
ATOM     15  C   UNL A   1      34.820  25.174  25.123  1.00  0.00     0.046 C 
ATOM     16  C   UNL A   1      35.132  23.698  25.170  1.00  0.00    -0.027 A 
ATOM     17  C   UNL A   1      36.225  23.281  24.378  1.00  0.00     0.008 A 
ATOM     18  C   UNL A   1      36.588  21.943  24.302  1.00  0.00     0.039 A 
ATOM     19  C   UNL A   1      34.777  21.405  25.814  1.00  0.00     0.065 A 
ATOM     20  C   UNL A   1      35.864  21.018  25.030  1.00  0.00     0.125 A 
ATOM     21  F   UNL A   1      36.209  19.723  24.977  1.00  0.00    -0.207 F 
ENDBRANCH  11  14
ENDBRANCH   9  10
ENDBRANCH   8   9
ENDBRANCH   7   8
ENDBRANCH   6   7
ENDBRANCH   3   6
ENDBRANCH   1   2
BRANCH   1  22
ATOM     22  C   UNL A   1      33.037  28.601  24.190  1.00  0.00     0.023 C 
BRANCH  22  23
ATOM     23  C   UNL A   1      31.988  29.471  24.897  1.00  0.00     0.023 C 
BRANCH  23  24
ATOM     24  C   UNL A   1      32.346  29.853  26.325  1.00  0.00     0.116 C 
BRANCH  24  25
ATOM     25  N   UNL A   1      32.268  31.291  26.542  1.00  0.00    -0.352 N 
ATOM     26  C   UNL A   1      33.092  32.110  27.279  1.00  0.00     0.251 C 
ATOM     27  H   UNL A   1      31.515  31.743  26.097  1.00  0.00     0.163 HD
ATOM     28  O   UNL A   1      32.774  33.275  27.479  1.00  0.00    -0.269 OA
BRANCH  26  29
ATOM     29  C   UNL A   1      34.347  31.571  27.852  1.00  0.00     0.039 A 
ATOM     30  C   UNL A   1      35.301  32.465  28.348  1.00  0.00     0.014 A 
ATOM     31  C   UNL A   1      34.574  30.196  27.915  1.00  0.00     0.014 A 
ATOM     32  C   UNL A   1      36.450  31.973  28.972  1.00  0.00     0.010 A 
ATOM     33  C   UNL A   1      35.669  29.709  28.617  1.00  0.00     0.010 A 
ATOM     34  C   UNL A   1      36.621  30.591  29.149  1.00  0.00    -0.014 A 
BRANCH  34  35
ATOM     35  C   UNL A   1      37.774  30.038  29.903  1.00  0.00     0.031 A 
ATOM     36  C   UNL A   1      38.060  30.520  31.299  1.00  0.00     0.074 A 
ATOM     37  C   UNL A   1      38.623  29.191  29.287  1.00  0.00     0.049 A 
ATOM     38  N   UNL A   1      39.074  30.242  32.075  1.00  0.00    -0.248 NA
ATOM     39  C   UNL A   1      37.097  31.467  31.889  1.00  0.00     0.031 C 
ATOM     40  C   UNL A   1      38.493  28.717  27.907  1.00  0.00     0.029 A 
ATOM     41  N   UNL A   1      39.784  28.606  29.728  1.00  0.00    -0.354 N 
ATOM     42  C   UNL A   1      38.896  31.009  33.220  1.00  0.00     0.074 A 
ATOM     43  C   UNL A   1      37.695  31.790  33.026  1.00  0.00     0.031 C 
ATOM     44  C   UNL A   1      39.529  27.917  27.614  1.00  0.00     0.029 A 
ATOM     45  C   UNL A   1      40.420  27.853  28.768  1.00  0.00     0.049 A 
ATOM     46  H   UNL A   1      40.128  28.715  30.643  1.00  0.00     0.167 HD
ATOM     47  C   UNL A   1      39.652  31.042  34.343  1.00  0.00     0.034 A 
ATOM     48  C   UNL A   1      41.599  27.202  28.805  1.00  0.00     0.034 A 
ATOM     49  C   UNL A   1      40.820  30.228  34.542  1.00  0.00     0.049 A 
ATOM     50  C   UNL A   1      42.405  27.233  30.075  1.00  0.00     0.074 A 
ATOM     51  C   UNL A   1      41.596  30.105  35.682  1.00  0.00     0.029 A 
ATOM     52  N   UNL A   1      41.390  29.413  33.578  1.00  0.00    -0.354 N 
ATOM     53  N   UNL A   1      42.131  27.830  31.210  1.00  0.00    -0.248 NA
ATOM     54  C   UNL A   1      43.667  26.480  30.082  1.00  0.00     0.031 C 
ATOM     55  C   UNL A   1      42.659  29.244  35.391  1.00  0.00     0.029 A 
ATOM     56  C   UNL A   1      42.523  28.802  34.085  1.00  0.00     0.049 A 
ATOM     57  H   UNL A   1      41.040  29.288  32.666  1.00  0.00     0.167 HD
ATOM     58  C   UNL A   1      43.173  27.506  32.072  1.00  0.00     0.074 A 
ATOM     59  C   UNL A   1      44.067  26.635  31.337  1.00  0.00     0.031 C 
ATOM     60  C   UNL A   1      43.379  27.905  33.351  1.00  0.00     0.034 A 
BRANCH  47  61
ATOM     61  C   UNL A   1      39.217  31.955  35.459  1.00  0.00     0.023 A 
ATOM     62  C   UNL A   1      38.318  31.486  36.438  1.00  0.00     0.012 A 
ATOM     63  C   UNL A   1      39.745  33.256  35.574  1.00  0.00     0.148 A 
ATOM     64  C   UNL A   1      37.922  32.308  37.493  1.00  0.00     0.002 A 
ATOM     65  C   UNL A   1      39.384  34.052  36.655  1.00  0.00     0.091 A 
ATOM     66  F   UNL A   1      40.584  33.693  34.624  1.00  0.00    -0.205 F 
ATOM     67  C   UNL A   1      38.463  33.584  37.608  1.00  0.00     0.022 A 
BRANCH  65  68
ATOM     68  S   UNL A   1      40.084  35.682  36.938  1.00  0.00     0.127 S 
ATOM     69  O   UNL A   1      39.509  36.027  38.238  1.00  0.00    -0.237 OA
ATOM     70  O   UNL A   1      41.519  35.397  36.963  1.00  0.00    -0.237 OA
ATOM     71  O   UNL A   1      39.644  36.509  35.824  1.00  0.00    -0.744 OA
ENDBRANCH  65  68
ENDBRANCH  47  61
BRANCH  48  72
ATOM     72  C   UNL A   1      42.069  26.436  27.616  1.00  0.00     0.023 A 
ATOM     73  C   UNL A   1      42.850  27.083  26.638  1.00  0.00     0.012 A 
ATOM     74  C   UNL A   1      41.773  25.068  27.460  1.00  0.00     0.148 A 
ATOM     75  C   UNL A   1      43.298  26.392  25.511  1.00  0.00     0.002 A 
ATOM     76  C   UNL A   1      42.270  24.371  26.366  1.00  0.00     0.091 A 
ATOM     77  F   UNL A   1      41.020  24.472  28.396  1.00  0.00    -0.205 F 
ATOM     78  C   UNL A   1      43.016  25.034  25.380  1.00  0.00     0.022 A 
BRANCH  76  79
ATOM     79  S   UNL A   1      42.073  22.595  26.183  1.00  0.00     0.127 S 
ATOM     80  O   UNL A   1      40.620  22.456  26.163  1.00  0.00    -0.237 OA
ATOM     81  O   UNL A   1      42.734  22.350  24.901  1.00  0.00    -0.237 OA
ATOM     82  O   UNL A   1      42.750  22.006  27.330  1.00  0.00    -0.744 OA
ENDBRANCH  76  79
ENDBRANCH  48  72
BRANCH  60  83
ATOM     83  C   UNL A   1      44.607  27.391  34.054  1.00  0.00     0.023 A 
ATOM     84  C   UNL A   1      45.792  28.152  34.038  1.00  0.00     0.012 A 
ATOM     85  C   UNL A   1      44.556  26.201  34.807  1.00  0.00     0.148 A 
ATOM     86  C   UNL A   1      46.917  27.723  34.740  1.00  0.00     0.002 A 
ATOM     87  C   UNL A   1      45.664  25.806  35.545  1.00  0.00     0.091 A 
ATOM     88  F   UNL A   1      43.422  25.486  34.795  1.00  0.00    -0.205 F 
ATOM     89  C   UNL A   1      46.850  26.559  35.502  1.00  0.00     0.022 A 
BRANCH  87  90
ATOM     90  S   UNL A   1      45.642  24.379  36.634  1.00  0.00     0.127 S 
ATOM     91  O   UNL A   1      45.573  23.275  35.677  1.00  0.00    -0.237 OA
ATOM     92  O   UNL A   1      46.923  24.503  37.330  1.00  0.00    -0.237 OA
ATOM     93  O   UNL A   1      44.471  24.536  37.484  1.00  0.00    -0.744 OA
ENDBRANCH  87  90
ENDBRANCH  60  83
ENDBRANCH  34  35
ENDBRANCH  26  29
ENDBRANCH  24  25
ENDBRANCH  23  24
ENDBRANCH  22  23
ENDBRANCH   1  22
TORSDOF 19
ENDMDL
MODEL 3
REMARK VINA RESULT:     -11.1      0.898      7.604
REMARK SMILES Cc1ccc(F)cc1NC(=O)CSCCC(=O)NCCCCNC(=O)c1ccc(-c2c3nc(c(-c4cccc(S(=O)(=O)[O-])c4F)c4ccc([nH]4)c(-c4cccc(S(=O)(=O)[O-])c4F)c4nc(c(-c5cccc(S(=O)(=O)[O-])c5F)c5ccc2[nH]5)C=C4)C=C3)cc1
REMARK SMILES IDX 19 1 18 2 16 3 17 4 15 6 14 7 13 8 12 9 10 10 9 11 11 13
REMARK SMILES IDX 8 14 1 15 2 16 3 17 4 18 7 19 5 20 6 21 20 22 21 23 22 24
REMARK SMILES IDX 23 25 24 26 25 28 26 29 27 30 88 31 28 32 87 33 29 34 30 35
REMARK SMILES IDX 31 36 81 37 32 38 86 39 80 40 82 41 33 42 85 43 79 44 78 45
REMARK SMILES IDX 34 47 66 48 46 49 65 50 47 51 50 52 64 53 83 54 48 55 49 56
REMARK SMILES IDX 63 58 84 59 51 60 35 61 36 62 44 63 37 64 39 65 45 66 38 67
REMARK SMILES IDX 40 68 41 69 42 70 43 71 67 72 68 73 76 74 69 75 71 76 77 77
REMARK SMILES IDX 70 78 72 79 73 80 74 81 75 82 52 83 53 84 61 85 54 86 56 87
REMARK SMILES IDX 62 88 55 89 57 90 58 91 59 92 60 93
REMARK H PARENT 18 5 9 12 23 27 82 46 50 57
REMARK Flexibility Score: inf
ROOT
ATOM      1  C   UNL A   1      33.289  28.946  22.890  1.00  0.00     0.116 C 
ENDROOT
BRANCH   1   2
ATOM      2  N   UNL A   1      33.666  27.689  22.265  1.00  0.00    -0.356 N 
ATOM      3  C   UNL A   1      32.903  26.660  21.809  1.00  0.00     0.220 C 
ATOM      4  O   UNL A   1      33.463  25.725  21.235  1.00  0.00    -0.275 OA
ATOM      5  H   UNL A   1      34.636  27.561  22.155  1.00  0.00     0.163 HD
BRANCH   3   6
ATOM      6  C   UNL A   1      31.406  26.662  21.999  1.00  0.00     0.111 C 
BRANCH   6   7
ATOM      7  C   UNL A   1      30.998  26.178  23.390  1.00  0.00     0.080 C 
BRANCH   7   8
ATOM      8  S   UNL A   1      31.051  24.365  23.627  1.00  0.00    -0.151 SA
BRANCH   8   9
ATOM      9  C   UNL A   1      32.630  24.191  24.519  1.00  0.00     0.169 C 
BRANCH   9  10
ATOM     10  C   UNL A   1      32.573  23.159  25.615  1.00  0.00     0.234 C 
ATOM     11  N   UNL A   1      33.611  22.379  26.016  1.00  0.00    -0.325 N 
ATOM     12  H   UNL A   1      33.334  21.732  26.704  1.00  0.00     0.169 HD
ATOM     13  O   UNL A   1      31.503  22.984  26.214  1.00  0.00    -0.274 OA
BRANCH  11  14
ATOM     14  C   UNL A   1      34.980  22.251  25.707  1.00  0.00     0.047 A 
ATOM     15  C   UNL A   1      34.555  19.840  24.857  1.00  0.00     0.046 C 
ATOM     16  C   UNL A   1      35.434  21.034  25.140  1.00  0.00    -0.027 A 
ATOM     17  C   UNL A   1      36.809  20.856  24.864  1.00  0.00     0.008 A 
ATOM     18  C   UNL A   1      37.728  21.865  25.120  1.00  0.00     0.039 A 
ATOM     19  C   UNL A   1      35.921  23.256  25.930  1.00  0.00     0.065 A 
ATOM     20  C   UNL A   1      37.272  23.060  25.643  1.00  0.00     0.125 A 
ATOM     21  F   UNL A   1      38.146  24.049  25.885  1.00  0.00    -0.207 F 
ENDBRANCH  11  14
ENDBRANCH   9  10
ENDBRANCH   8   9
ENDBRANCH   7   8
ENDBRANCH   6   7
ENDBRANCH   3   6
ENDBRANCH   1   2
BRANCH   1  22
ATOM     22  C   UNL A   1      33.273  28.881  24.416  1.00  0.00     0.023 C 
BRANCH  22  23
ATOM     23  C   UNL A   1      31.994  29.426  25.067  1.00  0.00     0.023 C 
BRANCH  23  24
ATOM     24  C   UNL A   1      32.166  29.877  26.509  1.00  0.00     0.116 C 
BRANCH  24  25
ATOM     25  N   UNL A   1      32.151  31.328  26.633  1.00  0.00    -0.352 N 
ATOM     26  C   UNL A   1      33.038  32.159  27.277  1.00  0.00     0.251 C 
ATOM     27  H   UNL A   1      31.396  31.780  26.192  1.00  0.00     0.163 HD
ATOM     28  O   UNL A   1      32.774  33.347  27.412  1.00  0.00    -0.269 OA
BRANCH  26  29
ATOM     29  C   UNL A   1      34.297  31.609  27.829  1.00  0.00     0.039 A 
ATOM     30  C   UNL A   1      35.356  32.482  28.098  1.00  0.00     0.014 A 
ATOM     31  C   UNL A   1      34.428  30.245  28.096  1.00  0.00     0.014 A 
ATOM     32  C   UNL A   1      36.518  31.995  28.701  1.00  0.00     0.010 A 
ATOM     33  C   UNL A   1      35.544  29.780  28.778  1.00  0.00     0.010 A 
ATOM     34  C   UNL A   1      36.603  30.648  29.085  1.00  0.00    -0.014 A 
BRANCH  34  35
ATOM     35  C   UNL A   1      37.776  30.120  29.826  1.00  0.00     0.031 A 
ATOM     36  C   UNL A   1      38.050  30.586  31.229  1.00  0.00     0.074 A 
ATOM     37  C   UNL A   1      38.651  29.313  29.192  1.00  0.00     0.049 A 
ATOM     38  N   UNL A   1      39.076  30.329  31.998  1.00  0.00    -0.248 NA
ATOM     39  C   UNL A   1      37.059  31.490  31.839  1.00  0.00     0.031 C 
ATOM     40  C   UNL A   1      38.531  28.859  27.804  1.00  0.00     0.029 A 
ATOM     41  N   UNL A   1      39.832  28.759  29.620  1.00  0.00    -0.354 N 
ATOM     42  C   UNL A   1      38.877  31.069  33.157  1.00  0.00     0.074 A 
ATOM     43  C   UNL A   1      37.650  31.812  32.979  1.00  0.00     0.031 C 
ATOM     44  C   UNL A   1      39.593  28.099  27.494  1.00  0.00     0.029 A 
ATOM     45  C   UNL A   1      40.489  28.045  28.644  1.00  0.00     0.049 A 
ATOM     46  H   UNL A   1      40.176  28.863  30.536  1.00  0.00     0.167 HD
ATOM     47  C   UNL A   1      39.635  31.107  34.278  1.00  0.00     0.034 A 
ATOM     48  C   UNL A   1      41.689  27.433  28.666  1.00  0.00     0.034 A 
ATOM     49  C   UNL A   1      40.830  30.329  34.459  1.00  0.00     0.049 A 
ATOM     50  C   UNL A   1      42.498  27.468  29.935  1.00  0.00     0.074 A 
ATOM     51  C   UNL A   1      41.614  30.212  35.594  1.00  0.00     0.029 A 
ATOM     52  N   UNL A   1      41.424  29.551  33.478  1.00  0.00    -0.354 N 
ATOM     53  N   UNL A   1      42.209  28.036  31.080  1.00  0.00    -0.248 NA
ATOM     54  C   UNL A   1      43.785  26.758  29.924  1.00  0.00     0.031 C 
ATOM     55  C   UNL A   1      42.703  29.391  35.285  1.00  0.00     0.029 A 
ATOM     56  C   UNL A   1      42.578  28.969  33.971  1.00  0.00     0.049 A 
ATOM     57  H   UNL A   1      41.075  29.430  32.566  1.00  0.00     0.167 HD
ATOM     58  C   UNL A   1      43.263  27.731  31.934  1.00  0.00     0.074 A 
ATOM     59  C   UNL A   1      44.183  26.904  31.180  1.00  0.00     0.031 C 
ATOM     60  C   UNL A   1      43.461  28.113  33.219  1.00  0.00     0.034 A 
BRANCH  47  61
ATOM     61  C   UNL A   1      39.174  31.985  35.411  1.00  0.00     0.023 A 
ATOM     62  C   UNL A   1      39.376  33.379  35.344  1.00  0.00     0.012 A 
ATOM     63  C   UNL A   1      38.489  31.440  36.515  1.00  0.00     0.148 A 
ATOM     64  C   UNL A   1      38.935  34.212  36.372  1.00  0.00     0.002 A 
ATOM     65  C   UNL A   1      38.009  32.281  37.511  1.00  0.00     0.091 A 
ATOM     66  F   UNL A   1      38.324  30.110  36.572  1.00  0.00    -0.205 F 
ATOM     67  C   UNL A   1      38.243  33.665  37.448  1.00  0.00     0.022 A 
BRANCH  65  68
ATOM     68  S   UNL A   1      37.037  31.687  38.900  1.00  0.00     0.127 S 
ATOM     69  O   UNL A   1      35.896  32.600  38.872  1.00  0.00    -0.237 OA
ATOM     70  O   UNL A   1      36.730  30.316  38.493  1.00  0.00    -0.237 OA
ATOM     71  O   UNL A   1      37.896  31.799  40.071  1.00  0.00    -0.744 OA
ENDBRANCH  65  68
ENDBRANCH  47  61
BRANCH  48  72
ATOM     72  C   UNL A   1      42.181  26.704  27.462  1.00  0.00     0.023 A 
ATOM     73  C   UNL A   1      42.869  27.410  26.456  1.00  0.00     0.012 A 
ATOM     74  C   UNL A   1      41.996  25.315  27.320  1.00  0.00     0.148 A 
ATOM     75  C   UNL A   1      43.334  26.754  25.315  1.00  0.00     0.002 A 
ATOM     76  C   UNL A   1      42.512  24.658  26.209  1.00  0.00     0.091 A 
ATOM     77  F   UNL A   1      41.330  24.662  28.282  1.00  0.00    -0.205 F 
ATOM     78  C   UNL A   1      43.164  25.378  25.196  1.00  0.00     0.022 A 
BRANCH  76  79
ATOM     79  S   UNL A   1      42.460  22.871  26.036  1.00  0.00     0.127 S 
ATOM     80  O   UNL A   1      43.242  22.436  27.191  1.00  0.00    -0.237 OA
ATOM     81  O   UNL A   1      41.024  22.602  26.127  1.00  0.00    -0.237 OA
ATOM     82  O   UNL A   1      43.043  22.586  24.733  1.00  0.00    -0.744 OA
ENDBRANCH  76  79
ENDBRANCH  48  72
BRANCH  60  83
ATOM     83  C   UNL A   1      44.708  27.628  33.910  1.00  0.00     0.023 A 
ATOM     84  C   UNL A   1      45.866  28.429  33.904  1.00  0.00     0.012 A 
ATOM     85  C   UNL A   1      44.699  26.424  34.641  1.00  0.00     0.148 A 
ATOM     86  C   UNL A   1      47.008  28.025  34.594  1.00  0.00     0.002 A 
ATOM     87  C   UNL A   1      45.822  26.054  35.368  1.00  0.00     0.091 A 
ATOM     88  F   UNL A   1      43.589  25.672  34.620  1.00  0.00    -0.205 F 
ATOM     89  C   UNL A   1      46.982  26.846  35.335  1.00  0.00     0.022 A 
BRANCH  87  90
ATOM     90  S   UNL A   1      45.851  24.608  36.432  1.00  0.00     0.127 S 
ATOM     91  O   UNL A   1      45.117  25.085  37.604  1.00  0.00    -0.237 OA
ATOM     92  O   UNL A   1      45.136  23.618  35.626  1.00  0.00    -0.237 OA
ATOM     93  O   UNL A   1      47.255  24.303  36.664  1.00  0.00    -0.744 OA
ENDBRANCH  87  90
ENDBRANCH  60  83
ENDBRANCH  34  35
ENDBRANCH  26  29
ENDBRANCH  24  25
ENDBRANCH  23  24
ENDBRANCH  22  23
ENDBRANCH   1  22
TORSDOF 19
ENDMDL
