MODEL 1
REMARK VINA RESULT:     -12.0      0.000      0.000
REMARK SMILES COCC[C@@]1(C(=O)NCCCCNC(=O)c2ccc(-c3c4nc(c(-c5cccc(S(=O)(=O)[O-])c5F)c5ccc([nH]5)c(-c5cccc(S(=O)(=O)[O-])c5F)c5nc(c(-c6cccc(S(=O)(=O)[O-])c6F)c6ccc3[nH]6)C=C5)C=C4)cc2)CCCN(C(=O)NCc2ccc(OC)cc2)C1
REMARK SMILES IDX 10 1 9 2 8 3 6 4 7 5 5 7 79 8 95 9 80 10 82 11 81 12 4 13
REMARK SMILES IDX 3 14 2 15 1 16 83 17 84 18 85 19 86 21 87 22 88 23 94 24
REMARK SMILES IDX 89 25 93 26 90 27 91 28 92 29 11 30 12 31 13 32 14 33 15 35
REMARK SMILES IDX 16 36 17 37 78 38 18 39 77 40 19 41 20 42 21 43 71 44 22 45
REMARK SMILES IDX 76 46 70 47 72 48 23 49 75 50 69 51 68 52 24 54 56 55 36 56
REMARK SMILES IDX 55 57 37 58 40 59 54 60 73 61 38 62 39 63 53 65 74 66 41 67
REMARK SMILES IDX 25 68 26 69 34 70 27 71 29 72 35 73 28 74 30 75 31 76 32 77
REMARK SMILES IDX 33 78 57 79 58 80 66 81 59 82 61 83 67 84 60 85 62 86 63 87
REMARK SMILES IDX 64 88 65 89 42 90 43 91 51 92 44 93 46 94 52 95 45 96 47 97
REMARK SMILES IDX 48 98 49 99 50 100
REMARK H PARENT 8 6 85 20 13 34 72 53 40 64
REMARK Flexibility Score: inf
ROOT
ATOM      1  C   UNL A   1      32.018  27.512  25.964  1.00  0.00     0.023 C 
ENDROOT
BRANCH   1   2
ATOM      2  C   UNL A   1      33.422  26.940  25.862  1.00  0.00     0.116 C 
BRANCH   2   3
ATOM      3  N   UNL A   1      33.859  26.473  24.569  1.00  0.00    -0.356 N 
ATOM      4  C   UNL A   1      33.950  25.199  24.093  1.00  0.00     0.228 C 
ATOM      5  O   UNL A   1      33.927  25.104  22.857  1.00  0.00    -0.274 OA
ATOM      6  H   UNL A   1      34.131  27.178  23.937  1.00  0.00     0.163 HD
BRANCH   4   7
ATOM      7  C   UNL A   1      34.267  23.934  24.953  1.00  0.00     0.069 C 
ATOM      8  C   UNL A   1      34.389  22.703  23.990  1.00  0.00     0.021 C 
ATOM      9  C   UNL A   1      33.233  23.484  26.010  1.00  0.00     0.138 C 
ATOM     10  C   UNL A   1      33.023  22.283  23.402  1.00  0.00     0.023 C 
ATOM     11  N   UNL A   1      31.940  23.206  25.400  1.00  0.00    -0.324 N 
ATOM     12  C   UNL A   1      31.968  22.074  24.486  1.00  0.00     0.121 C 
BRANCH   7  13
ATOM     13  C   UNL A   1      35.604  24.234  25.696  1.00  0.00     0.047 C 
BRANCH  13  14
ATOM     14  C   UNL A   1      36.871  23.616  25.090  1.00  0.00     0.161 C 
BRANCH  14  15
ATOM     15  O   UNL A   1      37.329  22.484  25.829  1.00  0.00    -0.385 OA
ATOM     16  C   UNL A   1      37.719  21.397  24.994  1.00  0.00     0.194 C 
ENDBRANCH  14  15
ENDBRANCH  13  14
ENDBRANCH   7  13
BRANCH  11  17
ATOM     17  C   UNL A   1      30.894  23.982  25.784  1.00  0.00     0.317 C 
ATOM     18  O   UNL A   1      30.552  24.070  26.967  1.00  0.00    -0.249 OA
ATOM     19  N   UNL A   1      30.272  24.830  24.959  1.00  0.00    -0.334 N 
ATOM     20  H   UNL A   1      29.793  25.531  25.458  1.00  0.00     0.165 HD
BRANCH  19  21
ATOM     21  C   UNL A   1      30.115  24.997  23.531  1.00  0.00     0.153 C 
BRANCH  21  22
ATOM     22  C   UNL A   1      29.992  26.476  23.243  1.00  0.00    -0.028 A 
ATOM     23  C   UNL A   1      28.777  27.136  23.501  1.00  0.00     0.009 A 
ATOM     24  C   UNL A   1      31.042  27.206  22.683  1.00  0.00     0.009 A 
ATOM     25  C   UNL A   1      28.594  28.466  23.138  1.00  0.00     0.047 A 
ATOM     26  C   UNL A   1      30.863  28.552  22.337  1.00  0.00     0.047 A 
ATOM     27  C   UNL A   1      29.633  29.181  22.551  1.00  0.00     0.118 A 
BRANCH  27  28
ATOM     28  O   UNL A   1      29.310  30.467  22.223  1.00  0.00    -0.497 OA
ATOM     29  C   UNL A   1      28.015  30.681  21.685  1.00  0.00     0.278 C 
ENDBRANCH  27  28
ENDBRANCH  21  22
ENDBRANCH  19  21
ENDBRANCH  11  17
ENDBRANCH   4   7
ENDBRANCH   2   3
ENDBRANCH   1   2
BRANCH   1  30
ATOM     30  C   UNL A   1      31.872  28.894  26.581  1.00  0.00     0.023 C 
BRANCH  30  31
ATOM     31  C   UNL A   1      32.678  30.027  25.959  1.00  0.00     0.116 C 
BRANCH  31  32
ATOM     32  N   UNL A   1      32.466  31.341  26.554  1.00  0.00    -0.352 N 
ATOM     33  C   UNL A   1      33.316  32.090  27.341  1.00  0.00     0.251 C 
ATOM     34  H   UNL A   1      31.592  31.753  26.368  1.00  0.00     0.163 HD
ATOM     35  O   UNL A   1      32.977  33.202  27.737  1.00  0.00    -0.269 OA
BRANCH  33  36
ATOM     36  C   UNL A   1      34.618  31.522  27.756  1.00  0.00     0.039 A 
ATOM     37  C   UNL A   1      35.686  32.391  28.001  1.00  0.00     0.014 A 
ATOM     38  C   UNL A   1      34.758  30.153  27.992  1.00  0.00     0.014 A 
ATOM     39  C   UNL A   1      36.854  31.899  28.592  1.00  0.00     0.010 A 
ATOM     40  C   UNL A   1      35.882  29.686  28.665  1.00  0.00     0.010 A 
ATOM     41  C   UNL A   1      36.938  30.554  28.984  1.00  0.00    -0.014 A 
BRANCH  41  42
ATOM     42  C   UNL A   1      38.099  30.037  29.759  1.00  0.00     0.031 A 
ATOM     43  C   UNL A   1      38.335  30.502  31.171  1.00  0.00     0.074 A 
ATOM     44  C   UNL A   1      39.003  29.237  29.158  1.00  0.00     0.049 A 
ATOM     45  N   UNL A   1      39.326  30.219  31.978  1.00  0.00    -0.248 NA
ATOM     46  C   UNL A   1      37.348  31.434  31.738  1.00  0.00     0.031 C 
ATOM     47  C   UNL A   1      38.942  28.781  27.767  1.00  0.00     0.029 A 
ATOM     48  N   UNL A   1      40.167  28.684  29.634  1.00  0.00    -0.354 N 
ATOM     49  C   UNL A   1      39.106  30.973  33.125  1.00  0.00     0.074 A 
ATOM     50  C   UNL A   1      37.911  31.756  32.892  1.00  0.00     0.031 C 
ATOM     51  C   UNL A   1      40.004  28.000  27.511  1.00  0.00     0.029 A 
ATOM     52  C   UNL A   1      40.840  27.924  28.705  1.00  0.00     0.049 A 
ATOM     53  H   UNL A   1      40.490  28.819  30.554  1.00  0.00     0.167 HD
ATOM     54  C   UNL A   1      39.810  30.988  34.282  1.00  0.00     0.034 A 
ATOM     55  C   UNL A   1      41.995  27.237  28.805  1.00  0.00     0.034 A 
ATOM     56  C   UNL A   1      40.962  30.167  34.534  1.00  0.00     0.049 A 
ATOM     57  C   UNL A   1      42.737  27.234  30.114  1.00  0.00     0.074 A 
ATOM     58  C   UNL A   1      41.679  30.025  35.709  1.00  0.00     0.029 A 
ATOM     59  N   UNL A   1      41.570  29.350  33.594  1.00  0.00    -0.354 N 
ATOM     60  N   UNL A   1      42.419  27.818  31.244  1.00  0.00    -0.248 NA
ATOM     61  C   UNL A   1      43.980  26.450  30.172  1.00  0.00     0.031 C 
ATOM     62  C   UNL A   1      42.733  29.135  35.472  1.00  0.00     0.029 A 
ATOM     63  C   UNL A   1      42.662  28.709  34.156  1.00  0.00     0.049 A 
ATOM     64  H   UNL A   1      41.270  29.240  32.663  1.00  0.00     0.167 HD
ATOM     65  C   UNL A   1      43.399  27.442  32.157  1.00  0.00     0.074 A 
ATOM     66  C   UNL A   1      44.313  26.568  31.450  1.00  0.00     0.031 C 
ATOM     67  C   UNL A   1      43.534  27.798  33.458  1.00  0.00     0.034 A 
BRANCH  54  68
ATOM     68  C   UNL A   1      39.307  31.886  35.382  1.00  0.00     0.023 A 
ATOM     69  C   UNL A   1      38.291  31.425  36.247  1.00  0.00     0.012 A 
ATOM     70  C   UNL A   1      39.841  33.175  35.574  1.00  0.00     0.148 A 
ATOM     71  C   UNL A   1      37.779  32.249  37.248  1.00  0.00     0.002 A 
ATOM     72  C   UNL A   1      39.357  33.974  36.606  1.00  0.00     0.091 A 
ATOM     73  F   UNL A   1      40.788  33.611  34.731  1.00  0.00    -0.205 F 
ATOM     74  C   UNL A   1      38.318  33.519  37.433  1.00  0.00     0.022 A 
BRANCH  72  75
ATOM     75  S   UNL A   1      40.047  35.593  36.966  1.00  0.00     0.127 S 
ATOM     76  O   UNL A   1      39.643  36.356  35.787  1.00  0.00    -0.237 OA
ATOM     77  O   UNL A   1      39.349  35.962  38.199  1.00  0.00    -0.237 OA
ATOM     78  O   UNL A   1      41.479  35.384  37.127  1.00  0.00    -0.744 OA
ENDBRANCH  72  75
ENDBRANCH  54  68
BRANCH  55  79
ATOM     79  C   UNL A   1      42.466  26.406  27.659  1.00  0.00     0.023 A 
ATOM     80  C   UNL A   1      43.393  26.961  26.755  1.00  0.00     0.012 A 
ATOM     81  C   UNL A   1      42.046  25.074  27.482  1.00  0.00     0.148 A 
ATOM     82  C   UNL A   1      43.876  26.213  25.681  1.00  0.00     0.002 A 
ATOM     83  C   UNL A   1      42.567  24.318  26.438  1.00  0.00     0.091 A 
ATOM     84  F   UNL A   1      41.158  24.568  28.350  1.00  0.00    -0.205 F 
ATOM     85  C   UNL A   1      43.472  24.891  25.528  1.00  0.00     0.022 A 
BRANCH  83  86
ATOM     86  S   UNL A   1      42.202  22.572  26.226  1.00  0.00     0.127 S 
ATOM     87  O   UNL A   1      42.729  22.003  27.464  1.00  0.00    -0.237 OA
ATOM     88  O   UNL A   1      40.743  22.582  26.124  1.00  0.00    -0.237 OA
ATOM     89  O   UNL A   1      42.889  22.170  25.006  1.00  0.00    -0.744 OA
ENDBRANCH  83  86
ENDBRANCH  55  79
BRANCH  67  90
ATOM     90  C   UNL A   1      44.695  27.222  34.225  1.00  0.00     0.023 A 
ATOM     91  C   UNL A   1      45.940  27.880  34.208  1.00  0.00     0.012 A 
ATOM     92  C   UNL A   1      44.531  26.074  35.025  1.00  0.00     0.148 A 
ATOM     93  C   UNL A   1      47.013  27.390  34.954  1.00  0.00     0.002 A 
ATOM     94  C   UNL A   1      45.590  25.618  35.803  1.00  0.00     0.091 A 
ATOM     95  F   UNL A   1      43.345  25.448  35.012  1.00  0.00    -0.205 F 
ATOM     96  C   UNL A   1      46.834  26.268  35.760  1.00  0.00     0.022 A 
BRANCH  94  97
ATOM     97  S   UNL A   1      45.420  24.239  36.943  1.00  0.00     0.127 S 
ATOM     98  O   UNL A   1      46.790  24.082  37.426  1.00  0.00    -0.237 OA
ATOM     99  O   UNL A   1      44.481  24.768  37.934  1.00  0.00    -0.237 OA
ATOM    100  O   UNL A   1      44.901  23.131  36.154  1.00  0.00    -0.744 OA
ENDBRANCH  94  97
ENDBRANCH  67  90
ENDBRANCH  41  42
ENDBRANCH  33  36
ENDBRANCH  31  32
ENDBRANCH  30  31
ENDBRANCH   1  30
TORSDOF 21
ENDMDL
MODEL 2
REMARK VINA RESULT:     -11.3      1.323      3.945
REMARK SMILES COCC[C@@]1(C(=O)NCCCCNC(=O)c2ccc(-c3c4nc(c(-c5cccc(S(=O)(=O)[O-])c5F)c5ccc([nH]5)c(-c5cccc(S(=O)(=O)[O-])c5F)c5nc(c(-c6cccc(S(=O)(=O)[O-])c6F)c6ccc3[nH]6)C=C5)C=C4)cc2)CCCN(C(=O)NCc2ccc(OC)cc2)C1
REMARK SMILES IDX 10 1 9 2 8 3 6 4 7 5 5 7 79 8 95 9 80 10 82 11 81 12 4 13
REMARK SMILES IDX 3 14 2 15 1 16 83 17 84 18 85 19 86 21 87 22 88 23 94 24
REMARK SMILES IDX 89 25 93 26 90 27 91 28 92 29 11 30 12 31 13 32 14 33 15 35
REMARK SMILES IDX 16 36 17 37 78 38 18 39 77 40 19 41 20 42 21 43 71 44 22 45
REMARK SMILES IDX 76 46 70 47 72 48 23 49 75 50 69 51 68 52 24 54 56 55 36 56
REMARK SMILES IDX 55 57 37 58 40 59 54 60 73 61 38 62 39 63 53 65 74 66 41 67
REMARK SMILES IDX 25 68 26 69 34 70 27 71 29 72 35 73 28 74 30 75 31 76 32 77
REMARK SMILES IDX 33 78 57 79 58 80 66 81 59 82 61 83 67 84 60 85 62 86 63 87
REMARK SMILES IDX 64 88 65 89 42 90 43 91 51 92 44 93 46 94 52 95 45 96 47 97
REMARK SMILES IDX 48 98 49 99 50 100
REMARK H PARENT 8 6 85 20 13 34 72 53 40 64
REMARK Flexibility Score: inf
ROOT
ATOM      1  C   UNL A   1      32.001  28.190  27.544  1.00  0.00     0.023 C 
ENDROOT
BRANCH   1   2
ATOM      2  C   UNL A   1      32.088  26.937  26.691  1.00  0.00     0.116 C 
BRANCH   2   3
ATOM      3  N   UNL A   1      31.016  26.691  25.756  1.00  0.00    -0.356 N 
ATOM      4  C   UNL A   1      31.078  26.392  24.427  1.00  0.00     0.228 C 
ATOM      5  O   UNL A   1      30.077  25.813  23.980  1.00  0.00    -0.274 OA
ATOM      6  H   UNL A   1      30.108  26.747  26.133  1.00  0.00     0.163 HD
BRANCH   4   7
ATOM      7  C   UNL A   1      32.183  26.886  23.441  1.00  0.00     0.069 C 
ATOM      8  C   UNL A   1      31.916  26.237  22.039  1.00  0.00     0.021 C 
ATOM      9  C   UNL A   1      33.657  26.528  23.746  1.00  0.00     0.138 C 
ATOM     10  C   UNL A   1      32.215  24.721  22.029  1.00  0.00     0.023 C 
ATOM     11  N   UNL A   1      33.844  25.085  23.827  1.00  0.00    -0.324 N 
ATOM     12  C   UNL A   1      33.611  24.405  22.562  1.00  0.00     0.121 C 
BRANCH   7  13
ATOM     13  C   UNL A   1      32.073  28.440  23.401  1.00  0.00     0.047 C 
BRANCH  13  14
ATOM     14  C   UNL A   1      31.340  29.038  22.192  1.00  0.00     0.161 C 
BRANCH  14  15
ATOM     15  O   UNL A   1      29.936  29.161  22.415  1.00  0.00    -0.385 OA
ATOM     16  C   UNL A   1      29.622  29.973  23.543  1.00  0.00     0.194 C 
ENDBRANCH  14  15
ENDBRANCH  13  14
ENDBRANCH   7  13
BRANCH  11  17
ATOM     17  C   UNL A   1      34.246  24.579  25.021  1.00  0.00     0.317 C 
ATOM     18  O   UNL A   1      35.275  24.973  25.578  1.00  0.00    -0.249 OA
ATOM     19  N   UNL A   1      33.491  23.758  25.757  1.00  0.00    -0.334 N 
ATOM     20  H   UNL A   1      33.770  23.764  26.702  1.00  0.00     0.165 HD
BRANCH  19  21
ATOM     21  C   UNL A   1      32.375  22.864  25.541  1.00  0.00     0.153 C 
BRANCH  21  22
ATOM     22  C   UNL A   1      32.927  21.489  25.245  1.00  0.00    -0.028 A 
ATOM     23  C   UNL A   1      34.315  21.268  25.306  1.00  0.00     0.009 A 
ATOM     24  C   UNL A   1      32.099  20.429  24.867  1.00  0.00     0.009 A 
ATOM     25  C   UNL A   1      34.862  20.048  24.924  1.00  0.00     0.047 A 
ATOM     26  C   UNL A   1      32.652  19.194  24.504  1.00  0.00     0.047 A 
ATOM     27  C   UNL A   1      34.036  19.005  24.518  1.00  0.00     0.118 A 
BRANCH  27  28
ATOM     28  O   UNL A   1      34.706  17.873  24.150  1.00  0.00    -0.497 OA
ATOM     29  C   UNL A   1      33.975  16.917  23.399  1.00  0.00     0.278 C 
ENDBRANCH  27  28
ENDBRANCH  21  22
ENDBRANCH  19  21
ENDBRANCH  11  17
ENDBRANCH   4   7
ENDBRANCH   2   3
ENDBRANCH   1   2
BRANCH   1  30
ATOM     30  C   UNL A   1      31.498  29.459  26.872  1.00  0.00     0.023 C 
BRANCH  30  31
ATOM     31  C   UNL A   1      32.543  30.431  26.340  1.00  0.00     0.116 C 
BRANCH  31  32
ATOM     32  N   UNL A   1      32.459  31.786  26.872  1.00  0.00    -0.352 N 
ATOM     33  C   UNL A   1      33.405  32.509  27.570  1.00  0.00     0.251 C 
ATOM     34  H   UNL A   1      31.608  32.251  26.711  1.00  0.00     0.163 HD
ATOM     35  O   UNL A   1      33.169  33.662  27.921  1.00  0.00    -0.269 OA
BRANCH  33  36
ATOM     36  C   UNL A   1      34.685  31.867  27.945  1.00  0.00     0.039 A 
ATOM     37  C   UNL A   1      35.826  32.664  28.076  1.00  0.00     0.014 A 
ATOM     38  C   UNL A   1      34.739  30.507  28.255  1.00  0.00     0.014 A 
ATOM     39  C   UNL A   1      36.989  32.120  28.628  1.00  0.00     0.010 A 
ATOM     40  C   UNL A   1      35.865  29.995  28.891  1.00  0.00     0.010 A 
ATOM     41  C   UNL A   1      36.999  30.796  29.096  1.00  0.00    -0.014 A 
BRANCH  41  42
ATOM     42  C   UNL A   1      38.163  30.237  29.835  1.00  0.00     0.031 A 
ATOM     43  C   UNL A   1      38.458  30.687  31.241  1.00  0.00     0.074 A 
ATOM     44  C   UNL A   1      39.022  29.409  29.205  1.00  0.00     0.049 A 
ATOM     45  N   UNL A   1      39.461  30.368  32.016  1.00  0.00    -0.248 NA
ATOM     46  C   UNL A   1      37.521  31.651  31.839  1.00  0.00     0.031 C 
ATOM     47  C   UNL A   1      38.904  28.961  27.815  1.00  0.00     0.029 A 
ATOM     48  N   UNL A   1      40.179  28.814  29.645  1.00  0.00    -0.354 N 
ATOM     49  C   UNL A   1      39.302  31.125  33.172  1.00  0.00     0.074 A 
ATOM     50  C   UNL A   1      38.128  31.949  32.977  1.00  0.00     0.031 C 
ATOM     51  C   UNL A   1      39.930  28.145  27.525  1.00  0.00     0.029 A 
ATOM     52  C   UNL A   1      40.798  28.035  28.693  1.00  0.00     0.049 A 
ATOM     53  H   UNL A   1      40.534  28.934  30.555  1.00  0.00     0.167 HD
ATOM     54  C   UNL A   1      40.040  31.111  34.307  1.00  0.00     0.034 A 
ATOM     55  C   UNL A   1      41.931  27.309  28.756  1.00  0.00     0.034 A 
ATOM     56  C   UNL A   1      41.171  30.250  34.522  1.00  0.00     0.049 A 
ATOM     57  C   UNL A   1      42.711  27.275  30.043  1.00  0.00     0.074 A 
ATOM     58  C   UNL A   1      41.917  30.080  35.675  1.00  0.00     0.029 A 
ATOM     59  N   UNL A   1      41.722  29.416  33.562  1.00  0.00    -0.354 N 
ATOM     60  N   UNL A   1      42.448  27.866  31.183  1.00  0.00    -0.248 NA
ATOM     61  C   UNL A   1      43.928  26.449  30.061  1.00  0.00     0.031 C 
ATOM     62  C   UNL A   1      42.932  29.155  35.404  1.00  0.00     0.029 A 
ATOM     63  C   UNL A   1      42.807  28.736  34.090  1.00  0.00     0.049 A 
ATOM     64  H   UNL A   1      41.390  29.321  32.640  1.00  0.00     0.167 HD
ATOM     65  C   UNL A   1      43.440  27.452  32.066  1.00  0.00     0.074 A 
ATOM     66  C   UNL A   1      44.303  26.551  31.330  1.00  0.00     0.031 C 
ATOM     67  C   UNL A   1      43.627  27.799  33.363  1.00  0.00     0.034 A 
BRANCH  54  68
ATOM     68  C   UNL A   1      39.601  32.022  35.425  1.00  0.00     0.023 A 
ATOM     69  C   UNL A   1      38.664  31.558  36.372  1.00  0.00     0.012 A 
ATOM     70  C   UNL A   1      40.119  33.325  35.550  1.00  0.00     0.148 A 
ATOM     71  C   UNL A   1      38.210  32.392  37.393  1.00  0.00     0.002 A 
ATOM     72  C   UNL A   1      39.697  34.135  36.600  1.00  0.00     0.091 A 
ATOM     73  F   UNL A   1      40.991  33.762  34.631  1.00  0.00    -0.205 F 
ATOM     74  C   UNL A   1      38.732  33.676  37.512  1.00  0.00     0.022 A 
BRANCH  72  75
ATOM     75  S   UNL A   1      40.375  35.775  36.876  1.00  0.00     0.127 S 
ATOM     76  O   UNL A   1      39.621  36.574  35.913  1.00  0.00    -0.237 OA
ATOM     77  O   UNL A   1      40.031  36.024  38.277  1.00  0.00    -0.237 OA
ATOM     78  O   UNL A   1      41.805  35.658  36.622  1.00  0.00    -0.744 OA
ENDBRANCH  72  75
ENDBRANCH  54  68
BRANCH  55  79
ATOM     79  C   UNL A   1      42.339  26.467  27.595  1.00  0.00     0.023 A 
ATOM     80  C   UNL A   1      43.165  27.033  26.603  1.00  0.00     0.012 A 
ATOM     81  C   UNL A   1      41.960  25.116  27.484  1.00  0.00     0.148 A 
ATOM     82  C   UNL A   1      43.588  26.276  25.510  1.00  0.00     0.002 A 
ATOM     83  C   UNL A   1      42.424  24.353  26.417  1.00  0.00     0.091 A 
ATOM     84  F   UNL A   1      41.168  24.599  28.435  1.00  0.00    -0.205 F 
ATOM     85  C   UNL A   1      43.226  24.936  25.422  1.00  0.00     0.022 A 
BRANCH  83  86
ATOM     86  S   UNL A   1      42.113  22.589  26.277  1.00  0.00     0.127 S 
ATOM     87  O   UNL A   1      42.758  22.075  27.482  1.00  0.00    -0.237 OA
ATOM     88  O   UNL A   1      40.651  22.541  26.293  1.00  0.00    -0.237 OA
ATOM     89  O   UNL A   1      42.716  22.181  25.016  1.00  0.00    -0.744 OA
ENDBRANCH  83  86
ENDBRANCH  55  79
BRANCH  67  90
ATOM     90  C   UNL A   1      44.789  27.180  34.094  1.00  0.00     0.023 A 
ATOM     91  C   UNL A   1      46.068  27.764  33.994  1.00  0.00     0.012 A 
ATOM     92  C   UNL A   1      44.600  26.070  34.940  1.00  0.00     0.148 A 
ATOM     93  C   UNL A   1      47.146  27.235  34.704  1.00  0.00     0.002 A 
ATOM     94  C   UNL A   1      45.669  25.578  35.682  1.00  0.00     0.091 A 
ATOM     95  F   UNL A   1      43.381  25.515  35.005  1.00  0.00    -0.205 F 
ATOM     96  C   UNL A   1      46.944  26.153  35.556  1.00  0.00     0.022 A 
BRANCH  94  97
ATOM     97  S   UNL A   1      45.478  24.249  36.876  1.00  0.00     0.127 S 
ATOM     98  O   UNL A   1      45.097  23.129  36.019  1.00  0.00    -0.237 OA
ATOM     99  O   UNL A   1      46.821  24.150  37.449  1.00  0.00    -0.237 OA
ATOM    100  O   UNL A   1      44.456  24.698  37.813  1.00  0.00    -0.744 OA
ENDBRANCH  94  97
ENDBRANCH  67  90
ENDBRANCH  41  42
ENDBRANCH  33  36
ENDBRANCH  31  32
ENDBRANCH  30  31
ENDBRANCH   1  30
TORSDOF 21
ENDMDL
MODEL 3
REMARK VINA RESULT:     -11.1      2.082      2.773
REMARK SMILES COCC[C@@]1(C(=O)NCCCCNC(=O)c2ccc(-c3c4nc(c(-c5cccc(S(=O)(=O)[O-])c5F)c5ccc([nH]5)c(-c5cccc(S(=O)(=O)[O-])c5F)c5nc(c(-c6cccc(S(=O)(=O)[O-])c6F)c6ccc3[nH]6)C=C5)C=C4)cc2)CCCN(C(=O)NCc2ccc(OC)cc2)C1
REMARK SMILES IDX 10 1 9 2 8 3 6 4 7 5 5 7 79 8 95 9 80 10 82 11 81 12 4 13
REMARK SMILES IDX 3 14 2 15 1 16 83 17 84 18 85 19 86 21 87 22 88 23 94 24
REMARK SMILES IDX 89 25 93 26 90 27 91 28 92 29 11 30 12 31 13 32 14 33 15 35
REMARK SMILES IDX 16 36 17 37 78 38 18 39 77 40 19 41 20 42 21 43 71 44 22 45
REMARK SMILES IDX 76 46 70 47 72 48 23 49 75 50 69 51 68 52 24 54 56 55 36 56
REMARK SMILES IDX 55 57 37 58 40 59 54 60 73 61 38 62 39 63 53 65 74 66 41 67
REMARK SMILES IDX 25 68 26 69 34 70 27 71 29 72 35 73 28 74 30 75 31 76 32 77
REMARK SMILES IDX 33 78 57 79 58 80 66 81 59 82 61 83 67 84 60 85 62 86 63 87
REMARK SMILES IDX 64 88 65 89 42 90 43 91 51 92 44 93 46 94 52 95 45 96 47 97
REMARK SMILES IDX 48 98 49 99 50 100
REMARK H PARENT 8 6 85 20 13 34 72 53 40 64
REMARK Flexibility Score: inf
ROOT
ATOM      1  C   UNL A   1      32.859  28.264  25.039  1.00  0.00     0.023 C 
ENDROOT
BRANCH   1   2
ATOM      2  C   UNL A   1      33.726  27.017  25.041  1.00  0.00     0.116 C 
BRANCH   2   3
ATOM      3  N   UNL A   1      33.999  26.393  23.769  1.00  0.00    -0.356 N 
ATOM      4  C   UNL A   1      33.908  25.081  23.411  1.00  0.00     0.228 C 
ATOM      5  O   UNL A   1      33.771  24.884  22.195  1.00  0.00    -0.274 OA
ATOM      6  H   UNL A   1      34.292  27.005  23.055  1.00  0.00     0.163 HD
BRANCH   4   7
ATOM      7  C   UNL A   1      34.157  23.867  24.361  1.00  0.00     0.069 C 
ATOM      8  C   UNL A   1      33.866  22.549  23.562  1.00  0.00     0.021 C 
ATOM      9  C   UNL A   1      33.286  23.735  25.632  1.00  0.00     0.138 C 
ATOM     10  C   UNL A   1      32.359  22.357  23.281  1.00  0.00     0.023 C 
ATOM     11  N   UNL A   1      31.870  23.664  25.297  1.00  0.00    -0.324 N 
ATOM     12  C   UNL A   1      31.516  22.468  24.549  1.00  0.00     0.121 C 
BRANCH   7  13
ATOM     13  C   UNL A   1      35.645  23.962  24.815  1.00  0.00     0.047 C 
BRANCH  13  14
ATOM     14  C   UNL A   1      35.989  23.304  26.157  1.00  0.00     0.161 C 
BRANCH  14  15
ATOM     15  O   UNL A   1      36.065  21.882  26.060  1.00  0.00    -0.385 OA
ATOM     16  C   UNL A   1      37.130  21.438  25.224  1.00  0.00     0.194 C 
ENDBRANCH  14  15
ENDBRANCH  13  14
ENDBRANCH   7  13
BRANCH  11  17
ATOM     17  C   UNL A   1      31.075  24.668  25.752  1.00  0.00     0.317 C 
ATOM     18  O   UNL A   1      30.972  24.917  26.957  1.00  0.00    -0.249 OA
ATOM     19  N   UNL A   1      30.489  25.557  24.945  1.00  0.00    -0.334 N 
ATOM     20  H   UNL A   1      30.248  26.379  25.431  1.00  0.00     0.165 HD
BRANCH  19  21
ATOM     21  C   UNL A   1      30.114  25.639  23.551  1.00  0.00     0.153 C 
BRANCH  21  22
ATOM     22  C   UNL A   1      29.577  27.028  23.291  1.00  0.00    -0.028 A 
ATOM     23  C   UNL A   1      28.230  27.317  23.575  1.00  0.00     0.009 A 
ATOM     24  C   UNL A   1      30.372  28.031  22.732  1.00  0.00     0.009 A 
ATOM     25  C   UNL A   1      27.676  28.547  23.238  1.00  0.00     0.047 A 
ATOM     26  C   UNL A   1      29.816  29.277  22.412  1.00  0.00     0.047 A 
ATOM     27  C   UNL A   1      28.463  29.532  22.652  1.00  0.00     0.118 A 
BRANCH  27  28
ATOM     28  O   UNL A   1      27.787  30.681  22.351  1.00  0.00    -0.497 OA
ATOM     29  C   UNL A   1      27.999  31.224  21.057  1.00  0.00     0.278 C 
ENDBRANCH  27  28
ENDBRANCH  21  22
ENDBRANCH  19  21
ENDBRANCH  11  17
ENDBRANCH   4   7
ENDBRANCH   2   3
ENDBRANCH   1   2
BRANCH   1  30
ATOM     30  C   UNL A   1      33.417  29.503  25.722  1.00  0.00     0.023 C 
BRANCH  30  31
ATOM     31  C   UNL A   1      33.482  29.494  27.244  1.00  0.00     0.116 C 
BRANCH  31  32
ATOM     32  N   UNL A   1      33.623  30.804  27.869  1.00  0.00    -0.352 N 
ATOM     33  C   UNL A   1      34.717  31.354  28.504  1.00  0.00     0.251 C 
ATOM     34  H   UNL A   1      32.824  31.377  27.831  1.00  0.00     0.163 HD
ATOM     35  O   UNL A   1      34.664  32.496  28.952  1.00  0.00    -0.269 OA
BRANCH  33  36
ATOM     36  C   UNL A   1      35.938  30.539  28.695  1.00  0.00     0.039 A 
ATOM     37  C   UNL A   1      37.017  30.729  27.827  1.00  0.00     0.014 A 
ATOM     38  C   UNL A   1      36.050  29.665  29.776  1.00  0.00     0.014 A 
ATOM     39  C   UNL A   1      38.246  30.127  28.113  1.00  0.00     0.010 A 
ATOM     40  C   UNL A   1      37.297  29.146  30.109  1.00  0.00     0.010 A 
ATOM     41  C   UNL A   1      38.413  29.379  29.290  1.00  0.00    -0.014 A 
BRANCH  41  42
ATOM     42  C   UNL A   1      39.745  28.863  29.706  1.00  0.00     0.031 A 
ATOM     43  C   UNL A   1      40.507  29.537  30.816  1.00  0.00     0.074 A 
ATOM     44  C   UNL A   1      40.321  27.860  29.013  1.00  0.00     0.049 A 
ATOM     45  N   UNL A   1      41.706  29.277  31.270  1.00  0.00    -0.248 NA
ATOM     46  C   UNL A   1      39.849  30.674  31.477  1.00  0.00     0.031 C 
ATOM     47  C   UNL A   1      39.731  27.176  27.860  1.00  0.00     0.029 A 
ATOM     48  N   UNL A   1      41.545  27.255  29.163  1.00  0.00    -0.354 N 
ATOM     49  C   UNL A   1      41.963  30.244  32.235  1.00  0.00     0.074 A 
ATOM     50  C   UNL A   1      40.812  31.120  32.269  1.00  0.00     0.031 C 
ATOM     51  C   UNL A   1      40.581  26.232  27.424  1.00  0.00     0.029 A 
ATOM     52  C   UNL A   1      41.789  26.261  28.241  1.00  0.00     0.049 A 
ATOM     53  H   UNL A   1      42.189  27.508  29.863  1.00  0.00     0.167 HD
ATOM     54  C   UNL A   1      43.040  30.374  33.045  1.00  0.00     0.034 A 
ATOM     55  C   UNL A   1      42.860  25.460  28.078  1.00  0.00     0.034 A 
ATOM     56  C   UNL A   1      44.157  29.468  33.050  1.00  0.00     0.049 A 
ATOM     57  C   UNL A   1      44.027  25.594  29.018  1.00  0.00     0.074 A 
ATOM     58  C   UNL A   1      45.244  29.447  33.906  1.00  0.00     0.029 A 
ATOM     59  N   UNL A   1      44.333  28.426  32.154  1.00  0.00    -0.354 N 
ATOM     60  N   UNL A   1      44.177  26.405  30.037  1.00  0.00    -0.248 NA
ATOM     61  C   UNL A   1      45.159  24.679  28.807  1.00  0.00     0.031 C 
ATOM     62  C   UNL A   1      46.087  28.401  33.513  1.00  0.00     0.029 A 
ATOM     63  C   UNL A   1      45.516  27.760  32.426  1.00  0.00     0.049 A 
ATOM     64  H   UNL A   1      43.707  28.193  31.430  1.00  0.00     0.167 HD
ATOM     65  C   UNL A   1      45.400  26.074  30.613  1.00  0.00     0.074 A 
ATOM     66  C   UNL A   1      45.943  24.978  29.835  1.00  0.00     0.031 C 
ATOM     67  C   UNL A   1      46.021  26.635  31.679  1.00  0.00     0.034 A 
BRANCH  54  68
ATOM     68  C   UNL A   1      43.025  31.510  34.034  1.00  0.00     0.023 A 
ATOM     69  C   UNL A   1      43.719  32.702  33.736  1.00  0.00     0.012 A 
ATOM     70  C   UNL A   1      42.317  31.412  35.248  1.00  0.00     0.148 A 
ATOM     71  C   UNL A   1      43.755  33.754  34.649  1.00  0.00     0.002 A 
ATOM     72  C   UNL A   1      42.318  32.485  36.134  1.00  0.00     0.091 A 
ATOM     73  F   UNL A   1      41.682  30.266  35.531  1.00  0.00    -0.205 F 
ATOM     74  C   UNL A   1      43.048  33.650  35.843  1.00  0.00     0.022 A 
BRANCH  72  75
ATOM     75  S   UNL A   1      41.371  32.467  37.660  1.00  0.00     0.127 S 
ATOM     76  O   UNL A   1      42.193  31.609  38.509  1.00  0.00    -0.237 OA
ATOM     77  O   UNL A   1      41.368  33.880  38.042  1.00  0.00    -0.237 OA
ATOM     78  O   UNL A   1      40.061  31.940  37.303  1.00  0.00    -0.744 OA
ENDBRANCH  72  75
ENDBRANCH  54  68
BRANCH  55  79
ATOM     79  C   UNL A   1      42.832  24.385  27.045  1.00  0.00     0.023 A 
ATOM     80  C   UNL A   1      43.474  24.614  25.811  1.00  0.00     0.012 A 
ATOM     81  C   UNL A   1      42.225  23.138  27.282  1.00  0.00     0.148 A 
ATOM     82  C   UNL A   1      43.491  23.629  24.823  1.00  0.00     0.002 A 
ATOM     83  C   UNL A   1      42.286  22.143  26.312  1.00  0.00     0.091 A 
ATOM     84  F   UNL A   1      41.613  22.944  28.459  1.00  0.00    -0.205 F 
ATOM     85  C   UNL A   1      42.907  22.392  25.076  1.00  0.00     0.022 A 
BRANCH  83  86
ATOM     86  S   UNL A   1      41.669  20.479  26.587  1.00  0.00     0.127 S 
ATOM     87  O   UNL A   1      42.330  20.117  27.838  1.00  0.00    -0.237 OA
ATOM     88  O   UNL A   1      40.228  20.708  26.695  1.00  0.00    -0.237 OA
ATOM     89  O   UNL A   1      42.072  19.710  25.417  1.00  0.00    -0.744 OA
ENDBRANCH  83  86
ENDBRANCH  55  79
BRANCH  67  90
ATOM     90  C   UNL A   1      47.347  26.060  32.100  1.00  0.00     0.023 A 
ATOM     91  C   UNL A   1      48.528  26.481  31.457  1.00  0.00     0.012 A 
ATOM     92  C   UNL A   1      47.432  25.163  33.184  1.00  0.00     0.148 A 
ATOM     93  C   UNL A   1      49.771  25.997  31.868  1.00  0.00     0.002 A 
ATOM     94  C   UNL A   1      48.677  24.722  33.619  1.00  0.00     0.091 A 
ATOM     95  F   UNL A   1      46.295  24.757  33.769  1.00  0.00    -0.205 F 
ATOM     96  C   UNL A   1      49.846  25.130  32.955  1.00  0.00     0.022 A 
BRANCH  94  97
ATOM     97  S   UNL A   1      48.875  23.681  35.070  1.00  0.00     0.127 S 
ATOM     98  O   UNL A   1      48.186  22.461  34.657  1.00  0.00    -0.237 OA
ATOM     99  O   UNL A   1      50.330  23.558  35.169  1.00  0.00    -0.237 OA
ATOM    100  O   UNL A   1      48.256  24.409  36.170  1.00  0.00    -0.744 OA
ENDBRANCH  94  97
ENDBRANCH  67  90
ENDBRANCH  41  42
ENDBRANCH  33  36
ENDBRANCH  31  32
ENDBRANCH  30  31
ENDBRANCH   1  30
TORSDOF 21
ENDMDL
