MODEL 1
REMARK VINA RESULT:     -10.2      0.000      0.000
REMARK SMILES COC[C@@H](C)N(C)C(=O)N1CCC(CC(=O)NCCCCNC(=O)c2ccc(-c3c4nc(c(-c5cccc(S(=O)(=O)[O-])c5F)c5ccc([nH]5)c(-c5cccc(S(=O)(=O)[O-])c5F)c5nc(c(-c6cccc(S(=O)(=O)[O-])c6F)c6ccc3[nH]6)C=C5)C=C4)cc2)CC1
REMARK SMILES IDX 18 1 17 2 15 3 16 4 14 6 13 7 8 8 9 9 10 10 11 11 89 12
REMARK SMILES IDX 12 13 88 14 6 15 7 16 4 17 5 18 3 19 2 20 1 21 19 22 20 23
REMARK SMILES IDX 21 24 22 25 23 26 24 28 25 29 26 30 87 31 27 32 86 33 28 34
REMARK SMILES IDX 29 35 30 36 80 37 31 38 85 39 79 40 81 41 32 42 84 43 78 44
REMARK SMILES IDX 77 45 33 47 65 48 45 49 64 50 46 51 49 52 63 53 82 54 47 55
REMARK SMILES IDX 48 56 62 58 83 59 50 60 34 61 35 62 43 63 36 64 38 65 44 66
REMARK SMILES IDX 37 67 39 68 40 69 41 70 42 71 66 72 67 73 75 74 68 75 70 76
REMARK SMILES IDX 76 77 69 78 71 79 72 80 73 81 74 82 51 83 52 84 60 85 53 86
REMARK SMILES IDX 55 87 61 88 54 89 56 90 57 91 58 92 59 93
REMARK H PARENT 17 5 22 27 81 46 49 57
REMARK Flexibility Score: inf
ROOT
ATOM      1  C   UNL A   1      37.702  23.553  25.772  1.00  0.00     0.116 C 
ENDROOT
BRANCH   1   2
ATOM      2  N   UNL A   1      36.540  22.979  26.436  1.00  0.00    -0.356 N 
ATOM      3  C   UNL A   1      35.430  22.376  25.921  1.00  0.00     0.220 C 
ATOM      4  O   UNL A   1      34.547  22.008  26.699  1.00  0.00    -0.275 OA
ATOM      5  H   UNL A   1      36.559  23.037  27.419  1.00  0.00     0.163 HD
BRANCH   3   6
ATOM      6  C   UNL A   1      35.267  22.167  24.422  1.00  0.00     0.103 C 
BRANCH   6   7
ATOM      7  C   UNL A   1      34.361  23.223  23.754  1.00  0.00     0.002 C 
ATOM      8  C   UNL A   1      31.483  25.731  25.051  1.00  0.00     0.320 C 
ATOM      9  O   UNL A   1      31.078  25.040  25.982  1.00  0.00    -0.248 OA
ATOM     10  N   UNL A   1      32.242  25.203  24.027  1.00  0.00    -0.325 N 
ATOM     11  C   UNL A   1      31.902  23.910  23.487  1.00  0.00     0.121 C 
ATOM     12  C   UNL A   1      33.606  25.654  23.786  1.00  0.00     0.121 C 
ATOM     13  C   UNL A   1      32.888  22.850  23.923  1.00  0.00     0.026 C 
ATOM     14  C   UNL A   1      34.616  24.630  24.323  1.00  0.00     0.026 C 
BRANCH   8  15
ATOM     15  N   UNL A   1      31.183  27.079  24.921  1.00  0.00    -0.323 N 
ATOM     16  C   UNL A   1      31.998  28.110  25.550  1.00  0.00     0.149 C 
BRANCH  15  17
ATOM     17  C   UNL A   1      30.160  27.528  23.959  1.00  0.00     0.109 C 
ATOM     18  C   UNL A   1      29.079  26.457  23.790  1.00  0.00     0.033 C 
BRANCH  17  19
ATOM     19  C   UNL A   1      30.773  27.992  22.617  1.00  0.00     0.184 C 
BRANCH  19  20
ATOM     20  O   UNL A   1      29.832  28.676  21.779  1.00  0.00    -0.383 OA
ATOM     21  C   UNL A   1      29.702  30.060  22.070  1.00  0.00     0.194 C 
ENDBRANCH  19  20
ENDBRANCH  17  19
ENDBRANCH  15  17
ENDBRANCH   8  15
ENDBRANCH   6   7
ENDBRANCH   3   6
ENDBRANCH   1   2
BRANCH   1  22
ATOM     22  C   UNL A   1      39.008  22.919  26.262  1.00  0.00     0.023 C 
BRANCH  22  23
ATOM     23  C   UNL A   1      39.279  21.504  25.783  1.00  0.00     0.023 C 
BRANCH  23  24
ATOM     24  C   UNL A   1      39.838  20.573  26.838  1.00  0.00     0.116 C 
BRANCH  24  25
ATOM     25  N   UNL A   1      40.693  19.520  26.303  1.00  0.00    -0.352 N 
ATOM     26  C   UNL A   1      42.030  19.586  25.973  1.00  0.00     0.251 C 
ATOM     27  H   UNL A   1      40.259  18.649  26.159  1.00  0.00     0.163 HD
ATOM     28  O   UNL A   1      42.593  18.632  25.456  1.00  0.00    -0.269 OA
BRANCH  26  29
ATOM     29  C   UNL A   1      42.756  20.850  26.213  1.00  0.00     0.039 A 
ATOM     30  C   UNL A   1      43.023  21.695  25.133  1.00  0.00     0.014 A 
ATOM     31  C   UNL A   1      43.077  21.239  27.514  1.00  0.00     0.014 A 
ATOM     32  C   UNL A   1      43.531  22.973  25.375  1.00  0.00     0.010 A 
ATOM     33  C   UNL A   1      43.471  22.547  27.758  1.00  0.00     0.010 A 
ATOM     34  C   UNL A   1      43.712  23.425  26.693  1.00  0.00    -0.014 A 
BRANCH  34  35
ATOM     35  C   UNL A   1      44.150  24.813  26.985  1.00  0.00     0.031 A 
ATOM     36  C   UNL A   1      43.168  25.805  27.551  1.00  0.00     0.074 A 
ATOM     37  C   UNL A   1      45.392  25.209  26.642  1.00  0.00     0.049 A 
ATOM     38  N   UNL A   1      43.341  27.073  27.817  1.00  0.00    -0.248 NA
ATOM     39  C   UNL A   1      41.800  25.322  27.809  1.00  0.00     0.031 C 
ATOM     40  C   UNL A   1      46.396  24.375  25.976  1.00  0.00     0.029 A 
ATOM     41  N   UNL A   1      46.014  26.424  26.781  1.00  0.00    -0.354 N 
ATOM     42  C   UNL A   1      42.100  27.546  28.225  1.00  0.00     0.074 A 
ATOM     43  C   UNL A   1      41.171  26.443  28.130  1.00  0.00     0.031 C 
ATOM     44  C   UNL A   1      47.509  25.099  25.776  1.00  0.00     0.029 A 
ATOM     45  C   UNL A   1      47.296  26.451  26.282  1.00  0.00     0.049 A 
ATOM     46  H   UNL A   1      45.583  27.205  27.199  1.00  0.00     0.167 HD
ATOM     47  C   UNL A   1      41.769  28.776  28.681  1.00  0.00     0.034 A 
ATOM     48  C   UNL A   1      48.198  27.451  26.243  1.00  0.00     0.034 A 
ATOM     49  C   UNL A   1      42.715  29.844  28.855  1.00  0.00     0.049 A 
ATOM     50  C   UNL A   1      47.838  28.777  26.857  1.00  0.00     0.074 A 
ATOM     51  C   UNL A   1      42.513  31.085  29.431  1.00  0.00     0.029 A 
ATOM     52  N   UNL A   1      44.041  29.794  28.459  1.00  0.00    -0.354 N 
ATOM     53  N   UNL A   1      46.712  29.146  27.420  1.00  0.00    -0.248 NA
ATOM     54  C   UNL A   1      48.883  29.811  26.870  1.00  0.00     0.031 C 
ATOM     55  C   UNL A   1      43.720  31.790  29.374  1.00  0.00     0.029 A 
ATOM     56  C   UNL A   1      44.673  30.984  28.773  1.00  0.00     0.049 A 
ATOM     57  H   UNL A   1      44.471  29.025  28.019  1.00  0.00     0.167 HD
ATOM     58  C   UNL A   1      46.921  30.441  27.878  1.00  0.00     0.074 A 
ATOM     59  C   UNL A   1      48.292  30.782  27.554  1.00  0.00     0.031 C 
ATOM     60  C   UNL A   1      46.053  31.283  28.492  1.00  0.00     0.034 A 
BRANCH  47  61
ATOM     61  C   UNL A   1      40.342  29.005  29.101  1.00  0.00     0.023 A 
ATOM     62  C   UNL A   1      39.365  29.271  28.119  1.00  0.00     0.012 A 
ATOM     63  C   UNL A   1      39.956  28.907  30.452  1.00  0.00     0.148 A 
ATOM     64  C   UNL A   1      38.034  29.473  28.477  1.00  0.00     0.002 A 
ATOM     65  C   UNL A   1      38.618  29.065  30.797  1.00  0.00     0.091 A 
ATOM     66  F   UNL A   1      40.902  28.678  31.373  1.00  0.00    -0.205 F 
ATOM     67  C   UNL A   1      37.659  29.359  29.813  1.00  0.00     0.022 A 
BRANCH  65  68
ATOM     68  S   UNL A   1      38.021  28.865  32.478  1.00  0.00     0.127 S 
ATOM     69  O   UNL A   1      38.232  27.436  32.699  1.00  0.00    -0.237 OA
ATOM     70  O   UNL A   1      38.923  29.738  33.232  1.00  0.00    -0.237 OA
ATOM     71  O   UNL A   1      36.630  29.299  32.464  1.00  0.00    -0.744 OA
ENDBRANCH  65  68
ENDBRANCH  47  61
BRANCH  48  72
ATOM     72  C   UNL A   1      49.559  27.206  25.687  1.00  0.00     0.023 A 
ATOM     73  C   UNL A   1      50.564  26.690  26.528  1.00  0.00     0.012 A 
ATOM     74  C   UNL A   1      49.857  27.448  24.332  1.00  0.00     0.148 A 
ATOM     75  C   UNL A   1      51.849  26.449  26.039  1.00  0.00     0.002 A 
ATOM     76  C   UNL A   1      51.124  27.155  23.838  1.00  0.00     0.091 A 
ATOM     77  F   UNL A   1      48.894  27.954  23.548  1.00  0.00    -0.205 F 
ATOM     78  C   UNL A   1      52.126  26.671  24.694  1.00  0.00     0.022 A 
BRANCH  76  79
ATOM     79  S   UNL A   1      51.523  27.285  22.092  1.00  0.00     0.127 S 
ATOM     80  O   UNL A   1      52.764  26.520  22.009  1.00  0.00    -0.237 OA
ATOM     81  O   UNL A   1      50.365  26.648  21.462  1.00  0.00    -0.237 OA
ATOM     82  O   UNL A   1      51.632  28.713  21.826  1.00  0.00    -0.744 OA
ENDBRANCH  76  79
ENDBRANCH  48  72
BRANCH  60  83
ATOM     83  C   UNL A   1      46.558  32.649  28.867  1.00  0.00     0.023 A 
ATOM     84  C   UNL A   1      47.232  32.827  30.091  1.00  0.00     0.012 A 
ATOM     85  C   UNL A   1      46.435  33.735  27.980  1.00  0.00     0.148 A 
ATOM     86  C   UNL A   1      47.748  34.074  30.441  1.00  0.00     0.002 A 
ATOM     87  C   UNL A   1      46.992  34.964  28.315  1.00  0.00     0.091 A 
ATOM     88  F   UNL A   1      45.773  33.551  26.828  1.00  0.00    -0.205 F 
ATOM     89  C   UNL A   1      47.639  35.138  29.548  1.00  0.00     0.022 A 
BRANCH  87  90
ATOM     90  S   UNL A   1      46.978  36.357  27.181  1.00  0.00     0.127 S 
ATOM     91  O   UNL A   1      45.547  36.628  27.056  1.00  0.00    -0.237 OA
ATOM     92  O   UNL A   1      47.729  37.373  27.921  1.00  0.00    -0.237 OA
ATOM     93  O   UNL A   1      47.640  35.888  25.970  1.00  0.00    -0.744 OA
ENDBRANCH  87  90
ENDBRANCH  60  83
ENDBRANCH  34  35
ENDBRANCH  26  29
ENDBRANCH  24  25
ENDBRANCH  23  24
ENDBRANCH  22  23
ENDBRANCH   1  22
TORSDOF 19
ENDMDL
MODEL 2
REMARK VINA RESULT:     -10.1      1.992      7.766
REMARK SMILES COC[C@@H](C)N(C)C(=O)N1CCC(CC(=O)NCCCCNC(=O)c2ccc(-c3c4nc(c(-c5cccc(S(=O)(=O)[O-])c5F)c5ccc([nH]5)c(-c5cccc(S(=O)(=O)[O-])c5F)c5nc(c(-c6cccc(S(=O)(=O)[O-])c6F)c6ccc3[nH]6)C=C5)C=C4)cc2)CC1
REMARK SMILES IDX 18 1 17 2 15 3 16 4 14 6 13 7 8 8 9 9 10 10 11 11 89 12
REMARK SMILES IDX 12 13 88 14 6 15 7 16 4 17 5 18 3 19 2 20 1 21 19 22 20 23
REMARK SMILES IDX 21 24 22 25 23 26 24 28 25 29 26 30 87 31 27 32 86 33 28 34
REMARK SMILES IDX 29 35 30 36 80 37 31 38 85 39 79 40 81 41 32 42 84 43 78 44
REMARK SMILES IDX 77 45 33 47 65 48 45 49 64 50 46 51 49 52 63 53 82 54 47 55
REMARK SMILES IDX 48 56 62 58 83 59 50 60 34 61 35 62 43 63 36 64 38 65 44 66
REMARK SMILES IDX 37 67 39 68 40 69 41 70 42 71 66 72 67 73 75 74 68 75 70 76
REMARK SMILES IDX 76 77 69 78 71 79 72 80 73 81 74 82 51 83 52 84 60 85 53 86
REMARK SMILES IDX 55 87 61 88 54 89 56 90 57 91 58 92 59 93
REMARK H PARENT 17 5 22 27 81 46 49 57
REMARK Flexibility Score: inf
ROOT
ATOM      1  C   UNL A   1      37.082  23.408  25.722  1.00  0.00     0.116 C 
ENDROOT
BRANCH   1   2
ATOM      2  N   UNL A   1      36.067  22.750  26.530  1.00  0.00    -0.356 N 
ATOM      3  C   UNL A   1      35.035  21.933  26.170  1.00  0.00     0.220 C 
ATOM      4  O   UNL A   1      34.269  21.532  27.049  1.00  0.00    -0.275 OA
ATOM      5  H   UNL A   1      36.135  22.924  27.498  1.00  0.00     0.163 HD
BRANCH   3   6
ATOM      6  C   UNL A   1      34.816  21.529  24.719  1.00  0.00     0.103 C 
BRANCH   6   7
ATOM      7  C   UNL A   1      33.840  22.458  23.968  1.00  0.00     0.002 C 
ATOM      8  C   UNL A   1      31.695  25.726  24.956  1.00  0.00     0.320 C 
ATOM      9  O   UNL A   1      31.534  25.457  26.143  1.00  0.00    -0.248 OA
ATOM     10  N   UNL A   1      32.066  24.768  24.034  1.00  0.00    -0.325 N 
ATOM     11  C   UNL A   1      31.477  23.454  24.103  1.00  0.00     0.121 C 
ATOM     12  C   UNL A   1      33.326  24.863  23.310  1.00  0.00     0.121 C 
ATOM     13  C   UNL A   1      32.460  22.431  24.627  1.00  0.00     0.026 C 
ATOM     14  C   UNL A   1      34.366  23.902  23.906  1.00  0.00     0.026 C 
BRANCH   8  15
ATOM     15  N   UNL A   1      31.480  26.991  24.428  1.00  0.00    -0.323 N 
ATOM     16  C   UNL A   1      30.467  27.235  23.409  1.00  0.00     0.149 C 
BRANCH  15  17
ATOM     17  C   UNL A   1      32.116  28.174  25.037  1.00  0.00     0.109 C 
ATOM     18  C   UNL A   1      31.208  29.399  24.900  1.00  0.00     0.033 C 
BRANCH  17  19
ATOM     19  C   UNL A   1      33.548  28.414  24.503  1.00  0.00     0.184 C 
BRANCH  19  20
ATOM     20  O   UNL A   1      33.568  29.103  23.246  1.00  0.00    -0.383 OA
ATOM     21  C   UNL A   1      33.909  28.275  22.143  1.00  0.00     0.194 C 
ENDBRANCH  19  20
ENDBRANCH  17  19
ENDBRANCH  15  17
ENDBRANCH   8  15
ENDBRANCH   6   7
ENDBRANCH   3   6
ENDBRANCH   1   2
BRANCH   1  22
ATOM     22  C   UNL A   1      38.498  22.992  26.137  1.00  0.00     0.023 C 
BRANCH  22  23
ATOM     23  C   UNL A   1      38.949  21.620  25.669  1.00  0.00     0.023 C 
BRANCH  23  24
ATOM     24  C   UNL A   1      39.698  20.811  26.708  1.00  0.00     0.116 C 
BRANCH  24  25
ATOM     25  N   UNL A   1      40.727  19.942  26.149  1.00  0.00    -0.352 N 
ATOM     26  C   UNL A   1      42.056  20.225  25.918  1.00  0.00     0.251 C 
ATOM     27  H   UNL A   1      40.434  19.034  25.905  1.00  0.00     0.163 HD
ATOM     28  O   UNL A   1      42.782  19.411  25.366  1.00  0.00    -0.269 OA
BRANCH  26  29
ATOM     29  C   UNL A   1      42.574  21.553  26.309  1.00  0.00     0.039 A 
ATOM     30  C   UNL A   1      42.703  22.546  25.335  1.00  0.00     0.014 A 
ATOM     31  C   UNL A   1      42.832  21.838  27.651  1.00  0.00     0.014 A 
ATOM     32  C   UNL A   1      43.003  23.852  25.726  1.00  0.00     0.010 A 
ATOM     33  C   UNL A   1      43.016  23.156  28.045  1.00  0.00     0.010 A 
ATOM     34  C   UNL A   1      43.113  24.176  27.089  1.00  0.00    -0.014 A 
BRANCH  34  35
ATOM     35  C   UNL A   1      43.326  25.573  27.540  1.00  0.00     0.031 A 
ATOM     36  C   UNL A   1      44.718  26.147  27.573  1.00  0.00     0.074 A 
ATOM     37  C   UNL A   1      42.287  26.286  28.021  1.00  0.00     0.049 A 
ATOM     38  N   UNL A   1      45.114  27.320  27.990  1.00  0.00    -0.248 NA
ATOM     39  C   UNL A   1      45.815  25.271  27.123  1.00  0.00     0.031 C 
ATOM     40  C   UNL A   1      40.912  25.800  28.155  1.00  0.00     0.029 A 
ATOM     41  N   UNL A   1      42.233  27.567  28.514  1.00  0.00    -0.354 N 
ATOM     42  C   UNL A   1      46.501  27.305  27.898  1.00  0.00     0.074 A 
ATOM     43  C   UNL A   1      46.882  25.993  27.428  1.00  0.00     0.031 C 
ATOM     44  C   UNL A   1      40.149  26.772  28.681  1.00  0.00     0.029 A 
ATOM     45  C   UNL A   1      40.980  27.943  28.940  1.00  0.00     0.049 A 
ATOM     46  H   UNL A   1      43.018  28.160  28.559  1.00  0.00     0.167 HD
ATOM     47  C   UNL A   1      47.378  28.307  28.138  1.00  0.00     0.034 A 
ATOM     48  C   UNL A   1      40.550  29.104  29.472  1.00  0.00     0.034 A 
ATOM     49  C   UNL A   1      46.987  29.636  28.521  1.00  0.00     0.049 A 
ATOM     50  C   UNL A   1      41.528  30.237  29.626  1.00  0.00     0.074 A 
ATOM     51  C   UNL A   1      47.782  30.759  28.663  1.00  0.00     0.029 A 
ATOM     52  N   UNL A   1      45.690  30.020  28.819  1.00  0.00    -0.354 N 
ATOM     53  N   UNL A   1      42.810  30.264  29.346  1.00  0.00    -0.248 NA
ATOM     54  C   UNL A   1      40.997  31.512  30.129  1.00  0.00     0.031 C 
ATOM     55  C   UNL A   1      46.963  31.823  29.055  1.00  0.00     0.029 A 
ATOM     56  C   UNL A   1      45.658  31.363  29.148  1.00  0.00     0.049 A 
ATOM     57  H   UNL A   1      44.905  29.425  28.798  1.00  0.00     0.167 HD
ATOM     58  C   UNL A   1      43.231  31.562  29.611  1.00  0.00     0.074 A 
ATOM     59  C   UNL A   1      42.061  32.299  30.045  1.00  0.00     0.031 C 
ATOM     60  C   UNL A   1      44.476  32.092  29.524  1.00  0.00     0.034 A 
BRANCH  47  61
ATOM     61  C   UNL A   1      48.839  28.026  27.912  1.00  0.00     0.023 A 
ATOM     62  C   UNL A   1      49.646  27.634  29.002  1.00  0.00     0.012 A 
ATOM     63  C   UNL A   1      49.404  28.096  26.625  1.00  0.00     0.148 A 
ATOM     64  C   UNL A   1      50.998  27.353  28.820  1.00  0.00     0.002 A 
ATOM     65  C   UNL A   1      50.744  27.771  26.444  1.00  0.00     0.091 A 
ATOM     66  F   UNL A   1      48.629  28.494  25.606  1.00  0.00    -0.205 F 
ATOM     67  C   UNL A   1      51.544  27.410  27.542  1.00  0.00     0.022 A 
BRANCH  65  68
ATOM     68  S   UNL A   1      51.525  27.743  24.827  1.00  0.00     0.127 S 
ATOM     69  O   UNL A   1      50.724  26.738  24.130  1.00  0.00    -0.237 OA
ATOM     70  O   UNL A   1      51.319  29.115  24.361  1.00  0.00    -0.237 OA
ATOM     71  O   UNL A   1      52.917  27.384  25.060  1.00  0.00    -0.744 OA
ENDBRANCH  65  68
ENDBRANCH  47  61
BRANCH  48  72
ATOM     72  C   UNL A   1      39.109  29.282  29.807  1.00  0.00     0.023 A 
ATOM     73  C   UNL A   1      38.658  28.954  31.101  1.00  0.00     0.012 A 
ATOM     74  C   UNL A   1      38.192  29.801  28.874  1.00  0.00     0.148 A 
ATOM     75  C   UNL A   1      37.315  29.108  31.448  1.00  0.00     0.002 A 
ATOM     76  C   UNL A   1      36.867  30.004  29.243  1.00  0.00     0.091 A 
ATOM     77  F   UNL A   1      38.634  30.095  27.642  1.00  0.00    -0.205 F 
ATOM     78  C   UNL A   1      36.423  29.643  30.525  1.00  0.00     0.022 A 
BRANCH  76  79
ATOM     79  S   UNL A   1      35.684  30.811  28.158  1.00  0.00     0.127 S 
ATOM     80  O   UNL A   1      35.483  29.798  27.125  1.00  0.00    -0.237 OA
ATOM     81  O   UNL A   1      34.541  31.019  29.048  1.00  0.00    -0.237 OA
ATOM     82  O   UNL A   1      36.334  32.042  27.728  1.00  0.00    -0.744 OA
ENDBRANCH  76  79
ENDBRANCH  48  72
BRANCH  60  83
ATOM     83  C   UNL A   1      44.640  33.541  29.892  1.00  0.00     0.023 A 
ATOM     84  C   UNL A   1      45.089  33.882  31.184  1.00  0.00     0.012 A 
ATOM     85  C   UNL A   1      44.426  34.558  28.943  1.00  0.00     0.148 A 
ATOM     86  C   UNL A   1      45.292  35.216  31.534  1.00  0.00     0.002 A 
ATOM     87  C   UNL A   1      44.674  35.883  29.285  1.00  0.00     0.091 A 
ATOM     88  F   UNL A   1      43.980  34.216  27.725  1.00  0.00    -0.205 F 
ATOM     89  C   UNL A   1      45.096  36.214  30.582  1.00  0.00     0.022 A 
BRANCH  87  90
ATOM     90  S   UNL A   1      44.539  37.217  28.090  1.00  0.00     0.127 S 
ATOM     91  O   UNL A   1      43.159  37.070  27.632  1.00  0.00    -0.237 OA
ATOM     92  O   UNL A   1      44.785  38.403  28.912  1.00  0.00    -0.237 OA
ATOM     93  O   UNL A   1      45.567  36.958  27.090  1.00  0.00    -0.744 OA
ENDBRANCH  87  90
ENDBRANCH  60  83
ENDBRANCH  34  35
ENDBRANCH  26  29
ENDBRANCH  24  25
ENDBRANCH  23  24
ENDBRANCH  22  23
ENDBRANCH   1  22
TORSDOF 19
ENDMDL
MODEL 3
REMARK VINA RESULT:      -9.9      0.763      7.804
REMARK SMILES COC[C@@H](C)N(C)C(=O)N1CCC(CC(=O)NCCCCNC(=O)c2ccc(-c3c4nc(c(-c5cccc(S(=O)(=O)[O-])c5F)c5ccc([nH]5)c(-c5cccc(S(=O)(=O)[O-])c5F)c5nc(c(-c6cccc(S(=O)(=O)[O-])c6F)c6ccc3[nH]6)C=C5)C=C4)cc2)CC1
REMARK SMILES IDX 18 1 17 2 15 3 16 4 14 6 13 7 8 8 9 9 10 10 11 11 89 12
REMARK SMILES IDX 12 13 88 14 6 15 7 16 4 17 5 18 3 19 2 20 1 21 19 22 20 23
REMARK SMILES IDX 21 24 22 25 23 26 24 28 25 29 26 30 87 31 27 32 86 33 28 34
REMARK SMILES IDX 29 35 30 36 80 37 31 38 85 39 79 40 81 41 32 42 84 43 78 44
REMARK SMILES IDX 77 45 33 47 65 48 45 49 64 50 46 51 49 52 63 53 82 54 47 55
REMARK SMILES IDX 48 56 62 58 83 59 50 60 34 61 35 62 43 63 36 64 38 65 44 66
REMARK SMILES IDX 37 67 39 68 40 69 41 70 42 71 66 72 67 73 75 74 68 75 70 76
REMARK SMILES IDX 76 77 69 78 71 79 72 80 73 81 74 82 51 83 52 84 60 85 53 86
REMARK SMILES IDX 55 87 61 88 54 89 56 90 57 91 58 92 59 93
REMARK H PARENT 17 5 22 27 81 46 49 57
REMARK Flexibility Score: inf
ROOT
ATOM      1  C   UNL A   1      38.032  23.685  26.014  1.00  0.00     0.116 C 
ENDROOT
BRANCH   1   2
ATOM      2  N   UNL A   1      36.814  23.034  26.473  1.00  0.00    -0.356 N 
ATOM      3  C   UNL A   1      35.835  22.388  25.778  1.00  0.00     0.220 C 
ATOM      4  O   UNL A   1      34.862  21.953  26.399  1.00  0.00    -0.275 OA
ATOM      5  H   UNL A   1      36.675  23.066  27.448  1.00  0.00     0.163 HD
BRANCH   3   6
ATOM      6  C   UNL A   1      35.921  22.212  24.268  1.00  0.00     0.103 C 
BRANCH   6   7
ATOM      7  C   UNL A   1      34.802  22.949  23.503  1.00  0.00     0.002 C 
ATOM      8  C   UNL A   1      31.382  24.804  24.557  1.00  0.00     0.320 C 
ATOM      9  O   UNL A   1      31.135  24.130  25.554  1.00  0.00    -0.248 OA
ATOM     10  N   UNL A   1      32.265  24.378  23.587  1.00  0.00    -0.325 N 
ATOM     11  C   UNL A   1      32.256  22.995  23.180  1.00  0.00     0.121 C 
ATOM     12  C   UNL A   1      33.486  25.118  23.297  1.00  0.00     0.121 C 
ATOM     13  C   UNL A   1      33.459  22.251  23.714  1.00  0.00     0.026 C 
ATOM     14  C   UNL A   1      34.701  24.424  23.929  1.00  0.00     0.026 C 
BRANCH   8  15
ATOM     15  N   UNL A   1      30.770  26.022  24.295  1.00  0.00    -0.323 N 
ATOM     16  C   UNL A   1      29.343  26.120  24.017  1.00  0.00     0.149 C 
BRANCH  15  17
ATOM     17  C   UNL A   1      31.500  27.286  24.506  1.00  0.00     0.109 C 
ATOM     18  C   UNL A   1      31.963  27.399  25.961  1.00  0.00     0.033 C 
BRANCH  17  19
ATOM     19  C   UNL A   1      30.698  28.518  24.025  1.00  0.00     0.184 C 
BRANCH  19  20
ATOM     20  O   UNL A   1      31.211  29.078  22.808  1.00  0.00    -0.383 OA
ATOM     21  C   UNL A   1      30.225  29.717  22.009  1.00  0.00     0.194 C 
ENDBRANCH  19  20
ENDBRANCH  17  19
ENDBRANCH  15  17
ENDBRANCH   8  15
ENDBRANCH   6   7
ENDBRANCH   3   6
ENDBRANCH   1   2
BRANCH   1  22
ATOM     22  C   UNL A   1      39.287  22.933  26.470  1.00  0.00     0.023 C 
BRANCH  22  23
ATOM     23  C   UNL A   1      39.499  21.562  25.851  1.00  0.00     0.023 C 
BRANCH  23  24
ATOM     24  C   UNL A   1      40.073  20.524  26.792  1.00  0.00     0.116 C 
BRANCH  24  25
ATOM     25  N   UNL A   1      40.964  19.569  26.145  1.00  0.00    -0.352 N 
ATOM     26  C   UNL A   1      42.274  19.745  25.755  1.00  0.00     0.251 C 
ATOM     27  H   UNL A   1      40.579  18.681  25.962  1.00  0.00     0.163 HD
ATOM     28  O   UNL A   1      42.869  18.867  25.146  1.00  0.00    -0.269 OA
BRANCH  26  29
ATOM     29  C   UNL A   1      42.930  21.037  26.045  1.00  0.00     0.039 A 
ATOM     30  C   UNL A   1      43.102  21.959  25.011  1.00  0.00     0.014 A 
ATOM     31  C   UNL A   1      43.278  21.368  27.356  1.00  0.00     0.014 A 
ATOM     32  C   UNL A   1      43.539  23.250  25.312  1.00  0.00     0.010 A 
ATOM     33  C   UNL A   1      43.600  22.682  27.665  1.00  0.00     0.010 A 
ATOM     34  C   UNL A   1      43.744  23.635  26.648  1.00  0.00    -0.014 A 
BRANCH  34  35
ATOM     35  C   UNL A   1      44.107  25.029  27.009  1.00  0.00     0.031 A 
ATOM     36  C   UNL A   1      45.539  25.481  26.908  1.00  0.00     0.074 A 
ATOM     37  C   UNL A   1      43.171  25.850  27.528  1.00  0.00     0.049 A 
ATOM     38  N   UNL A   1      46.062  26.634  27.231  1.00  0.00    -0.248 NA
ATOM     39  C   UNL A   1      46.521  24.495  26.423  1.00  0.00     0.031 C 
ATOM     40  C   UNL A   1      41.775  25.490  27.789  1.00  0.00     0.029 A 
ATOM     41  N   UNL A   1      43.261  27.151  27.955  1.00  0.00    -0.354 N 
ATOM     42  C   UNL A   1      47.432  26.496  27.037  1.00  0.00     0.074 A 
ATOM     43  C   UNL A   1      47.666  25.135  26.609  1.00  0.00     0.031 C 
ATOM     44  C   UNL A   1      41.138  26.547  28.319  1.00  0.00     0.029 A 
ATOM     45  C   UNL A   1      42.081  27.653  28.453  1.00  0.00     0.049 A 
ATOM     46  H   UNL A   1      44.093  27.676  27.910  1.00  0.00     0.167 HD
ATOM     47  C   UNL A   1      48.404  27.429  27.158  1.00  0.00     0.034 A 
ATOM     48  C   UNL A   1      41.791  28.870  28.954  1.00  0.00     0.034 A 
ATOM     49  C   UNL A   1      48.155  28.802  27.499  1.00  0.00     0.049 A 
ATOM     50  C   UNL A   1      42.868  29.921  28.975  1.00  0.00     0.074 A 
ATOM     51  C   UNL A   1      49.048  29.858  27.522  1.00  0.00     0.029 A 
ATOM     52  N   UNL A   1      46.921  29.310  27.872  1.00  0.00    -0.354 N 
ATOM     53  N   UNL A   1      44.122  29.825  28.599  1.00  0.00    -0.248 NA
ATOM     54  C   UNL A   1      42.484  31.258  29.448  1.00  0.00     0.031 C 
ATOM     55  C   UNL A   1      48.353  31.005  27.918  1.00  0.00     0.029 A 
ATOM     56  C   UNL A   1      47.026  30.664  28.132  1.00  0.00     0.049 A 
ATOM     57  H   UNL A   1      46.091  28.784  27.941  1.00  0.00     0.167 HD
ATOM     58  C   UNL A   1      44.667  31.092  28.763  1.00  0.00     0.074 A 
ATOM     59  C   UNL A   1      43.600  31.946  29.244  1.00  0.00     0.031 C 
ATOM     60  C   UNL A   1      45.941  31.509  28.556  1.00  0.00     0.034 A 
BRANCH  47  61
ATOM     61  C   UNL A   1      49.815  27.012  26.839  1.00  0.00     0.023 A 
ATOM     62  C   UNL A   1      50.594  26.386  27.834  1.00  0.00     0.012 A 
ATOM     63  C   UNL A   1      50.353  27.190  25.550  1.00  0.00     0.148 A 
ATOM     64  C   UNL A   1      51.898  25.977  27.564  1.00  0.00     0.002 A 
ATOM     65  C   UNL A   1      51.639  26.739  25.275  1.00  0.00     0.091 A 
ATOM     66  F   UNL A   1      49.607  27.809  24.625  1.00  0.00    -0.205 F 
ATOM     67  C   UNL A   1      52.416  26.143  26.283  1.00  0.00     0.022 A 
BRANCH  65  68
ATOM     68  S   UNL A   1      52.371  26.839  23.638  1.00  0.00     0.127 S 
ATOM     69  O   UNL A   1      53.168  28.059  23.744  1.00  0.00    -0.237 OA
ATOM     70  O   UNL A   1      53.155  25.604  23.575  1.00  0.00    -0.237 OA
ATOM     71  O   UNL A   1      51.256  26.897  22.703  1.00  0.00    -0.744 OA
ENDBRANCH  65  68
ENDBRANCH  47  61
BRANCH  48  72
ATOM     72  C   UNL A   1      40.400  29.186  29.386  1.00  0.00     0.023 A 
ATOM     73  C   UNL A   1      39.467  29.633  28.430  1.00  0.00     0.012 A 
ATOM     74  C   UNL A   1      39.986  29.019  30.721  1.00  0.00     0.148 A 
ATOM     75  C   UNL A   1      38.157  29.937  28.800  1.00  0.00     0.002 A 
ATOM     76  C   UNL A   1      38.665  29.273  31.074  1.00  0.00     0.091 A 
ATOM     77  F   UNL A   1      40.890  28.608  31.622  1.00  0.00    -0.205 F 
ATOM     78  C   UNL A   1      37.753  29.748  30.119  1.00  0.00     0.022 A 
BRANCH  76  79
ATOM     79  S   UNL A   1      38.031  28.927  32.718  1.00  0.00     0.127 S 
ATOM     80  O   UNL A   1      38.260  27.489  32.832  1.00  0.00    -0.237 OA
ATOM     81  O   UNL A   1      38.892  29.756  33.562  1.00  0.00    -0.237 OA
ATOM     82  O   UNL A   1      36.637  29.352  32.692  1.00  0.00    -0.744 OA
ENDBRANCH  76  79
ENDBRANCH  48  72
BRANCH  60  83
ATOM     83  C   UNL A   1      46.252  32.954  28.834  1.00  0.00     0.023 A 
ATOM     84  C   UNL A   1      46.743  33.325  30.102  1.00  0.00     0.012 A 
ATOM     85  C   UNL A   1      46.134  33.927  27.825  1.00  0.00     0.148 A 
ATOM     86  C   UNL A   1      47.081  34.651  30.369  1.00  0.00     0.002 A 
ATOM     87  C   UNL A   1      46.516  35.239  28.084  1.00  0.00     0.091 A 
ATOM     88  F   UNL A   1      45.647  33.558  26.630  1.00  0.00    -0.205 F 
ATOM     89  C   UNL A   1      46.979  35.604  29.358  1.00  0.00     0.022 A 
BRANCH  87  90
ATOM     90  S   UNL A   1      46.506  36.504  26.810  1.00  0.00     0.127 S 
ATOM     91  O   UNL A   1      45.156  37.049  26.940  1.00  0.00    -0.237 OA
ATOM     92  O   UNL A   1      47.573  37.404  27.251  1.00  0.00    -0.237 OA
ATOM     93  O   UNL A   1      46.788  35.809  25.560  1.00  0.00    -0.744 OA
ENDBRANCH  87  90
ENDBRANCH  60  83
ENDBRANCH  34  35
ENDBRANCH  26  29
ENDBRANCH  24  25
ENDBRANCH  23  24
ENDBRANCH  22  23
ENDBRANCH   1  22
TORSDOF 19
ENDMDL
