MODEL 1
REMARK VINA RESULT:     -10.3      0.000      0.000
REMARK SMILES C[C@@H](CCO)SCc1cccc(/C=C/C(=O)NCCCCNC(=O)c2ccc(-c3c4nc(c(-c5cccc(S(=O)(=O)[O-])c5F)c5ccc([nH]5)c(-c5cccc(S(=O)(=O)[O-])c5F)c5nc(c(-c6cccc(S(=O)(=O)[O-])c6F)c6ccc3[nH]6)C=C5)C=C4)cc2)c1
REMARK SMILES IDX 15 1 16 2 17 3 14 5 13 6 12 7 8 8 9 9 88 10 10 11 11 12 7 13
REMARK SMILES IDX 6 14 2 15 1 16 3 17 4 18 5 19 18 21 19 22 20 23 21 24 22 25
REMARK SMILES IDX 23 26 24 28 25 29 26 30 87 31 27 32 86 33 28 34 29 35 30 36
REMARK SMILES IDX 80 37 31 38 85 39 79 40 81 41 32 42 84 43 78 44 77 45 33 47
REMARK SMILES IDX 65 48 45 49 64 50 46 51 49 52 63 53 82 54 47 55 48 56 62 58
REMARK SMILES IDX 83 59 50 60 34 61 35 62 43 63 36 64 38 65 44 66 37 67 39 68
REMARK SMILES IDX 40 69 41 70 42 71 66 72 67 73 75 74 68 75 70 76 76 77 69 78
REMARK SMILES IDX 71 79 72 80 73 81 74 82 51 83 52 84 60 85 53 86 55 87 61 88
REMARK SMILES IDX 54 89 56 90 57 91 58 92 59 93
REMARK H PARENT 17 4 5 20 22 27 81 46 49 57
REMARK Flexibility Score: inf
ROOT
ATOM      1  C   UNL A   1      38.422  23.825  26.477  1.00  0.00     0.243 C 
ATOM      2  O   UNL A   1      38.395  24.860  27.139  1.00  0.00    -0.270 OA
ATOM      3  N   UNL A   1      39.361  22.870  26.728  1.00  0.00    -0.353 N 
ATOM      4  H   UNL A   1      40.047  23.128  27.383  1.00  0.00     0.163 HD
ENDROOT
BRANCH   1   5
ATOM      5  C   UNL A   1      37.384  23.606  25.446  1.00  0.00     0.072 C 
ATOM      6  C   UNL A   1      36.096  23.448  25.773  1.00  0.00     0.014 C 
BRANCH   6   7
ATOM      7  C   UNL A   1      34.998  23.221  24.833  1.00  0.00    -0.025 A 
ATOM      8  C   UNL A   1      33.191  21.701  24.202  1.00  0.00    -0.037 A 
ATOM      9  C   UNL A   1      33.076  22.383  22.982  1.00  0.00     0.004 A 
ATOM     10  C   UNL A   1      34.089  22.204  25.151  1.00  0.00     0.012 A 
ATOM     11  C   UNL A   1      33.924  23.454  22.681  1.00  0.00     0.001 A 
ATOM     12  C   UNL A   1      34.908  23.849  23.590  1.00  0.00     0.008 A 
BRANCH   8  13
ATOM     13  C   UNL A   1      32.366  20.458  24.445  1.00  0.00     0.105 C 
BRANCH  13  14
ATOM     14  S   UNL A   1      33.247  18.993  25.103  1.00  0.00    -0.154 SA
BRANCH  14  15
ATOM     15  C   UNL A   1      32.993  17.678  23.820  1.00  0.00     0.046 C 
ATOM     16  C   UNL A   1      32.357  18.217  22.546  1.00  0.00     0.019 C 
BRANCH  15  17
ATOM     17  C   UNL A   1      34.162  16.681  23.659  1.00  0.00     0.042 C 
BRANCH  17  18
ATOM     18  C   UNL A   1      34.735  16.018  24.909  1.00  0.00     0.157 C 
BRANCH  18  19
ATOM     19  O   UNL A   1      33.988  14.895  25.334  1.00  0.00    -0.396 OA
ATOM     20  H   UNL A   1      34.578  14.262  25.773  1.00  0.00     0.210 HD
ENDBRANCH  18  19
ENDBRANCH  17  18
ENDBRANCH  15  17
ENDBRANCH  14  15
ENDBRANCH  13  14
ENDBRANCH   8  13
ENDBRANCH   6   7
ENDBRANCH   1   5
BRANCH   3  21
ATOM     21  C   UNL A   1      39.514  21.530  26.182  1.00  0.00     0.116 C 
BRANCH  21  22
ATOM     22  C   UNL A   1      40.595  20.745  26.927  1.00  0.00     0.023 C 
BRANCH  22  23
ATOM     23  C   UNL A   1      41.299  19.682  26.076  1.00  0.00     0.023 C 
BRANCH  23  24
ATOM     24  C   UNL A   1      42.793  19.523  26.347  1.00  0.00     0.116 C 
BRANCH  24  25
ATOM     25  N   UNL A   1      43.522  18.913  25.243  1.00  0.00    -0.352 N 
ATOM     26  C   UNL A   1      44.449  19.505  24.415  1.00  0.00     0.251 C 
ATOM     27  H   UNL A   1      43.328  17.964  25.068  1.00  0.00     0.163 HD
ATOM     28  O   UNL A   1      44.912  18.893  23.457  1.00  0.00    -0.269 OA
BRANCH  26  29
ATOM     29  C   UNL A   1      44.846  20.903  24.674  1.00  0.00     0.039 A 
ATOM     30  C   UNL A   1      44.544  21.883  23.725  1.00  0.00     0.014 A 
ATOM     31  C   UNL A   1      45.458  21.248  25.882  1.00  0.00     0.014 A 
ATOM     32  C   UNL A   1      44.791  23.225  24.019  1.00  0.00     0.010 A 
ATOM     33  C   UNL A   1      45.642  22.588  26.198  1.00  0.00     0.010 A 
ATOM     34  C   UNL A   1      45.308  23.590  25.273  1.00  0.00    -0.014 A 
BRANCH  34  35
ATOM     35  C   UNL A   1      45.502  25.011  25.658  1.00  0.00     0.031 A 
ATOM     36  C   UNL A   1      46.890  25.587  25.703  1.00  0.00     0.074 A 
ATOM     37  C   UNL A   1      44.451  25.738  26.086  1.00  0.00     0.049 A 
ATOM     38  N   UNL A   1      47.287  26.750  26.149  1.00  0.00    -0.248 NA
ATOM     39  C   UNL A   1      47.981  24.728  25.211  1.00  0.00     0.031 C 
ATOM     40  C   UNL A   1      43.066  25.266  26.157  1.00  0.00     0.029 A 
ATOM     41  N   UNL A   1      44.390  27.016  26.584  1.00  0.00    -0.354 N 
ATOM     42  C   UNL A   1      48.672  26.745  26.039  1.00  0.00     0.074 A 
ATOM     43  C   UNL A   1      49.049  25.454  25.506  1.00  0.00     0.031 C 
ATOM     44  C   UNL A   1      42.296  26.236  26.675  1.00  0.00     0.029 A 
ATOM     45  C   UNL A   1      43.133  27.385  27.004  1.00  0.00     0.049 A 
ATOM     46  H   UNL A   1      45.172  27.612  26.635  1.00  0.00     0.167 HD
ATOM     47  C   UNL A   1      49.549  27.734  26.330  1.00  0.00     0.034 A 
ATOM     48  C   UNL A   1      42.706  28.515  27.603  1.00  0.00     0.034 A 
ATOM     49  C   UNL A   1      49.163  29.035  26.805  1.00  0.00     0.049 A 
ATOM     50  C   UNL A   1      43.695  29.620  27.865  1.00  0.00     0.074 A 
ATOM     51  C   UNL A   1      49.965  30.135  27.045  1.00  0.00     0.029 A 
ATOM     52  N   UNL A   1      47.863  29.410  27.110  1.00  0.00    -0.354 N 
ATOM     53  N   UNL A   1      44.981  29.650  27.618  1.00  0.00    -0.248 NA
ATOM     54  C   UNL A   1      43.168  30.860  28.456  1.00  0.00     0.031 C 
ATOM     55  C   UNL A   1      49.152  31.174  27.507  1.00  0.00     0.029 A 
ATOM     56  C   UNL A   1      47.841  30.727  27.534  1.00  0.00     0.049 A 
ATOM     57  H   UNL A   1      47.074  28.827  27.034  1.00  0.00     0.167 HD
ATOM     58  C   UNL A   1      45.410  30.922  27.979  1.00  0.00     0.074 A 
ATOM     59  C   UNL A   1      44.243  31.638  28.453  1.00  0.00     0.031 C 
ATOM     60  C   UNL A   1      46.659  31.447  27.933  1.00  0.00     0.034 A 
BRANCH  47  61
ATOM     61  C   UNL A   1      51.011  27.469  26.086  1.00  0.00     0.023 A 
ATOM     62  C   UNL A   1      51.831  27.068  27.160  1.00  0.00     0.012 A 
ATOM     63  C   UNL A   1      51.561  27.560  24.793  1.00  0.00     0.148 A 
ATOM     64  C   UNL A   1      53.184  26.797  26.960  1.00  0.00     0.002 A 
ATOM     65  C   UNL A   1      52.900  27.243  24.592  1.00  0.00     0.091 A 
ATOM     66  F   UNL A   1      50.772  27.964  23.788  1.00  0.00    -0.205 F 
ATOM     67  C   UNL A   1      53.714  26.874  25.675  1.00  0.00     0.022 A 
BRANCH  65  68
ATOM     68  S   UNL A   1      53.659  27.236  22.964  1.00  0.00     0.127 S 
ATOM     69  O   UNL A   1      53.773  28.666  22.685  1.00  0.00    -0.237 OA
ATOM     70  O   UNL A   1      54.931  26.561  23.219  1.00  0.00    -0.237 OA
ATOM     71  O   UNL A   1      52.746  26.499  22.101  1.00  0.00    -0.744 OA
ENDBRANCH  65  68
ENDBRANCH  47  61
BRANCH  48  72
ATOM     72  C   UNL A   1      41.261  28.688  27.925  1.00  0.00     0.023 A 
ATOM     73  C   UNL A   1      40.375  29.098  26.910  1.00  0.00     0.012 A 
ATOM     74  C   UNL A   1      40.754  28.420  29.212  1.00  0.00     0.148 A 
ATOM     75  C   UNL A   1      39.016  29.271  27.177  1.00  0.00     0.002 A 
ATOM     76  C   UNL A   1      39.391  28.543  29.457  1.00  0.00     0.091 A 
ATOM     77  F   UNL A   1      41.615  28.043  30.167  1.00  0.00    -0.205 F 
ATOM     78  C   UNL A   1      38.523  28.984  28.447  1.00  0.00     0.022 A 
BRANCH  76  79
ATOM     79  S   UNL A   1      38.650  28.069  31.023  1.00  0.00     0.127 S 
ATOM     80  O   UNL A   1      37.351  28.733  30.954  1.00  0.00    -0.237 OA
ATOM     81  O   UNL A   1      38.603  26.611  30.909  1.00  0.00    -0.237 OA
ATOM     82  O   UNL A   1      39.559  28.558  32.051  1.00  0.00    -0.744 OA
ENDBRANCH  76  79
ENDBRANCH  48  72
BRANCH  60  83
ATOM     83  C   UNL A   1      46.837  32.883  28.348  1.00  0.00     0.023 A 
ATOM     84  C   UNL A   1      47.115  33.195  29.692  1.00  0.00     0.012 A 
ATOM     85  C   UNL A   1      46.832  33.910  27.383  1.00  0.00     0.148 A 
ATOM     86  C   UNL A   1      47.366  34.513  30.075  1.00  0.00     0.002 A 
ATOM     87  C   UNL A   1      47.129  35.213  27.763  1.00  0.00     0.091 A 
ATOM     88  F   UNL A   1      46.546  33.592  26.113  1.00  0.00    -0.205 F 
ATOM     89  C   UNL A   1      47.387  35.517  29.110  1.00  0.00     0.022 A 
BRANCH  87  90
ATOM     90  S   UNL A   1      47.275  36.552  26.574  1.00  0.00     0.127 S 
ATOM     91  O   UNL A   1      48.265  36.015  25.642  1.00  0.00    -0.237 OA
ATOM     92  O   UNL A   1      45.916  36.639  26.037  1.00  0.00    -0.237 OA
ATOM     93  O   UNL A   1      47.701  37.720  27.334  1.00  0.00    -0.744 OA
ENDBRANCH  87  90
ENDBRANCH  60  83
ENDBRANCH  34  35
ENDBRANCH  26  29
ENDBRANCH  24  25
ENDBRANCH  23  24
ENDBRANCH  22  23
ENDBRANCH  21  22
ENDBRANCH   3  21
TORSDOF 21
ENDMDL
MODEL 2
REMARK VINA RESULT:     -10.1      6.145      9.512
REMARK SMILES C[C@@H](CCO)SCc1cccc(/C=C/C(=O)NCCCCNC(=O)c2ccc(-c3c4nc(c(-c5cccc(S(=O)(=O)[O-])c5F)c5ccc([nH]5)c(-c5cccc(S(=O)(=O)[O-])c5F)c5nc(c(-c6cccc(S(=O)(=O)[O-])c6F)c6ccc3[nH]6)C=C5)C=C4)cc2)c1
REMARK SMILES IDX 15 1 16 2 17 3 14 5 13 6 12 7 8 8 9 9 88 10 10 11 11 12 7 13
REMARK SMILES IDX 6 14 2 15 1 16 3 17 4 18 5 19 18 21 19 22 20 23 21 24 22 25
REMARK SMILES IDX 23 26 24 28 25 29 26 30 87 31 27 32 86 33 28 34 29 35 30 36
REMARK SMILES IDX 80 37 31 38 85 39 79 40 81 41 32 42 84 43 78 44 77 45 33 47
REMARK SMILES IDX 65 48 45 49 64 50 46 51 49 52 63 53 82 54 47 55 48 56 62 58
REMARK SMILES IDX 83 59 50 60 34 61 35 62 43 63 36 64 38 65 44 66 37 67 39 68
REMARK SMILES IDX 40 69 41 70 42 71 66 72 67 73 75 74 68 75 70 76 76 77 69 78
REMARK SMILES IDX 71 79 72 80 73 81 74 82 51 83 52 84 60 85 53 86 55 87 61 88
REMARK SMILES IDX 54 89 56 90 57 91 58 92 59 93
REMARK H PARENT 17 4 5 20 22 27 81 46 49 57
REMARK Flexibility Score: inf
ROOT
ATOM      1  C   UNL A   1      32.018  25.713  22.165  1.00  0.00     0.243 C 
ATOM      2  O   UNL A   1      32.054  25.846  20.944  1.00  0.00    -0.270 OA
ATOM      3  N   UNL A   1      31.321  26.596  22.934  1.00  0.00    -0.353 N 
ATOM      4  H   UNL A   1      30.962  27.372  22.449  1.00  0.00     0.163 HD
ENDROOT
BRANCH   1   5
ATOM      5  C   UNL A   1      32.689  24.547  22.780  1.00  0.00     0.072 C 
ATOM      6  C   UNL A   1      34.019  24.403  22.740  1.00  0.00     0.014 C 
BRANCH   6   7
ATOM      7  C   UNL A   1      34.774  23.287  23.311  1.00  0.00    -0.025 A 
ATOM      8  C   UNL A   1      34.618  21.244  24.643  1.00  0.00    -0.037 A 
ATOM      9  C   UNL A   1      36.014  21.258  24.783  1.00  0.00     0.004 A 
ATOM     10  C   UNL A   1      34.034  22.211  23.817  1.00  0.00     0.012 A 
ATOM     11  C   UNL A   1      36.777  22.284  24.216  1.00  0.00     0.001 A 
ATOM     12  C   UNL A   1      36.155  23.317  23.512  1.00  0.00     0.008 A 
BRANCH   8  13
ATOM     13  C   UNL A   1      33.802  20.211  25.385  1.00  0.00     0.105 C 
BRANCH  13  14
ATOM     14  S   UNL A   1      32.744  19.108  24.375  1.00  0.00    -0.154 SA
BRANCH  14  15
ATOM     15  C   UNL A   1      33.841  17.677  23.939  1.00  0.00     0.046 C 
ATOM     16  C   UNL A   1      35.235  17.803  24.539  1.00  0.00     0.019 C 
BRANCH  15  17
ATOM     17  C   UNL A   1      33.168  16.289  24.001  1.00  0.00     0.042 C 
BRANCH  17  18
ATOM     18  C   UNL A   1      32.983  15.626  25.364  1.00  0.00     0.157 C 
BRANCH  18  19
ATOM     19  O   UNL A   1      33.448  14.291  25.400  1.00  0.00    -0.396 OA
ATOM     20  H   UNL A   1      33.432  13.920  24.504  1.00  0.00     0.210 HD
ENDBRANCH  18  19
ENDBRANCH  17  18
ENDBRANCH  15  17
ENDBRANCH  14  15
ENDBRANCH  13  14
ENDBRANCH   8  13
ENDBRANCH   6   7
ENDBRANCH   1   5
BRANCH   3  21
ATOM     21  C   UNL A   1      31.022  26.577  24.358  1.00  0.00     0.116 C 
BRANCH  21  22
ATOM     22  C   UNL A   1      31.868  27.600  25.119  1.00  0.00     0.023 C 
BRANCH  22  23
ATOM     23  C   UNL A   1      33.255  27.846  24.514  1.00  0.00     0.023 C 
BRANCH  23  24
ATOM     24  C   UNL A   1      33.770  29.276  24.640  1.00  0.00     0.116 C 
BRANCH  24  25
ATOM     25  N   UNL A   1      32.932  30.124  25.477  1.00  0.00    -0.352 N 
ATOM     26  C   UNL A   1      33.251  30.691  26.690  1.00  0.00     0.251 C 
ATOM     27  H   UNL A   1      32.029  30.315  25.134  1.00  0.00     0.163 HD
ATOM     28  O   UNL A   1      32.406  31.304  27.335  1.00  0.00    -0.269 OA
BRANCH  26  29
ATOM     29  C   UNL A   1      34.616  30.512  27.223  1.00  0.00     0.039 A 
ATOM     30  C   UNL A   1      35.383  31.642  27.522  1.00  0.00     0.014 A 
ATOM     31  C   UNL A   1      35.107  29.230  27.485  1.00  0.00     0.014 A 
ATOM     32  C   UNL A   1      36.619  31.487  28.153  1.00  0.00     0.010 A 
ATOM     33  C   UNL A   1      36.306  29.083  28.170  1.00  0.00     0.010 A 
ATOM     34  C   UNL A   1      37.072  30.208  28.515  1.00  0.00    -0.014 A 
BRANCH  34  35
ATOM     35  C   UNL A   1      38.337  30.008  29.265  1.00  0.00     0.031 A 
ATOM     36  C   UNL A   1      39.376  29.058  28.735  1.00  0.00     0.074 A 
ATOM     37  C   UNL A   1      38.494  30.576  30.477  1.00  0.00     0.049 A 
ATOM     38  N   UNL A   1      40.473  28.634  29.302  1.00  0.00    -0.248 NA
ATOM     39  C   UNL A   1      39.129  28.485  27.400  1.00  0.00     0.031 C 
ATOM     40  C   UNL A   1      37.526  31.460  31.131  1.00  0.00     0.029 A 
ATOM     41  N   UNL A   1      39.510  30.463  31.395  1.00  0.00    -0.354 N 
ATOM     42  C   UNL A   1      41.023  27.710  28.422  1.00  0.00     0.074 A 
ATOM     43  C   UNL A   1      40.124  27.617  27.292  1.00  0.00     0.031 C 
ATOM     44  C   UNL A   1      37.989  31.799  32.344  1.00  0.00     0.029 A 
ATOM     45  C   UNL A   1      39.268  31.136  32.570  1.00  0.00     0.049 A 
ATOM     46  H   UNL A   1      40.333  29.949  31.226  1.00  0.00     0.167 HD
ATOM     47  C   UNL A   1      42.182  27.020  28.531  1.00  0.00     0.034 A 
ATOM     48  C   UNL A   1      39.989  31.197  33.708  1.00  0.00     0.034 A 
ATOM     49  C   UNL A   1      43.098  27.159  29.630  1.00  0.00     0.049 A 
ATOM     50  C   UNL A   1      41.302  30.462  33.781  1.00  0.00     0.074 A 
ATOM     51  C   UNL A   1      44.341  26.574  29.793  1.00  0.00     0.029 A 
ATOM     52  N   UNL A   1      42.872  27.942  30.752  1.00  0.00    -0.354 N 
ATOM     53  N   UNL A   1      41.874  29.707  32.876  1.00  0.00    -0.248 NA
ATOM     54  C   UNL A   1      42.084  30.616  35.017  1.00  0.00     0.031 C 
ATOM     55  C   UNL A   1      44.861  26.993  31.021  1.00  0.00     0.029 A 
ATOM     56  C   UNL A   1      43.952  27.856  31.611  1.00  0.00     0.049 A 
ATOM     57  H   UNL A   1      42.063  28.479  30.913  1.00  0.00     0.167 HD
ATOM     58  C   UNL A   1      43.102  29.333  33.412  1.00  0.00     0.074 A 
ATOM     59  C   UNL A   1      43.194  29.953  34.718  1.00  0.00     0.031 C 
ATOM     60  C   UNL A   1      44.060  28.539  32.875  1.00  0.00     0.034 A 
BRANCH  47  61
ATOM     61  C   UNL A   1      42.556  26.095  27.404  1.00  0.00     0.023 A 
ATOM     62  C   UNL A   1      43.371  26.571  26.357  1.00  0.00     0.012 A 
ATOM     63  C   UNL A   1      42.151  24.746  27.406  1.00  0.00     0.148 A 
ATOM     64  C   UNL A   1      43.748  25.730  25.310  1.00  0.00     0.002 A 
ATOM     65  C   UNL A   1      42.569  23.901  26.383  1.00  0.00     0.091 A 
ATOM     66  F   UNL A   1      41.357  24.316  28.397  1.00  0.00    -0.205 F 
ATOM     67  C   UNL A   1      43.356  24.394  25.330  1.00  0.00     0.022 A 
BRANCH  65  68
ATOM     68  S   UNL A   1      42.183  22.148  26.358  1.00  0.00     0.127 S 
ATOM     69  O   UNL A   1      42.589  21.737  27.700  1.00  0.00    -0.237 OA
ATOM     70  O   UNL A   1      40.737  22.152  26.133  1.00  0.00    -0.237 OA
ATOM     71  O   UNL A   1      42.963  21.582  25.266  1.00  0.00    -0.744 OA
ENDBRANCH  65  68
ENDBRANCH  47  61
BRANCH  48  72
ATOM     72  C   UNL A   1      39.521  32.043  34.842  1.00  0.00     0.023 A 
ATOM     73  C   UNL A   1      38.546  31.534  35.722  1.00  0.00     0.012 A 
ATOM     74  C   UNL A   1      40.052  33.327  35.074  1.00  0.00     0.148 A 
ATOM     75  C   UNL A   1      38.084  32.300  36.794  1.00  0.00     0.002 A 
ATOM     76  C   UNL A   1      39.626  34.063  36.173  1.00  0.00     0.091 A 
ATOM     77  F   UNL A   1      40.970  33.799  34.218  1.00  0.00    -0.205 F 
ATOM     78  C   UNL A   1      38.631  33.559  37.025  1.00  0.00     0.022 A 
BRANCH  76  79
ATOM     79  S   UNL A   1      40.368  35.636  36.624  1.00  0.00     0.127 S 
ATOM     80  O   UNL A   1      39.550  36.581  35.868  1.00  0.00    -0.237 OA
ATOM     81  O   UNL A   1      40.164  35.665  38.072  1.00  0.00    -0.237 OA
ATOM     82  O   UNL A   1      41.765  35.540  36.220  1.00  0.00    -0.744 OA
ENDBRANCH  76  79
ENDBRANCH  48  72
BRANCH  60  83
ATOM     83  C   UNL A   1      45.327  28.331  33.663  1.00  0.00     0.023 A 
ATOM     84  C   UNL A   1      46.369  29.272  33.576  1.00  0.00     0.012 A 
ATOM     85  C   UNL A   1      45.435  27.256  34.567  1.00  0.00     0.148 A 
ATOM     86  C   UNL A   1      47.512  29.136  34.363  1.00  0.00     0.002 A 
ATOM     87  C   UNL A   1      46.555  27.153  35.383  1.00  0.00     0.091 A 
ATOM     88  F   UNL A   1      44.437  26.361  34.619  1.00  0.00    -0.205 F 
ATOM     89  C   UNL A   1      47.598  28.086  35.275  1.00  0.00     0.022 A 
BRANCH  87  90
ATOM     90  S   UNL A   1      46.706  25.891  36.653  1.00  0.00     0.127 S 
ATOM     91  O   UNL A   1      45.524  26.151  37.473  1.00  0.00    -0.237 OA
ATOM     92  O   UNL A   1      46.647  24.655  35.872  1.00  0.00    -0.237 OA
ATOM     93  O   UNL A   1      47.985  26.131  37.308  1.00  0.00    -0.744 OA
ENDBRANCH  87  90
ENDBRANCH  60  83
ENDBRANCH  34  35
ENDBRANCH  26  29
ENDBRANCH  24  25
ENDBRANCH  23  24
ENDBRANCH  22  23
ENDBRANCH  21  22
ENDBRANCH   3  21
TORSDOF 21
ENDMDL
MODEL 3
REMARK VINA RESULT:     -10.0      6.793     11.201
REMARK SMILES C[C@@H](CCO)SCc1cccc(/C=C/C(=O)NCCCCNC(=O)c2ccc(-c3c4nc(c(-c5cccc(S(=O)(=O)[O-])c5F)c5ccc([nH]5)c(-c5cccc(S(=O)(=O)[O-])c5F)c5nc(c(-c6cccc(S(=O)(=O)[O-])c6F)c6ccc3[nH]6)C=C5)C=C4)cc2)c1
REMARK SMILES IDX 15 1 16 2 17 3 14 5 13 6 12 7 8 8 9 9 88 10 10 11 11 12 7 13
REMARK SMILES IDX 6 14 2 15 1 16 3 17 4 18 5 19 18 21 19 22 20 23 21 24 22 25
REMARK SMILES IDX 23 26 24 28 25 29 26 30 87 31 27 32 86 33 28 34 29 35 30 36
REMARK SMILES IDX 80 37 31 38 85 39 79 40 81 41 32 42 84 43 78 44 77 45 33 47
REMARK SMILES IDX 65 48 45 49 64 50 46 51 49 52 63 53 82 54 47 55 48 56 62 58
REMARK SMILES IDX 83 59 50 60 34 61 35 62 43 63 36 64 38 65 44 66 37 67 39 68
REMARK SMILES IDX 40 69 41 70 42 71 66 72 67 73 75 74 68 75 70 76 76 77 69 78
REMARK SMILES IDX 71 79 72 80 73 81 74 82 51 83 52 84 60 85 53 86 55 87 61 88
REMARK SMILES IDX 54 89 56 90 57 91 58 92 59 93
REMARK H PARENT 17 4 5 20 22 27 81 46 49 57
REMARK Flexibility Score: inf
ROOT
ATOM      1  C   UNL A   1      30.888  28.754  22.974  1.00  0.00     0.243 C 
ATOM      2  O   UNL A   1      30.387  29.000  21.879  1.00  0.00    -0.270 OA
ATOM      3  N   UNL A   1      31.644  29.691  23.612  1.00  0.00    -0.353 N 
ATOM      4  H   UNL A   1      31.830  30.501  23.085  1.00  0.00     0.163 HD
ENDROOT
BRANCH   1   5
ATOM      5  C   UNL A   1      30.607  27.452  23.616  1.00  0.00     0.072 C 
ATOM      6  C   UNL A   1      31.572  26.741  24.209  1.00  0.00     0.014 C 
BRANCH   6   7
ATOM      7  C   UNL A   1      31.398  25.444  24.865  1.00  0.00    -0.025 A 
ATOM      8  C   UNL A   1      31.665  23.028  24.613  1.00  0.00    -0.037 A 
ATOM      9  C   UNL A   1      30.856  22.845  25.744  1.00  0.00     0.004 A 
ATOM     10  C   UNL A   1      32.004  24.338  24.256  1.00  0.00     0.012 A 
ATOM     11  C   UNL A   1      30.307  23.945  26.413  1.00  0.00     0.001 A 
ATOM     12  C   UNL A   1      30.548  25.240  25.952  1.00  0.00     0.008 A 
BRANCH   8  13
ATOM     13  C   UNL A   1      32.125  21.826  23.822  1.00  0.00     0.105 C 
BRANCH  13  14
ATOM     14  S   UNL A   1      33.339  20.717  24.630  1.00  0.00    -0.154 SA
BRANCH  14  15
ATOM     15  C   UNL A   1      34.784  21.810  25.023  1.00  0.00     0.046 C 
ATOM     16  C   UNL A   1      35.240  22.632  23.825  1.00  0.00     0.019 C 
BRANCH  15  17
ATOM     17  C   UNL A   1      34.714  22.529  26.388  1.00  0.00     0.042 C 
BRANCH  17  18
ATOM     18  C   UNL A   1      34.272  21.732  27.613  1.00  0.00     0.157 C 
BRANCH  18  19
ATOM     19  O   UNL A   1      32.934  21.991  27.990  1.00  0.00    -0.396 OA
ATOM     20  H   UNL A   1      32.839  22.928  28.220  1.00  0.00     0.210 HD
ENDBRANCH  18  19
ENDBRANCH  17  18
ENDBRANCH  15  17
ENDBRANCH  14  15
ENDBRANCH  13  14
ENDBRANCH   8  13
ENDBRANCH   6   7
ENDBRANCH   1   5
BRANCH   3  21
ATOM     21  C   UNL A   1      32.220  29.690  24.948  1.00  0.00     0.116 C 
BRANCH  21  22
ATOM     22  C   UNL A   1      31.432  30.595  25.897  1.00  0.00     0.023 C 
BRANCH  22  23
ATOM     23  C   UNL A   1      32.115  30.837  27.248  1.00  0.00     0.023 C 
BRANCH  23  24
ATOM     24  C   UNL A   1      33.223  31.886  27.233  1.00  0.00     0.116 C 
BRANCH  24  25
ATOM     25  N   UNL A   1      32.741  33.242  27.465  1.00  0.00    -0.352 N 
ATOM     26  C   UNL A   1      33.192  34.149  28.396  1.00  0.00     0.251 C 
ATOM     27  H   UNL A   1      32.005  33.545  26.885  1.00  0.00     0.163 HD
ATOM     28  O   UNL A   1      32.623  35.226  28.547  1.00  0.00    -0.269 OA
BRANCH  26  29
ATOM     29  C   UNL A   1      34.347  33.788  29.242  1.00  0.00     0.039 A 
ATOM     30  C   UNL A   1      34.155  32.927  30.325  1.00  0.00     0.014 A 
ATOM     31  C   UNL A   1      35.626  34.252  28.922  1.00  0.00     0.014 A 
ATOM     32  C   UNL A   1      35.259  32.471  31.047  1.00  0.00     0.010 A 
ATOM     33  C   UNL A   1      36.727  33.747  29.600  1.00  0.00     0.010 A 
ATOM     34  C   UNL A   1      36.557  32.849  30.666  1.00  0.00    -0.014 A 
BRANCH  34  35
ATOM     35  C   UNL A   1      37.762  32.317  31.350  1.00  0.00     0.031 A 
ATOM     36  C   UNL A   1      38.537  31.189  30.726  1.00  0.00     0.074 A 
ATOM     37  C   UNL A   1      38.081  32.758  32.583  1.00  0.00     0.049 A 
ATOM     38  N   UNL A   1      39.522  30.489  31.224  1.00  0.00    -0.248 NA
ATOM     39  C   UNL A   1      38.126  30.771  29.374  1.00  0.00     0.031 C 
ATOM     40  C   UNL A   1      37.363  33.798  33.323  1.00  0.00     0.029 A 
ATOM     41  N   UNL A   1      39.068  32.358  33.450  1.00  0.00    -0.354 N 
ATOM     42  C   UNL A   1      39.817  29.521  30.272  1.00  0.00     0.074 A 
ATOM     43  C   UNL A   1      38.890  29.707  29.178  1.00  0.00     0.031 C 
ATOM     44  C   UNL A   1      37.926  33.946  34.533  1.00  0.00     0.029 A 
ATOM     45  C   UNL A   1      39.023  32.994  34.669  1.00  0.00     0.049 A 
ATOM     46  H   UNL A   1      39.745  31.680  33.220  1.00  0.00     0.167 HD
ATOM     47  C   UNL A   1      40.788  28.578  30.296  1.00  0.00     0.034 A 
ATOM     48  C   UNL A   1      39.770  32.817  35.777  1.00  0.00     0.034 A 
ATOM     49  C   UNL A   1      41.742  28.435  31.361  1.00  0.00     0.049 A 
ATOM     50  C   UNL A   1      40.878  31.798  35.755  1.00  0.00     0.074 A 
ATOM     51  C   UNL A   1      42.819  27.570  31.440  1.00  0.00     0.029 A 
ATOM     52  N   UNL A   1      41.735  29.177  32.532  1.00  0.00    -0.354 N 
ATOM     53  N   UNL A   1      41.234  30.989  34.788  1.00  0.00    -0.248 NA
ATOM     54  C   UNL A   1      41.710  31.691  36.963  1.00  0.00     0.031 C 
ATOM     55  C   UNL A   1      43.457  27.782  32.666  1.00  0.00     0.029 A 
ATOM     56  C   UNL A   1      42.790  28.792  33.339  1.00  0.00     0.049 A 
ATOM     57  H   UNL A   1      41.078  29.875  32.755  1.00  0.00     0.167 HD
ATOM     58  C   UNL A   1      42.356  30.311  35.251  1.00  0.00     0.074 A 
ATOM     59  C   UNL A   1      42.627  30.811  36.583  1.00  0.00     0.031 C 
ATOM     60  C   UNL A   1      43.089  29.352  34.633  1.00  0.00     0.034 A 
BRANCH  47  61
ATOM     61  C   UNL A   1      40.905  27.663  29.106  1.00  0.00     0.023 A 
ATOM     62  C   UNL A   1      40.103  26.505  29.040  1.00  0.00     0.012 A 
ATOM     63  C   UNL A   1      41.761  27.973  28.031  1.00  0.00     0.148 A 
ATOM     64  C   UNL A   1      40.177  25.651  27.940  1.00  0.00     0.002 A 
ATOM     65  C   UNL A   1      41.795  27.141  26.918  1.00  0.00     0.091 A 
ATOM     66  F   UNL A   1      42.533  29.065  28.121  1.00  0.00    -0.205 F 
ATOM     67  C   UNL A   1      41.014  25.974  26.876  1.00  0.00     0.022 A 
BRANCH  65  68
ATOM     68  S   UNL A   1      42.781  27.511  25.463  1.00  0.00     0.127 S 
ATOM     69  O   UNL A   1      42.131  28.721  24.966  1.00  0.00    -0.237 OA
ATOM     70  O   UNL A   1      44.110  27.725  26.036  1.00  0.00    -0.237 OA
ATOM     71  O   UNL A   1      42.676  26.342  24.600  1.00  0.00    -0.744 OA
ENDBRANCH  65  68
ENDBRANCH  47  61
BRANCH  48  72
ATOM     72  C   UNL A   1      39.543  33.676  36.974  1.00  0.00     0.023 A 
ATOM     73  C   UNL A   1      39.957  35.023  36.941  1.00  0.00     0.012 A 
ATOM     74  C   UNL A   1      38.898  33.185  38.125  1.00  0.00     0.148 A 
ATOM     75  C   UNL A   1      39.761  35.856  38.044  1.00  0.00     0.002 A 
ATOM     76  C   UNL A   1      38.658  34.034  39.199  1.00  0.00     0.091 A 
ATOM     77  F   UNL A   1      38.523  31.898  38.142  1.00  0.00    -0.205 F 
ATOM     78  C   UNL A   1      39.104  35.364  39.168  1.00  0.00     0.022 A 
BRANCH  76  79
ATOM     79  S   UNL A   1      37.704  33.525  40.634  1.00  0.00     0.127 S 
ATOM     80  O   UNL A   1      36.425  33.161  40.029  1.00  0.00    -0.237 OA
ATOM     81  O   UNL A   1      38.490  32.399  41.138  1.00  0.00    -0.237 OA
ATOM     82  O   UNL A   1      37.682  34.682  41.519  1.00  0.00    -0.744 OA
ENDBRANCH  76  79
ENDBRANCH  48  72
BRANCH  60  83
ATOM     83  C   UNL A   1      44.295  28.811  35.354  1.00  0.00     0.023 A 
ATOM     84  C   UNL A   1      45.557  29.401  35.152  1.00  0.00     0.012 A 
ATOM     85  C   UNL A   1      44.152  27.784  36.309  1.00  0.00     0.148 A 
ATOM     86  C   UNL A   1      46.665  28.964  35.877  1.00  0.00     0.002 A 
ATOM     87  C   UNL A   1      45.251  27.387  37.061  1.00  0.00     0.091 A 
ATOM     88  F   UNL A   1      42.945  27.224  36.469  1.00  0.00    -0.205 F 
ATOM     89  C   UNL A   1      46.509  27.969  36.840  1.00  0.00     0.022 A 
BRANCH  87  90
ATOM     90  S   UNL A   1      45.122  26.183  38.388  1.00  0.00     0.127 S 
ATOM     91  O   UNL A   1      44.116  26.799  39.252  1.00  0.00    -0.237 OA
ATOM     92  O   UNL A   1      44.667  24.987  37.679  1.00  0.00    -0.237 OA
ATOM     93  O   UNL A   1      46.456  26.074  38.963  1.00  0.00    -0.744 OA
ENDBRANCH  87  90
ENDBRANCH  60  83
ENDBRANCH  34  35
ENDBRANCH  26  29
ENDBRANCH  24  25
ENDBRANCH  23  24
ENDBRANCH  22  23
ENDBRANCH  21  22
ENDBRANCH   3  21
TORSDOF 21
ENDMDL
