MODEL 1
REMARK VINA RESULT:     -11.2      0.000      0.000
REMARK SMILES CCc1ccc(C(=O)NC[C@@H](CC(C)C)C(=O)NCCCCNC(=O)c2ccc(-c3c4nc(c(-c5cccc(S(=O)(=O)[O-])c5F)c5ccc([nH]5)c(-c5cccc(S(=O)(=O)[O-])c5F)c5nc(c(-c6cccc(S(=O)(=O)[O-])c6F)c6ccc3[nH]6)C=C5)C=C4)cc2)s1
REMARK SMILES IDX 20 1 19 2 18 3 16 4 17 5 11 7 10 8 9 9 7 10 8 11 6 13 3 14
REMARK SMILES IDX 4 15 89 16 5 17 2 18 1 19 12 20 13 21 14 22 15 23 21 24
REMARK SMILES IDX 22 25 23 26 24 27 25 29 26 30 27 31 88 32 28 33 87 34 29 35
REMARK SMILES IDX 30 36 31 37 81 38 32 39 86 40 80 41 82 42 33 43 85 44 79 45
REMARK SMILES IDX 78 46 34 48 66 49 46 50 65 51 47 52 50 53 64 54 83 55 48 56
REMARK SMILES IDX 49 57 63 59 84 60 51 61 35 62 36 63 44 64 37 65 39 66 45 67
REMARK SMILES IDX 38 68 40 69 41 70 42 71 43 72 67 73 68 74 76 75 69 76 71 77
REMARK SMILES IDX 77 78 70 79 72 80 73 81 74 82 75 83 52 84 53 85 61 86 54 87
REMARK SMILES IDX 56 88 62 89 55 90 57 91 58 92 59 93 60 94
REMARK H PARENT 18 6 9 12 23 28 82 47 50 58
REMARK Flexibility Score: inf
ROOT
ATOM      1  C   UNL A   1      32.863  29.853  27.205  1.00  0.00     0.023 C 
ENDROOT
BRANCH   1   2
ATOM      2  C   UNL A   1      32.730  29.081  25.899  1.00  0.00     0.116 C 
BRANCH   2   3
ATOM      3  N   UNL A   1      31.780  27.989  25.978  1.00  0.00    -0.356 N 
ATOM      4  C   UNL A   1      31.006  27.397  25.032  1.00  0.00     0.224 C 
ATOM      5  O   UNL A   1      30.407  26.368  25.360  1.00  0.00    -0.275 OA
ATOM      6  H   UNL A   1      31.677  27.608  26.880  1.00  0.00     0.163 HD
BRANCH   4   7
ATOM      7  C   UNL A   1      30.855  27.925  23.609  1.00  0.00     0.098 C 
BRANCH   7   8
ATOM      8  C   UNL A   1      30.557  26.838  22.568  1.00  0.00     0.129 C 
BRANCH   8   9
ATOM      9  N   UNL A   1      31.606  26.707  21.572  1.00  0.00    -0.351 N 
ATOM     10  C   UNL A   1      32.669  25.837  21.490  1.00  0.00     0.261 C 
ATOM     11  O   UNL A   1      33.231  25.802  20.391  1.00  0.00    -0.268 OA
ATOM     12  H   UNL A   1      31.546  27.349  20.827  1.00  0.00     0.163 HD
BRANCH  10  13
ATOM     13  C   UNL A   1      33.089  25.031  22.631  1.00  0.00     0.092 A 
ATOM     14  C   UNL A   1      33.623  23.035  24.025  1.00  0.00     0.005 A 
ATOM     15  C   UNL A   1      34.059  24.209  24.600  1.00  0.00     0.016 A 
ATOM     16  S   UNL A   1      32.784  23.336  22.566  1.00  0.00    -0.135 S 
ATOM     17  C   UNL A   1      33.772  25.350  23.791  1.00  0.00     0.026 A 
BRANCH  14  18
ATOM     18  C   UNL A   1      33.812  21.631  24.522  1.00  0.00     0.043 C 
ATOM     19  C   UNL A   1      32.495  20.999  24.957  1.00  0.00     0.010 C 
ENDBRANCH  14  18
ENDBRANCH  10  13
ENDBRANCH   8   9
ENDBRANCH   7   8
BRANCH   7  20
ATOM     20  C   UNL A   1      29.982  29.197  23.485  1.00  0.00     0.018 C 
BRANCH  20  21
ATOM     21  C   UNL A   1      28.887  29.221  22.398  1.00  0.00    -0.017 C 
ATOM     22  C   UNL A   1      27.478  29.176  23.002  1.00  0.00     0.007 C 
ATOM     23  C   UNL A   1      29.000  30.484  21.538  1.00  0.00     0.007 C 
ENDBRANCH  20  21
ENDBRANCH   7  20
ENDBRANCH   4   7
ENDBRANCH   2   3
ENDBRANCH   1   2
BRANCH   1  24
ATOM     24  C   UNL A   1      32.345  31.288  27.152  1.00  0.00     0.023 C 
BRANCH  24  25
ATOM     25  C   UNL A   1      33.402  32.372  27.333  1.00  0.00     0.116 C 
BRANCH  25  26
ATOM     26  N   UNL A   1      32.837  33.692  27.590  1.00  0.00    -0.352 N 
ATOM     27  C   UNL A   1      33.202  34.612  28.550  1.00  0.00     0.251 C 
ATOM     28  H   UNL A   1      32.095  33.962  27.001  1.00  0.00     0.163 HD
ATOM     29  O   UNL A   1      32.565  35.642  28.705  1.00  0.00    -0.269 OA
BRANCH  27  30
ATOM     30  C   UNL A   1      34.361  34.302  29.409  1.00  0.00     0.039 A 
ATOM     31  C   UNL A   1      34.146  33.700  30.650  1.00  0.00     0.014 A 
ATOM     32  C   UNL A   1      35.655  34.510  28.927  1.00  0.00     0.014 A 
ATOM     33  C   UNL A   1      35.238  33.219  31.375  1.00  0.00     0.010 A 
ATOM     34  C   UNL A   1      36.730  33.963  29.614  1.00  0.00     0.010 A 
ATOM     35  C   UNL A   1      36.532  33.304  30.839  1.00  0.00    -0.014 A 
BRANCH  35  36
ATOM     36  C   UNL A   1      37.711  32.713  31.523  1.00  0.00     0.031 A 
ATOM     37  C   UNL A   1      38.423  31.551  30.886  1.00  0.00     0.074 A 
ATOM     38  C   UNL A   1      38.059  33.133  32.756  1.00  0.00     0.049 A 
ATOM     39  N   UNL A   1      39.346  30.774  31.386  1.00  0.00    -0.248 NA
ATOM     40  C   UNL A   1      38.015  31.194  29.516  1.00  0.00     0.031 C 
ATOM     41  C   UNL A   1      37.408  34.210  33.505  1.00  0.00     0.029 A 
ATOM     42  N   UNL A   1      39.029  32.675  33.615  1.00  0.00    -0.354 N 
ATOM     43  C   UNL A   1      39.596  29.812  30.416  1.00  0.00     0.074 A 
ATOM     44  C   UNL A   1      38.706  30.083  29.308  1.00  0.00     0.031 C 
ATOM     45  C   UNL A   1      37.993  34.328  34.709  1.00  0.00     0.029 A 
ATOM     46  C   UNL A   1      39.035  33.315  34.834  1.00  0.00     0.049 A 
ATOM     47  H   UNL A   1      39.659  31.957  33.381  1.00  0.00     0.167 HD
ATOM     48  C   UNL A   1      40.508  28.812  30.429  1.00  0.00     0.034 A 
ATOM     49  C   UNL A   1      39.789  33.098  35.931  1.00  0.00     0.034 A 
ATOM     50  C   UNL A   1      41.434  28.586  31.502  1.00  0.00     0.049 A 
ATOM     51  C   UNL A   1      40.831  32.009  35.895  1.00  0.00     0.074 A 
ATOM     52  C   UNL A   1      42.429  27.629  31.592  1.00  0.00     0.029 A 
ATOM     53  N   UNL A   1      41.492  29.338  32.665  1.00  0.00    -0.354 N 
ATOM     54  N   UNL A   1      41.127  31.184  34.922  1.00  0.00    -0.248 NA
ATOM     55  C   UNL A   1      41.665  31.846  37.095  1.00  0.00     0.031 C 
ATOM     56  C   UNL A   1      43.096  27.809  32.808  1.00  0.00     0.029 A 
ATOM     57  C   UNL A   1      42.520  28.882  33.469  1.00  0.00     0.049 A 
ATOM     58  H   UNL A   1      40.891  30.085  32.886  1.00  0.00     0.167 HD
ATOM     59  C   UNL A   1      42.213  30.441  35.370  1.00  0.00     0.074 A 
ATOM     60  C   UNL A   1      42.530  30.920  36.700  1.00  0.00     0.031 C 
ATOM     61  C   UNL A   1      42.879  29.439  34.746  1.00  0.00     0.034 A 
BRANCH  48  62
ATOM     62  C   UNL A   1      40.604  27.937  29.208  1.00  0.00     0.023 A 
ATOM     63  C   UNL A   1      39.734  26.836  29.084  1.00  0.00     0.012 A 
ATOM     64  C   UNL A   1      41.497  28.237  28.161  1.00  0.00     0.148 A 
ATOM     65  C   UNL A   1      39.770  26.027  27.951  1.00  0.00     0.002 A 
ATOM     66  C   UNL A   1      41.498  27.450  27.015  1.00  0.00     0.091 A 
ATOM     67  F   UNL A   1      42.329  29.278  28.308  1.00  0.00    -0.205 F 
ATOM     68  C   UNL A   1      40.643  26.339  26.913  1.00  0.00     0.022 A 
BRANCH  66  69
ATOM     69  S   UNL A   1      42.531  27.809  25.590  1.00  0.00     0.127 S 
ATOM     70  O   UNL A   1      42.261  26.655  24.733  1.00  0.00    -0.237 OA
ATOM     71  O   UNL A   1      41.966  29.071  25.111  1.00  0.00    -0.237 OA
ATOM     72  O   UNL A   1      43.893  27.905  26.095  1.00  0.00    -0.744 OA
ENDBRANCH  66  69
ENDBRANCH  48  62
BRANCH  49  73
ATOM     73  C   UNL A   1      39.649  33.972  37.131  1.00  0.00     0.023 A 
ATOM     74  C   UNL A   1      40.142  35.290  37.078  1.00  0.00     0.012 A 
ATOM     75  C   UNL A   1      39.042  33.517  38.316  1.00  0.00     0.148 A 
ATOM     76  C   UNL A   1      40.074  36.124  38.195  1.00  0.00     0.002 A 
ATOM     77  C   UNL A   1      38.929  34.371  39.409  1.00  0.00     0.091 A 
ATOM     78  F   UNL A   1      38.591  32.255  38.360  1.00  0.00    -0.205 F 
ATOM     79  C   UNL A   1      39.460  35.668  39.358  1.00  0.00     0.022 A 
BRANCH  77  80
ATOM     80  S   UNL A   1      38.036  33.895  40.894  1.00  0.00     0.127 S 
ATOM     81  O   UNL A   1      37.894  35.174  41.583  1.00  0.00    -0.237 OA
ATOM     82  O   UNL A   1      36.792  33.348  40.349  1.00  0.00    -0.237 OA
ATOM     83  O   UNL A   1      38.883  32.903  41.544  1.00  0.00    -0.744 OA
ENDBRANCH  77  80
ENDBRANCH  49  73
BRANCH  61  84
ATOM     84  C   UNL A   1      44.065  28.835  35.448  1.00  0.00     0.023 A 
ATOM     85  C   UNL A   1      45.339  29.414  35.295  1.00  0.00     0.012 A 
ATOM     86  C   UNL A   1      43.892  27.760  36.341  1.00  0.00     0.148 A 
ATOM     87  C   UNL A   1      46.430  28.918  36.007  1.00  0.00     0.002 A 
ATOM     88  C   UNL A   1      44.973  27.300  37.080  1.00  0.00     0.091 A 
ATOM     89  F   UNL A   1      42.672  27.213  36.455  1.00  0.00    -0.205 F 
ATOM     90  C   UNL A   1      46.244  27.872  36.909  1.00  0.00     0.022 A 
BRANCH  88  91
ATOM     91  S   UNL A   1      44.807  26.021  38.332  1.00  0.00     0.127 S 
ATOM     92  O   UNL A   1      46.202  25.784  38.702  1.00  0.00    -0.237 OA
ATOM     93  O   UNL A   1      44.009  26.693  39.358  1.00  0.00    -0.237 OA
ATOM     94  O   UNL A   1      44.135  24.906  37.680  1.00  0.00    -0.744 OA
ENDBRANCH  88  91
ENDBRANCH  61  84
ENDBRANCH  35  36
ENDBRANCH  27  30
ENDBRANCH  25  26
ENDBRANCH  24  25
ENDBRANCH   1  24
TORSDOF 20
ENDMDL
MODEL 2
REMARK VINA RESULT:     -11.2      2.516      8.471
REMARK SMILES CCc1ccc(C(=O)NC[C@@H](CC(C)C)C(=O)NCCCCNC(=O)c2ccc(-c3c4nc(c(-c5cccc(S(=O)(=O)[O-])c5F)c5ccc([nH]5)c(-c5cccc(S(=O)(=O)[O-])c5F)c5nc(c(-c6cccc(S(=O)(=O)[O-])c6F)c6ccc3[nH]6)C=C5)C=C4)cc2)s1
REMARK SMILES IDX 20 1 19 2 18 3 16 4 17 5 11 7 10 8 9 9 7 10 8 11 6 13 3 14
REMARK SMILES IDX 4 15 89 16 5 17 2 18 1 19 12 20 13 21 14 22 15 23 21 24
REMARK SMILES IDX 22 25 23 26 24 27 25 29 26 30 27 31 88 32 28 33 87 34 29 35
REMARK SMILES IDX 30 36 31 37 81 38 32 39 86 40 80 41 82 42 33 43 85 44 79 45
REMARK SMILES IDX 78 46 34 48 66 49 46 50 65 51 47 52 50 53 64 54 83 55 48 56
REMARK SMILES IDX 49 57 63 59 84 60 51 61 35 62 36 63 44 64 37 65 39 66 45 67
REMARK SMILES IDX 38 68 40 69 41 70 42 71 43 72 67 73 68 74 76 75 69 76 71 77
REMARK SMILES IDX 77 78 70 79 72 80 73 81 74 82 75 83 52 84 53 85 61 86 54 87
REMARK SMILES IDX 56 88 62 89 55 90 57 91 58 92 59 93 60 94
REMARK H PARENT 18 6 9 12 23 28 82 47 50 58
REMARK Flexibility Score: inf
ROOT
ATOM      1  C   UNL A   1      31.788  27.865  27.164  1.00  0.00     0.023 C 
ENDROOT
BRANCH   1   2
ATOM      2  C   UNL A   1      31.781  26.633  26.268  1.00  0.00     0.116 C 
BRANCH   2   3
ATOM      3  N   UNL A   1      31.049  25.520  26.838  1.00  0.00    -0.356 N 
ATOM      4  C   UNL A   1      30.912  24.230  26.435  1.00  0.00     0.224 C 
ATOM      5  O   UNL A   1      30.354  23.454  27.217  1.00  0.00    -0.275 OA
ATOM      6  H   UNL A   1      30.564  25.738  27.667  1.00  0.00     0.163 HD
BRANCH   4   7
ATOM      7  C   UNL A   1      31.415  23.704  25.094  1.00  0.00     0.098 C 
BRANCH   7   8
ATOM      8  C   UNL A   1      30.727  24.336  23.878  1.00  0.00     0.129 C 
BRANCH   8   9
ATOM      9  N   UNL A   1      31.659  25.007  22.987  1.00  0.00    -0.351 N 
ATOM     10  C   UNL A   1      31.769  26.331  22.629  1.00  0.00     0.261 C 
ATOM     11  O   UNL A   1      32.825  26.631  22.062  1.00  0.00    -0.268 OA
ATOM     12  H   UNL A   1      32.325  24.414  22.570  1.00  0.00     0.163 HD
BRANCH  10  13
ATOM     13  C   UNL A   1      30.706  27.290  22.902  1.00  0.00     0.092 A 
ATOM     14  C   UNL A   1      29.442  29.438  22.967  1.00  0.00     0.005 A 
ATOM     15  C   UNL A   1      28.669  28.362  23.345  1.00  0.00     0.016 A 
ATOM     16  S   UNL A   1      31.051  28.960  22.645  1.00  0.00    -0.135 S 
ATOM     17  C   UNL A   1      29.387  27.129  23.287  1.00  0.00     0.026 A 
BRANCH  14  18
ATOM     18  C   UNL A   1      29.027  30.872  22.818  1.00  0.00     0.043 C 
ATOM     19  C   UNL A   1      27.779  31.193  23.633  1.00  0.00     0.010 C 
ENDBRANCH  14  18
ENDBRANCH  10  13
ENDBRANCH   8   9
ENDBRANCH   7   8
BRANCH   7  20
ATOM     20  C   UNL A   1      32.955  23.595  24.984  1.00  0.00     0.018 C 
BRANCH  20  21
ATOM     21  C   UNL A   1      33.657  22.453  25.747  1.00  0.00    -0.017 C 
ATOM     22  C   UNL A   1      34.497  21.572  24.815  1.00  0.00     0.007 C 
ATOM     23  C   UNL A   1      34.577  23.010  26.839  1.00  0.00     0.007 C 
ENDBRANCH  20  21
ENDBRANCH   7  20
ENDBRANCH   4   7
ENDBRANCH   2   3
ENDBRANCH   1   2
BRANCH   1  24
ATOM     24  C   UNL A   1      31.452  29.172  26.451  1.00  0.00     0.023 C 
BRANCH  24  25
ATOM     25  C   UNL A   1      32.647  30.057  26.112  1.00  0.00     0.116 C 
BRANCH  25  26
ATOM     26  N   UNL A   1      32.491  31.436  26.564  1.00  0.00    -0.352 N 
ATOM     27  C   UNL A   1      33.317  32.171  27.387  1.00  0.00     0.251 C 
ATOM     28  H   UNL A   1      31.688  31.904  26.238  1.00  0.00     0.163 HD
ATOM     29  O   UNL A   1      33.000  33.290  27.756  1.00  0.00    -0.269 OA
BRANCH  27  30
ATOM     30  C   UNL A   1      34.580  31.554  27.839  1.00  0.00     0.039 A 
ATOM     31  C   UNL A   1      35.730  32.341  27.920  1.00  0.00     0.014 A 
ATOM     32  C   UNL A   1      34.583  30.230  28.283  1.00  0.00     0.014 A 
ATOM     33  C   UNL A   1      36.870  31.824  28.538  1.00  0.00     0.010 A 
ATOM     34  C   UNL A   1      35.693  29.747  28.963  1.00  0.00     0.010 A 
ATOM     35  C   UNL A   1      36.843  30.540  29.106  1.00  0.00    -0.014 A 
BRANCH  35  36
ATOM     36  C   UNL A   1      37.994  29.988  29.864  1.00  0.00     0.031 A 
ATOM     37  C   UNL A   1      38.272  30.497  31.252  1.00  0.00     0.074 A 
ATOM     38  C   UNL A   1      38.850  29.133  29.268  1.00  0.00     0.049 A 
ATOM     39  N   UNL A   1      39.314  30.293  32.013  1.00  0.00    -0.248 NA
ATOM     40  C   UNL A   1      37.258  31.385  31.847  1.00  0.00     0.031 C 
ATOM     41  C   UNL A   1      38.722  28.612  27.904  1.00  0.00     0.029 A 
ATOM     42  N   UNL A   1      40.021  28.579  29.724  1.00  0.00    -0.354 N 
ATOM     43  C   UNL A   1      39.104  31.059  33.153  1.00  0.00     0.074 A 
ATOM     44  C   UNL A   1      37.850  31.758  32.972  1.00  0.00     0.031 C 
ATOM     45  C   UNL A   1      39.773  27.818  27.635  1.00  0.00     0.029 A 
ATOM     46  C   UNL A   1      40.666  27.800  28.788  1.00  0.00     0.049 A 
ATOM     47  H   UNL A   1      40.368  28.724  30.633  1.00  0.00     0.167 HD
ATOM     48  C   UNL A   1      39.869  31.148  34.266  1.00  0.00     0.034 A 
ATOM     49  C   UNL A   1      41.850  27.157  28.852  1.00  0.00     0.034 A 
ATOM     50  C   UNL A   1      41.080  30.404  34.469  1.00  0.00     0.049 A 
ATOM     51  C   UNL A   1      42.653  27.236  30.125  1.00  0.00     0.074 A 
ATOM     52  C   UNL A   1      41.903  30.387  35.580  1.00  0.00     0.029 A 
ATOM     53  N   UNL A   1      41.630  29.529  33.547  1.00  0.00    -0.354 N 
ATOM     54  N   UNL A   1      42.379  27.877  31.235  1.00  0.00    -0.248 NA
ATOM     55  C   UNL A   1      43.910  26.474  30.167  1.00  0.00     0.031 C 
ATOM     56  C   UNL A   1      42.949  29.493  35.333  1.00  0.00     0.029 A 
ATOM     57  C   UNL A   1      42.770  28.949  34.071  1.00  0.00     0.049 A 
ATOM     58  H   UNL A   1      41.265  29.346  32.651  1.00  0.00     0.167 HD
ATOM     59  C   UNL A   1      43.399  27.554  32.122  1.00  0.00     0.074 A 
ATOM     60  C   UNL A   1      44.293  26.653  31.425  1.00  0.00     0.031 C 
ATOM     61  C   UNL A   1      43.591  27.979  33.395  1.00  0.00     0.034 A 
BRANCH  48  62
ATOM     62  C   UNL A   1      39.373  32.023  35.386  1.00  0.00     0.023 A 
ATOM     63  C   UNL A   1      38.466  31.489  36.322  1.00  0.00     0.012 A 
ATOM     64  C   UNL A   1      39.848  33.338  35.552  1.00  0.00     0.148 A 
ATOM     65  C   UNL A   1      38.014  32.259  37.392  1.00  0.00     0.002 A 
ATOM     66  C   UNL A   1      39.425  34.086  36.645  1.00  0.00     0.091 A 
ATOM     67  F   UNL A   1      40.696  33.833  34.638  1.00  0.00    -0.205 F 
ATOM     68  C   UNL A   1      38.501  33.551  37.560  1.00  0.00     0.022 A 
BRANCH  66  69
ATOM     69  S   UNL A   1      40.047  35.734  36.995  1.00  0.00     0.127 S 
ATOM     70  O   UNL A   1      41.483  35.487  37.122  1.00  0.00    -0.237 OA
ATOM     71  O   UNL A   1      39.659  36.472  35.791  1.00  0.00    -0.237 OA
ATOM     72  O   UNL A   1      39.379  36.165  38.215  1.00  0.00    -0.744 OA
ENDBRANCH  66  69
ENDBRANCH  48  62
BRANCH  49  73
ATOM     73  C   UNL A   1      42.318  26.318  27.712  1.00  0.00     0.023 A 
ATOM     74  C   UNL A   1      43.164  26.893  26.743  1.00  0.00     0.012 A 
ATOM     75  C   UNL A   1      41.936  24.971  27.572  1.00  0.00     0.148 A 
ATOM     76  C   UNL A   1      43.586  26.156  25.635  1.00  0.00     0.002 A 
ATOM     77  C   UNL A   1      42.402  24.227  26.493  1.00  0.00     0.091 A 
ATOM     78  F   UNL A   1      41.116  24.441  28.491  1.00  0.00    -0.205 F 
ATOM     79  C   UNL A   1      43.212  24.821  25.514  1.00  0.00     0.022 A 
BRANCH  77  80
ATOM     80  S   UNL A   1      42.067  22.467  26.342  1.00  0.00     0.127 S 
ATOM     81  O   UNL A   1      40.611  22.446  26.245  1.00  0.00    -0.237 OA
ATOM     82  O   UNL A   1      42.771  22.121  25.106  1.00  0.00    -0.237 OA
ATOM     83  O   UNL A   1      42.643  21.868  27.539  1.00  0.00    -0.744 OA
ENDBRANCH  77  80
ENDBRANCH  49  73
BRANCH  61  84
ATOM     84  C   UNL A   1      44.765  27.425  34.155  1.00  0.00     0.023 A 
ATOM     85  C   UNL A   1      46.008  28.082  34.100  1.00  0.00     0.012 A 
ATOM     86  C   UNL A   1      44.601  26.315  35.006  1.00  0.00     0.148 A 
ATOM     87  C   UNL A   1      47.080  27.629  34.867  1.00  0.00     0.002 A 
ATOM     88  C   UNL A   1      45.660  25.897  35.802  1.00  0.00     0.091 A 
ATOM     89  F   UNL A   1      43.412  25.694  35.027  1.00  0.00    -0.205 F 
ATOM     90  C   UNL A   1      46.902  26.548  35.728  1.00  0.00     0.022 A 
BRANCH  88  91
ATOM     91  S   UNL A   1      45.494  24.574  37.006  1.00  0.00     0.127 S 
ATOM     92  O   UNL A   1      45.246  23.418  36.147  1.00  0.00    -0.237 OA
ATOM     93  O   UNL A   1      46.804  24.581  37.658  1.00  0.00    -0.237 OA
ATOM     94  O   UNL A   1      44.388  24.958  37.873  1.00  0.00    -0.744 OA
ENDBRANCH  88  91
ENDBRANCH  61  84
ENDBRANCH  35  36
ENDBRANCH  27  30
ENDBRANCH  25  26
ENDBRANCH  24  25
ENDBRANCH   1  24
TORSDOF 20
ENDMDL
MODEL 3
REMARK VINA RESULT:     -10.8      1.350      8.003
REMARK SMILES CCc1ccc(C(=O)NC[C@@H](CC(C)C)C(=O)NCCCCNC(=O)c2ccc(-c3c4nc(c(-c5cccc(S(=O)(=O)[O-])c5F)c5ccc([nH]5)c(-c5cccc(S(=O)(=O)[O-])c5F)c5nc(c(-c6cccc(S(=O)(=O)[O-])c6F)c6ccc3[nH]6)C=C5)C=C4)cc2)s1
REMARK SMILES IDX 20 1 19 2 18 3 16 4 17 5 11 7 10 8 9 9 7 10 8 11 6 13 3 14
REMARK SMILES IDX 4 15 89 16 5 17 2 18 1 19 12 20 13 21 14 22 15 23 21 24
REMARK SMILES IDX 22 25 23 26 24 27 25 29 26 30 27 31 88 32 28 33 87 34 29 35
REMARK SMILES IDX 30 36 31 37 81 38 32 39 86 40 80 41 82 42 33 43 85 44 79 45
REMARK SMILES IDX 78 46 34 48 66 49 46 50 65 51 47 52 50 53 64 54 83 55 48 56
REMARK SMILES IDX 49 57 63 59 84 60 51 61 35 62 36 63 44 64 37 65 39 66 45 67
REMARK SMILES IDX 38 68 40 69 41 70 42 71 43 72 67 73 68 74 76 75 69 76 71 77
REMARK SMILES IDX 77 78 70 79 72 80 73 81 74 82 75 83 52 84 53 85 61 86 54 87
REMARK SMILES IDX 56 88 62 89 55 90 57 91 58 92 59 93 60 94
REMARK H PARENT 18 6 9 12 23 28 82 47 50 58
REMARK Flexibility Score: inf
ROOT
ATOM      1  C   UNL A   1      31.972  30.450  26.804  1.00  0.00     0.023 C 
ENDROOT
BRANCH   1   2
ATOM      2  C   UNL A   1      31.689  29.740  25.487  1.00  0.00     0.116 C 
BRANCH   2   3
ATOM      3  N   UNL A   1      32.841  29.690  24.610  1.00  0.00    -0.356 N 
ATOM      4  C   UNL A   1      33.423  28.659  23.943  1.00  0.00     0.224 C 
ATOM      5  O   UNL A   1      34.306  28.945  23.129  1.00  0.00    -0.275 OA
ATOM      6  H   UNL A   1      33.282  30.560  24.472  1.00  0.00     0.163 HD
BRANCH   4   7
ATOM      7  C   UNL A   1      33.036  27.197  24.141  1.00  0.00     0.098 C 
BRANCH   7   8
ATOM      8  C   UNL A   1      33.377  26.643  25.530  1.00  0.00     0.129 C 
BRANCH   8   9
ATOM      9  N   UNL A   1      32.244  26.004  26.177  1.00  0.00    -0.351 N 
ATOM     10  C   UNL A   1      31.991  24.679  26.451  1.00  0.00     0.261 C 
ATOM     11  O   UNL A   1      31.067  24.479  27.245  1.00  0.00    -0.268 OA
ATOM     12  H   UNL A   1      31.538  26.624  26.471  1.00  0.00     0.163 HD
BRANCH  10  13
ATOM     13  C   UNL A   1      32.762  23.608  25.832  1.00  0.00     0.092 A 
ATOM     14  C   UNL A   1      33.308  21.417  24.775  1.00  0.00     0.005 A 
ATOM     15  C   UNL A   1      34.349  22.316  24.688  1.00  0.00     0.016 A 
ATOM     16  S   UNL A   1      31.997  22.074  25.653  1.00  0.00    -0.135 S 
ATOM     17  C   UNL A   1      34.028  23.578  25.274  1.00  0.00     0.026 A 
BRANCH  14  18
ATOM     18  C   UNL A   1      33.230  20.030  24.207  1.00  0.00     0.043 C 
ATOM     19  C   UNL A   1      32.756  19.016  25.242  1.00  0.00     0.010 C 
ENDBRANCH  14  18
ENDBRANCH  10  13
ENDBRANCH   8   9
ENDBRANCH   7   8
BRANCH   7  20
ATOM     20  C   UNL A   1      31.622  26.832  23.627  1.00  0.00     0.018 C 
BRANCH  20  21
ATOM     21  C   UNL A   1      31.503  25.730  22.554  1.00  0.00    -0.017 C 
ATOM     22  C   UNL A   1      32.876  25.197  22.127  1.00  0.00     0.007 C 
ATOM     23  C   UNL A   1      30.670  24.552  23.070  1.00  0.00     0.007 C 
ENDBRANCH  20  21
ENDBRANCH   7  20
ENDBRANCH   4   7
ENDBRANCH   2   3
ENDBRANCH   1   2
BRANCH   1  24
ATOM     24  C   UNL A   1      31.859  31.971  26.744  1.00  0.00     0.023 C 
BRANCH  24  25
ATOM     25  C   UNL A   1      32.931  32.737  27.513  1.00  0.00     0.116 C 
BRANCH  25  26
ATOM     26  N   UNL A   1      32.551  34.113  27.818  1.00  0.00    -0.352 N 
ATOM     27  C   UNL A   1      33.052  34.948  28.793  1.00  0.00     0.251 C 
ATOM     28  H   UNL A   1      31.841  34.495  27.253  1.00  0.00     0.163 HD
ATOM     29  O   UNL A   1      32.561  36.048  28.991  1.00  0.00    -0.269 OA
BRANCH  27  30
ATOM     30  C   UNL A   1      34.176  34.462  29.618  1.00  0.00     0.039 A 
ATOM     31  C   UNL A   1      33.904  33.799  30.816  1.00  0.00     0.014 A 
ATOM     32  C   UNL A   1      35.484  34.572  29.140  1.00  0.00     0.014 A 
ATOM     33  C   UNL A   1      34.943  33.159  31.494  1.00  0.00     0.010 A 
ATOM     34  C   UNL A   1      36.499  33.872  29.777  1.00  0.00     0.010 A 
ATOM     35  C   UNL A   1      36.238  33.151  30.954  1.00  0.00    -0.014 A 
BRANCH  35  36
ATOM     36  C   UNL A   1      37.352  32.397  31.583  1.00  0.00     0.031 A 
ATOM     37  C   UNL A   1      37.904  32.866  32.902  1.00  0.00     0.074 A 
ATOM     38  C   UNL A   1      37.940  31.380  30.921  1.00  0.00     0.049 A 
ATOM     39  N   UNL A   1      38.979  32.475  33.532  1.00  0.00    -0.248 NA
ATOM     40  C   UNL A   1      37.167  33.945  33.582  1.00  0.00     0.031 C 
ATOM     41  C   UNL A   1      37.535  30.871  29.608  1.00  0.00     0.029 A 
ATOM     42  N   UNL A   1      39.033  30.615  31.248  1.00  0.00    -0.354 N 
ATOM     43  C   UNL A   1      39.073  33.286  34.656  1.00  0.00     0.074 A 
ATOM     44  C   UNL A   1      37.965  34.214  34.605  1.00  0.00     0.031 C 
ATOM     45  C   UNL A   1      38.368  29.882  29.242  1.00  0.00     0.029 A 
ATOM     46  C   UNL A   1      39.386  29.709  30.272  1.00  0.00     0.049 A 
ATOM     47  H   UNL A   1      39.519  30.706  32.099  1.00  0.00     0.167 HD
ATOM     48  C   UNL A   1      39.982  33.243  35.658  1.00  0.00     0.034 A 
ATOM     49  C   UNL A   1      40.422  28.848  30.214  1.00  0.00     0.034 A 
ATOM     50  C   UNL A   1      41.043  32.279  35.738  1.00  0.00     0.049 A 
ATOM     51  C   UNL A   1      41.387  28.789  31.369  1.00  0.00     0.074 A 
ATOM     52  C   UNL A   1      41.988  32.121  36.736  1.00  0.00     0.029 A 
ATOM     53  N   UNL A   1      41.288  31.297  34.792  1.00  0.00    -0.354 N 
ATOM     54  N   UNL A   1      41.391  29.490  32.476  1.00  0.00    -0.248 NA
ATOM     55  C   UNL A   1      42.468  27.796  31.285  1.00  0.00     0.031 C 
ATOM     56  C   UNL A   1      42.800  31.034  36.396  1.00  0.00     0.029 A 
ATOM     57  C   UNL A   1      42.354  30.514  35.192  1.00  0.00     0.049 A 
ATOM     58  H   UNL A   1      40.778  31.174  33.959  1.00  0.00     0.167 HD
ATOM     59  C   UNL A   1      42.439  28.989  33.240  1.00  0.00     0.074 A 
ATOM     60  C   UNL A   1      43.042  27.918  32.475  1.00  0.00     0.031 C 
ATOM     61  C   UNL A   1      42.876  29.390  34.459  1.00  0.00     0.034 A 
BRANCH  48  62
ATOM     62  C   UNL A   1      39.817  34.217  36.793  1.00  0.00     0.023 A 
ATOM     63  C   UNL A   1      40.133  35.574  36.584  1.00  0.00     0.012 A 
ATOM     64  C   UNL A   1      39.291  33.812  38.035  1.00  0.00     0.148 A 
ATOM     65  C   UNL A   1      39.957  36.510  37.601  1.00  0.00     0.002 A 
ATOM     66  C   UNL A   1      39.080  34.757  39.032  1.00  0.00     0.091 A 
ATOM     67  F   UNL A   1      39.016  32.512  38.221  1.00  0.00    -0.205 F 
ATOM     68  C   UNL A   1      39.421  36.105  38.819  1.00  0.00     0.022 A 
BRANCH  66  69
ATOM     69  S   UNL A   1      38.327  34.355  40.612  1.00  0.00     0.127 S 
ATOM     70  O   UNL A   1      37.318  33.373  40.216  1.00  0.00    -0.237 OA
ATOM     71  O   UNL A   1      39.457  33.801  41.360  1.00  0.00    -0.237 OA
ATOM     72  O   UNL A   1      37.803  35.607  41.138  1.00  0.00    -0.744 OA
ENDBRANCH  66  69
ENDBRANCH  48  62
BRANCH  49  73
ATOM     73  C   UNL A   1      40.565  27.914  29.060  1.00  0.00     0.023 A 
ATOM     74  C   UNL A   1      39.764  26.755  29.015  1.00  0.00     0.012 A 
ATOM     75  C   UNL A   1      41.479  28.152  28.017  1.00  0.00     0.148 A 
ATOM     76  C   UNL A   1      39.902  25.831  27.978  1.00  0.00     0.002 A 
ATOM     77  C   UNL A   1      41.574  27.254  26.959  1.00  0.00     0.091 A 
ATOM     78  F   UNL A   1      42.248  29.250  28.080  1.00  0.00    -0.205 F 
ATOM     79  C   UNL A   1      40.800  26.084  26.946  1.00  0.00     0.022 A 
BRANCH  77  80
ATOM     80  S   UNL A   1      42.615  27.580  25.531  1.00  0.00     0.127 S 
ATOM     81  O   UNL A   1      43.938  27.676  26.139  1.00  0.00    -0.237 OA
ATOM     82  O   UNL A   1      42.400  26.389  24.709  1.00  0.00    -0.237 OA
ATOM     83  O   UNL A   1      42.084  28.805  24.947  1.00  0.00    -0.744 OA
ENDBRANCH  77  80
ENDBRANCH  49  73
BRANCH  61  84
ATOM     84  C   UNL A   1      44.011  28.630  35.087  1.00  0.00     0.023 A 
ATOM     85  C   UNL A   1      45.340  28.949  34.749  1.00  0.00     0.012 A 
ATOM     86  C   UNL A   1      43.759  27.674  36.091  1.00  0.00     0.148 A 
ATOM     87  C   UNL A   1      46.403  28.313  35.388  1.00  0.00     0.002 A 
ATOM     88  C   UNL A   1      44.823  27.077  36.754  1.00  0.00     0.091 A 
ATOM     89  F   UNL A   1      42.484  27.373  36.382  1.00  0.00    -0.205 F 
ATOM     90  C   UNL A   1      46.145  27.389  36.399  1.00  0.00     0.022 A 
BRANCH  88  91
ATOM     91  S   UNL A   1      44.584  25.947  38.131  1.00  0.00     0.127 S 
ATOM     92  O   UNL A   1      44.408  24.671  37.442  1.00  0.00    -0.237 OA
ATOM     93  O   UNL A   1      45.846  26.078  38.862  1.00  0.00    -0.237 OA
ATOM     94  O   UNL A   1      43.417  26.436  38.853  1.00  0.00    -0.744 OA
ENDBRANCH  88  91
ENDBRANCH  61  84
ENDBRANCH  35  36
ENDBRANCH  27  30
ENDBRANCH  25  26
ENDBRANCH  24  25
ENDBRANCH   1  24
TORSDOF 20
ENDMDL
