MODEL 1
REMARK VINA RESULT:     -12.5      0.000      0.000
REMARK SMILES Nc1ccccc1C(=O)NCc1ccc(C(=O)NCCCCNC(=O)c2ccc(-c3c4nc(c(-c5cccc(S(=O)(=O)[O-])c5F)c5ccc([nH]5)c(-c5cccc(S(=O)(=O)[O-])c5F)c5nc(c(-c6cccc(S(=O)(=O)[O-])c6F)c6ccc3[nH]6)C=C5)C=C4)cc2)o1
REMARK SMILES IDX 20 1 19 2 18 3 16 4 17 5 15 7 12 8 13 9 89 10 14 11 11 12
REMARK SMILES IDX 10 13 8 14 9 15 7 17 2 18 3 19 4 20 6 21 5 22 1 23 21 26
REMARK SMILES IDX 22 27 23 28 24 29 25 31 26 32 27 33 88 34 28 35 87 36 29 37
REMARK SMILES IDX 30 38 31 39 81 40 32 41 86 42 80 43 82 44 33 45 85 46 79 47
REMARK SMILES IDX 78 48 34 50 66 51 46 52 65 53 47 54 50 55 64 56 83 57 48 58
REMARK SMILES IDX 49 59 63 61 84 62 51 63 35 64 36 65 44 66 37 67 39 68 45 69
REMARK SMILES IDX 38 70 40 71 41 72 42 73 43 74 67 75 68 76 76 77 69 78 71 79
REMARK SMILES IDX 77 80 70 81 72 82 73 83 74 84 75 85 52 86 53 87 61 88 54 89
REMARK SMILES IDX 56 90 62 91 55 92 57 93 58 94 59 95 60 96
REMARK H PARENT 18 6 10 16 1 24 1 25 23 30 82 49 50 60
REMARK Flexibility Score: inf
ROOT
ATOM      1  C   UNL A   1      35.159  22.190  26.508  1.00  0.00     0.023 C 
ENDROOT
BRANCH   1   2
ATOM      2  C   UNL A   1      34.021  21.403  27.151  1.00  0.00     0.116 C 
BRANCH   2   3
ATOM      3  N   UNL A   1      32.961  22.293  27.553  1.00  0.00    -0.349 N 
ATOM      4  C   UNL A   1      32.106  23.039  26.784  1.00  0.00     0.286 C 
ATOM      5  O   UNL A   1      31.269  23.707  27.397  1.00  0.00    -0.266 OA
ATOM      6  H   UNL A   1      32.832  22.379  28.525  1.00  0.00     0.163 HD
BRANCH   4   7
ATOM      7  C   UNL A   1      32.162  23.001  25.335  1.00  0.00     0.191 A 
ATOM      8  C   UNL A   1      32.530  24.026  23.402  1.00  0.00     0.124 A 
ATOM      9  C   UNL A   1      32.165  22.741  23.082  1.00  0.00     0.048 A 
ATOM     10  O   UNL A   1      32.536  24.174  24.750  1.00  0.00    -0.454 OA
ATOM     11  C   UNL A   1      31.948  22.076  24.324  1.00  0.00     0.056 A 
BRANCH   8  12
ATOM     12  C   UNL A   1      32.979  25.247  22.709  1.00  0.00     0.191 C 
BRANCH  12  13
ATOM     13  N   UNL A   1      31.918  26.072  22.188  1.00  0.00    -0.345 N 
ATOM     14  C   UNL A   1      31.399  27.223  22.736  1.00  0.00     0.253 C 
ATOM     15  O   UNL A   1      30.550  27.846  22.096  1.00  0.00    -0.269 OA
ATOM     16  H   UNL A   1      31.517  25.776  21.338  1.00  0.00     0.164 HD
BRANCH  14  17
ATOM     17  C   UNL A   1      31.750  27.682  24.115  1.00  0.00     0.062 A 
ATOM     18  C   UNL A   1      32.752  28.615  24.447  1.00  0.00     0.044 A 
ATOM     19  C   UNL A   1      33.056  28.812  25.805  1.00  0.00     0.026 A 
ATOM     20  C   UNL A   1      32.322  28.190  26.816  1.00  0.00     0.002 A 
ATOM     21  C   UNL A   1      30.989  27.090  25.143  1.00  0.00     0.016 A 
ATOM     22  C   UNL A   1      31.265  27.353  26.485  1.00  0.00     0.001 A 
BRANCH  18  23
ATOM     23  N   UNL A   1      33.441  29.385  23.519  1.00  0.00    -0.398 N 
ATOM     24  H   UNL A   1      33.978  30.155  23.819  1.00  0.00     0.156 HD
ATOM     25  H   UNL A   1      33.394  29.161  22.562  1.00  0.00     0.156 HD
ENDBRANCH  18  23
ENDBRANCH  14  17
ENDBRANCH  12  13
ENDBRANCH   8  12
ENDBRANCH   4   7
ENDBRANCH   2   3
ENDBRANCH   1   2
BRANCH   1  26
ATOM     26  C   UNL A   1      35.756  21.503  25.276  1.00  0.00     0.023 C 
BRANCH  26  27
ATOM     27  C   UNL A   1      37.216  21.847  24.994  1.00  0.00     0.116 C 
BRANCH  27  28
ATOM     28  N   UNL A   1      38.132  20.746  25.273  1.00  0.00    -0.352 N 
ATOM     29  C   UNL A   1      39.302  20.781  25.993  1.00  0.00     0.251 C 
ATOM     30  H   UNL A   1      37.881  19.870  24.899  1.00  0.00     0.163 HD
ATOM     31  O   UNL A   1      40.025  19.794  26.066  1.00  0.00    -0.269 OA
BRANCH  29  32
ATOM     32  C   UNL A   1      39.685  22.050  26.635  1.00  0.00     0.039 A 
ATOM     33  C   UNL A   1      40.685  22.036  27.609  1.00  0.00     0.014 A 
ATOM     34  C   UNL A   1      39.137  23.252  26.181  1.00  0.00     0.014 A 
ATOM     35  C   UNL A   1      41.206  23.247  28.066  1.00  0.00     0.010 A 
ATOM     36  C   UNL A   1      39.702  24.453  26.592  1.00  0.00     0.010 A 
ATOM     37  C   UNL A   1      40.753  24.460  27.521  1.00  0.00    -0.014 A 
BRANCH  37  38
ATOM     38  C   UNL A   1      41.420  25.744  27.849  1.00  0.00     0.031 A 
ATOM     39  C   UNL A   1      40.663  26.834  28.550  1.00  0.00     0.074 A 
ATOM     40  C   UNL A   1      42.674  25.963  27.405  1.00  0.00     0.049 A 
ATOM     41  N   UNL A   1      41.056  28.045  28.848  1.00  0.00    -0.248 NA
ATOM     42  C   UNL A   1      39.278  26.536  28.946  1.00  0.00     0.031 C 
ATOM     43  C   UNL A   1      43.477  25.010  26.634  1.00  0.00     0.029 A 
ATOM     44  N   UNL A   1      43.481  27.069  27.506  1.00  0.00    -0.354 N 
ATOM     45  C   UNL A   1      39.962  28.664  29.437  1.00  0.00     0.074 A 
ATOM     46  C   UNL A   1      38.878  27.704  29.428  1.00  0.00     0.031 C 
ATOM     47  C   UNL A   1      44.658  25.572  26.331  1.00  0.00     0.029 A 
ATOM     48  C   UNL A   1      44.686  26.933  26.856  1.00  0.00     0.049 A 
ATOM     49  H   UNL A   1      43.222  27.882  27.998  1.00  0.00     0.167 HD
ATOM     50  C   UNL A   1      39.876  29.908  29.964  1.00  0.00     0.034 A 
ATOM     51  C   UNL A   1      45.694  27.812  26.688  1.00  0.00     0.034 A 
ATOM     52  C   UNL A   1      40.967  30.842  30.003  1.00  0.00     0.049 A 
ATOM     53  C   UNL A   1      45.578  29.179  27.302  1.00  0.00     0.074 A 
ATOM     54  C   UNL A   1      41.013  32.085  30.609  1.00  0.00     0.029 A 
ATOM     55  N   UNL A   1      42.200  30.646  29.402  1.00  0.00    -0.354 N 
ATOM     56  N   UNL A   1      44.602  29.682  28.017  1.00  0.00    -0.248 NA
ATOM     57  C   UNL A   1      46.715  30.092  27.111  1.00  0.00     0.031 C 
ATOM     58  C   UNL A   1      42.266  32.652  30.350  1.00  0.00     0.029 A 
ATOM     59  C   UNL A   1      43.008  31.753  29.601  1.00  0.00     0.049 A 
ATOM     60  H   UNL A   1      42.463  29.837  28.905  1.00  0.00     0.167 HD
ATOM     61  C   UNL A   1      45.012  30.960  28.379  1.00  0.00     0.074 A 
ATOM     62  C   UNL A   1      46.340  31.142  27.831  1.00  0.00     0.031 C 
ATOM     63  C   UNL A   1      44.343  31.905  29.084  1.00  0.00     0.034 A 
BRANCH  50  64
ATOM     64  C   UNL A   1      38.571  30.310  30.596  1.00  0.00     0.023 A 
ATOM     65  C   UNL A   1      38.348  30.036  31.961  1.00  0.00     0.012 A 
ATOM     66  C   UNL A   1      37.595  31.015  29.865  1.00  0.00     0.148 A 
ATOM     67  C   UNL A   1      37.164  30.429  32.582  1.00  0.00     0.002 A 
ATOM     68  C   UNL A   1      36.434  31.440  30.501  1.00  0.00     0.091 A 
ATOM     69  F   UNL A   1      37.814  31.246  28.563  1.00  0.00    -0.205 F 
ATOM     70  C   UNL A   1      36.213  31.140  31.856  1.00  0.00     0.022 A 
BRANCH  68  71
ATOM     71  S   UNL A   1      35.180  32.426  29.674  1.00  0.00     0.127 S 
ATOM     72  O   UNL A   1      34.310  32.792  30.791  1.00  0.00    -0.237 OA
ATOM     73  O   UNL A   1      35.968  33.530  29.128  1.00  0.00    -0.237 OA
ATOM     74  O   UNL A   1      34.580  31.555  28.674  1.00  0.00    -0.744 OA
ENDBRANCH  68  71
ENDBRANCH  50  64
BRANCH  51  75
ATOM     75  C   UNL A   1      46.921  27.404  25.948  1.00  0.00     0.023 A 
ATOM     76  C   UNL A   1      47.902  26.638  26.607  1.00  0.00     0.012 A 
ATOM     77  C   UNL A   1      47.110  27.744  24.594  1.00  0.00     0.148 A 
ATOM     78  C   UNL A   1      49.062  26.241  25.940  1.00  0.00     0.002 A 
ATOM     79  C   UNL A   1      48.241  27.298  23.920  1.00  0.00     0.091 A 
ATOM     80  F   UNL A   1      46.173  28.486  23.988  1.00  0.00    -0.205 F 
ATOM     81  C   UNL A   1      49.226  26.561  24.595  1.00  0.00     0.022 A 
BRANCH  79  82
ATOM     82  S   UNL A   1      48.468  27.547  22.155  1.00  0.00     0.127 S 
ATOM     83  O   UNL A   1      48.699  26.183  21.688  1.00  0.00    -0.237 OA
ATOM     84  O   UNL A   1      47.181  28.123  21.763  1.00  0.00    -0.237 OA
ATOM     85  O   UNL A   1      49.594  28.463  22.032  1.00  0.00    -0.744 OA
ENDBRANCH  79  82
ENDBRANCH  51  75
BRANCH  63  86
ATOM     86  C   UNL A   1      45.033  33.225  29.310  1.00  0.00     0.023 A 
ATOM     87  C   UNL A   1      45.835  33.400  30.455  1.00  0.00     0.012 A 
ATOM     88  C   UNL A   1      44.950  34.258  28.357  1.00  0.00     0.148 A 
ATOM     89  C   UNL A   1      46.524  34.594  30.662  1.00  0.00     0.002 A 
ATOM     90  C   UNL A   1      45.676  35.428  28.546  1.00  0.00     0.091 A 
ATOM     91  F   UNL A   1      44.167  34.076  27.283  1.00  0.00    -0.205 F 
ATOM     92  C   UNL A   1      46.454  35.602  29.703  1.00  0.00     0.022 A 
BRANCH  90  93
ATOM     93  S   UNL A   1      45.722  36.745  27.326  1.00  0.00     0.127 S 
ATOM     94  O   UNL A   1      46.617  37.710  27.962  1.00  0.00    -0.237 OA
ATOM     95  O   UNL A   1      46.286  36.067  26.159  1.00  0.00    -0.237 OA
ATOM     96  O   UNL A   1      44.344  37.189  27.161  1.00  0.00    -0.744 OA
ENDBRANCH  90  93
ENDBRANCH  63  86
ENDBRANCH  37  38
ENDBRANCH  29  32
ENDBRANCH  27  28
ENDBRANCH  26  27
ENDBRANCH   1  26
TORSDOF 18
ENDMDL
MODEL 2
REMARK VINA RESULT:     -12.4      1.680      7.729
REMARK SMILES Nc1ccccc1C(=O)NCc1ccc(C(=O)NCCCCNC(=O)c2ccc(-c3c4nc(c(-c5cccc(S(=O)(=O)[O-])c5F)c5ccc([nH]5)c(-c5cccc(S(=O)(=O)[O-])c5F)c5nc(c(-c6cccc(S(=O)(=O)[O-])c6F)c6ccc3[nH]6)C=C5)C=C4)cc2)o1
REMARK SMILES IDX 20 1 19 2 18 3 16 4 17 5 15 7 12 8 13 9 89 10 14 11 11 12
REMARK SMILES IDX 10 13 8 14 9 15 7 17 2 18 3 19 4 20 6 21 5 22 1 23 21 26
REMARK SMILES IDX 22 27 23 28 24 29 25 31 26 32 27 33 88 34 28 35 87 36 29 37
REMARK SMILES IDX 30 38 31 39 81 40 32 41 86 42 80 43 82 44 33 45 85 46 79 47
REMARK SMILES IDX 78 48 34 50 66 51 46 52 65 53 47 54 50 55 64 56 83 57 48 58
REMARK SMILES IDX 49 59 63 61 84 62 51 63 35 64 36 65 44 66 37 67 39 68 45 69
REMARK SMILES IDX 38 70 40 71 41 72 42 73 43 74 67 75 68 76 76 77 69 78 71 79
REMARK SMILES IDX 77 80 70 81 72 82 73 83 74 84 75 85 52 86 53 87 61 88 54 89
REMARK SMILES IDX 56 90 62 91 55 92 57 93 58 94 59 95 60 96
REMARK H PARENT 18 6 10 16 1 24 1 25 23 30 82 49 50 60
REMARK Flexibility Score: inf
ROOT
ATOM      1  C   UNL A   1      35.425  22.105  26.335  1.00  0.00     0.023 C 
ENDROOT
BRANCH   1   2
ATOM      2  C   UNL A   1      34.332  21.453  27.178  1.00  0.00     0.116 C 
BRANCH   2   3
ATOM      3  N   UNL A   1      33.530  20.575  26.365  1.00  0.00    -0.349 N 
ATOM      4  C   UNL A   1      32.385  20.837  25.659  1.00  0.00     0.286 C 
ATOM      5  O   UNL A   1      31.911  19.891  25.024  1.00  0.00    -0.266 OA
ATOM      6  H   UNL A   1      33.853  19.646  26.307  1.00  0.00     0.163 HD
BRANCH   4   7
ATOM      7  C   UNL A   1      31.799  22.164  25.632  1.00  0.00     0.191 A 
ATOM      8  C   UNL A   1      31.065  23.914  24.483  1.00  0.00     0.124 A 
ATOM      9  C   UNL A   1      30.905  24.241  25.808  1.00  0.00     0.048 A 
ATOM     10  O   UNL A   1      31.591  22.668  24.383  1.00  0.00    -0.454 OA
ATOM     11  C   UNL A   1      31.358  23.109  26.547  1.00  0.00     0.056 A 
BRANCH   8  12
ATOM     12  C   UNL A   1      30.765  24.495  23.162  1.00  0.00     0.191 C 
BRANCH  12  13
ATOM     13  N   UNL A   1      31.910  24.674  22.306  1.00  0.00    -0.345 N 
ATOM     14  C   UNL A   1      32.926  25.595  22.438  1.00  0.00     0.253 C 
ATOM     15  O   UNL A   1      33.875  25.537  21.654  1.00  0.00    -0.269 OA
ATOM     16  H   UNL A   1      31.974  24.065  21.534  1.00  0.00     0.164 HD
BRANCH  14  17
ATOM     17  C   UNL A   1      32.866  26.717  23.424  1.00  0.00     0.062 A 
ATOM     18  C   UNL A   1      32.145  27.917  23.269  1.00  0.00     0.044 A 
ATOM     19  C   UNL A   1      32.327  28.933  24.223  1.00  0.00     0.026 A 
ATOM     20  C   UNL A   1      33.112  28.734  25.360  1.00  0.00     0.002 A 
ATOM     21  C   UNL A   1      33.624  26.513  24.594  1.00  0.00     0.016 A 
ATOM     22  C   UNL A   1      33.736  27.511  25.562  1.00  0.00     0.001 A 
BRANCH  18  23
ATOM     23  N   UNL A   1      31.234  28.154  22.248  1.00  0.00    -0.398 N 
ATOM     24  H   UNL A   1      30.668  28.961  22.270  1.00  0.00     0.156 HD
ATOM     25  H   UNL A   1      31.154  27.518  21.502  1.00  0.00     0.156 HD
ENDBRANCH  18  23
ENDBRANCH  14  17
ENDBRANCH  12  13
ENDBRANCH   8  12
ENDBRANCH   4   7
ENDBRANCH   2   3
ENDBRANCH   1   2
BRANCH   1  26
ATOM     26  C   UNL A   1      36.130  21.129  25.389  1.00  0.00     0.023 C 
BRANCH  26  27
ATOM     27  C   UNL A   1      37.575  21.491  25.055  1.00  0.00     0.116 C 
BRANCH  27  28
ATOM     28  N   UNL A   1      38.536  20.481  25.485  1.00  0.00    -0.352 N 
ATOM     29  C   UNL A   1      39.662  20.658  26.253  1.00  0.00     0.251 C 
ATOM     30  H   UNL A   1      38.356  19.559  25.190  1.00  0.00     0.163 HD
ATOM     31  O   UNL A   1      40.435  19.730  26.459  1.00  0.00    -0.269 OA
BRANCH  29  32
ATOM     32  C   UNL A   1      39.937  22.005  26.782  1.00  0.00     0.039 A 
ATOM     33  C   UNL A   1      40.921  22.155  27.762  1.00  0.00     0.014 A 
ATOM     34  C   UNL A   1      39.307  23.116  26.218  1.00  0.00     0.014 A 
ATOM     35  C   UNL A   1      41.340  23.438  28.114  1.00  0.00     0.010 A 
ATOM     36  C   UNL A   1      39.771  24.389  26.524  1.00  0.00     0.010 A 
ATOM     37  C   UNL A   1      40.805  24.559  27.458  1.00  0.00    -0.014 A 
BRANCH  37  38
ATOM     38  C   UNL A   1      41.366  25.915  27.675  1.00  0.00     0.031 A 
ATOM     39  C   UNL A   1      42.769  26.233  27.246  1.00  0.00     0.074 A 
ATOM     40  C   UNL A   1      40.645  26.819  28.368  1.00  0.00     0.049 A 
ATOM     41  N   UNL A   1      43.451  27.334  27.424  1.00  0.00    -0.248 NA
ATOM     42  C   UNL A   1      43.512  25.169  26.551  1.00  0.00     0.031 C 
ATOM     43  C   UNL A   1      39.304  26.593  28.913  1.00  0.00     0.029 A 
ATOM     44  N   UNL A   1      40.951  28.098  28.763  1.00  0.00    -0.354 N 
ATOM     45  C   UNL A   1      44.711  27.089  26.892  1.00  0.00     0.074 A 
ATOM     46  C   UNL A   1      44.708  25.723  26.412  1.00  0.00     0.031 C 
ATOM     47  C   UNL A   1      38.904  27.692  29.572  1.00  0.00     0.029 A 
ATOM     48  C   UNL A   1      39.969  28.688  29.526  1.00  0.00     0.049 A 
ATOM     49  H   UNL A   1      41.792  28.549  28.523  1.00  0.00     0.167 HD
ATOM     50  C   UNL A   1      45.764  27.933  26.787  1.00  0.00     0.034 A 
ATOM     51  C   UNL A   1      39.937  29.891  30.132  1.00  0.00     0.034 A 
ATOM     52  C   UNL A   1      45.746  29.300  27.232  1.00  0.00     0.049 A 
ATOM     53  C   UNL A   1      41.113  30.816  29.980  1.00  0.00     0.074 A 
ATOM     54  C   UNL A   1      46.723  30.267  27.075  1.00  0.00     0.029 A 
ATOM     55  N   UNL A   1      44.708  29.892  27.934  1.00  0.00    -0.354 N 
ATOM     56  N   UNL A   1      42.226  30.631  29.313  1.00  0.00    -0.248 NA
ATOM     57  C   UNL A   1      41.018  32.126  30.641  1.00  0.00     0.031 C 
ATOM     58  C   UNL A   1      46.286  31.436  27.705  1.00  0.00     0.029 A 
ATOM     59  C   UNL A   1      45.028  31.204  28.238  1.00  0.00     0.049 A 
ATOM     60  H   UNL A   1      43.867  29.444  28.180  1.00  0.00     0.167 HD
ATOM     61  C   UNL A   1      42.955  31.806  29.455  1.00  0.00     0.074 A 
ATOM     62  C   UNL A   1      42.143  32.708  30.245  1.00  0.00     0.031 C 
ATOM     63  C   UNL A   1      44.193  32.105  28.991  1.00  0.00     0.034 A 
BRANCH  50  64
ATOM     64  C   UNL A   1      47.006  27.420  26.110  1.00  0.00     0.023 A 
ATOM     65  C   UNL A   1      47.214  27.694  24.743  1.00  0.00     0.012 A 
ATOM     66  C   UNL A   1      47.995  26.727  26.835  1.00  0.00     0.148 A 
ATOM     67  C   UNL A   1      48.372  27.263  24.099  1.00  0.00     0.002 A 
ATOM     68  C   UNL A   1      49.166  26.336  26.195  1.00  0.00     0.091 A 
ATOM     69  F   UNL A   1      47.769  26.456  28.128  1.00  0.00    -0.205 F 
ATOM     70  C   UNL A   1      49.352  26.595  24.827  1.00  0.00     0.022 A 
BRANCH  68  71
ATOM     71  S   UNL A   1      50.522  25.534  27.060  1.00  0.00     0.127 S 
ATOM     72  O   UNL A   1      51.482  25.329  25.977  1.00  0.00    -0.237 OA
ATOM     73  O   UNL A   1      50.910  26.554  28.035  1.00  0.00    -0.237 OA
ATOM     74  O   UNL A   1      49.966  24.320  27.640  1.00  0.00    -0.744 OA
ENDBRANCH  68  71
ENDBRANCH  50  64
BRANCH  51  75
ATOM     75  C   UNL A   1      38.727  30.308  30.895  1.00  0.00     0.023 A 
ATOM     76  C   UNL A   1      38.637  30.002  32.267  1.00  0.00     0.012 A 
ATOM     77  C   UNL A   1      37.683  31.027  30.282  1.00  0.00     0.148 A 
ATOM     78  C   UNL A   1      37.516  30.380  33.008  1.00  0.00     0.002 A 
ATOM     79  C   UNL A   1      36.595  31.449  31.038  1.00  0.00     0.091 A 
ATOM     80  F   UNL A   1      37.779  31.296  28.972  1.00  0.00    -0.205 F 
ATOM     81  C   UNL A   1      36.502  31.112  32.397  1.00  0.00     0.022 A 
BRANCH  79  82
ATOM     82  S   UNL A   1      35.312  32.512  30.365  1.00  0.00     0.127 S 
ATOM     83  O   UNL A   1      34.844  31.730  29.225  1.00  0.00    -0.237 OA
ATOM     84  O   UNL A   1      34.372  32.598  31.484  1.00  0.00    -0.237 OA
ATOM     85  O   UNL A   1      35.976  33.769  30.047  1.00  0.00    -0.744 OA
ENDBRANCH  79  82
ENDBRANCH  51  75
BRANCH  63  86
ATOM     86  C   UNL A   1      44.752  33.464  29.319  1.00  0.00     0.023 A 
ATOM     87  C   UNL A   1      45.544  33.628  30.472  1.00  0.00     0.012 A 
ATOM     88  C   UNL A   1      44.558  34.556  28.450  1.00  0.00     0.148 A 
ATOM     89  C   UNL A   1      46.113  34.865  30.771  1.00  0.00     0.002 A 
ATOM     90  C   UNL A   1      45.166  35.773  28.729  1.00  0.00     0.091 A 
ATOM     91  F   UNL A   1      43.786  34.382  27.367  1.00  0.00    -0.205 F 
ATOM     92  C   UNL A   1      45.934  35.933  29.895  1.00  0.00     0.022 A 
BRANCH  90  93
ATOM     93  S   UNL A   1      45.070  37.180  27.617  1.00  0.00     0.127 S 
ATOM     94  O   UNL A   1      43.676  37.119  27.179  1.00  0.00    -0.237 OA
ATOM     95  O   UNL A   1      45.383  38.299  28.504  1.00  0.00    -0.237 OA
ATOM     96  O   UNL A   1      46.060  36.937  26.576  1.00  0.00    -0.744 OA
ENDBRANCH  90  93
ENDBRANCH  63  86
ENDBRANCH  37  38
ENDBRANCH  29  32
ENDBRANCH  27  28
ENDBRANCH  26  27
ENDBRANCH   1  26
TORSDOF 18
ENDMDL
MODEL 3
REMARK VINA RESULT:     -12.4      1.319      1.576
REMARK SMILES Nc1ccccc1C(=O)NCc1ccc(C(=O)NCCCCNC(=O)c2ccc(-c3c4nc(c(-c5cccc(S(=O)(=O)[O-])c5F)c5ccc([nH]5)c(-c5cccc(S(=O)(=O)[O-])c5F)c5nc(c(-c6cccc(S(=O)(=O)[O-])c6F)c6ccc3[nH]6)C=C5)C=C4)cc2)o1
REMARK SMILES IDX 20 1 19 2 18 3 16 4 17 5 15 7 12 8 13 9 89 10 14 11 11 12
REMARK SMILES IDX 10 13 8 14 9 15 7 17 2 18 3 19 4 20 6 21 5 22 1 23 21 26
REMARK SMILES IDX 22 27 23 28 24 29 25 31 26 32 27 33 88 34 28 35 87 36 29 37
REMARK SMILES IDX 30 38 31 39 81 40 32 41 86 42 80 43 82 44 33 45 85 46 79 47
REMARK SMILES IDX 78 48 34 50 66 51 46 52 65 53 47 54 50 55 64 56 83 57 48 58
REMARK SMILES IDX 49 59 63 61 84 62 51 63 35 64 36 65 44 66 37 67 39 68 45 69
REMARK SMILES IDX 38 70 40 71 41 72 42 73 43 74 67 75 68 76 76 77 69 78 71 79
REMARK SMILES IDX 77 80 70 81 72 82 73 83 74 84 75 85 52 86 53 87 61 88 54 89
REMARK SMILES IDX 56 90 62 91 55 92 57 93 58 94 59 95 60 96
REMARK H PARENT 18 6 10 16 1 24 1 25 23 30 82 49 50 60
REMARK Flexibility Score: inf
ROOT
ATOM      1  C   UNL A   1      34.994  21.352  26.144  1.00  0.00     0.023 C 
ENDROOT
BRANCH   1   2
ATOM      2  C   UNL A   1      33.589  20.778  25.981  1.00  0.00     0.116 C 
BRANCH   2   3
ATOM      3  N   UNL A   1      32.601  21.761  26.349  1.00  0.00    -0.349 N 
ATOM      4  C   UNL A   1      32.055  22.774  25.606  1.00  0.00     0.286 C 
ATOM      5  O   UNL A   1      31.203  23.463  26.172  1.00  0.00    -0.266 OA
ATOM      6  H   UNL A   1      32.269  21.695  27.274  1.00  0.00     0.163 HD
BRANCH   4   7
ATOM      7  C   UNL A   1      32.431  22.985  24.220  1.00  0.00     0.191 A 
ATOM      8  C   UNL A   1      32.930  24.365  22.556  1.00  0.00     0.124 A 
ATOM      9  C   UNL A   1      32.991  23.099  22.025  1.00  0.00     0.048 A 
ATOM     10  O   UNL A   1      32.604  24.291  23.871  1.00  0.00    -0.454 OA
ATOM     11  C   UNL A   1      32.690  22.210  23.100  1.00  0.00     0.056 A 
BRANCH   8  12
ATOM     12  C   UNL A   1      33.184  25.751  22.127  1.00  0.00     0.191 C 
BRANCH  12  13
ATOM     13  N   UNL A   1      32.007  26.495  21.755  1.00  0.00    -0.345 N 
ATOM     14  C   UNL A   1      31.340  27.445  22.497  1.00  0.00     0.253 C 
ATOM     15  O   UNL A   1      30.399  28.043  21.973  1.00  0.00    -0.269 OA
ATOM     16  H   UNL A   1      31.636  26.301  20.863  1.00  0.00     0.164 HD
BRANCH  14  17
ATOM     17  C   UNL A   1      31.649  27.696  23.938  1.00  0.00     0.062 A 
ATOM     18  C   UNL A   1      32.656  28.548  24.432  1.00  0.00     0.044 A 
ATOM     19  C   UNL A   1      32.915  28.545  25.814  1.00  0.00     0.026 A 
ATOM     20  C   UNL A   1      32.131  27.805  26.701  1.00  0.00     0.002 A 
ATOM     21  C   UNL A   1      30.839  26.985  24.846  1.00  0.00     0.016 A 
ATOM     22  C   UNL A   1      31.072  27.049  26.219  1.00  0.00     0.001 A 
BRANCH  18  23
ATOM     23  N   UNL A   1      33.394  29.424  23.646  1.00  0.00    -0.398 N 
ATOM     24  H   UNL A   1      32.933  30.051  23.042  1.00  0.00     0.156 HD
ATOM     25  H   UNL A   1      34.377  29.419  23.694  1.00  0.00     0.156 HD
ENDBRANCH  18  23
ENDBRANCH  14  17
ENDBRANCH  12  13
ENDBRANCH   8  12
ENDBRANCH   4   7
ENDBRANCH   2   3
ENDBRANCH   1   2
BRANCH   1  26
ATOM     26  C   UNL A   1      35.846  21.247  24.876  1.00  0.00     0.023 C 
BRANCH  26  27
ATOM     27  C   UNL A   1      37.293  21.708  25.035  1.00  0.00     0.116 C 
BRANCH  27  28
ATOM     28  N   UNL A   1      38.216  20.617  25.327  1.00  0.00    -0.352 N 
ATOM     29  C   UNL A   1      39.387  20.669  26.046  1.00  0.00     0.251 C 
ATOM     30  H   UNL A   1      37.973  19.735  24.963  1.00  0.00     0.163 HD
ATOM     31  O   UNL A   1      40.116  19.689  26.132  1.00  0.00    -0.269 OA
BRANCH  29  32
ATOM     32  C   UNL A   1      39.760  21.949  26.674  1.00  0.00     0.039 A 
ATOM     33  C   UNL A   1      40.757  21.954  27.650  1.00  0.00     0.014 A 
ATOM     34  C   UNL A   1      39.206  23.141  26.203  1.00  0.00     0.014 A 
ATOM     35  C   UNL A   1      41.269  23.173  28.094  1.00  0.00     0.010 A 
ATOM     36  C   UNL A   1      39.762  24.351  26.600  1.00  0.00     0.010 A 
ATOM     37  C   UNL A   1      40.811  24.376  27.531  1.00  0.00    -0.014 A 
BRANCH  37  38
ATOM     38  C   UNL A   1      41.468  25.668  27.845  1.00  0.00     0.031 A 
ATOM     39  C   UNL A   1      40.711  26.753  28.554  1.00  0.00     0.074 A 
ATOM     40  C   UNL A   1      42.713  25.899  27.382  1.00  0.00     0.049 A 
ATOM     41  N   UNL A   1      41.095  27.969  28.841  1.00  0.00    -0.248 NA
ATOM     42  C   UNL A   1      39.334  26.442  28.972  1.00  0.00     0.031 C 
ATOM     43  C   UNL A   1      43.515  24.952  26.603  1.00  0.00     0.029 A 
ATOM     44  N   UNL A   1      43.510  27.014  27.467  1.00  0.00    -0.354 N 
ATOM     45  C   UNL A   1      40.003  28.579  29.444  1.00  0.00     0.074 A 
ATOM     46  C   UNL A   1      38.929  27.608  29.455  1.00  0.00     0.031 C 
ATOM     47  C   UNL A   1      44.686  25.525  26.280  1.00  0.00     0.029 A 
ATOM     48  C   UNL A   1      44.707  26.888  26.799  1.00  0.00     0.049 A 
ATOM     49  H   UNL A   1      43.250  27.826  27.959  1.00  0.00     0.167 HD
ATOM     50  C   UNL A   1      39.912  29.824  29.968  1.00  0.00     0.034 A 
ATOM     51  C   UNL A   1      45.703  27.777  26.613  1.00  0.00     0.034 A 
ATOM     52  C   UNL A   1      40.994  30.770  29.988  1.00  0.00     0.049 A 
ATOM     53  C   UNL A   1      45.582  29.145  27.224  1.00  0.00     0.074 A 
ATOM     54  C   UNL A   1      41.035  32.016  30.588  1.00  0.00     0.029 A 
ATOM     55  N   UNL A   1      42.220  30.584  29.369  1.00  0.00    -0.354 N 
ATOM     56  N   UNL A   1      44.611  29.641  27.952  1.00  0.00    -0.248 NA
ATOM     57  C   UNL A   1      46.706  30.069  27.013  1.00  0.00     0.031 C 
ATOM     58  C   UNL A   1      42.278  32.594  30.309  1.00  0.00     0.029 A 
ATOM     59  C   UNL A   1      43.018  31.700  29.552  1.00  0.00     0.049 A 
ATOM     60  H   UNL A   1      42.484  29.776  28.871  1.00  0.00     0.167 HD
ATOM     61  C   UNL A   1      45.013  30.924  28.303  1.00  0.00     0.074 A 
ATOM     62  C   UNL A   1      46.331  31.118  27.735  1.00  0.00     0.031 C 
ATOM     63  C   UNL A   1      44.345  31.865  29.015  1.00  0.00     0.034 A 
BRANCH  50  64
ATOM     64  C   UNL A   1      38.612  30.215  30.618  1.00  0.00     0.023 A 
ATOM     65  C   UNL A   1      38.387  29.884  31.970  1.00  0.00     0.012 A 
ATOM     66  C   UNL A   1      37.645  30.963  29.918  1.00  0.00     0.148 A 
ATOM     67  C   UNL A   1      37.208  30.265  32.608  1.00  0.00     0.002 A 
ATOM     68  C   UNL A   1      36.490  31.374  30.574  1.00  0.00     0.091 A 
ATOM     69  F   UNL A   1      37.867  31.248  28.627  1.00  0.00    -0.205 F 
ATOM     70  C   UNL A   1      36.266  31.019  31.914  1.00  0.00     0.022 A 
BRANCH  68  71
ATOM     71  S   UNL A   1      35.249  32.411  29.791  1.00  0.00     0.127 S 
ATOM     72  O   UNL A   1      34.320  32.644  30.897  1.00  0.00    -0.237 OA
ATOM     73  O   UNL A   1      36.031  33.582  29.395  1.00  0.00    -0.237 OA
ATOM     74  O   UNL A   1      34.716  31.632  28.682  1.00  0.00    -0.744 OA
ENDBRANCH  68  71
ENDBRANCH  50  64
BRANCH  51  75
ATOM     75  C   UNL A   1      46.923  27.380  25.857  1.00  0.00     0.023 A 
ATOM     76  C   UNL A   1      47.006  27.668  24.480  1.00  0.00     0.012 A 
ATOM     77  C   UNL A   1      48.009  26.748  26.492  1.00  0.00     0.148 A 
ATOM     78  C   UNL A   1      48.136  27.309  23.745  1.00  0.00     0.002 A 
ATOM     79  C   UNL A   1      49.155  26.443  25.765  1.00  0.00     0.091 A 
ATOM     80  F   UNL A   1      47.906  26.468  27.799  1.00  0.00    -0.205 F 
ATOM     81  C   UNL A   1      49.213  26.707  24.389  1.00  0.00     0.022 A 
BRANCH  79  82
ATOM     82  S   UNL A   1      50.639  25.793  26.541  1.00  0.00     0.127 S 
ATOM     83  O   UNL A   1      51.531  25.636  25.396  1.00  0.00    -0.237 OA
ATOM     84  O   UNL A   1      50.999  26.874  27.460  1.00  0.00    -0.237 OA
ATOM     85  O   UNL A   1      50.226  24.562  27.202  1.00  0.00    -0.744 OA
ENDBRANCH  79  82
ENDBRANCH  51  75
BRANCH  63  86
ATOM     86  C   UNL A   1      45.024  33.192  29.226  1.00  0.00     0.023 A 
ATOM     87  C   UNL A   1      45.833  33.383  30.363  1.00  0.00     0.012 A 
ATOM     88  C   UNL A   1      44.923  34.218  28.266  1.00  0.00     0.148 A 
ATOM     89  C   UNL A   1      46.512  34.585  30.556  1.00  0.00     0.002 A 
ATOM     90  C   UNL A   1      45.639  35.396  28.441  1.00  0.00     0.091 A 
ATOM     91  F   UNL A   1      44.133  34.021  27.200  1.00  0.00    -0.205 F 
ATOM     92  C   UNL A   1      46.425  35.586  29.590  1.00  0.00     0.022 A 
BRANCH  90  93
ATOM     93  S   UNL A   1      45.663  36.705  27.211  1.00  0.00     0.127 S 
ATOM     94  O   UNL A   1      46.212  36.010  26.048  1.00  0.00    -0.237 OA
ATOM     95  O   UNL A   1      44.247  37.052  27.101  1.00  0.00    -0.237 OA
ATOM     96  O   UNL A   1      46.505  37.758  27.761  1.00  0.00    -0.744 OA
ENDBRANCH  90  93
ENDBRANCH  63  86
ENDBRANCH  37  38
ENDBRANCH  29  32
ENDBRANCH  27  28
ENDBRANCH  26  27
ENDBRANCH   1  26
TORSDOF 18
ENDMDL
