MODEL 1
REMARK VINA RESULT:     -12.9      0.000      0.000
REMARK SMILES CCc1cc(OCCC(=O)NCCCCNC(=O)c2ccc(-c3c4nc(c(-c5cccc(S(=O)(=O)[O-])c5F)c5ccc([nH]5)c(-c5cccc(S(=O)(=O)[O-])c5F)c5nc(c(-c6cccc(S(=O)(=O)[O-])c6F)c6ccc3[nH]6)C=C5)C=C4)cc2)nc(-c2cnccn2)n1
REMARK SMILES IDX 13 1 12 2 11 3 9 4 10 5 8 7 7 8 6 9 5 10 3 11 4 12 90 13
REMARK SMILES IDX 83 14 82 15 2 16 1 17 84 18 85 19 89 20 86 21 88 22 87 23
REMARK SMILES IDX 14 24 15 25 16 26 17 27 18 29 19 30 20 31 81 32 21 33 80 34
REMARK SMILES IDX 22 35 23 36 24 37 74 38 25 39 79 40 73 41 75 42 26 43 78 44
REMARK SMILES IDX 72 45 71 46 27 48 59 49 39 50 58 51 40 52 43 53 57 54 76 55
REMARK SMILES IDX 41 56 42 57 56 59 77 60 44 61 28 62 29 63 37 64 30 65 32 66
REMARK SMILES IDX 38 67 31 68 33 69 34 70 35 71 36 72 60 73 61 74 69 75 62 76
REMARK SMILES IDX 64 77 70 78 63 79 65 80 66 81 67 82 68 83 45 84 46 85 54 86
REMARK SMILES IDX 47 87 49 88 55 89 48 90 50 91 51 92 52 93 53 94
REMARK H PARENT 11 6 16 28 75 47 43 58
REMARK Flexibility Score: inf
ROOT
ATOM      1  C   UNL A   1      34.131  23.335  26.695  1.00  0.00     0.023 C 
ENDROOT
BRANCH   1   2
ATOM      2  C   UNL A   1      33.450  25.354  26.124  1.00  0.00     0.116 C 
BRANCH   2   3
ATOM      3  N   UNL A   1      32.195  26.173  26.591  1.00  0.00    -0.356 N 
ATOM      4  C   UNL A   1      32.148  27.407  27.165  1.00  0.00     0.223 C 
ATOM      5  O   UNL A   1      31.101  27.797  27.680  1.00  0.00    -0.275 OA
ATOM      6  H   UNL A   1      31.325  25.734  26.452  1.00  0.00     0.163 HD
BRANCH   4   7
ATOM      7  C   UNL A   1      33.399  28.256  27.149  1.00  0.00     0.141 C 
BRANCH   7   8
ATOM      8  C   UNL A   1      33.181  29.727  26.770  1.00  0.00     0.241 C 
BRANCH   8   9
ATOM      9  O   UNL A   1      33.002  30.044  25.377  1.00  0.00    -0.477 OA
BRANCH   9  10
ATOM     10  C   UNL A   1      32.008  29.327  24.750  1.00  0.00     0.217 A 
ATOM     11  C   UNL A   1      29.533  29.564  23.069  1.00  0.00     0.048 A 
ATOM     12  C   UNL A   1      30.478  30.093  24.471  1.00  0.00     0.092 A 
ATOM     13  N   UNL A   1      30.208  28.296  22.000  1.00  0.00    -0.231 NA
ATOM     14  C   UNL A   1      31.758  27.468  22.434  1.00  0.00     0.183 A 
ATOM     15  N   UNL A   1      32.645  28.036  23.794  1.00  0.00    -0.192 NA
BRANCH  11  16
ATOM     16  C   UNL A   1      28.061  29.926  23.127  1.00  0.00     0.053 C 
ATOM     17  C   UNL A   1      27.731  31.251  22.448  1.00  0.00     0.011 C 
ENDBRANCH  11  16
BRANCH  14  18
ATOM     18  C   UNL A   1      31.945  25.968  22.277  1.00  0.00     0.126 A 
ATOM     19  C   UNL A   1      32.801  25.472  21.279  1.00  0.00     0.143 A 
ATOM     20  N   UNL A   1      31.421  25.096  23.163  1.00  0.00    -0.250 NA
ATOM     21  N   UNL A   1      33.279  24.199  21.223  1.00  0.00    -0.261 NA
ATOM     22  C   UNL A   1      31.908  23.823  23.128  1.00  0.00     0.132 A 
ATOM     23  C   UNL A   1      32.845  23.392  22.206  1.00  0.00     0.131 A 
ENDBRANCH  14  18
ENDBRANCH   9  10
ENDBRANCH   8   9
ENDBRANCH   7   8
ENDBRANCH   4   7
ENDBRANCH   2   3
ENDBRANCH   1   2
BRANCH   1  24
ATOM     24  C   UNL A   1      35.468  22.318  25.906  1.00  0.00     0.023 C 
BRANCH  24  25
ATOM     25  C   UNL A   1      37.003  22.676  25.560  1.00  0.00     0.116 C 
BRANCH  25  26
ATOM     26  N   UNL A   1      38.049  21.681  25.888  1.00  0.00    -0.352 N 
ATOM     27  C   UNL A   1      39.286  21.749  26.453  1.00  0.00     0.251 C 
ATOM     28  H   UNL A   1      37.791  20.764  25.641  1.00  0.00     0.163 HD
ATOM     29  O   UNL A   1      40.041  20.802  26.630  1.00  0.00    -0.269 OA
BRANCH  27  30
ATOM     30  C   UNL A   1      39.627  23.053  26.958  1.00  0.00     0.039 A 
ATOM     31  C   UNL A   1      40.547  23.192  27.996  1.00  0.00     0.014 A 
ATOM     32  C   UNL A   1      39.189  24.095  26.146  1.00  0.00     0.014 A 
ATOM     33  C   UNL A   1      41.094  24.441  28.200  1.00  0.00     0.010 A 
ATOM     34  C   UNL A   1      39.792  25.312  26.302  1.00  0.00     0.010 A 
ATOM     35  C   UNL A   1      40.726  25.482  27.339  1.00  0.00    -0.014 A 
BRANCH  35  36
ATOM     36  C   UNL A   1      41.171  26.851  27.569  1.00  0.00     0.031 A 
ATOM     37  C   UNL A   1      42.593  27.142  27.224  1.00  0.00     0.074 A 
ATOM     38  C   UNL A   1      40.362  27.704  28.215  1.00  0.00     0.049 A 
ATOM     39  N   UNL A   1      43.330  28.155  27.569  1.00  0.00    -0.248 NA
ATOM     40  C   UNL A   1      43.303  26.109  26.440  1.00  0.00     0.031 C 
ATOM     41  C   UNL A   1      38.975  27.434  28.606  1.00  0.00     0.029 A 
ATOM     42  N   UNL A   1      40.614  28.953  28.700  1.00  0.00    -0.354 N 
ATOM     43  C   UNL A   1      44.600  27.854  27.103  1.00  0.00     0.074 A 
ATOM     44  C   UNL A   1      44.547  26.550  26.485  1.00  0.00     0.031 C 
ATOM     45  C   UNL A   1      38.503  28.491  29.288  1.00  0.00     0.029 A 
ATOM     46  C   UNL A   1      39.569  29.477  29.420  1.00  0.00     0.049 A 
ATOM     47  H   UNL A   1      41.461  29.432  28.548  1.00  0.00     0.167 HD
ATOM     48  C   UNL A   1      45.708  28.620  27.176  1.00  0.00     0.034 A 
ATOM     49  C   UNL A   1      39.517  30.618  30.128  1.00  0.00     0.034 A 
ATOM     50  C   UNL A   1      45.699  29.921  27.776  1.00  0.00     0.049 A 
ATOM     51  C   UNL A   1      40.756  31.473  30.157  1.00  0.00     0.074 A 
ATOM     52  C   UNL A   1      46.723  30.840  27.861  1.00  0.00     0.029 A 
ATOM     53  N   UNL A   1      44.591  30.481  28.402  1.00  0.00    -0.354 N 
ATOM     54  N   UNL A   1      41.931  31.241  29.618  1.00  0.00    -0.248 NA
ATOM     55  C   UNL A   1      40.659  32.755  30.862  1.00  0.00     0.031 C 
ATOM     56  C   UNL A   1      46.242  31.947  28.568  1.00  0.00     0.029 A 
ATOM     57  C   UNL A   1      44.906  31.735  28.883  1.00  0.00     0.049 A 
ATOM     58  H   UNL A   1      43.713  30.047  28.489  1.00  0.00     0.167 HD
ATOM     59  C   UNL A   1      42.704  32.364  29.885  1.00  0.00     0.074 A 
ATOM     60  C   UNL A   1      41.852  33.281  30.619  1.00  0.00     0.031 C 
ATOM     61  C   UNL A   1      43.999  32.621  29.568  1.00  0.00     0.034 A 
BRANCH  48  62
ATOM     62  C   UNL A   1      46.973  28.065  26.586  1.00  0.00     0.023 A 
ATOM     63  C   UNL A   1      47.983  27.555  27.430  1.00  0.00     0.012 A 
ATOM     64  C   UNL A   1      47.170  28.059  25.193  1.00  0.00     0.148 A 
ATOM     65  C   UNL A   1      49.185  27.091  26.899  1.00  0.00     0.002 A 
ATOM     66  C   UNL A   1      48.348  27.541  24.668  1.00  0.00     0.091 A 
ATOM     67  F   UNL A   1      46.214  28.579  24.410  1.00  0.00    -0.205 F 
ATOM     68  C   UNL A   1      49.363  27.073  25.519  1.00  0.00     0.022 A 
BRANCH  66  69
ATOM     69  S   UNL A   1      48.641  27.400  22.903  1.00  0.00     0.127 S 
ATOM     70  O   UNL A   1      48.488  25.961  22.692  1.00  0.00    -0.237 OA
ATOM     71  O   UNL A   1      47.560  28.217  22.352  1.00  0.00    -0.237 OA
ATOM     72  O   UNL A   1      49.981  27.921  22.673  1.00  0.00    -0.744 OA
ENDBRANCH  66  69
ENDBRANCH  48  62
BRANCH  49  73
ATOM     73  C   UNL A   1      38.259  31.026  30.811  1.00  0.00     0.023 A 
ATOM     74  C   UNL A   1      38.095  30.742  32.181  1.00  0.00     0.012 A 
ATOM     75  C   UNL A   1      37.241  31.721  30.129  1.00  0.00     0.148 A 
ATOM     76  C   UNL A   1      36.926  31.105  32.849  1.00  0.00     0.002 A 
ATOM     77  C   UNL A   1      36.101  32.127  30.813  1.00  0.00     0.091 A 
ATOM     78  F   UNL A   1      37.415  31.983  28.826  1.00  0.00    -0.205 F 
ATOM     79  C   UNL A   1      35.933  31.804  32.168  1.00  0.00     0.022 A 
BRANCH  77  80
ATOM     80  S   UNL A   1      34.826  33.138  30.051  1.00  0.00     0.127 S 
ATOM     81  O   UNL A   1      34.032  33.540  31.210  1.00  0.00    -0.237 OA
ATOM     82  O   UNL A   1      35.615  34.210  29.442  1.00  0.00    -0.237 OA
ATOM     83  O   UNL A   1      34.153  32.271  29.094  1.00  0.00    -0.744 OA
ENDBRANCH  77  80
ENDBRANCH  49  73
BRANCH  61  84
ATOM     84  C   UNL A   1      44.547  33.961  29.970  1.00  0.00     0.023 A 
ATOM     85  C   UNL A   1      45.240  34.103  31.186  1.00  0.00     0.012 A 
ATOM     86  C   UNL A   1      44.449  35.054  29.089  1.00  0.00     0.148 A 
ATOM     87  C   UNL A   1      45.801  35.330  31.537  1.00  0.00     0.002 A 
ATOM     88  C   UNL A   1      45.061  36.254  29.415  1.00  0.00     0.091 A 
ATOM     89  F   UNL A   1      43.770  34.893  27.943  1.00  0.00    -0.205 F 
ATOM     90  C   UNL A   1      45.724  36.399  30.646  1.00  0.00     0.022 A 
BRANCH  88  91
ATOM     91  S   UNL A   1      45.111  37.644  28.281  1.00  0.00     0.127 S 
ATOM     92  O   UNL A   1      46.334  38.326  28.704  1.00  0.00    -0.237 OA
ATOM     93  O   UNL A   1      45.201  36.977  26.982  1.00  0.00    -0.237 OA
ATOM     94  O   UNL A   1      43.877  38.386  28.497  1.00  0.00    -0.744 OA
ENDBRANCH  88  91
ENDBRANCH  61  84
ENDBRANCH  35  36
ENDBRANCH  27  30
ENDBRANCH  25  26
ENDBRANCH  24  25
ENDBRANCH   1  24
TORSDOF 19
ENDMDL
MODEL 2
REMARK VINA RESULT:     -12.8      5.866      8.902
REMARK SMILES CCc1cc(OCCC(=O)NCCCCNC(=O)c2ccc(-c3c4nc(c(-c5cccc(S(=O)(=O)[O-])c5F)c5ccc([nH]5)c(-c5cccc(S(=O)(=O)[O-])c5F)c5nc(c(-c6cccc(S(=O)(=O)[O-])c6F)c6ccc3[nH]6)C=C5)C=C4)cc2)nc(-c2cnccn2)n1
REMARK SMILES IDX 13 1 12 2 11 3 9 4 10 5 8 7 7 8 6 9 5 10 3 11 4 12 90 13
REMARK SMILES IDX 83 14 82 15 2 16 1 17 84 18 85 19 89 20 86 21 88 22 87 23
REMARK SMILES IDX 14 24 15 25 16 26 17 27 18 29 19 30 20 31 81 32 21 33 80 34
REMARK SMILES IDX 22 35 23 36 24 37 74 38 25 39 79 40 73 41 75 42 26 43 78 44
REMARK SMILES IDX 72 45 71 46 27 48 59 49 39 50 58 51 40 52 43 53 57 54 76 55
REMARK SMILES IDX 41 56 42 57 56 59 77 60 44 61 28 62 29 63 37 64 30 65 32 66
REMARK SMILES IDX 38 67 31 68 33 69 34 70 35 71 36 72 60 73 61 74 69 75 62 76
REMARK SMILES IDX 64 77 70 78 63 79 65 80 66 81 67 82 68 83 45 84 46 85 54 86
REMARK SMILES IDX 47 87 49 88 55 89 48 90 50 91 51 92 52 93 53 94
REMARK H PARENT 11 6 16 28 75 47 43 58
REMARK Flexibility Score: inf
ROOT
ATOM      1  C   UNL A   1      33.243  29.613  26.253  1.00  0.00     0.023 C 
ENDROOT
BRANCH   1   2
ATOM      2  C   UNL A   1      31.403  28.727  25.417  1.00  0.00     0.116 C 
BRANCH   2   3
ATOM      3  N   UNL A   1      30.876  28.687  23.940  1.00  0.00    -0.356 N 
ATOM      4  C   UNL A   1      30.450  27.614  23.216  1.00  0.00     0.223 C 
ATOM      5  O   UNL A   1      30.292  27.727  22.001  1.00  0.00    -0.275 OA
ATOM      6  H   UNL A   1      30.849  29.553  23.473  1.00  0.00     0.163 HD
BRANCH   4   7
ATOM      7  C   UNL A   1      30.190  26.314  23.942  1.00  0.00     0.141 C 
BRANCH   7   8
ATOM      8  C   UNL A   1      31.348  25.307  23.907  1.00  0.00     0.241 C 
BRANCH   8   9
ATOM      9  O   UNL A   1      31.495  24.412  25.026  1.00  0.00    -0.477 OA
BRANCH   9  10
ATOM     10  C   UNL A   1      32.627  23.628  24.985  1.00  0.00     0.217 A 
ATOM     11  C   UNL A   1      35.411  23.324  26.063  1.00  0.00     0.048 A 
ATOM     12  C   UNL A   1      34.157  24.355  25.354  1.00  0.00     0.092 A 
ATOM     13  N   UNL A   1      35.034  21.604  26.388  1.00  0.00    -0.231 NA
ATOM     14  C   UNL A   1      33.452  20.902  25.861  1.00  0.00     0.183 A 
ATOM     15  N   UNL A   1      32.262  21.953  25.197  1.00  0.00    -0.192 NA
BRANCH  11  16
ATOM     16  C   UNL A   1      36.820  23.875  25.949  1.00  0.00     0.053 C 
ATOM     17  C   UNL A   1      37.885  22.796  25.782  1.00  0.00     0.011 C 
ENDBRANCH  11  16
BRANCH  14  18
ATOM     18  C   UNL A   1      33.349  19.526  25.221  1.00  0.00     0.126 A 
ATOM     19  C   UNL A   1      34.468  18.969  24.581  1.00  0.00     0.143 A 
ATOM     20  N   UNL A   1      32.249  18.761  25.372  1.00  0.00    -0.250 NA
ATOM     21  N   UNL A   1      34.598  17.658  24.238  1.00  0.00    -0.261 NA
ATOM     22  C   UNL A   1      32.375  17.441  25.051  1.00  0.00     0.132 A 
ATOM     23  C   UNL A   1      33.535  16.893  24.532  1.00  0.00     0.131 A 
ENDBRANCH  14  18
ENDBRANCH   9  10
ENDBRANCH   8   9
ENDBRANCH   7   8
ENDBRANCH   4   7
ENDBRANCH   2   3
ENDBRANCH   1   2
BRANCH   1  24
ATOM     24  C   UNL A   1      33.385  30.979  27.501  1.00  0.00     0.023 C 
BRANCH  24  25
ATOM     25  C   UNL A   1      34.055  32.442  27.393  1.00  0.00     0.116 C 
BRANCH  25  26
ATOM     26  N   UNL A   1      33.307  33.601  27.932  1.00  0.00    -0.352 N 
ATOM     27  C   UNL A   1      33.361  34.316  29.089  1.00  0.00     0.251 C 
ATOM     28  H   UNL A   1      32.616  33.928  27.312  1.00  0.00     0.163 HD
ATOM     29  O   UNL A   1      32.630  35.254  29.381  1.00  0.00    -0.269 OA
BRANCH  27  30
ATOM     30  C   UNL A   1      34.458  33.956  29.948  1.00  0.00     0.039 A 
ATOM     31  C   UNL A   1      34.296  32.984  30.934  1.00  0.00     0.014 A 
ATOM     32  C   UNL A   1      35.688  34.443  29.513  1.00  0.00     0.014 A 
ATOM     33  C   UNL A   1      35.436  32.435  31.481  1.00  0.00     0.010 A 
ATOM     34  C   UNL A   1      36.813  33.839  30.001  1.00  0.00     0.010 A 
ATOM     35  C   UNL A   1      36.681  32.853  30.995  1.00  0.00    -0.014 A 
BRANCH  35  36
ATOM     36  C   UNL A   1      37.926  32.404  31.608  1.00  0.00     0.031 A 
ATOM     37  C   UNL A   1      38.635  31.294  30.908  1.00  0.00     0.074 A 
ATOM     38  C   UNL A   1      38.268  32.875  32.817  1.00  0.00     0.049 A 
ATOM     39  N   UNL A   1      39.581  30.520  31.348  1.00  0.00    -0.248 NA
ATOM     40  C   UNL A   1      38.160  30.967  29.547  1.00  0.00     0.031 C 
ATOM     41  C   UNL A   1      37.567  33.934  33.550  1.00  0.00     0.029 A 
ATOM     42  N   UNL A   1      39.265  32.481  33.659  1.00  0.00    -0.354 N 
ATOM     43  C   UNL A   1      39.770  29.577  30.349  1.00  0.00     0.074 A 
ATOM     44  C   UNL A   1      38.818  29.849  29.298  1.00  0.00     0.031 C 
ATOM     45  C   UNL A   1      38.156  34.094  34.747  1.00  0.00     0.029 A 
ATOM     46  C   UNL A   1      39.231  33.119  34.875  1.00  0.00     0.049 A 
ATOM     47  H   UNL A   1      39.942  31.808  33.419  1.00  0.00     0.167 HD
ATOM     48  C   UNL A   1      40.680  28.582  30.317  1.00  0.00     0.034 A 
ATOM     49  C   UNL A   1      39.979  32.895  35.968  1.00  0.00     0.034 A 
ATOM     50  C   UNL A   1      41.622  28.373  31.376  1.00  0.00     0.049 A 
ATOM     51  C   UNL A   1      41.015  31.805  35.889  1.00  0.00     0.074 A 
ATOM     52  C   UNL A   1      42.645  27.453  31.453  1.00  0.00     0.029 A 
ATOM     53  N   UNL A   1      41.642  29.109  32.555  1.00  0.00    -0.354 N 
ATOM     54  N   UNL A   1      41.273  30.982  34.898  1.00  0.00    -0.248 NA
ATOM     55  C   UNL A   1      41.881  31.627  37.059  1.00  0.00     0.031 C 
ATOM     56  C   UNL A   1      43.267  27.613  32.696  1.00  0.00     0.029 A 
ATOM     57  C   UNL A   1      42.659  28.662  33.373  1.00  0.00     0.049 A 
ATOM     58  H   UNL A   1      41.023  29.841  32.774  1.00  0.00     0.167 HD
ATOM     59  C   UNL A   1      42.355  30.214  35.308  1.00  0.00     0.074 A 
ATOM     60  C   UNL A   1      42.712  30.687  36.633  1.00  0.00     0.031 C 
ATOM     61  C   UNL A   1      42.995  29.204  34.665  1.00  0.00     0.034 A 
BRANCH  48  62
ATOM     62  C   UNL A   1      40.686  27.689  29.109  1.00  0.00     0.023 A 
ATOM     63  C   UNL A   1      39.793  26.598  29.030  1.00  0.00     0.012 A 
ATOM     64  C   UNL A   1      41.586  27.920  28.053  1.00  0.00     0.148 A 
ATOM     65  C   UNL A   1      39.827  25.728  27.942  1.00  0.00     0.002 A 
ATOM     66  C   UNL A   1      41.575  27.082  26.946  1.00  0.00     0.091 A 
ATOM     67  F   UNL A   1      42.450  28.939  28.162  1.00  0.00    -0.205 F 
ATOM     68  C   UNL A   1      40.710  25.976  26.896  1.00  0.00     0.022 A 
BRANCH  66  69
ATOM     69  S   UNL A   1      42.617  27.361  25.510  1.00  0.00     0.127 S 
ATOM     70  O   UNL A   1      42.076  28.617  24.992  1.00  0.00    -0.237 OA
ATOM     71  O   UNL A   1      43.943  27.470  26.117  1.00  0.00    -0.237 OA
ATOM     72  O   UNL A   1      42.432  26.204  24.645  1.00  0.00    -0.744 OA
ENDBRANCH  66  69
ENDBRANCH  48  62
BRANCH  49  73
ATOM     73  C   UNL A   1      39.808  33.735  37.185  1.00  0.00     0.023 A 
ATOM     74  C   UNL A   1      38.764  33.440  38.084  1.00  0.00     0.012 A 
ATOM     75  C   UNL A   1      40.685  34.797  37.479  1.00  0.00     0.148 A 
ATOM     76  C   UNL A   1      38.572  34.211  39.230  1.00  0.00     0.002 A 
ATOM     77  C   UNL A   1      40.521  35.529  38.649  1.00  0.00     0.091 A 
ATOM     78  F   UNL A   1      41.673  35.062  36.612  1.00  0.00    -0.205 F 
ATOM     79  C   UNL A   1      39.454  35.250  39.517  1.00  0.00     0.022 A 
BRANCH  77  80
ATOM     80  S   UNL A   1      41.680  36.801  39.164  1.00  0.00     0.127 S 
ATOM     81  O   UNL A   1      42.251  37.221  37.887  1.00  0.00    -0.237 OA
ATOM     82  O   UNL A   1      40.792  37.780  39.794  1.00  0.00    -0.237 OA
ATOM     83  O   UNL A   1      42.601  36.147  40.084  1.00  0.00    -0.744 OA
ENDBRANCH  77  80
ENDBRANCH  49  73
BRANCH  61  84
ATOM     84  C   UNL A   1      44.171  28.586  35.366  1.00  0.00     0.023 A 
ATOM     85  C   UNL A   1      45.468  29.081  35.138  1.00  0.00     0.012 A 
ATOM     86  C   UNL A   1      43.967  27.571  36.319  1.00  0.00     0.148 A 
ATOM     87  C   UNL A   1      46.555  28.549  35.828  1.00  0.00     0.002 A 
ATOM     88  C   UNL A   1      45.044  27.088  37.047  1.00  0.00     0.091 A 
ATOM     89  F   UNL A   1      42.721  27.108  36.505  1.00  0.00    -0.205 F 
ATOM     90  C   UNL A   1      46.341  27.564  36.792  1.00  0.00     0.022 A 
BRANCH  88  91
ATOM     91  S   UNL A   1      44.846  25.907  38.383  1.00  0.00     0.127 S 
ATOM     92  O   UNL A   1      44.157  24.809  37.707  1.00  0.00    -0.237 OA
ATOM     93  O   UNL A   1      46.234  25.624  38.751  1.00  0.00    -0.237 OA
ATOM     94  O   UNL A   1      44.074  26.587  39.413  1.00  0.00    -0.744 OA
ENDBRANCH  88  91
ENDBRANCH  61  84
ENDBRANCH  35  36
ENDBRANCH  27  30
ENDBRANCH  25  26
ENDBRANCH  24  25
ENDBRANCH   1  24
TORSDOF 19
ENDMDL
MODEL 3
REMARK VINA RESULT:     -12.7      6.399     11.141
REMARK SMILES CCc1cc(OCCC(=O)NCCCCNC(=O)c2ccc(-c3c4nc(c(-c5cccc(S(=O)(=O)[O-])c5F)c5ccc([nH]5)c(-c5cccc(S(=O)(=O)[O-])c5F)c5nc(c(-c6cccc(S(=O)(=O)[O-])c6F)c6ccc3[nH]6)C=C5)C=C4)cc2)nc(-c2cnccn2)n1
REMARK SMILES IDX 13 1 12 2 11 3 9 4 10 5 8 7 7 8 6 9 5 10 3 11 4 12 90 13
REMARK SMILES IDX 83 14 82 15 2 16 1 17 84 18 85 19 89 20 86 21 88 22 87 23
REMARK SMILES IDX 14 24 15 25 16 26 17 27 18 29 19 30 20 31 81 32 21 33 80 34
REMARK SMILES IDX 22 35 23 36 24 37 74 38 25 39 79 40 73 41 75 42 26 43 78 44
REMARK SMILES IDX 72 45 71 46 27 48 59 49 39 50 58 51 40 52 43 53 57 54 76 55
REMARK SMILES IDX 41 56 42 57 56 59 77 60 44 61 28 62 29 63 37 64 30 65 32 66
REMARK SMILES IDX 38 67 31 68 33 69 34 70 35 71 36 72 60 73 61 74 69 75 62 76
REMARK SMILES IDX 64 77 70 78 63 79 65 80 66 81 67 82 68 83 45 84 46 85 54 86
REMARK SMILES IDX 47 87 49 88 55 89 48 90 50 91 51 92 52 93 53 94
REMARK H PARENT 11 6 16 28 75 47 43 58
REMARK Flexibility Score: inf
ROOT
ATOM      1  C   UNL A   1      34.779  34.332  27.701  1.00  0.00     0.023 C 
ENDROOT
BRANCH   1   2
ATOM      2  C   UNL A   1      36.381  32.860  28.067  1.00  0.00     0.116 C 
BRANCH   2   3
ATOM      3  N   UNL A   1      36.357  31.293  27.993  1.00  0.00    -0.356 N 
ATOM      4  C   UNL A   1      35.285  30.461  27.876  1.00  0.00     0.223 C 
ATOM      5  O   UNL A   1      35.429  29.255  28.068  1.00  0.00    -0.275 OA
ATOM      6  H   UNL A   1      37.235  30.851  28.039  1.00  0.00     0.163 HD
BRANCH   4   7
ATOM      7  C   UNL A   1      33.945  31.061  27.514  1.00  0.00     0.141 C 
BRANCH   7   8
ATOM      8  C   UNL A   1      32.949  30.087  26.871  1.00  0.00     0.241 C 
BRANCH   8   9
ATOM      9  O   UNL A   1      33.308  29.492  25.609  1.00  0.00    -0.477 OA
BRANCH   9  10
ATOM     10  C   UNL A   1      32.262  28.895  24.940  1.00  0.00     0.217 A 
ATOM     11  C   UNL A   1      29.991  29.395  23.043  1.00  0.00     0.048 A 
ATOM     12  C   UNL A   1      30.899  29.867  24.489  1.00  0.00     0.092 A 
ATOM     13  N   UNL A   1      30.535  27.967  22.109  1.00  0.00    -0.231 NA
ATOM     14  C   UNL A   1      31.895  26.942  22.721  1.00  0.00     0.183 A 
ATOM     15  N   UNL A   1      32.756  27.458  24.118  1.00  0.00    -0.192 NA
BRANCH  11  16
ATOM     16  C   UNL A   1      28.596  29.983  22.954  1.00  0.00     0.053 C 
ATOM     17  C   UNL A   1      27.486  28.955  23.143  1.00  0.00     0.011 C 
ENDBRANCH  11  16
BRANCH  14  18
ATOM     18  C   UNL A   1      31.852  25.423  22.665  1.00  0.00     0.126 A 
ATOM     19  C   UNL A   1      32.826  24.723  21.933  1.00  0.00     0.143 A 
ATOM     20  N   UNL A   1      30.984  24.715  23.417  1.00  0.00    -0.250 NA
ATOM     21  N   UNL A   1      33.074  23.389  22.042  1.00  0.00    -0.261 NA
ATOM     22  C   UNL A   1      31.236  23.381  23.549  1.00  0.00     0.132 A 
ATOM     23  C   UNL A   1      32.281  22.739  22.908  1.00  0.00     0.131 A 
ENDBRANCH  14  18
ENDBRANCH   9  10
ENDBRANCH   8   9
ENDBRANCH   7   8
ENDBRANCH   4   7
ENDBRANCH   2   3
ENDBRANCH   1   2
BRANCH   1  24
ATOM     24  C   UNL A   1      33.492  34.935  28.894  1.00  0.00     0.023 C 
BRANCH  24  25
ATOM     25  C   UNL A   1      33.387  36.314  29.726  1.00  0.00     0.116 C 
BRANCH  25  26
ATOM     26  N   UNL A   1      32.554  36.336  30.950  1.00  0.00    -0.352 N 
ATOM     27  C   UNL A   1      32.615  35.708  32.157  1.00  0.00     0.251 C 
ATOM     28  H   UNL A   1      31.783  36.942  30.874  1.00  0.00     0.163 HD
ATOM     29  O   UNL A   1      31.805  35.832  33.066  1.00  0.00    -0.269 OA
BRANCH  27  30
ATOM     30  C   UNL A   1      33.810  34.930  32.351  1.00  0.00     0.039 A 
ATOM     31  C   UNL A   1      35.058  35.550  32.399  1.00  0.00     0.014 A 
ATOM     32  C   UNL A   1      33.563  33.621  32.755  1.00  0.00     0.014 A 
ATOM     33  C   UNL A   1      36.109  34.829  32.926  1.00  0.00     0.010 A 
ATOM     34  C   UNL A   1      34.588  32.940  33.348  1.00  0.00     0.010 A 
ATOM     35  C   UNL A   1      35.858  33.540  33.414  1.00  0.00    -0.014 A 
BRANCH  35  36
ATOM     36  C   UNL A   1      36.941  32.679  33.874  1.00  0.00     0.031 A 
ATOM     37  C   UNL A   1      37.623  33.103  35.131  1.00  0.00     0.074 A 
ATOM     38  C   UNL A   1      37.367  31.683  33.083  1.00  0.00     0.049 A 
ATOM     39  N   UNL A   1      38.763  32.711  35.617  1.00  0.00    -0.248 NA
ATOM     40  C   UNL A   1      36.960  34.169  35.910  1.00  0.00     0.031 C 
ATOM     41  C   UNL A   1      36.745  31.269  31.821  1.00  0.00     0.029 A 
ATOM     42  N   UNL A   1      38.457  30.873  33.205  1.00  0.00    -0.354 N 
ATOM     43  C   UNL A   1      38.984  33.524  36.718  1.00  0.00     0.074 A 
ATOM     44  C   UNL A   1      37.885  34.455  36.808  1.00  0.00     0.031 C 
ATOM     45  C   UNL A   1      37.480  30.284  31.278  1.00  0.00     0.029 A 
ATOM     46  C   UNL A   1      38.640  30.043  32.127  1.00  0.00     0.049 A 
ATOM     47  H   UNL A   1      39.053  30.882  33.989  1.00  0.00     0.167 HD
ATOM     48  C   UNL A   1      40.017  33.475  37.584  1.00  0.00     0.034 A 
ATOM     49  C   UNL A   1      39.662  29.211  31.863  1.00  0.00     0.034 A 
ATOM     50  C   UNL A   1      41.069  32.510  37.464  1.00  0.00     0.049 A 
ATOM     51  C   UNL A   1      40.781  29.146  32.869  1.00  0.00     0.074 A 
ATOM     52  C   UNL A   1      42.142  32.293  38.302  1.00  0.00     0.029 A 
ATOM     53  N   UNL A   1      41.174  31.599  36.420  1.00  0.00    -0.354 N 
ATOM     54  N   UNL A   1      40.936  29.837  33.975  1.00  0.00    -0.248 NA
ATOM     55  C   UNL A   1      41.847  28.174  32.612  1.00  0.00     0.031 C 
ATOM     56  C   UNL A   1      42.914  31.267  37.747  1.00  0.00     0.029 A 
ATOM     57  C   UNL A   1      42.297  30.816  36.588  1.00  0.00     0.049 A 
ATOM     58  H   UNL A   1      40.539  31.522  35.672  1.00  0.00     0.167 HD
ATOM     59  C   UNL A   1      42.097  29.358  34.567  1.00  0.00     0.074 A 
ATOM     60  C   UNL A   1      42.592  28.303  33.701  1.00  0.00     0.031 C 
ATOM     61  C   UNL A   1      42.713  29.749  35.712  1.00  0.00     0.034 A 
BRANCH  48  62
ATOM     62  C   UNL A   1      40.025  34.471  38.708  1.00  0.00     0.023 A 
ATOM     63  C   UNL A   1      40.737  35.683  38.576  1.00  0.00     0.012 A 
ATOM     64  C   UNL A   1      39.337  34.203  39.906  1.00  0.00     0.148 A 
ATOM     65  C   UNL A   1      40.801  36.589  39.632  1.00  0.00     0.002 A 
ATOM     66  C   UNL A   1      39.358  35.138  40.933  1.00  0.00     0.091 A 
ATOM     67  F   UNL A   1      38.696  33.032  40.026  1.00  0.00    -0.205 F 
ATOM     68  C   UNL A   1      40.103  36.322  40.806  1.00  0.00     0.022 A 
BRANCH  66  69
ATOM     69  S   UNL A   1      38.427  34.926  42.454  1.00  0.00     0.127 S 
ATOM     70  O   UNL A   1      38.776  36.142  43.187  1.00  0.00    -0.237 OA
ATOM     71  O   UNL A   1      37.051  34.883  41.960  1.00  0.00    -0.237 OA
ATOM     72  O   UNL A   1      38.902  33.686  43.050  1.00  0.00    -0.744 OA
ENDBRANCH  66  69
ENDBRANCH  48  62
BRANCH  49  73
ATOM     73  C   UNL A   1      39.647  28.359  30.643  1.00  0.00     0.023 A 
ATOM     74  C   UNL A   1      38.897  27.166  30.644  1.00  0.00     0.012 A 
ATOM     75  C   UNL A   1      40.335  28.734  29.472  1.00  0.00     0.148 A 
ATOM     76  C   UNL A   1      38.867  26.342  29.520  1.00  0.00     0.002 A 
ATOM     77  C   UNL A   1      40.258  27.936  28.337  1.00  0.00     0.091 A 
ATOM     78  F   UNL A   1      41.042  29.873  29.489  1.00  0.00    -0.205 F 
ATOM     79  C   UNL A   1      39.539  26.730  28.364  1.00  0.00     0.022 A 
BRANCH  77  80
ATOM     80  S   UNL A   1      40.987  28.415  26.767  1.00  0.00     0.127 S 
ATOM     81  O   UNL A   1      41.078  27.131  26.075  1.00  0.00    -0.237 OA
ATOM     82  O   UNL A   1      39.980  29.333  26.234  1.00  0.00    -0.237 OA
ATOM     83  O   UNL A   1      42.258  29.045  27.098  1.00  0.00    -0.744 OA
ENDBRANCH  77  80
ENDBRANCH  49  73
BRANCH  61  84
ATOM     84  C   UNL A   1      43.953  29.001  36.111  1.00  0.00     0.023 A 
ATOM     85  C   UNL A   1      45.222  29.501  35.765  1.00  0.00     0.012 A 
ATOM     86  C   UNL A   1      43.850  27.847  36.911  1.00  0.00     0.148 A 
ATOM     87  C   UNL A   1      46.376  28.841  36.183  1.00  0.00     0.002 A 
ATOM     88  C   UNL A   1      45.002  27.230  37.374  1.00  0.00     0.091 A 
ATOM     89  F   UNL A   1      42.628  27.384  37.213  1.00  0.00    -0.205 F 
ATOM     90  C   UNL A   1      46.266  27.716  36.998  1.00  0.00     0.022 A 
BRANCH  88  91
ATOM     91  S   UNL A   1      44.956  25.849  38.519  1.00  0.00     0.127 S 
ATOM     92  O   UNL A   1      46.375  25.666  38.820  1.00  0.00    -0.237 OA
ATOM     93  O   UNL A   1      44.162  26.391  39.622  1.00  0.00    -0.237 OA
ATOM     94  O   UNL A   1      44.325  24.750  37.802  1.00  0.00    -0.744 OA
ENDBRANCH  88  91
ENDBRANCH  61  84
ENDBRANCH  35  36
ENDBRANCH  27  30
ENDBRANCH  25  26
ENDBRANCH  24  25
ENDBRANCH   1  24
TORSDOF 19
ENDMDL
