MODEL 1
REMARK VINA RESULT:     -13.3      0.000      0.000
REMARK SMILES Cc1ccc(C)c([C@H]2[NH2+][C@@H](C(=O)NCCCCNC(=O)c3ccc(-c4c5nc(c(-c6cccc(S(=O)(=O)[O-])c6F)c6ccc([nH]6)c(-c6cccc(S(=O)(=O)[O-])c6F)c6nc(c(-c7cccc(S(=O)(=O)[O-])c7F)c7ccc4[nH]7)C=C6)C=C5)cc3)Cc3c2[nH]c2ccccc32)c1
REMARK SMILES IDX 16 1 15 2 14 3 13 4 11 5 12 6 10 8 8 9 9 10 86 11 85 14
REMARK SMILES IDX 87 15 84 16 93 17 88 18 92 20 89 21 91 22 90 23 7 24 1 25
REMARK SMILES IDX 2 26 3 27 94 28 4 29 5 30 6 31 17 32 18 33 19 34 20 36 21 37
REMARK SMILES IDX 22 38 83 39 23 40 82 41 24 42 25 43 26 44 76 45 27 46 81 47
REMARK SMILES IDX 75 48 77 49 28 50 80 51 74 52 73 53 29 55 61 56 41 57 60 58
REMARK SMILES IDX 42 59 45 60 59 61 78 62 43 63 44 64 58 66 79 67 46 68 30 69
REMARK SMILES IDX 31 70 39 71 32 72 34 73 40 74 33 75 35 76 36 77 37 78 38 79
REMARK SMILES IDX 62 80 63 81 71 82 64 83 66 84 72 85 65 86 67 87 68 88 69 89
REMARK SMILES IDX 70 90 47 91 48 92 56 93 49 94 51 95 57 96 50 97 52 98 53 99
REMARK SMILES IDX 54 100 55 101
REMARK H PARENT 13 7 9 12 9 13 87 19 18 35 77 54 45 65
REMARK Flexibility Score: inf
ROOT
ATOM      1  C   UNL A   1      35.858  21.585  25.668  1.00  0.00     0.023 C 
ENDROOT
BRANCH   1   2
ATOM      2  C   UNL A   1      34.743  22.087  26.607  1.00  0.00     0.023 C 
BRANCH   2   3
ATOM      3  C   UNL A   1      33.425  22.459  25.905  1.00  0.00     0.116 C 
BRANCH   3   4
ATOM      4  N   UNL A   1      33.627  22.932  24.561  1.00  0.00    -0.351 N 
ATOM      5  C   UNL A   1      33.389  24.106  23.934  1.00  0.00     0.278 C 
ATOM      6  O   UNL A   1      33.542  24.088  22.704  1.00  0.00    -0.268 OA
ATOM      7  H   UNL A   1      34.026  22.254  23.970  1.00  0.00     0.163 HD
BRANCH   5   8
ATOM      8  C   UNL A   1      32.973  25.421  24.613  1.00  0.00     0.277 C 
ATOM      9  C   UNL A   1      31.201  27.129  24.553  1.00  0.00     0.262 C 
ATOM     10  N   UNL A   1      31.985  26.138  23.775  1.00  0.00    -0.325 N 
ATOM     11  C   UNL A   1      32.168  27.952  25.393  1.00  0.00     0.083 A 
ATOM     12  H   UNL A   1      32.479  26.624  23.027  1.00  0.00     0.347 HD
ATOM     13  H   UNL A   1      31.332  25.447  23.403  1.00  0.00     0.347 HD
ATOM     14  C   UNL A   1      33.479  27.597  25.655  1.00  0.00    -0.006 A 
ATOM     15  N   UNL A   1      31.924  29.115  26.083  1.00  0.00    -0.353 N 
ATOM     16  C   UNL A   1      34.084  26.389  25.034  1.00  0.00     0.114 C 
ATOM     17  C   UNL A   1      34.071  28.585  26.466  1.00  0.00     0.003 A 
ATOM     18  C   UNL A   1      33.082  29.536  26.724  1.00  0.00     0.046 A 
ATOM     19  H   UNL A   1      31.056  29.580  26.117  1.00  0.00     0.166 HD
ATOM     20  C   UNL A   1      35.368  28.764  26.978  1.00  0.00     0.010 A 
ATOM     21  C   UNL A   1      33.351  30.676  27.496  1.00  0.00     0.026 A 
ATOM     22  C   UNL A   1      35.650  29.898  27.738  1.00  0.00     0.001 A 
ATOM     23  C   UNL A   1      34.654  30.838  27.993  1.00  0.00     0.002 A 
BRANCH   9  24
ATOM     24  C   UNL A   1      30.310  27.885  23.566  1.00  0.00     0.019 A 
ATOM     25  C   UNL A   1      26.588  28.668  23.127  1.00  0.00     0.044 C 
ATOM     26  C   UNL A   1      28.075  28.693  22.941  1.00  0.00    -0.051 A 
ATOM     27  C   UNL A   1      28.657  29.659  22.120  1.00  0.00     0.004 A 
ATOM     28  C   UNL A   1      28.904  27.832  23.676  1.00  0.00     0.014 A 
ATOM     29  C   UNL A   1      30.041  29.717  21.979  1.00  0.00     0.004 A 
ATOM     30  C   UNL A   1      30.879  28.827  22.671  1.00  0.00    -0.042 A 
ATOM     31  C   UNL A   1      32.368  29.006  22.512  1.00  0.00     0.045 C 
ENDBRANCH   9  24
ENDBRANCH   5   8
ENDBRANCH   3   4
ENDBRANCH   2   3
ENDBRANCH   1   2
BRANCH   1  32
ATOM     32  C   UNL A   1      37.188  22.361  25.666  1.00  0.00     0.116 C 
BRANCH  32  33
ATOM     33  N   UNL A   1      38.356  21.580  26.127  1.00  0.00    -0.352 N 
ATOM     34  C   UNL A   1      39.640  21.993  26.466  1.00  0.00     0.251 C 
ATOM     35  H   UNL A   1      38.199  20.611  26.207  1.00  0.00     0.163 HD
ATOM     36  O   UNL A   1      40.579  21.192  26.424  1.00  0.00    -0.269 OA
BRANCH  34  37
ATOM     37  C   UNL A   1      39.874  23.375  26.935  1.00  0.00     0.039 A 
ATOM     38  C   UNL A   1      38.990  24.449  26.811  1.00  0.00     0.014 A 
ATOM     39  C   UNL A   1      41.105  23.590  27.516  1.00  0.00     0.014 A 
ATOM     40  C   UNL A   1      39.381  25.698  27.315  1.00  0.00     0.010 A 
ATOM     41  C   UNL A   1      41.338  24.683  28.290  1.00  0.00     0.010 A 
ATOM     42  C   UNL A   1      40.573  25.798  28.050  1.00  0.00    -0.014 A 
BRANCH  42  43
ATOM     43  C   UNL A   1      41.069  27.020  28.664  1.00  0.00     0.031 A 
ATOM     44  C   UNL A   1      42.341  27.494  28.082  1.00  0.00     0.074 A 
ATOM     45  C   UNL A   1      40.297  27.833  29.424  1.00  0.00     0.049 A 
ATOM     46  N   UNL A   1      43.519  27.412  28.603  1.00  0.00    -0.248 NA
ATOM     47  C   UNL A   1      42.330  27.935  26.680  1.00  0.00     0.031 C 
ATOM     48  C   UNL A   1      38.856  27.719  29.714  1.00  0.00     0.029 A 
ATOM     49  N   UNL A   1      40.607  29.042  29.965  1.00  0.00    -0.354 N 
ATOM     50  C   UNL A   1      44.351  28.060  27.696  1.00  0.00     0.074 A 
ATOM     51  C   UNL A   1      43.637  28.079  26.448  1.00  0.00     0.031 C 
ATOM     52  C   UNL A   1      38.385  28.911  30.144  1.00  0.00     0.029 A 
ATOM     53  C   UNL A   1      39.505  29.813  30.326  1.00  0.00     0.049 A 
ATOM     54  H   UNL A   1      41.535  29.346  30.092  1.00  0.00     0.167 HD
ATOM     55  C   UNL A   1      45.402  28.814  28.124  1.00  0.00     0.034 A 
ATOM     56  C   UNL A   1      39.519  31.121  30.683  1.00  0.00     0.034 A 
ATOM     57  C   UNL A   1      45.663  28.592  29.529  1.00  0.00     0.049 A 
ATOM     58  C   UNL A   1      40.909  31.467  31.058  1.00  0.00     0.074 A 
ATOM     59  C   UNL A   1      45.886  27.480  30.322  1.00  0.00     0.029 A 
ATOM     60  N   UNL A   1      45.299  29.597  30.396  1.00  0.00    -0.354 N 
ATOM     61  N   UNL A   1      41.519  30.971  32.097  1.00  0.00    -0.248 NA
ATOM     62  C   UNL A   1      41.770  32.017  30.025  1.00  0.00     0.031 C 
ATOM     63  C   UNL A   1      45.164  27.740  31.526  1.00  0.00     0.029 A 
ATOM     64  C   UNL A   1      44.616  29.021  31.433  1.00  0.00     0.049 A 
ATOM     65  H   UNL A   1      45.495  30.556  30.289  1.00  0.00     0.167 HD
ATOM     66  C   UNL A   1      42.806  30.714  31.643  1.00  0.00     0.074 A 
ATOM     67  C   UNL A   1      42.933  31.482  30.406  1.00  0.00     0.031 C 
ATOM     68  C   UNL A   1      43.533  29.669  32.139  1.00  0.00     0.034 A 
BRANCH  55  69
ATOM     69  C   UNL A   1      45.950  30.033  27.411  1.00  0.00     0.023 A 
ATOM     70  C   UNL A   1      47.350  30.222  27.465  1.00  0.00     0.012 A 
ATOM     71  C   UNL A   1      45.184  31.120  26.927  1.00  0.00     0.148 A 
ATOM     72  C   UNL A   1      47.946  31.440  27.127  1.00  0.00     0.002 A 
ATOM     73  C   UNL A   1      45.789  32.298  26.503  1.00  0.00     0.091 A 
ATOM     74  F   UNL A   1      43.852  31.096  26.994  1.00  0.00    -0.205 F 
ATOM     75  C   UNL A   1      47.165  32.478  26.638  1.00  0.00     0.022 A 
BRANCH  73  76
ATOM     76  S   UNL A   1      44.832  33.646  25.797  1.00  0.00     0.127 S 
ATOM     77  O   UNL A   1      44.231  32.998  24.635  1.00  0.00    -0.237 OA
ATOM     78  O   UNL A   1      43.904  33.954  26.886  1.00  0.00    -0.237 OA
ATOM     79  O   UNL A   1      45.795  34.705  25.521  1.00  0.00    -0.744 OA
ENDBRANCH  73  76
ENDBRANCH  55  69
BRANCH  56  80
ATOM     80  C   UNL A   1      38.510  32.174  30.434  1.00  0.00     0.023 A 
ATOM     81  C   UNL A   1      38.106  32.470  29.117  1.00  0.00     0.012 A 
ATOM     82  C   UNL A   1      37.725  32.664  31.499  1.00  0.00     0.148 A 
ATOM     83  C   UNL A   1      36.941  33.207  28.869  1.00  0.00     0.002 A 
ATOM     84  C   UNL A   1      36.571  33.398  31.246  1.00  0.00     0.091 A 
ATOM     85  F   UNL A   1      38.038  32.313  32.754  1.00  0.00    -0.205 F 
ATOM     86  C   UNL A   1      36.166  33.663  29.933  1.00  0.00     0.022 A 
BRANCH  84  87
ATOM     87  S   UNL A   1      35.558  33.988  32.605  1.00  0.00     0.127 S 
ATOM     88  O   UNL A   1      35.290  32.761  33.359  1.00  0.00    -0.237 OA
ATOM     89  O   UNL A   1      36.452  34.929  33.270  1.00  0.00    -0.237 OA
ATOM     90  O   UNL A   1      34.378  34.555  31.963  1.00  0.00    -0.744 OA
ENDBRANCH  84  87
ENDBRANCH  56  80
BRANCH  68  91
ATOM     91  C   UNL A   1      43.020  28.961  33.370  1.00  0.00     0.023 A 
ATOM     92  C   UNL A   1      41.986  28.002  33.320  1.00  0.00     0.012 A 
ATOM     93  C   UNL A   1      43.721  29.136  34.575  1.00  0.00     0.148 A 
ATOM     94  C   UNL A   1      41.646  27.252  34.450  1.00  0.00     0.002 A 
ATOM     95  C   UNL A   1      43.413  28.356  35.683  1.00  0.00     0.091 A 
ATOM     96  F   UNL A   1      44.703  30.049  34.609  1.00  0.00    -0.205 F 
ATOM     97  C   UNL A   1      42.369  27.418  35.627  1.00  0.00     0.022 A 
BRANCH  95  98
ATOM     98  S   UNL A   1      44.388  28.436  37.186  1.00  0.00     0.127 S 
ATOM     99  O   UNL A   1      45.751  28.329  36.672  1.00  0.00    -0.237 OA
ATOM    100  O   UNL A   1      44.036  29.754  37.719  1.00  0.00    -0.237 OA
ATOM    101  O   UNL A   1      43.940  27.323  38.014  1.00  0.00    -0.744 OA
ENDBRANCH  95  98
ENDBRANCH  68  91
ENDBRANCH  42  43
ENDBRANCH  34  37
ENDBRANCH  32  33
ENDBRANCH   1  32
TORSDOF 15
ENDMDL
MODEL 2
REMARK VINA RESULT:     -13.2      2.264      4.480
REMARK SMILES Cc1ccc(C)c([C@H]2[NH2+][C@@H](C(=O)NCCCCNC(=O)c3ccc(-c4c5nc(c(-c6cccc(S(=O)(=O)[O-])c6F)c6ccc([nH]6)c(-c6cccc(S(=O)(=O)[O-])c6F)c6nc(c(-c7cccc(S(=O)(=O)[O-])c7F)c7ccc4[nH]7)C=C6)C=C5)cc3)Cc3c2[nH]c2ccccc32)c1
REMARK SMILES IDX 16 1 15 2 14 3 13 4 11 5 12 6 10 8 8 9 9 10 86 11 85 14
REMARK SMILES IDX 87 15 84 16 93 17 88 18 92 20 89 21 91 22 90 23 7 24 1 25
REMARK SMILES IDX 2 26 3 27 94 28 4 29 5 30 6 31 17 32 18 33 19 34 20 36 21 37
REMARK SMILES IDX 22 38 83 39 23 40 82 41 24 42 25 43 26 44 76 45 27 46 81 47
REMARK SMILES IDX 75 48 77 49 28 50 80 51 74 52 73 53 29 55 61 56 41 57 60 58
REMARK SMILES IDX 42 59 45 60 59 61 78 62 43 63 44 64 58 66 79 67 46 68 30 69
REMARK SMILES IDX 31 70 39 71 32 72 34 73 40 74 33 75 35 76 36 77 37 78 38 79
REMARK SMILES IDX 62 80 63 81 71 82 64 83 66 84 72 85 65 86 67 87 68 88 69 89
REMARK SMILES IDX 70 90 47 91 48 92 56 93 49 94 51 95 57 96 50 97 52 98 53 99
REMARK SMILES IDX 54 100 55 101
REMARK H PARENT 13 7 9 12 9 13 87 19 18 35 77 54 45 65
REMARK Flexibility Score: inf
ROOT
ATOM      1  C   UNL A   1      41.348  19.676  26.209  1.00  0.00     0.023 C 
ENDROOT
BRANCH   1   2
ATOM      2  C   UNL A   1      40.609  20.839  26.899  1.00  0.00     0.023 C 
BRANCH   2   3
ATOM      3  C   UNL A   1      39.473  21.465  26.070  1.00  0.00     0.116 C 
BRANCH   3   4
ATOM      4  N   UNL A   1      39.126  22.789  26.514  1.00  0.00    -0.351 N 
ATOM      5  C   UNL A   1      38.125  23.648  26.214  1.00  0.00     0.278 C 
ATOM      6  O   UNL A   1      38.250  24.788  26.683  1.00  0.00    -0.268 OA
ATOM      7  H   UNL A   1      39.753  23.147  27.184  1.00  0.00     0.163 HD
BRANCH   5   8
ATOM      8  C   UNL A   1      36.879  23.319  25.376  1.00  0.00     0.277 C 
ATOM      9  C   UNL A   1      34.975  24.417  24.268  1.00  0.00     0.262 C 
ATOM     10  N   UNL A   1      35.935  24.459  25.398  1.00  0.00    -0.325 N 
ATOM     11  C   UNL A   1      34.404  23.008  24.175  1.00  0.00     0.083 A 
ATOM     12  H   UNL A   1      35.412  24.437  26.273  1.00  0.00     0.347 HD
ATOM     13  H   UNL A   1      36.480  25.318  25.312  1.00  0.00     0.347 HD
ATOM     14  C   UNL A   1      34.951  21.898  24.792  1.00  0.00    -0.006 A 
ATOM     15  N   UNL A   1      33.330  22.568  23.440  1.00  0.00    -0.353 N 
ATOM     16  C   UNL A   1      36.125  22.025  25.697  1.00  0.00     0.114 C 
ATOM     17  C   UNL A   1      34.169  20.768  24.486  1.00  0.00     0.003 A 
ATOM     18  C   UNL A   1      33.150  21.205  23.637  1.00  0.00     0.046 A 
ATOM     19  H   UNL A   1      32.771  23.136  22.861  1.00  0.00     0.166 HD
ATOM     20  C   UNL A   1      34.225  19.419  24.878  1.00  0.00     0.010 A 
ATOM     21  C   UNL A   1      32.172  20.322  23.157  1.00  0.00     0.026 A 
ATOM     22  C   UNL A   1      33.253  18.533  24.414  1.00  0.00     0.001 A 
ATOM     23  C   UNL A   1      32.243  18.980  23.565  1.00  0.00     0.002 A 
BRANCH   9  24
ATOM     24  C   UNL A   1      33.983  25.564  24.464  1.00  0.00     0.019 A 
ATOM     25  C   UNL A   1      33.067  28.090  27.193  1.00  0.00     0.044 C 
ATOM     26  C   UNL A   1      33.132  27.394  25.866  1.00  0.00    -0.051 A 
ATOM     27  C   UNL A   1      32.574  27.995  24.739  1.00  0.00     0.004 A 
ATOM     28  C   UNL A   1      33.853  26.200  25.718  1.00  0.00     0.014 A 
ATOM     29  C   UNL A   1      32.671  27.377  23.495  1.00  0.00     0.004 A 
ATOM     30  C   UNL A   1      33.347  26.155  23.342  1.00  0.00    -0.042 A 
ATOM     31  C   UNL A   1      33.462  25.591  21.948  1.00  0.00     0.045 C 
ENDBRANCH   9  24
ENDBRANCH   5   8
ENDBRANCH   3   4
ENDBRANCH   2   3
ENDBRANCH   1   2
BRANCH   1  32
ATOM     32  C   UNL A   1      42.776  19.356  26.691  1.00  0.00     0.116 C 
BRANCH  32  33
ATOM     33  N   UNL A   1      43.823  19.515  25.659  1.00  0.00    -0.352 N 
ATOM     34  C   UNL A   1      44.196  20.632  24.918  1.00  0.00     0.251 C 
ATOM     35  H   UNL A   1      44.339  18.699  25.465  1.00  0.00     0.163 HD
ATOM     36  O   UNL A   1      44.781  20.490  23.839  1.00  0.00    -0.269 OA
BRANCH  34  37
ATOM     37  C   UNL A   1      43.948  21.988  25.448  1.00  0.00     0.039 A 
ATOM     38  C   UNL A   1      42.953  22.871  25.024  1.00  0.00     0.014 A 
ATOM     39  C   UNL A   1      44.823  22.396  26.432  1.00  0.00     0.014 A 
ATOM     40  C   UNL A   1      42.865  24.127  25.642  1.00  0.00     0.010 A 
ATOM     41  C   UNL A   1      44.531  23.445  27.245  1.00  0.00     0.010 A 
ATOM     42  C   UNL A   1      43.675  24.401  26.755  1.00  0.00    -0.014 A 
BRANCH  42  43
ATOM     43  C   UNL A   1      43.651  25.642  27.514  1.00  0.00     0.031 A 
ATOM     44  C   UNL A   1      44.736  26.575  27.148  1.00  0.00     0.074 A 
ATOM     45  C   UNL A   1      42.568  26.061  28.213  1.00  0.00     0.049 A 
ATOM     46  N   UNL A   1      45.806  26.833  27.820  1.00  0.00    -0.248 NA
ATOM     47  C   UNL A   1      44.724  27.140  25.791  1.00  0.00     0.031 C 
ATOM     48  C   UNL A   1      41.233  25.441  28.291  1.00  0.00     0.029 A 
ATOM     49  N   UNL A   1      42.382  27.236  28.873  1.00  0.00    -0.354 N 
ATOM     50  C   UNL A   1      46.456  27.818  27.084  1.00  0.00     0.074 A 
ATOM     51  C   UNL A   1      45.917  27.737  25.754  1.00  0.00     0.031 C 
ATOM     52  C   UNL A   1      40.336  26.352  28.732  1.00  0.00     0.029 A 
ATOM     53  C   UNL A   1      41.050  27.550  29.129  1.00  0.00     0.049 A 
ATOM     54  H   UNL A   1      43.129  27.816  29.148  1.00  0.00     0.167 HD
ATOM     55  C   UNL A   1      47.130  28.826  27.704  1.00  0.00     0.034 A 
ATOM     56  C   UNL A   1      40.573  28.740  29.573  1.00  0.00     0.034 A 
ATOM     57  C   UNL A   1      47.299  28.549  29.114  1.00  0.00     0.049 A 
ATOM     58  C   UNL A   1      41.710  29.484  30.160  1.00  0.00     0.074 A 
ATOM     59  C   UNL A   1      47.805  27.495  29.852  1.00  0.00     0.029 A 
ATOM     60  N   UNL A   1      46.520  29.272  29.989  1.00  0.00    -0.354 N 
ATOM     61  N   UNL A   1      42.339  29.109  31.237  1.00  0.00    -0.248 NA
ATOM     62  C   UNL A   1      42.434  30.402  29.296  1.00  0.00     0.031 C 
ATOM     63  C   UNL A   1      46.913  27.363  30.959  1.00  0.00     0.029 A 
ATOM     64  C   UNL A   1      45.970  28.389  30.879  1.00  0.00     0.049 A 
ATOM     65  H   UNL A   1      46.383  30.247  29.975  1.00  0.00     0.167 HD
ATOM     66  C   UNL A   1      43.676  29.348  30.950  1.00  0.00     0.074 A 
ATOM     67  C   UNL A   1      43.662  30.247  29.797  1.00  0.00     0.031 C 
ATOM     68  C   UNL A   1      44.661  28.556  31.470  1.00  0.00     0.034 A 
BRANCH  55  69
ATOM     69  C   UNL A   1      47.296  30.230  27.159  1.00  0.00     0.023 A 
ATOM     70  C   UNL A   1      48.591  30.791  27.243  1.00  0.00     0.012 A 
ATOM     71  C   UNL A   1      46.245  31.114  26.819  1.00  0.00     0.148 A 
ATOM     72  C   UNL A   1      48.816  32.160  27.069  1.00  0.00     0.002 A 
ATOM     73  C   UNL A   1      46.487  32.457  26.555  1.00  0.00     0.091 A 
ATOM     74  F   UNL A   1      44.974  30.712  26.876  1.00  0.00    -0.205 F 
ATOM     75  C   UNL A   1      47.764  32.994  26.717  1.00  0.00     0.022 A 
BRANCH  73  76
ATOM     76  S   UNL A   1      45.173  33.565  26.027  1.00  0.00     0.127 S 
ATOM     77  O   UNL A   1      45.928  34.759  25.662  1.00  0.00    -0.237 OA
ATOM     78  O   UNL A   1      44.596  32.827  24.903  1.00  0.00    -0.237 OA
ATOM     79  O   UNL A   1      44.283  33.688  27.176  1.00  0.00    -0.744 OA
ENDBRANCH  73  76
ENDBRANCH  55  69
BRANCH  56  80
ATOM     80  C   UNL A   1      39.296  29.416  29.258  1.00  0.00     0.023 A 
ATOM     81  C   UNL A   1      38.609  29.114  28.065  1.00  0.00     0.012 A 
ATOM     82  C   UNL A   1      38.604  30.119  30.267  1.00  0.00     0.148 A 
ATOM     83  C   UNL A   1      37.267  29.476  27.895  1.00  0.00     0.002 A 
ATOM     84  C   UNL A   1      37.272  30.478  30.090  1.00  0.00     0.091 A 
ATOM     85  F   UNL A   1      39.208  30.331  31.444  1.00  0.00    -0.205 F 
ATOM     86  C   UNL A   1      36.593  30.150  28.910  1.00  0.00     0.022 A 
BRANCH  84  87
ATOM     87  S   UNL A   1      36.388  31.341  31.391  1.00  0.00     0.127 S 
ATOM     88  O   UNL A   1      35.146  31.739  30.724  1.00  0.00    -0.237 OA
ATOM     89  O   UNL A   1      36.230  30.300  32.400  1.00  0.00    -0.237 OA
ATOM     90  O   UNL A   1      37.254  32.461  31.743  1.00  0.00    -0.744 OA
ENDBRANCH  84  87
ENDBRANCH  56  80
BRANCH  68  91
ATOM     91  C   UNL A   1      44.295  27.586  32.566  1.00  0.00     0.023 A 
ATOM     92  C   UNL A   1      44.108  26.207  32.330  1.00  0.00     0.012 A 
ATOM     93  C   UNL A   1      44.317  28.045  33.894  1.00  0.00     0.148 A 
ATOM     94  C   UNL A   1      43.928  25.313  33.390  1.00  0.00     0.002 A 
ATOM     95  C   UNL A   1      44.186  27.149  34.947  1.00  0.00     0.091 A 
ATOM     96  F   UNL A   1      44.498  29.358  34.105  1.00  0.00    -0.205 F 
ATOM     97  C   UNL A   1      43.982  25.782  34.700  1.00  0.00     0.022 A 
BRANCH  95  98
ATOM     98  S   UNL A   1      44.370  27.674  36.652  1.00  0.00     0.127 S 
ATOM     99  O   UNL A   1      43.130  27.193  37.255  1.00  0.00    -0.237 OA
ATOM    100  O   UNL A   1      45.574  26.956  37.074  1.00  0.00    -0.237 OA
ATOM    101  O   UNL A   1      44.528  29.123  36.611  1.00  0.00    -0.744 OA
ENDBRANCH  95  98
ENDBRANCH  68  91
ENDBRANCH  42  43
ENDBRANCH  34  37
ENDBRANCH  32  33
ENDBRANCH   1  32
TORSDOF 15
ENDMDL
MODEL 3
REMARK VINA RESULT:     -13.2      0.906      3.096
REMARK SMILES Cc1ccc(C)c([C@H]2[NH2+][C@@H](C(=O)NCCCCNC(=O)c3ccc(-c4c5nc(c(-c6cccc(S(=O)(=O)[O-])c6F)c6ccc([nH]6)c(-c6cccc(S(=O)(=O)[O-])c6F)c6nc(c(-c7cccc(S(=O)(=O)[O-])c7F)c7ccc4[nH]7)C=C6)C=C5)cc3)Cc3c2[nH]c2ccccc32)c1
REMARK SMILES IDX 16 1 15 2 14 3 13 4 11 5 12 6 10 8 8 9 9 10 86 11 85 14
REMARK SMILES IDX 87 15 84 16 93 17 88 18 92 20 89 21 91 22 90 23 7 24 1 25
REMARK SMILES IDX 2 26 3 27 94 28 4 29 5 30 6 31 17 32 18 33 19 34 20 36 21 37
REMARK SMILES IDX 22 38 83 39 23 40 82 41 24 42 25 43 26 44 76 45 27 46 81 47
REMARK SMILES IDX 75 48 77 49 28 50 80 51 74 52 73 53 29 55 61 56 41 57 60 58
REMARK SMILES IDX 42 59 45 60 59 61 78 62 43 63 44 64 58 66 79 67 46 68 30 69
REMARK SMILES IDX 31 70 39 71 32 72 34 73 40 74 33 75 35 76 36 77 37 78 38 79
REMARK SMILES IDX 62 80 63 81 71 82 64 83 66 84 72 85 65 86 67 87 68 88 69 89
REMARK SMILES IDX 70 90 47 91 48 92 56 93 49 94 51 95 57 96 50 97 52 98 53 99
REMARK SMILES IDX 54 100 55 101
REMARK H PARENT 13 7 9 12 9 13 87 19 18 35 77 54 45 65
REMARK Flexibility Score: inf
ROOT
ATOM      1  C   UNL A   1      35.877  21.611  25.548  1.00  0.00     0.023 C 
ENDROOT
BRANCH   1   2
ATOM      2  C   UNL A   1      34.718  22.204  26.373  1.00  0.00     0.023 C 
BRANCH   2   3
ATOM      3  C   UNL A   1      33.661  22.960  25.550  1.00  0.00     0.116 C 
BRANCH   3   4
ATOM      4  N   UNL A   1      32.438  23.173  26.278  1.00  0.00    -0.351 N 
ATOM      5  C   UNL A   1      31.619  24.236  26.447  1.00  0.00     0.278 C 
ATOM      6  O   UNL A   1      30.729  24.086  27.297  1.00  0.00    -0.268 OA
ATOM      7  H   UNL A   1      32.130  22.369  26.755  1.00  0.00     0.163 HD
BRANCH   5   8
ATOM      8  C   UNL A   1      31.699  25.564  25.678  1.00  0.00     0.277 C 
ATOM      9  C   UNL A   1      32.997  27.655  25.600  1.00  0.00     0.262 C 
ATOM     10  N   UNL A   1      32.481  26.555  26.452  1.00  0.00    -0.325 N 
ATOM     11  C   UNL A   1      31.858  28.158  24.724  1.00  0.00     0.083 A 
ATOM     12  H   UNL A   1      31.883  26.954  27.175  1.00  0.00     0.347 HD
ATOM     13  H   UNL A   1      33.284  26.072  26.857  1.00  0.00     0.347 HD
ATOM     14  C   UNL A   1      30.674  27.476  24.507  1.00  0.00    -0.006 A 
ATOM     15  N   UNL A   1      31.808  29.297  23.957  1.00  0.00    -0.353 N 
ATOM     16  C   UNL A   1      30.384  26.200  25.215  1.00  0.00     0.114 C 
ATOM     17  C   UNL A   1      29.857  28.233  23.646  1.00  0.00     0.003 A 
ATOM     18  C   UNL A   1      30.582  29.378  23.310  1.00  0.00     0.046 A 
ATOM     19  H   UNL A   1      32.535  29.958  23.879  1.00  0.00     0.166 HD
ATOM     20  C   UNL A   1      28.555  28.055  23.144  1.00  0.00     0.010 A 
ATOM     21  C   UNL A   1      30.041  30.364  22.472  1.00  0.00     0.026 A 
ATOM     22  C   UNL A   1      28.003  29.032  22.318  1.00  0.00     0.001 A 
ATOM     23  C   UNL A   1      28.737  30.169  21.987  1.00  0.00     0.002 A 
BRANCH   9  24
ATOM     24  C   UNL A   1      33.675  28.669  26.520  1.00  0.00     0.019 A 
ATOM     25  C   UNL A   1      37.226  29.891  27.273  1.00  0.00     0.044 C 
ATOM     26  C   UNL A   1      35.729  29.802  27.255  1.00  0.00    -0.051 A 
ATOM     27  C   UNL A   1      34.964  30.842  27.781  1.00  0.00     0.004 A 
ATOM     28  C   UNL A   1      35.083  28.739  26.608  1.00  0.00     0.014 A 
ATOM     29  C   UNL A   1      33.574  30.787  27.726  1.00  0.00     0.004 A 
ATOM     30  C   UNL A   1      32.914  29.703  27.125  1.00  0.00    -0.042 A 
ATOM     31  C   UNL A   1      31.408  29.758  27.050  1.00  0.00     0.045 C 
ENDBRANCH   9  24
ENDBRANCH   5   8
ENDBRANCH   3   4
ENDBRANCH   2   3
ENDBRANCH   1   2
BRANCH   1  32
ATOM     32  C   UNL A   1      37.230  22.346  25.592  1.00  0.00     0.116 C 
BRANCH  32  33
ATOM     33  N   UNL A   1      38.350  21.542  26.127  1.00  0.00    -0.352 N 
ATOM     34  C   UNL A   1      39.619  21.929  26.544  1.00  0.00     0.251 C 
ATOM     35  H   UNL A   1      38.167  20.577  26.199  1.00  0.00     0.163 HD
ATOM     36  O   UNL A   1      40.541  21.107  26.562  1.00  0.00    -0.269 OA
BRANCH  34  37
ATOM     37  C   UNL A   1      39.853  23.307  27.023  1.00  0.00     0.039 A 
ATOM     38  C   UNL A   1      38.964  24.378  26.920  1.00  0.00     0.014 A 
ATOM     39  C   UNL A   1      41.090  23.522  27.591  1.00  0.00     0.014 A 
ATOM     40  C   UNL A   1      39.356  25.625  27.431  1.00  0.00     0.010 A 
ATOM     41  C   UNL A   1      41.329  24.608  28.372  1.00  0.00     0.010 A 
ATOM     42  C   UNL A   1      40.557  25.723  28.152  1.00  0.00    -0.014 A 
BRANCH  42  43
ATOM     43  C   UNL A   1      41.056  26.940  28.772  1.00  0.00     0.031 A 
ATOM     44  C   UNL A   1      42.299  27.445  28.155  1.00  0.00     0.074 A 
ATOM     45  C   UNL A   1      40.298  27.726  29.574  1.00  0.00     0.049 A 
ATOM     46  N   UNL A   1      43.495  27.373  28.632  1.00  0.00    -0.248 NA
ATOM     47  C   UNL A   1      42.231  27.912  26.762  1.00  0.00     0.031 C 
ATOM     48  C   UNL A   1      38.870  27.584  29.912  1.00  0.00     0.029 A 
ATOM     49  N   UNL A   1      40.609  28.930  30.127  1.00  0.00    -0.354 N 
ATOM     50  C   UNL A   1      44.284  28.051  27.709  1.00  0.00     0.074 A 
ATOM     51  C   UNL A   1      43.526  28.082  26.488  1.00  0.00     0.031 C 
ATOM     52  C   UNL A   1      38.396  28.761  30.381  1.00  0.00     0.029 A 
ATOM     53  C   UNL A   1      39.508  29.676  30.541  1.00  0.00     0.049 A 
ATOM     54  H   UNL A   1      41.536  29.247  30.226  1.00  0.00     0.167 HD
ATOM     55  C   UNL A   1      45.338  28.813  28.114  1.00  0.00     0.034 A 
ATOM     56  C   UNL A   1      39.515  30.978  30.922  1.00  0.00     0.034 A 
ATOM     57  C   UNL A   1      45.653  28.569  29.505  1.00  0.00     0.049 A 
ATOM     58  C   UNL A   1      40.912  31.339  31.255  1.00  0.00     0.074 A 
ATOM     59  C   UNL A   1      45.920  27.447  30.267  1.00  0.00     0.029 A 
ATOM     60  N   UNL A   1      45.304  29.552  30.403  1.00  0.00    -0.354 N 
ATOM     61  N   UNL A   1      41.566  30.834  32.262  1.00  0.00    -0.248 NA
ATOM     62  C   UNL A   1      41.727  31.922  30.203  1.00  0.00     0.031 C 
ATOM     63  C   UNL A   1      45.238  27.673  31.501  1.00  0.00     0.029 A 
ATOM     64  C   UNL A   1      44.667  28.946  31.452  1.00  0.00     0.049 A 
ATOM     65  H   UNL A   1      45.481  30.516  30.307  1.00  0.00     0.167 HD
ATOM     66  C   UNL A   1      42.840  30.606  31.758  1.00  0.00     0.074 A 
ATOM     67  C   UNL A   1      42.911  31.399  30.532  1.00  0.00     0.031 C 
ATOM     68  C   UNL A   1      43.600  29.563  32.208  1.00  0.00     0.034 A 
BRANCH  55  69
ATOM     69  C   UNL A   1      45.842  30.054  27.406  1.00  0.00     0.023 A 
ATOM     70  C   UNL A   1      47.240  30.264  27.414  1.00  0.00     0.012 A 
ATOM     71  C   UNL A   1      45.043  31.138  26.970  1.00  0.00     0.148 A 
ATOM     72  C   UNL A   1      47.805  31.498  27.078  1.00  0.00     0.002 A 
ATOM     73  C   UNL A   1      45.614  32.333  26.548  1.00  0.00     0.091 A 
ATOM     74  F   UNL A   1      43.714  31.091  27.084  1.00  0.00    -0.205 F 
ATOM     75  C   UNL A   1      46.991  32.532  26.637  1.00  0.00     0.022 A 
BRANCH  73  76
ATOM     76  S   UNL A   1      44.612  33.679  25.902  1.00  0.00     0.127 S 
ATOM     77  O   UNL A   1      43.861  34.077  27.089  1.00  0.00    -0.237 OA
ATOM     78  O   UNL A   1      45.635  34.629  25.467  1.00  0.00    -0.237 OA
ATOM     79  O   UNL A   1      43.837  33.099  24.811  1.00  0.00    -0.744 OA
ENDBRANCH  73  76
ENDBRANCH  55  69
BRANCH  56  80
ATOM     80  C   UNL A   1      38.482  32.019  30.729  1.00  0.00     0.023 A 
ATOM     81  C   UNL A   1      38.238  32.545  29.445  1.00  0.00     0.012 A 
ATOM     82  C   UNL A   1      37.532  32.266  31.743  1.00  0.00     0.148 A 
ATOM     83  C   UNL A   1      37.071  33.270  29.172  1.00  0.00     0.002 A 
ATOM     84  C   UNL A   1      36.376  32.989  31.466  1.00  0.00     0.091 A 
ATOM     85  F   UNL A   1      37.698  31.694  32.944  1.00  0.00    -0.205 F 
ATOM     86  C   UNL A   1      36.134  33.485  30.180  1.00  0.00     0.022 A 
BRANCH  84  87
ATOM     87  S   UNL A   1      35.156  33.269  32.752  1.00  0.00     0.127 S 
ATOM     88  O   UNL A   1      35.161  34.728  32.883  1.00  0.00    -0.237 OA
ATOM     89  O   UNL A   1      33.947  32.715  32.155  1.00  0.00    -0.237 OA
ATOM     90  O   UNL A   1      35.685  32.570  33.918  1.00  0.00    -0.744 OA
ENDBRANCH  84  87
ENDBRANCH  56  80
BRANCH  68  91
ATOM     91  C   UNL A   1      43.142  28.825  33.442  1.00  0.00     0.023 A 
ATOM     92  C   UNL A   1      42.185  27.788  33.397  1.00  0.00     0.012 A 
ATOM     93  C   UNL A   1      43.825  29.060  34.647  1.00  0.00     0.148 A 
ATOM     94  C   UNL A   1      41.903  27.020  34.530  1.00  0.00     0.002 A 
ATOM     95  C   UNL A   1      43.578  28.264  35.759  1.00  0.00     0.091 A 
ATOM     96  F   UNL A   1      44.734  30.047  34.677  1.00  0.00    -0.205 F 
ATOM     97  C   UNL A   1      42.610  27.248  35.708  1.00  0.00     0.022 A 
BRANCH  95  98
ATOM     98  S   UNL A   1      44.542  28.428  37.262  1.00  0.00     0.127 S 
ATOM     99  O   UNL A   1      44.131  29.743  37.747  1.00  0.00    -0.237 OA
ATOM    100  O   UNL A   1      44.063  27.302  38.067  1.00  0.00    -0.237 OA
ATOM    101  O   UNL A   1      45.938  28.316  36.857  1.00  0.00    -0.744 OA
ENDBRANCH  95  98
ENDBRANCH  68  91
ENDBRANCH  42  43
ENDBRANCH  34  37
ENDBRANCH  32  33
ENDBRANCH   1  32
TORSDOF 15
ENDMDL
