MODEL 1
REMARK VINA RESULT:     -11.5      0.000      0.000
REMARK SMILES O=C(NCCCCNC(=O)c1cn(C2C[NH+](CC(F)(F)F)C2)nn1)c1ccc(-c2c3nc(c(-c4cccc(S(=O)(=O)[O-])c4F)c4ccc([nH]4)c(-c4cccc(S(=O)(=O)[O-])c4F)c4nc(c(-c5cccc(S(=O)(=O)[O-])c5F)c5ccc2[nH]5)C=C4)C=C3)cc1
REMARK SMILES IDX 5 1 4 2 3 3 1 4 2 5 25 7 26 8 87 9 27 10 86 11 28 12 29 13
REMARK SMILES IDX 30 14 80 15 31 16 85 17 79 18 81 19 32 20 84 21 78 22 77 23
REMARK SMILES IDX 33 25 65 26 45 27 64 28 46 29 49 30 63 31 82 32 47 33 48 34
REMARK SMILES IDX 62 36 83 37 50 38 34 39 35 40 43 41 36 42 38 43 44 44 37 45
REMARK SMILES IDX 39 46 40 47 41 48 42 49 66 50 67 51 75 52 68 53 70 54 76 55
REMARK SMILES IDX 69 56 71 57 72 58 73 59 74 60 51 61 52 62 60 63 53 64 55 65
REMARK SMILES IDX 61 66 54 67 56 68 57 69 58 70 59 71 6 72 7 73 8 74 9 75
REMARK SMILES IDX 10 77 11 78 12 79 24 80 13 81 23 82 14 83 15 84 22 85 16 86
REMARK SMILES IDX 17 88 18 89 19 90 20 91 21 92
REMARK H PARENT 3 6 81 24 49 35 8 76 16 87
REMARK Flexibility Score: inf
ROOT
ATOM      1  C   UNL A   1      33.291  29.603  27.197  1.00  0.00     0.023 C 
ENDROOT
BRANCH   1   2
ATOM      2  C   UNL A   1      34.062  30.919  27.288  1.00  0.00     0.116 C 
BRANCH   2   3
ATOM      3  N   UNL A   1      34.007  31.546  28.590  1.00  0.00    -0.352 N 
ATOM      4  O   UNL A   1      34.525  32.568  30.465  1.00  0.00    -0.269 OA
ATOM      5  C   UNL A   1      34.924  31.819  29.567  1.00  0.00     0.251 C 
ATOM      6  H   UNL A   1      33.101  31.847  28.827  1.00  0.00     0.163 HD
BRANCH   5   7
ATOM      7  C   UNL A   1      36.290  31.236  29.666  1.00  0.00     0.039 A 
ATOM      8  C   UNL A   1      37.491  31.949  29.654  1.00  0.00     0.014 A 
ATOM      9  C   UNL A   1      36.346  29.829  29.713  1.00  0.00     0.014 A 
ATOM     10  C   UNL A   1      38.708  31.273  29.593  1.00  0.00     0.010 A 
ATOM     11  C   UNL A   1      37.557  29.150  29.656  1.00  0.00     0.010 A 
ATOM     12  C   UNL A   1      38.737  29.876  29.551  1.00  0.00    -0.014 A 
BRANCH  12  13
ATOM     13  C   UNL A   1      40.034  29.204  29.566  1.00  0.00     0.031 A 
ATOM     14  C   UNL A   1      40.605  29.035  30.935  1.00  0.00     0.074 A 
ATOM     15  C   UNL A   1      40.604  28.658  28.470  1.00  0.00     0.049 A 
ATOM     16  N   UNL A   1      41.700  29.533  31.410  1.00  0.00    -0.248 NA
ATOM     17  C   UNL A   1      39.779  28.349  31.942  1.00  0.00     0.031 C 
ATOM     18  C   UNL A   1      40.011  28.502  27.137  1.00  0.00     0.029 A 
ATOM     19  N   UNL A   1      41.794  28.001  28.348  1.00  0.00    -0.354 N 
ATOM     20  C   UNL A   1      41.812  29.033  32.710  1.00  0.00     0.074 A 
ATOM     21  C   UNL A   1      40.531  28.472  33.037  1.00  0.00     0.031 C 
ATOM     22  C   UNL A   1      40.721  27.586  26.438  1.00  0.00     0.029 A 
ATOM     23  C   UNL A   1      41.884  27.196  27.213  1.00  0.00     0.049 A 
ATOM     24  H   UNL A   1      42.524  28.087  29.004  1.00  0.00     0.167 HD
ATOM     25  C   UNL A   1      43.022  28.909  33.323  1.00  0.00     0.034 A 
ATOM     26  C   UNL A   1      42.802  26.223  26.970  1.00  0.00     0.034 A 
ATOM     27  C   UNL A   1      44.024  29.705  32.666  1.00  0.00     0.049 A 
ATOM     28  C   UNL A   1      43.958  26.474  27.857  1.00  0.00     0.074 A 
ATOM     29  C   UNL A   1      44.201  31.049  32.411  1.00  0.00     0.029 A 
ATOM     30  N   UNL A   1      44.884  29.043  31.826  1.00  0.00    -0.354 N 
ATOM     31  N   UNL A   1      44.734  27.514  27.747  1.00  0.00    -0.248 NA
ATOM     32  C   UNL A   1      43.981  25.799  29.144  1.00  0.00     0.031 C 
ATOM     33  C   UNL A   1      44.781  31.098  31.112  1.00  0.00     0.029 A 
ATOM     34  C   UNL A   1      44.990  29.785  30.684  1.00  0.00     0.049 A 
ATOM     35  H   UNL A   1      45.341  28.191  32.013  1.00  0.00     0.167 HD
ATOM     36  C   UNL A   1      44.967  27.899  29.058  1.00  0.00     0.074 A 
ATOM     37  C   UNL A   1      44.562  26.755  29.873  1.00  0.00     0.031 C 
ATOM     38  C   UNL A   1      45.187  29.208  29.375  1.00  0.00     0.034 A 
BRANCH  25  39
ATOM     39  C   UNL A   1      43.418  27.783  34.259  1.00  0.00     0.023 A 
ATOM     40  C   UNL A   1      43.853  28.149  35.556  1.00  0.00     0.012 A 
ATOM     41  C   UNL A   1      43.682  26.454  33.854  1.00  0.00     0.148 A 
ATOM     42  C   UNL A   1      44.588  27.274  36.364  1.00  0.00     0.002 A 
ATOM     43  C   UNL A   1      44.354  25.566  34.687  1.00  0.00     0.091 A 
ATOM     44  F   UNL A   1      43.397  26.062  32.611  1.00  0.00    -0.205 F 
ATOM     45  C   UNL A   1      44.841  25.982  35.928  1.00  0.00     0.022 A 
BRANCH  43  46
ATOM     46  S   UNL A   1      44.685  23.870  34.191  1.00  0.00     0.127 S 
ATOM     47  O   UNL A   1      45.373  23.352  35.371  1.00  0.00    -0.237 OA
ATOM     48  O   UNL A   1      43.332  23.353  33.984  1.00  0.00    -0.237 OA
ATOM     49  O   UNL A   1      45.482  23.962  32.975  1.00  0.00    -0.744 OA
ENDBRANCH  43  46
ENDBRANCH  25  39
BRANCH  26  50
ATOM     50  C   UNL A   1      42.643  24.924  26.269  1.00  0.00     0.023 A 
ATOM     51  C   UNL A   1      43.621  24.489  25.347  1.00  0.00     0.012 A 
ATOM     52  C   UNL A   1      41.696  23.979  26.722  1.00  0.00     0.148 A 
ATOM     53  C   UNL A   1      43.667  23.156  24.914  1.00  0.00     0.002 A 
ATOM     54  C   UNL A   1      41.743  22.658  26.286  1.00  0.00     0.091 A 
ATOM     55  F   UNL A   1      40.811  24.355  27.653  1.00  0.00    -0.205 F 
ATOM     56  C   UNL A   1      42.735  22.239  25.389  1.00  0.00     0.022 A 
BRANCH  54  57
ATOM     57  S   UNL A   1      40.593  21.410  26.882  1.00  0.00     0.127 S 
ATOM     58  O   UNL A   1      41.032  20.223  26.149  1.00  0.00    -0.237 OA
ATOM     59  O   UNL A   1      40.884  21.390  28.313  1.00  0.00    -0.237 OA
ATOM     60  O   UNL A   1      39.265  21.885  26.516  1.00  0.00    -0.744 OA
ENDBRANCH  54  57
ENDBRANCH  26  50
BRANCH  38  61
ATOM     61  C   UNL A   1      45.420  30.185  28.255  1.00  0.00     0.023 A 
ATOM     62  C   UNL A   1      44.370  30.872  27.611  1.00  0.00     0.012 A 
ATOM     63  C   UNL A   1      46.746  30.566  27.997  1.00  0.00     0.148 A 
ATOM     64  C   UNL A   1      44.643  31.917  26.722  1.00  0.00     0.002 A 
ATOM     65  C   UNL A   1      47.010  31.637  27.157  1.00  0.00     0.091 A 
ATOM     66  F   UNL A   1      47.727  29.897  28.623  1.00  0.00    -0.205 F 
ATOM     67  C   UNL A   1      45.963  32.310  26.510  1.00  0.00     0.022 A 
BRANCH  65  68
ATOM     68  S   UNL A   1      48.672  32.279  26.959  1.00  0.00     0.127 S 
ATOM     69  O   UNL A   1      49.400  31.104  26.487  1.00  0.00    -0.237 OA
ATOM     70  O   UNL A   1      48.482  33.328  25.954  1.00  0.00    -0.237 OA
ATOM     71  O   UNL A   1      49.074  32.777  28.269  1.00  0.00    -0.744 OA
ENDBRANCH  65  68
ENDBRANCH  38  61
ENDBRANCH  12  13
ENDBRANCH   5   7
ENDBRANCH   2   3
ENDBRANCH   1   2
BRANCH   1  72
ATOM     72  C   UNL A   1      34.049  28.446  26.534  1.00  0.00     0.023 C 
BRANCH  72  73
ATOM     73  C   UNL A   1      33.326  27.099  26.511  1.00  0.00     0.116 C 
BRANCH  73  74
ATOM     74  N   UNL A   1      32.016  27.171  25.887  1.00  0.00    -0.351 N 
ATOM     75  C   UNL A   1      31.145  26.160  25.542  1.00  0.00     0.273 C 
ATOM     76  H   UNL A   1      31.703  28.081  25.679  1.00  0.00     0.163 HD
ATOM     77  O   UNL A   1      30.142  26.446  24.899  1.00  0.00    -0.267 OA
BRANCH  75  78
ATOM     78  C   UNL A   1      31.451  24.796  25.942  1.00  0.00     0.170 A 
ATOM     79  C   UNL A   1      32.159  23.822  25.262  1.00  0.00     0.145 A 
ATOM     80  N   UNL A   1      31.056  24.287  27.155  1.00  0.00    -0.125 NA
ATOM     81  N   UNL A   1      32.021  22.712  26.045  1.00  0.00    -0.237 N 
ATOM     82  N   UNL A   1      31.403  23.010  27.199  1.00  0.00    -0.066 NA
BRANCH  81  83
ATOM     83  C   UNL A   1      32.357  21.356  25.741  1.00  0.00     0.218 C 
ATOM     84  C   UNL A   1      32.605  21.059  24.240  1.00  0.00     0.296 C 
ATOM     85  C   UNL A   1      33.854  21.006  25.904  1.00  0.00     0.296 C 
ATOM     86  N   UNL A   1      33.818  20.299  24.605  1.00  0.00    -0.323 N 
ATOM     87  H   UNL A   1      34.639  20.290  23.999  1.00  0.00     0.348 HD
BRANCH  86  88
ATOM     88  C   UNL A   1      33.561  18.836  24.728  1.00  0.00     0.379 C 
BRANCH  88  89
ATOM     89  C   UNL A   1      34.592  17.735  24.395  1.00  0.00     0.438 C 
ATOM     90  F   UNL A   1      35.862  18.174  24.532  1.00  0.00    -0.165 F 
ATOM     91  F   UNL A   1      34.442  16.678  25.228  1.00  0.00    -0.165 F 
ATOM     92  F   UNL A   1      34.442  17.271  23.135  1.00  0.00    -0.165 F 
ENDBRANCH  88  89
ENDBRANCH  86  88
ENDBRANCH  81  83
ENDBRANCH  75  78
ENDBRANCH  73  74
ENDBRANCH  72  73
ENDBRANCH   1  72
TORSDOF 17
ENDMDL
MODEL 2
REMARK VINA RESULT:     -11.3      4.340      9.215
REMARK SMILES O=C(NCCCCNC(=O)c1cn(C2C[NH+](CC(F)(F)F)C2)nn1)c1ccc(-c2c3nc(c(-c4cccc(S(=O)(=O)[O-])c4F)c4ccc([nH]4)c(-c4cccc(S(=O)(=O)[O-])c4F)c4nc(c(-c5cccc(S(=O)(=O)[O-])c5F)c5ccc2[nH]5)C=C4)C=C3)cc1
REMARK SMILES IDX 5 1 4 2 3 3 1 4 2 5 25 7 26 8 87 9 27 10 86 11 28 12 29 13
REMARK SMILES IDX 30 14 80 15 31 16 85 17 79 18 81 19 32 20 84 21 78 22 77 23
REMARK SMILES IDX 33 25 65 26 45 27 64 28 46 29 49 30 63 31 82 32 47 33 48 34
REMARK SMILES IDX 62 36 83 37 50 38 34 39 35 40 43 41 36 42 38 43 44 44 37 45
REMARK SMILES IDX 39 46 40 47 41 48 42 49 66 50 67 51 75 52 68 53 70 54 76 55
REMARK SMILES IDX 69 56 71 57 72 58 73 59 74 60 51 61 52 62 60 63 53 64 55 65
REMARK SMILES IDX 61 66 54 67 56 68 57 69 58 70 59 71 6 72 7 73 8 74 9 75
REMARK SMILES IDX 10 77 11 78 12 79 24 80 13 81 23 82 14 83 15 84 22 85 16 86
REMARK SMILES IDX 17 88 18 89 19 90 20 91 21 92
REMARK H PARENT 3 6 81 24 49 35 8 76 16 87
REMARK Flexibility Score: inf
ROOT
ATOM      1  C   UNL A   1      35.955  22.433  25.834  1.00  0.00     0.023 C 
ENDROOT
BRANCH   1   2
ATOM      2  C   UNL A   1      37.141  22.471  24.870  1.00  0.00     0.116 C 
BRANCH   2   3
ATOM      3  N   UNL A   1      38.300  21.739  25.330  1.00  0.00    -0.352 N 
ATOM      4  O   UNL A   1      39.995  20.994  26.513  1.00  0.00    -0.269 OA
ATOM      5  C   UNL A   1      39.281  21.969  26.254  1.00  0.00     0.251 C 
ATOM      6  H   UNL A   1      38.407  20.875  24.871  1.00  0.00     0.163 HD
BRANCH   5   7
ATOM      7  C   UNL A   1      39.590  23.281  26.887  1.00  0.00     0.039 A 
ATOM      8  C   UNL A   1      38.881  24.470  26.702  1.00  0.00     0.014 A 
ATOM      9  C   UNL A   1      40.744  23.307  27.694  1.00  0.00     0.014 A 
ATOM     10  C   UNL A   1      39.367  25.665  27.228  1.00  0.00     0.010 A 
ATOM     11  C   UNL A   1      41.231  24.495  28.223  1.00  0.00     0.010 A 
ATOM     12  C   UNL A   1      40.563  25.683  27.950  1.00  0.00    -0.014 A 
BRANCH  12  13
ATOM     13  C   UNL A   1      40.998  26.942  28.551  1.00  0.00     0.031 A 
ATOM     14  C   UNL A   1      42.310  27.432  28.034  1.00  0.00     0.074 A 
ATOM     15  C   UNL A   1      40.230  27.672  29.388  1.00  0.00     0.049 A 
ATOM     16  N   UNL A   1      43.411  27.607  28.689  1.00  0.00    -0.248 NA
ATOM     17  C   UNL A   1      42.452  27.604  26.579  1.00  0.00     0.031 C 
ATOM     18  C   UNL A   1      38.823  27.449  29.736  1.00  0.00     0.029 A 
ATOM     19  N   UNL A   1      40.507  28.858  30.005  1.00  0.00    -0.354 N 
ATOM     20  C   UNL A   1      44.322  28.130  27.769  1.00  0.00     0.074 A 
ATOM     21  C   UNL A   1      43.740  27.933  26.470  1.00  0.00     0.031 C 
ATOM     22  C   UNL A   1      38.311  28.579  30.275  1.00  0.00     0.029 A 
ATOM     23  C   UNL A   1      39.376  29.552  30.434  1.00  0.00     0.049 A 
ATOM     24  H   UNL A   1      41.424  29.193  30.136  1.00  0.00     0.167 HD
ATOM     25  C   UNL A   1      45.375  28.897  28.166  1.00  0.00     0.034 A 
ATOM     26  C   UNL A   1      39.310  30.856  30.813  1.00  0.00     0.034 A 
ATOM     27  C   UNL A   1      45.637  28.736  29.572  1.00  0.00     0.049 A 
ATOM     28  C   UNL A   1      40.683  31.286  31.159  1.00  0.00     0.074 A 
ATOM     29  C   UNL A   1      45.990  27.684  30.391  1.00  0.00     0.029 A 
ATOM     30  N   UNL A   1      45.178  29.727  30.401  1.00  0.00    -0.354 N 
ATOM     31  N   UNL A   1      41.347  30.815  32.175  1.00  0.00    -0.248 NA
ATOM     32  C   UNL A   1      41.478  31.909  30.114  1.00  0.00     0.031 C 
ATOM     33  C   UNL A   1      45.272  27.911  31.600  1.00  0.00     0.029 A 
ATOM     34  C   UNL A   1      44.585  29.120  31.472  1.00  0.00     0.049 A 
ATOM     35  H   UNL A   1      45.261  30.697  30.253  1.00  0.00     0.167 HD
ATOM     36  C   UNL A   1      42.636  30.654  31.687  1.00  0.00     0.074 A 
ATOM     37  C   UNL A   1      42.679  31.432  30.451  1.00  0.00     0.031 C 
ATOM     38  C   UNL A   1      43.450  29.673  32.173  1.00  0.00     0.034 A 
BRANCH  25  39
ATOM     39  C   UNL A   1      45.925  30.090  27.407  1.00  0.00     0.023 A 
ATOM     40  C   UNL A   1      47.319  30.323  27.501  1.00  0.00     0.012 A 
ATOM     41  C   UNL A   1      45.140  31.142  26.883  1.00  0.00     0.148 A 
ATOM     42  C   UNL A   1      47.885  31.562  27.180  1.00  0.00     0.002 A 
ATOM     43  C   UNL A   1      45.715  32.350  26.503  1.00  0.00     0.091 A 
ATOM     44  F   UNL A   1      43.810  31.040  26.859  1.00  0.00    -0.205 F 
ATOM     45  C   UNL A   1      47.081  32.578  26.683  1.00  0.00     0.022 A 
BRANCH  43  46
ATOM     46  S   UNL A   1      44.733  33.693  25.822  1.00  0.00     0.127 S 
ATOM     47  O   UNL A   1      45.762  34.688  25.534  1.00  0.00    -0.237 OA
ATOM     48  O   UNL A   1      44.136  33.058  24.647  1.00  0.00    -0.237 OA
ATOM     49  O   UNL A   1      43.774  34.047  26.861  1.00  0.00    -0.744 OA
ENDBRANCH  43  46
ENDBRANCH  25  39
BRANCH  26  50
ATOM     50  C   UNL A   1      38.226  31.849  30.608  1.00  0.00     0.023 A 
ATOM     51  C   UNL A   1      37.557  31.925  29.366  1.00  0.00     0.012 A 
ATOM     52  C   UNL A   1      37.645  32.511  31.712  1.00  0.00     0.148 A 
ATOM     53  C   UNL A   1      36.343  32.613  29.238  1.00  0.00     0.002 A 
ATOM     54  C   UNL A   1      36.442  33.198  31.579  1.00  0.00     0.091 A 
ATOM     55  F   UNL A   1      38.226  32.385  32.912  1.00  0.00    -0.205 F 
ATOM     56  C   UNL A   1      35.780  33.242  30.345  1.00  0.00     0.022 A 
BRANCH  54  57
ATOM     57  S   UNL A   1      35.640  34.005  32.972  1.00  0.00     0.127 S 
ATOM     58  O   UNL A   1      36.668  34.954  33.402  1.00  0.00    -0.237 OA
ATOM     59  O   UNL A   1      34.472  34.611  32.338  1.00  0.00    -0.237 OA
ATOM     60  O   UNL A   1      35.357  32.949  33.935  1.00  0.00    -0.744 OA
ENDBRANCH  54  57
ENDBRANCH  26  50
BRANCH  38  61
ATOM     61  C   UNL A   1      43.020  28.935  33.412  1.00  0.00     0.023 A 
ATOM     62  C   UNL A   1      42.126  27.844  33.378  1.00  0.00     0.012 A 
ATOM     63  C   UNL A   1      43.702  29.224  34.604  1.00  0.00     0.148 A 
ATOM     64  C   UNL A   1      41.916  27.062  34.519  1.00  0.00     0.002 A 
ATOM     65  C   UNL A   1      43.531  28.414  35.716  1.00  0.00     0.091 A 
ATOM     66  F   UNL A   1      44.547  30.266  34.609  1.00  0.00    -0.205 F 
ATOM     67  C   UNL A   1      42.632  27.337  35.682  1.00  0.00     0.022 A 
BRANCH  65  68
ATOM     68  S   UNL A   1      44.529  28.630  37.190  1.00  0.00     0.127 S 
ATOM     69  O   UNL A   1      45.886  28.561  36.652  1.00  0.00    -0.237 OA
ATOM     70  O   UNL A   1      44.119  29.957  37.652  1.00  0.00    -0.237 OA
ATOM     71  O   UNL A   1      44.160  27.545  38.092  1.00  0.00    -0.744 OA
ENDBRANCH  65  68
ENDBRANCH  38  61
ENDBRANCH  12  13
ENDBRANCH   5   7
ENDBRANCH   2   3
ENDBRANCH   1   2
BRANCH   1  72
ATOM     72  C   UNL A   1      34.742  21.632  25.347  1.00  0.00     0.023 C 
BRANCH  72  73
ATOM     73  C   UNL A   1      33.619  22.444  24.704  1.00  0.00     0.116 C 
BRANCH  73  74
ATOM     74  N   UNL A   1      33.753  22.553  23.262  1.00  0.00    -0.351 N 
ATOM     75  C   UNL A   1      33.368  23.567  22.411  1.00  0.00     0.273 C 
ATOM     76  H   UNL A   1      34.186  21.784  22.825  1.00  0.00     0.163 HD
ATOM     77  O   UNL A   1      33.463  23.387  21.203  1.00  0.00    -0.267 OA
BRANCH  75  78
ATOM     78  C   UNL A   1      32.857  24.806  22.975  1.00  0.00     0.170 A 
ATOM     79  C   UNL A   1      31.559  25.281  23.013  1.00  0.00     0.145 A 
ATOM     80  N   UNL A   1      33.675  25.710  23.609  1.00  0.00    -0.125 NA
ATOM     81  N   UNL A   1      31.685  26.534  23.540  1.00  0.00    -0.237 N 
ATOM     82  N   UNL A   1      32.946  26.766  23.939  1.00  0.00    -0.066 NA
BRANCH  81  83
ATOM     83  C   UNL A   1      30.708  27.575  23.612  1.00  0.00     0.218 C 
ATOM     84  C   UNL A   1      31.216  28.916  24.200  1.00  0.00     0.296 C 
ATOM     85  C   UNL A   1      30.526  28.387  22.310  1.00  0.00     0.296 C 
ATOM     86  N   UNL A   1      30.545  29.638  23.099  1.00  0.00    -0.323 N 
ATOM     87  H   UNL A   1      30.941  30.491  22.705  1.00  0.00     0.348 HD
BRANCH  86  88
ATOM     88  C   UNL A   1      29.187  30.124  23.478  1.00  0.00     0.379 C 
BRANCH  88  89
ATOM     89  C   UNL A   1      28.783  31.612  23.563  1.00  0.00     0.438 C 
ATOM     90  F   UNL A   1      27.486  31.765  23.908  1.00  0.00    -0.165 F 
ATOM     91  F   UNL A   1      29.524  32.252  24.498  1.00  0.00    -0.165 F 
ATOM     92  F   UNL A   1      28.983  32.255  22.390  1.00  0.00    -0.165 F 
ENDBRANCH  88  89
ENDBRANCH  86  88
ENDBRANCH  81  83
ENDBRANCH  75  78
ENDBRANCH  73  74
ENDBRANCH  72  73
ENDBRANCH   1  72
TORSDOF 17
ENDMDL
MODEL 3
REMARK VINA RESULT:     -11.2      1.367      1.897
REMARK SMILES O=C(NCCCCNC(=O)c1cn(C2C[NH+](CC(F)(F)F)C2)nn1)c1ccc(-c2c3nc(c(-c4cccc(S(=O)(=O)[O-])c4F)c4ccc([nH]4)c(-c4cccc(S(=O)(=O)[O-])c4F)c4nc(c(-c5cccc(S(=O)(=O)[O-])c5F)c5ccc2[nH]5)C=C4)C=C3)cc1
REMARK SMILES IDX 5 1 4 2 3 3 1 4 2 5 25 7 26 8 87 9 27 10 86 11 28 12 29 13
REMARK SMILES IDX 30 14 80 15 31 16 85 17 79 18 81 19 32 20 84 21 78 22 77 23
REMARK SMILES IDX 33 25 65 26 45 27 64 28 46 29 49 30 63 31 82 32 47 33 48 34
REMARK SMILES IDX 62 36 83 37 50 38 34 39 35 40 43 41 36 42 38 43 44 44 37 45
REMARK SMILES IDX 39 46 40 47 41 48 42 49 66 50 67 51 75 52 68 53 70 54 76 55
REMARK SMILES IDX 69 56 71 57 72 58 73 59 74 60 51 61 52 62 60 63 53 64 55 65
REMARK SMILES IDX 61 66 54 67 56 68 57 69 58 70 59 71 6 72 7 73 8 74 9 75
REMARK SMILES IDX 10 77 11 78 12 79 24 80 13 81 23 82 14 83 15 84 22 85 16 86
REMARK SMILES IDX 17 88 18 89 19 90 20 91 21 92
REMARK H PARENT 3 6 81 24 49 35 8 76 16 87
REMARK Flexibility Score: inf
ROOT
ATOM      1  C   UNL A   1      34.041  30.017  27.256  1.00  0.00     0.023 C 
ENDROOT
BRANCH   1   2
ATOM      2  C   UNL A   1      34.357  31.479  27.567  1.00  0.00     0.116 C 
BRANCH   2   3
ATOM      3  N   UNL A   1      34.245  31.823  28.967  1.00  0.00    -0.352 N 
ATOM      4  O   UNL A   1      34.678  32.435  31.033  1.00  0.00    -0.269 OA
ATOM      5  C   UNL A   1      35.119  31.888  30.017  1.00  0.00     0.251 C 
ATOM      6  H   UNL A   1      33.327  32.069  29.224  1.00  0.00     0.163 HD
BRANCH   5   7
ATOM      7  C   UNL A   1      36.485  31.296  30.049  1.00  0.00     0.039 A 
ATOM      8  C   UNL A   1      37.688  32.002  29.993  1.00  0.00     0.014 A 
ATOM      9  C   UNL A   1      36.534  29.888  30.079  1.00  0.00     0.014 A 
ATOM     10  C   UNL A   1      38.897  31.320  29.872  1.00  0.00     0.010 A 
ATOM     11  C   UNL A   1      37.737  29.203  29.962  1.00  0.00     0.010 A 
ATOM     12  C   UNL A   1      38.916  29.923  29.813  1.00  0.00    -0.014 A 
BRANCH  12  13
ATOM     13  C   UNL A   1      40.209  29.244  29.764  1.00  0.00     0.031 A 
ATOM     14  C   UNL A   1      40.830  29.040  31.106  1.00  0.00     0.074 A 
ATOM     15  C   UNL A   1      40.733  28.721  28.635  1.00  0.00     0.049 A 
ATOM     16  N   UNL A   1      41.945  29.521  31.551  1.00  0.00    -0.248 NA
ATOM     17  C   UNL A   1      40.038  28.337  32.128  1.00  0.00     0.031 C 
ATOM     18  C   UNL A   1      40.090  28.598  27.322  1.00  0.00     0.029 A 
ATOM     19  N   UNL A   1      41.914  28.059  28.454  1.00  0.00    -0.354 N 
ATOM     20  C   UNL A   1      42.102  28.992  32.834  1.00  0.00     0.074 A 
ATOM     21  C   UNL A   1      40.830  28.431  33.197  1.00  0.00     0.031 C 
ATOM     22  C   UNL A   1      40.767  27.694  26.577  1.00  0.00     0.029 A 
ATOM     23  C   UNL A   1      41.956  27.280  27.299  1.00  0.00     0.049 A 
ATOM     24  H   UNL A   1      42.668  28.127  29.084  1.00  0.00     0.167 HD
ATOM     25  C   UNL A   1      43.333  28.847  33.398  1.00  0.00     0.034 A 
ATOM     26  C   UNL A   1      42.858  26.307  26.999  1.00  0.00     0.034 A 
ATOM     27  C   UNL A   1      44.315  29.652  32.722  1.00  0.00     0.049 A 
ATOM     28  C   UNL A   1      44.048  26.532  27.848  1.00  0.00     0.074 A 
ATOM     29  C   UNL A   1      44.491  31.001  32.491  1.00  0.00     0.029 A 
ATOM     30  N   UNL A   1      45.138  29.005  31.836  1.00  0.00    -0.354 N 
ATOM     31  N   UNL A   1      44.826  27.570  27.732  1.00  0.00    -0.248 NA
ATOM     32  C   UNL A   1      44.114  25.828  29.117  1.00  0.00     0.031 C 
ATOM     33  C   UNL A   1      45.022  31.076  31.172  1.00  0.00     0.029 A 
ATOM     34  C   UNL A   1      45.206  29.772  30.707  1.00  0.00     0.049 A 
ATOM     35  H   UNL A   1      45.597  28.146  31.986  1.00  0.00     0.167 HD
ATOM     36  C   UNL A   1      45.111  27.924  29.042  1.00  0.00     0.074 A 
ATOM     37  C   UNL A   1      44.729  26.763  29.845  1.00  0.00     0.031 C 
ATOM     38  C   UNL A   1      45.351  29.224  29.380  1.00  0.00     0.034 A 
BRANCH  25  39
ATOM     39  C   UNL A   1      43.757  27.697  34.293  1.00  0.00     0.023 A 
ATOM     40  C   UNL A   1      44.428  28.032  35.494  1.00  0.00     0.012 A 
ATOM     41  C   UNL A   1      43.815  26.343  33.891  1.00  0.00     0.148 A 
ATOM     42  C   UNL A   1      45.190  27.096  36.202  1.00  0.00     0.002 A 
ATOM     43  C   UNL A   1      44.518  25.401  34.633  1.00  0.00     0.091 A 
ATOM     44  F   UNL A   1      43.297  25.968  32.720  1.00  0.00    -0.205 F 
ATOM     45  C   UNL A   1      45.238  25.779  35.769  1.00  0.00     0.022 A 
BRANCH  43  46
ATOM     46  S   UNL A   1      44.591  23.672  34.142  1.00  0.00     0.127 S 
ATOM     47  O   UNL A   1      45.227  23.769  32.832  1.00  0.00    -0.237 OA
ATOM     48  O   UNL A   1      45.427  23.100  35.198  1.00  0.00    -0.237 OA
ATOM     49  O   UNL A   1      43.212  23.201  34.151  1.00  0.00    -0.744 OA
ENDBRANCH  43  46
ENDBRANCH  25  39
BRANCH  26  50
ATOM     50  C   UNL A   1      42.664  25.025  26.275  1.00  0.00     0.023 A 
ATOM     51  C   UNL A   1      43.616  24.596  25.324  1.00  0.00     0.012 A 
ATOM     52  C   UNL A   1      41.713  24.086  26.730  1.00  0.00     0.148 A 
ATOM     53  C   UNL A   1      43.633  23.272  24.864  1.00  0.00     0.002 A 
ATOM     54  C   UNL A   1      41.730  22.774  26.266  1.00  0.00     0.091 A 
ATOM     55  F   UNL A   1      40.853  24.456  27.687  1.00  0.00    -0.205 F 
ATOM     56  C   UNL A   1      42.696  22.358  25.340  1.00  0.00     0.022 A 
BRANCH  54  57
ATOM     57  S   UNL A   1      40.574  21.531  26.861  1.00  0.00     0.127 S 
ATOM     58  O   UNL A   1      40.849  21.529  28.298  1.00  0.00    -0.237 OA
ATOM     59  O   UNL A   1      39.287  22.109  26.484  1.00  0.00    -0.237 OA
ATOM     60  O   UNL A   1      40.933  20.294  26.179  1.00  0.00    -0.744 OA
ENDBRANCH  54  57
ENDBRANCH  26  50
BRANCH  38  61
ATOM     61  C   UNL A   1      45.547  30.225  28.273  1.00  0.00     0.023 A 
ATOM     62  C   UNL A   1      44.472  30.868  27.626  1.00  0.00     0.012 A 
ATOM     63  C   UNL A   1      46.856  30.673  28.035  1.00  0.00     0.148 A 
ATOM     64  C   UNL A   1      44.703  31.936  26.753  1.00  0.00     0.002 A 
ATOM     65  C   UNL A   1      47.077  31.765  27.210  1.00  0.00     0.091 A 
ATOM     66  F   UNL A   1      47.861  30.045  28.663  1.00  0.00    -0.205 F 
ATOM     67  C   UNL A   1      46.005  32.396  26.560  1.00  0.00     0.022 A 
BRANCH  65  68
ATOM     68  S   UNL A   1      48.707  32.490  27.038  1.00  0.00     0.127 S 
ATOM     69  O   UNL A   1      49.469  31.392  26.448  1.00  0.00    -0.237 OA
ATOM     70  O   UNL A   1      48.454  33.615  26.136  1.00  0.00    -0.237 OA
ATOM     71  O   UNL A   1      49.120  32.884  28.380  1.00  0.00    -0.744 OA
ENDBRANCH  65  68
ENDBRANCH  38  61
ENDBRANCH  12  13
ENDBRANCH   5   7
ENDBRANCH   2   3
ENDBRANCH   1   2
BRANCH   1  72
ATOM     72  C   UNL A   1      32.843  29.790  26.327  1.00  0.00     0.023 C 
BRANCH  72  73
ATOM     73  C   UNL A   1      33.172  29.294  24.919  1.00  0.00     0.116 C 
BRANCH  73  74
ATOM     74  N   UNL A   1      32.062  29.438  23.994  1.00  0.00    -0.351 N 
ATOM     75  C   UNL A   1      31.687  28.643  22.932  1.00  0.00     0.273 C 
ATOM     76  H   UNL A   1      31.488  30.223  24.150  1.00  0.00     0.163 HD
ATOM     77  O   UNL A   1      30.784  29.030  22.200  1.00  0.00    -0.267 OA
BRANCH  75  78
ATOM     78  C   UNL A   1      32.380  27.383  22.713  1.00  0.00     0.170 A 
ATOM     79  C   UNL A   1      32.120  26.136  23.250  1.00  0.00     0.145 A 
ATOM     80  N   UNL A   1      33.449  27.280  21.856  1.00  0.00    -0.125 NA
ATOM     81  N   UNL A   1      33.154  25.365  22.801  1.00  0.00    -0.237 N 
ATOM     82  N   UNL A   1      33.918  26.043  21.929  1.00  0.00    -0.066 NA
BRANCH  81  83
ATOM     83  C   UNL A   1      33.529  24.047  23.208  1.00  0.00     0.218 C 
ATOM     84  C   UNL A   1      32.759  23.492  24.433  1.00  0.00     0.296 C 
ATOM     85  C   UNL A   1      32.828  22.906  22.437  1.00  0.00     0.296 C 
ATOM     86  N   UNL A   1      32.574  22.212  23.719  1.00  0.00    -0.323 N 
ATOM     87  H   UNL A   1      31.730  21.652  23.844  1.00  0.00     0.348 HD
BRANCH  86  88
ATOM     88  C   UNL A   1      33.617  21.205  24.070  1.00  0.00     0.379 C 
BRANCH  88  89
ATOM     89  C   UNL A   1      33.320  19.757  24.514  1.00  0.00     0.438 C 
ATOM     90  F   UNL A   1      32.567  19.094  23.610  1.00  0.00    -0.165 F 
ATOM     91  F   UNL A   1      34.472  19.061  24.662  1.00  0.00    -0.165 F 
ATOM     92  F   UNL A   1      32.679  19.717  25.704  1.00  0.00    -0.165 F 
ENDBRANCH  88  89
ENDBRANCH  86  88
ENDBRANCH  81  83
ENDBRANCH  75  78
ENDBRANCH  73  74
ENDBRANCH  72  73
ENDBRANCH   1  72
TORSDOF 17
ENDMDL
