MODEL 1
REMARK VINA RESULT:     -11.9      0.000      0.000
REMARK SMILES CC(=O)Nc1nc(C[N@@H+]2CCO[C@@H](CC(=O)NCCCCNC(=O)c3ccc(-c4c5nc(c(-c6cccc(S(=O)(=O)[O-])c6F)c6ccc([nH]6)c(-c6cccc(S(=O)(=O)[O-])c6F)c6nc(c(-c7cccc(S(=O)(=O)[O-])c7F)c7ccc4[nH]7)C=C6)C=C5)cc3)C2)cs1
REMARK SMILES IDX 19 1 18 2 17 3 15 4 16 5 14 7 13 8 9 9 10 10 88 11 11 13
REMARK SMILES IDX 12 14 8 15 7 16 5 17 6 18 90 19 89 20 4 21 1 22 2 23 3 24
REMARK SMILES IDX 20 26 21 27 22 28 23 29 24 31 25 32 26 33 87 34 27 35 86 36
REMARK SMILES IDX 28 37 29 38 30 39 80 40 31 41 85 42 79 43 81 44 32 45 84 46
REMARK SMILES IDX 78 47 77 48 33 50 65 51 45 52 64 53 46 54 49 55 63 56 82 57
REMARK SMILES IDX 47 58 48 59 62 61 83 62 50 63 34 64 35 65 43 66 36 67 38 68
REMARK SMILES IDX 44 69 37 70 39 71 40 72 41 73 42 74 66 75 67 76 75 77 68 78
REMARK SMILES IDX 70 79 76 80 69 81 71 82 72 83 73 84 74 85 51 86 52 87 60 88
REMARK SMILES IDX 53 89 55 90 61 91 54 92 56 93 57 94 58 95 59 96
REMARK H PARENT 17 6 9 12 4 25 22 30 81 49 49 60
REMARK Flexibility Score: inf
ROOT
ATOM      1  C   UNL A   1      32.783  29.355  27.159  1.00  0.00     0.023 C 
ENDROOT
BRANCH   1   2
ATOM      2  C   UNL A   1      31.706  28.294  26.917  1.00  0.00     0.116 C 
BRANCH   2   3
ATOM      3  N   UNL A   1      31.538  28.002  25.501  1.00  0.00    -0.356 N 
ATOM      4  C   UNL A   1      31.135  26.852  24.884  1.00  0.00     0.222 C 
ATOM      5  O   UNL A   1      31.109  26.811  23.653  1.00  0.00    -0.275 OA
ATOM      6  H   UNL A   1      31.748  28.748  24.894  1.00  0.00     0.163 HD
BRANCH   4   7
ATOM      7  C   UNL A   1      30.754  25.638  25.702  1.00  0.00     0.138 C 
BRANCH   7   8
ATOM      8  C   UNL A   1      31.898  24.627  25.829  1.00  0.00     0.182 C 
ATOM      9  N   UNL A   1      32.789  22.444  24.826  1.00  0.00    -0.326 N 
ATOM     10  C   UNL A   1      34.057  23.143  24.649  1.00  0.00     0.291 C 
ATOM     11  C   UNL A   1      31.666  23.373  24.964  1.00  0.00     0.295 C 
ATOM     12  H   UNL A   1      32.669  21.954  23.940  1.00  0.00     0.348 HD
ATOM     13  C   UNL A   1      34.231  24.415  25.496  1.00  0.00     0.222 C 
ATOM     14  O   UNL A   1      33.104  25.293  25.400  1.00  0.00    -0.366 OA
BRANCH   9  15
ATOM     15  C   UNL A   1      32.753  21.274  25.707  1.00  0.00     0.320 C 
BRANCH  15  16
ATOM     16  C   UNL A   1      32.571  19.978  24.978  1.00  0.00     0.108 A 
ATOM     17  C   UNL A   1      32.445  17.776  24.903  1.00  0.00     0.189 A 
ATOM     18  N   UNL A   1      32.430  18.802  25.712  1.00  0.00    -0.219 NA
ATOM     19  S   UNL A   1      32.574  18.125  23.238  1.00  0.00    -0.105 S 
ATOM     20  C   UNL A   1      32.533  19.798  23.607  1.00  0.00     0.098 A 
BRANCH  17  21
ATOM     21  N   UNL A   1      32.381  16.447  25.189  1.00  0.00    -0.302 N 
ATOM     22  C   UNL A   1      34.840  16.083  25.156  1.00  0.00     0.114 C 
ATOM     23  C   UNL A   1      33.425  15.574  25.218  1.00  0.00     0.223 C 
ATOM     24  O   UNL A   1      33.184  14.375  25.382  1.00  0.00    -0.275 OA
ATOM     25  H   UNL A   1      31.491  16.080  25.394  1.00  0.00     0.172 HD
ENDBRANCH  17  21
ENDBRANCH  15  16
ENDBRANCH   9  15
ENDBRANCH   7   8
ENDBRANCH   4   7
ENDBRANCH   2   3
ENDBRANCH   1   2
BRANCH   1  26
ATOM     26  C   UNL A   1      32.341  30.794  26.972  1.00  0.00     0.023 C 
BRANCH  26  27
ATOM     27  C   UNL A   1      33.364  31.828  27.401  1.00  0.00     0.116 C 
BRANCH  27  28
ATOM     28  N   UNL A   1      32.832  33.184  27.498  1.00  0.00    -0.352 N 
ATOM     29  C   UNL A   1      33.221  34.181  28.363  1.00  0.00     0.251 C 
ATOM     30  H   UNL A   1      32.110  33.412  26.869  1.00  0.00     0.163 HD
ATOM     31  O   UNL A   1      32.638  35.261  28.387  1.00  0.00    -0.269 OA
BRANCH  29  32
ATOM     32  C   UNL A   1      34.329  33.900  29.296  1.00  0.00     0.039 A 
ATOM     33  C   UNL A   1      34.090  33.101  30.415  1.00  0.00     0.014 A 
ATOM     34  C   UNL A   1      35.624  34.313  28.973  1.00  0.00     0.014 A 
ATOM     35  C   UNL A   1      35.173  32.635  31.163  1.00  0.00     0.010 A 
ATOM     36  C   UNL A   1      36.699  33.764  29.653  1.00  0.00     0.010 A 
ATOM     37  C   UNL A   1      36.486  32.922  30.756  1.00  0.00    -0.014 A 
BRANCH  37  38
ATOM     38  C   UNL A   1      37.667  32.359  31.456  1.00  0.00     0.031 A 
ATOM     39  C   UNL A   1      38.441  31.241  30.815  1.00  0.00     0.074 A 
ATOM     40  C   UNL A   1      37.961  32.762  32.708  1.00  0.00     0.049 A 
ATOM     41  N   UNL A   1      39.415  30.523  31.308  1.00  0.00    -0.248 NA
ATOM     42  C   UNL A   1      38.035  30.846  29.454  1.00  0.00     0.031 C 
ATOM     43  C   UNL A   1      37.223  33.771  33.474  1.00  0.00     0.029 A 
ATOM     44  N   UNL A   1      38.941  32.345  33.575  1.00  0.00    -0.354 N 
ATOM     45  C   UNL A   1      39.699  29.562  30.347  1.00  0.00     0.074 A 
ATOM     46  C   UNL A   1      38.769  29.761  29.257  1.00  0.00     0.031 C 
ATOM     47  C   UNL A   1      37.782  33.899  34.689  1.00  0.00     0.029 A 
ATOM     48  C   UNL A   1      38.897  32.965  34.801  1.00  0.00     0.049 A 
ATOM     49  H   UNL A   1      39.613  31.664  33.339  1.00  0.00     0.167 HD
ATOM     50  C   UNL A   1      40.672  28.623  30.348  1.00  0.00     0.034 A 
ATOM     51  C   UNL A   1      39.669  32.796  35.894  1.00  0.00     0.034 A 
ATOM     52  C   UNL A   1      41.646  28.486  31.395  1.00  0.00     0.049 A 
ATOM     53  C   UNL A   1      40.797  31.802  35.838  1.00  0.00     0.074 A 
ATOM     54  C   UNL A   1      42.744  27.648  31.443  1.00  0.00     0.029 A 
ATOM     55  N   UNL A   1      41.643  29.217  32.573  1.00  0.00    -0.354 N 
ATOM     56  N   UNL A   1      41.156  31.016  34.852  1.00  0.00    -0.248 NA
ATOM     57  C   UNL A   1      41.649  31.693  37.032  1.00  0.00     0.031 C 
ATOM     58  C   UNL A   1      43.406  27.870  32.655  1.00  0.00     0.029 A 
ATOM     59  C   UNL A   1      42.722  28.851  33.357  1.00  0.00     0.049 A 
ATOM     60  H   UNL A   1      40.974  29.896  32.816  1.00  0.00     0.167 HD
ATOM     61  C   UNL A   1      42.290  30.344  35.291  1.00  0.00     0.074 A 
ATOM     62  C   UNL A   1      42.573  30.831  36.626  1.00  0.00     0.031 C 
ATOM     63  C   UNL A   1      43.020  29.395  34.657  1.00  0.00     0.034 A 
BRANCH  50  64
ATOM     64  C   UNL A   1      40.777  27.727  29.144  1.00  0.00     0.023 A 
ATOM     65  C   UNL A   1      39.959  26.582  29.063  1.00  0.00     0.012 A 
ATOM     66  C   UNL A   1      41.649  28.031  28.081  1.00  0.00     0.148 A 
ATOM     67  C   UNL A   1      40.033  25.732  27.962  1.00  0.00     0.002 A 
ATOM     68  C   UNL A   1      41.685  27.202  26.966  1.00  0.00     0.091 A 
ATOM     69  F   UNL A   1      42.438  29.110  28.188  1.00  0.00    -0.205 F 
ATOM     70  C   UNL A   1      40.887  26.047  26.910  1.00  0.00     0.022 A 
BRANCH  68  71
ATOM     71  S   UNL A   1      42.700  27.562  25.529  1.00  0.00     0.127 S 
ATOM     72  O   UNL A   1      42.089  28.795  25.036  1.00  0.00    -0.237 OA
ATOM     73  O   UNL A   1      44.026  27.736  26.122  1.00  0.00    -0.237 OA
ATOM     74  O   UNL A   1      42.577  26.406  24.654  1.00  0.00    -0.744 OA
ENDBRANCH  68  71
ENDBRANCH  50  64
BRANCH  51  75
ATOM     75  C   UNL A   1      39.458  33.653  37.095  1.00  0.00     0.023 A 
ATOM     76  C   UNL A   1      39.917  34.985  37.074  1.00  0.00     0.012 A 
ATOM     77  C   UNL A   1      38.780  33.179  38.236  1.00  0.00     0.148 A 
ATOM     78  C   UNL A   1      39.729  35.821  38.175  1.00  0.00     0.002 A 
ATOM     79  C   UNL A   1      38.553  34.033  39.310  1.00  0.00     0.091 A 
ATOM     80  F   UNL A   1      38.365  31.905  38.245  1.00  0.00    -0.205 F 
ATOM     81  C   UNL A   1      39.039  35.350  39.287  1.00  0.00     0.022 A 
BRANCH  79  82
ATOM     82  S   UNL A   1      37.560  33.548  40.727  1.00  0.00     0.127 S 
ATOM     83  O   UNL A   1      36.355  33.030  40.086  1.00  0.00    -0.237 OA
ATOM     84  O   UNL A   1      38.405  32.536  41.362  1.00  0.00    -0.237 OA
ATOM     85  O   UNL A   1      37.394  34.763  41.514  1.00  0.00    -0.744 OA
ENDBRANCH  79  82
ENDBRANCH  51  75
BRANCH  63  86
ATOM     86  C   UNL A   1      44.214  28.832  35.378  1.00  0.00     0.023 A 
ATOM     87  C   UNL A   1      45.473  29.440  35.213  1.00  0.00     0.012 A 
ATOM     88  C   UNL A   1      44.069  27.772  36.294  1.00  0.00     0.148 A 
ATOM     89  C   UNL A   1      46.577  28.988  35.933  1.00  0.00     0.002 A 
ATOM     90  C   UNL A   1      45.164  27.354  37.040  1.00  0.00     0.091 A 
ATOM     91  F   UNL A   1      42.865  27.196  36.421  1.00  0.00    -0.205 F 
ATOM     92  C   UNL A   1      46.421  27.955  36.855  1.00  0.00     0.022 A 
BRANCH  90  93
ATOM     93  S   UNL A   1      45.032  26.096  38.316  1.00  0.00     0.127 S 
ATOM     94  O   UNL A   1      44.025  26.675  39.203  1.00  0.00    -0.237 OA
ATOM     95  O   UNL A   1      44.579  24.929  37.558  1.00  0.00    -0.237 OA
ATOM     96  O   UNL A   1      46.367  25.962  38.884  1.00  0.00    -0.744 OA
ENDBRANCH  90  93
ENDBRANCH  63  86
ENDBRANCH  37  38
ENDBRANCH  29  32
ENDBRANCH  27  28
ENDBRANCH  26  27
ENDBRANCH   1  26
TORSDOF 18
ENDMDL
MODEL 2
REMARK VINA RESULT:     -11.7      6.127     11.757
REMARK SMILES CC(=O)Nc1nc(C[N@@H+]2CCO[C@@H](CC(=O)NCCCCNC(=O)c3ccc(-c4c5nc(c(-c6cccc(S(=O)(=O)[O-])c6F)c6ccc([nH]6)c(-c6cccc(S(=O)(=O)[O-])c6F)c6nc(c(-c7cccc(S(=O)(=O)[O-])c7F)c7ccc4[nH]7)C=C6)C=C5)cc3)C2)cs1
REMARK SMILES IDX 19 1 18 2 17 3 15 4 16 5 14 7 13 8 9 9 10 10 88 11 11 13
REMARK SMILES IDX 12 14 8 15 7 16 5 17 6 18 90 19 89 20 4 21 1 22 2 23 3 24
REMARK SMILES IDX 20 26 21 27 22 28 23 29 24 31 25 32 26 33 87 34 27 35 86 36
REMARK SMILES IDX 28 37 29 38 30 39 80 40 31 41 85 42 79 43 81 44 32 45 84 46
REMARK SMILES IDX 78 47 77 48 33 50 65 51 45 52 64 53 46 54 49 55 63 56 82 57
REMARK SMILES IDX 47 58 48 59 62 61 83 62 50 63 34 64 35 65 43 66 36 67 38 68
REMARK SMILES IDX 44 69 37 70 39 71 40 72 41 73 42 74 66 75 67 76 75 77 68 78
REMARK SMILES IDX 70 79 76 80 69 81 71 82 72 83 73 84 74 85 51 86 52 87 60 88
REMARK SMILES IDX 53 89 55 90 61 91 54 92 56 93 57 94 58 95 59 96
REMARK H PARENT 17 6 9 12 4 25 22 30 81 49 49 60
REMARK Flexibility Score: inf
ROOT
ATOM      1  C   UNL A   1      36.676  22.655  23.467  1.00  0.00     0.023 C 
ENDROOT
BRANCH   1   2
ATOM      2  C   UNL A   1      35.448  23.471  23.879  1.00  0.00     0.116 C 
BRANCH   2   3
ATOM      3  N   UNL A   1      34.500  22.678  24.648  1.00  0.00    -0.356 N 
ATOM      4  C   UNL A   1      33.144  22.574  24.529  1.00  0.00     0.222 C 
ATOM      5  O   UNL A   1      32.526  21.869  25.328  1.00  0.00    -0.275 OA
ATOM      6  H   UNL A   1      34.898  22.133  25.364  1.00  0.00     0.163 HD
BRANCH   4   7
ATOM      7  C   UNL A   1      32.409  23.337  23.449  1.00  0.00     0.138 C 
BRANCH   7   8
ATOM      8  C   UNL A   1      32.393  24.848  23.698  1.00  0.00     0.182 C 
ATOM      9  N   UNL A   1      30.806  26.852  23.882  1.00  0.00    -0.326 N 
ATOM     10  C   UNL A   1      31.435  27.122  25.170  1.00  0.00     0.291 C 
ATOM     11  C   UNL A   1      31.001  25.464  23.459  1.00  0.00     0.295 C 
ATOM     12  H   UNL A   1      29.813  26.971  24.080  1.00  0.00     0.348 HD
ATOM     13  C   UNL A   1      32.802  26.453  25.388  1.00  0.00     0.222 C 
ATOM     14  O   UNL A   1      32.784  25.057  25.072  1.00  0.00    -0.366 OA
BRANCH   9  15
ATOM     15  C   UNL A   1      30.920  27.857  22.823  1.00  0.00     0.320 C 
BRANCH  15  16
ATOM     16  C   UNL A   1      29.644  28.593  22.552  1.00  0.00     0.108 A 
ATOM     17  C   UNL A   1      28.493  30.256  21.668  1.00  0.00     0.189 A 
ATOM     18  N   UNL A   1      29.651  29.650  21.645  1.00  0.00    -0.219 NA
ATOM     19  S   UNL A   1      27.315  29.598  22.713  1.00  0.00    -0.105 S 
ATOM     20  C   UNL A   1      28.408  28.344  23.123  1.00  0.00     0.098 A 
BRANCH  17  21
ATOM     21  N   UNL A   1      28.077  31.356  20.984  1.00  0.00    -0.302 N 
ATOM     22  C   UNL A   1      28.776  32.991  22.722  1.00  0.00     0.114 C 
ATOM     23  C   UNL A   1      28.072  32.638  21.439  1.00  0.00     0.223 C 
ATOM     24  O   UNL A   1      27.554  33.510  20.735  1.00  0.00    -0.275 OA
ATOM     25  H   UNL A   1      27.746  31.209  20.069  1.00  0.00     0.172 HD
ENDBRANCH  17  21
ENDBRANCH  15  16
ENDBRANCH   9  15
ENDBRANCH   7   8
ENDBRANCH   4   7
ENDBRANCH   2   3
ENDBRANCH   1   2
BRANCH   1  26
ATOM     26  C   UNL A   1      36.877  21.349  24.214  1.00  0.00     0.023 C 
BRANCH  26  27
ATOM     27  C   UNL A   1      37.612  21.485  25.533  1.00  0.00     0.116 C 
BRANCH  27  28
ATOM     28  N   UNL A   1      38.640  20.470  25.747  1.00  0.00    -0.352 N 
ATOM     29  C   UNL A   1      39.866  20.627  26.351  1.00  0.00     0.251 C 
ATOM     30  H   UNL A   1      38.430  19.565  25.420  1.00  0.00     0.163 HD
ATOM     31  O   UNL A   1      40.670  19.701  26.402  1.00  0.00    -0.269 OA
BRANCH  29  32
ATOM     32  C   UNL A   1      40.210  21.955  26.894  1.00  0.00     0.039 A 
ATOM     33  C   UNL A   1      41.117  22.045  27.950  1.00  0.00     0.014 A 
ATOM     34  C   UNL A   1      39.739  23.104  26.255  1.00  0.00     0.014 A 
ATOM     35  C   UNL A   1      41.628  23.294  28.306  1.00  0.00     0.010 A 
ATOM     36  C   UNL A   1      40.325  24.327  26.540  1.00  0.00     0.010 A 
ATOM     37  C   UNL A   1      41.273  24.436  27.569  1.00  0.00    -0.014 A 
BRANCH  37  38
ATOM     38  C   UNL A   1      41.873  25.766  27.842  1.00  0.00     0.031 A 
ATOM     39  C   UNL A   1      41.064  26.804  28.568  1.00  0.00     0.074 A 
ATOM     40  C   UNL A   1      43.080  26.076  27.330  1.00  0.00     0.049 A 
ATOM     41  N   UNL A   1      41.344  28.061  28.791  1.00  0.00    -0.248 NA
ATOM     42  C   UNL A   1      39.743  26.387  29.072  1.00  0.00     0.031 C 
ATOM     43  C   UNL A   1      43.919  25.184  26.524  1.00  0.00     0.029 A 
ATOM     44  N   UNL A   1      43.799  27.245  27.382  1.00  0.00    -0.354 N 
ATOM     45  C   UNL A   1      40.220  28.594  29.407  1.00  0.00     0.074 A 
ATOM     46  C   UNL A   1      39.236  27.537  29.488  1.00  0.00     0.031 C 
ATOM     47  C   UNL A   1      45.038  25.835  26.166  1.00  0.00     0.029 A 
ATOM     48  C   UNL A   1      44.987  27.196  26.691  1.00  0.00     0.049 A 
ATOM     49  H   UNL A   1      43.493  28.044  27.869  1.00  0.00     0.167 HD
ATOM     50  C   UNL A   1      40.033  29.840  29.899  1.00  0.00     0.034 A 
ATOM     51  C   UNL A   1      45.928  28.143  26.501  1.00  0.00     0.034 A 
ATOM     52  C   UNL A   1      41.044  30.859  29.892  1.00  0.00     0.049 A 
ATOM     53  C   UNL A   1      45.732  29.496  27.130  1.00  0.00     0.074 A 
ATOM     54  C   UNL A   1      41.004  32.116  30.468  1.00  0.00     0.029 A 
ATOM     55  N   UNL A   1      42.286  30.733  29.288  1.00  0.00    -0.354 N 
ATOM     56  N   UNL A   1      44.730  29.931  27.855  1.00  0.00    -0.248 NA
ATOM     57  C   UNL A   1      46.809  30.479  26.945  1.00  0.00     0.031 C 
ATOM     58  C   UNL A   1      42.222  32.752  30.208  1.00  0.00     0.029 A 
ATOM     59  C   UNL A   1      43.022  31.888  29.476  1.00  0.00     0.049 A 
ATOM     60  H   UNL A   1      42.597  29.938  28.797  1.00  0.00     0.167 HD
ATOM     61  C   UNL A   1      45.067  31.222  28.239  1.00  0.00     0.074 A 
ATOM     62  C   UNL A   1      46.378  31.494  27.684  1.00  0.00     0.031 C 
ATOM     63  C   UNL A   1      44.351  32.112  28.968  1.00  0.00     0.034 A 
BRANCH  50  64
ATOM     64  C   UNL A   1      38.714  30.138  30.558  1.00  0.00     0.023 A 
ATOM     65  C   UNL A   1      38.467  29.650  31.857  1.00  0.00     0.012 A 
ATOM     66  C   UNL A   1      37.738  30.925  29.918  1.00  0.00     0.148 A 
ATOM     67  C   UNL A   1      37.255  29.907  32.495  1.00  0.00     0.002 A 
ATOM     68  C   UNL A   1      36.549  31.214  30.578  1.00  0.00     0.091 A 
ATOM     69  F   UNL A   1      37.980  31.358  28.672  1.00  0.00    -0.205 F 
ATOM     70  C   UNL A   1      36.302  30.697  31.860  1.00  0.00     0.022 A 
BRANCH  68  71
ATOM     71  S   UNL A   1      35.289  32.282  29.872  1.00  0.00     0.127 S 
ATOM     72  O   UNL A   1      34.790  31.463  28.769  1.00  0.00    -0.237 OA
ATOM     73  O   UNL A   1      34.354  32.437  30.987  1.00  0.00    -0.237 OA
ATOM     74  O   UNL A   1      35.975  33.506  29.486  1.00  0.00    -0.744 OA
ENDBRANCH  68  71
ENDBRANCH  50  64
BRANCH  51  75
ATOM     75  C   UNL A   1      47.178  27.815  25.758  1.00  0.00     0.023 A 
ATOM     76  C   UNL A   1      48.278  27.295  26.468  1.00  0.00     0.012 A 
ATOM     77  C   UNL A   1      47.276  27.974  24.362  1.00  0.00     0.148 A 
ATOM     78  C   UNL A   1      49.462  26.966  25.808  1.00  0.00     0.002 A 
ATOM     79  C   UNL A   1      48.442  27.597  23.703  1.00  0.00     0.091 A 
ATOM     80  F   UNL A   1      46.225  28.484  23.704  1.00  0.00    -0.205 F 
ATOM     81  C   UNL A   1      49.541  27.106  24.426  1.00  0.00     0.022 A 
BRANCH  79  82
ATOM     82  S   UNL A   1      48.582  27.621  21.912  1.00  0.00     0.127 S 
ATOM     83  O   UNL A   1      48.864  26.221  21.613  1.00  0.00    -0.237 OA
ATOM     84  O   UNL A   1      47.253  28.083  21.506  1.00  0.00    -0.237 OA
ATOM     85  O   UNL A   1      49.654  28.565  21.622  1.00  0.00    -0.744 OA
ENDBRANCH  79  82
ENDBRANCH  51  75
BRANCH  63  86
ATOM     86  C   UNL A   1      44.970  33.457  29.236  1.00  0.00     0.023 A 
ATOM     87  C   UNL A   1      45.823  33.618  30.344  1.00  0.00     0.012 A 
ATOM     88  C   UNL A   1      44.788  34.526  28.338  1.00  0.00     0.148 A 
ATOM     89  C   UNL A   1      46.473  34.831  30.567  1.00  0.00     0.002 A 
ATOM     90  C   UNL A   1      45.472  35.718  28.542  1.00  0.00     0.091 A 
ATOM     91  F   UNL A   1      43.956  34.356  27.300  1.00  0.00    -0.205 F 
ATOM     92  C   UNL A   1      46.307  35.876  29.660  1.00  0.00     0.022 A 
BRANCH  90  93
ATOM     93  S   UNL A   1      45.392  37.082  27.375  1.00  0.00     0.127 S 
ATOM     94  O   UNL A   1      45.962  38.178  28.157  1.00  0.00    -0.237 OA
ATOM     95  O   UNL A   1      46.240  36.608  26.281  1.00  0.00    -0.237 OA
ATOM     96  O   UNL A   1      43.985  37.227  27.026  1.00  0.00    -0.744 OA
ENDBRANCH  90  93
ENDBRANCH  63  86
ENDBRANCH  37  38
ENDBRANCH  29  32
ENDBRANCH  27  28
ENDBRANCH  26  27
ENDBRANCH   1  26
TORSDOF 18
ENDMDL
MODEL 3
REMARK VINA RESULT:     -11.6      0.868      7.782
REMARK SMILES CC(=O)Nc1nc(C[N@@H+]2CCO[C@@H](CC(=O)NCCCCNC(=O)c3ccc(-c4c5nc(c(-c6cccc(S(=O)(=O)[O-])c6F)c6ccc([nH]6)c(-c6cccc(S(=O)(=O)[O-])c6F)c6nc(c(-c7cccc(S(=O)(=O)[O-])c7F)c7ccc4[nH]7)C=C6)C=C5)cc3)C2)cs1
REMARK SMILES IDX 19 1 18 2 17 3 15 4 16 5 14 7 13 8 9 9 10 10 88 11 11 13
REMARK SMILES IDX 12 14 8 15 7 16 5 17 6 18 90 19 89 20 4 21 1 22 2 23 3 24
REMARK SMILES IDX 20 26 21 27 22 28 23 29 24 31 25 32 26 33 87 34 27 35 86 36
REMARK SMILES IDX 28 37 29 38 30 39 80 40 31 41 85 42 79 43 81 44 32 45 84 46
REMARK SMILES IDX 78 47 77 48 33 50 65 51 45 52 64 53 46 54 49 55 63 56 82 57
REMARK SMILES IDX 47 58 48 59 62 61 83 62 50 63 34 64 35 65 43 66 36 67 38 68
REMARK SMILES IDX 44 69 37 70 39 71 40 72 41 73 42 74 66 75 67 76 75 77 68 78
REMARK SMILES IDX 70 79 76 80 69 81 71 82 72 83 73 84 74 85 51 86 52 87 60 88
REMARK SMILES IDX 53 89 55 90 61 91 54 92 56 93 57 94 58 95 59 96
REMARK H PARENT 17 6 9 12 4 25 22 30 81 49 49 60
REMARK Flexibility Score: inf
ROOT
ATOM      1  C   UNL A   1      33.028  29.733  26.148  1.00  0.00     0.023 C 
ENDROOT
BRANCH   1   2
ATOM      2  C   UNL A   1      33.306  28.553  27.083  1.00  0.00     0.116 C 
BRANCH   2   3
ATOM      3  N   UNL A   1      32.227  27.577  27.063  1.00  0.00    -0.356 N 
ATOM      4  C   UNL A   1      32.127  26.393  26.389  1.00  0.00     0.222 C 
ATOM      5  O   UNL A   1      31.088  25.738  26.483  1.00  0.00    -0.275 OA
ATOM      6  H   UNL A   1      31.449  27.805  27.621  1.00  0.00     0.163 HD
BRANCH   4   7
ATOM      7  C   UNL A   1      33.265  25.908  25.519  1.00  0.00     0.138 C 
BRANCH   7   8
ATOM      8  C   UNL A   1      33.691  24.474  25.846  1.00  0.00     0.182 C 
ATOM      9  N   UNL A   1      33.623  22.084  24.924  1.00  0.00    -0.326 N 
ATOM     10  C   UNL A   1      35.067  22.057  25.128  1.00  0.00     0.291 C 
ATOM     11  C   UNL A   1      33.107  23.452  24.851  1.00  0.00     0.295 C 
ATOM     12  H   UNL A   1      33.512  21.669  23.999  1.00  0.00     0.348 HD
ATOM     13  C   UNL A   1      35.617  23.121  26.092  1.00  0.00     0.222 C 
ATOM     14  O   UNL A   1      35.132  24.435  25.789  1.00  0.00    -0.366 OA
BRANCH   9  15
ATOM     15  C   UNL A   1      32.793  21.134  25.669  1.00  0.00     0.320 C 
BRANCH  15  16
ATOM     16  C   UNL A   1      32.585  19.832  24.959  1.00  0.00     0.108 A 
ATOM     17  C   UNL A   1      32.485  17.628  24.902  1.00  0.00     0.189 A 
ATOM     18  N   UNL A   1      32.507  18.658  25.706  1.00  0.00    -0.219 NA
ATOM     19  S   UNL A   1      32.505  17.970  23.231  1.00  0.00    -0.105 S 
ATOM     20  C   UNL A   1      32.463  19.644  23.594  1.00  0.00     0.098 A 
BRANCH  17  21
ATOM     21  N   UNL A   1      32.459  16.300  25.197  1.00  0.00    -0.302 N 
ATOM     22  C   UNL A   1      34.927  16.008  25.185  1.00  0.00     0.114 C 
ATOM     23  C   UNL A   1      33.527  15.459  25.241  1.00  0.00     0.223 C 
ATOM     24  O   UNL A   1      33.321  14.254  25.412  1.00  0.00    -0.275 OA
ATOM     25  H   UNL A   1      31.578  15.909  25.399  1.00  0.00     0.172 HD
ENDBRANCH  17  21
ENDBRANCH  15  16
ENDBRANCH   9  15
ENDBRANCH   7   8
ENDBRANCH   4   7
ENDBRANCH   2   3
ENDBRANCH   1   2
BRANCH   1  26
ATOM     26  C   UNL A   1      32.422  30.960  26.803  1.00  0.00     0.023 C 
BRANCH  26  27
ATOM     27  C   UNL A   1      33.423  31.863  27.498  1.00  0.00     0.116 C 
BRANCH  27  28
ATOM     28  N   UNL A   1      32.950  33.229  27.699  1.00  0.00    -0.352 N 
ATOM     29  C   UNL A   1      33.403  34.151  28.615  1.00  0.00     0.251 C 
ATOM     30  H   UNL A   1      32.221  33.527  27.108  1.00  0.00     0.163 HD
ATOM     31  O   UNL A   1      32.866  35.248  28.727  1.00  0.00    -0.269 OA
BRANCH  29  32
ATOM     32  C   UNL A   1      34.523  33.765  29.495  1.00  0.00     0.039 A 
ATOM     33  C   UNL A   1      34.271  32.953  30.601  1.00  0.00     0.014 A 
ATOM     34  C   UNL A   1      35.831  34.093  29.130  1.00  0.00     0.014 A 
ATOM     35  C   UNL A   1      35.345  32.390  31.292  1.00  0.00     0.010 A 
ATOM     36  C   UNL A   1      36.889  33.450  29.752  1.00  0.00     0.010 A 
ATOM     37  C   UNL A   1      36.659  32.594  30.840  1.00  0.00    -0.014 A 
BRANCH  37  38
ATOM     38  C   UNL A   1      37.823  31.929  31.477  1.00  0.00     0.031 A 
ATOM     39  C   UNL A   1      38.356  32.463  32.777  1.00  0.00     0.074 A 
ATOM     40  C   UNL A   1      38.469  30.939  30.829  1.00  0.00     0.049 A 
ATOM     41  N   UNL A   1      39.434  32.118  33.430  1.00  0.00    -0.248 NA
ATOM     42  C   UNL A   1      37.603  33.564  33.404  1.00  0.00     0.031 C 
ATOM     43  C   UNL A   1      38.104  30.400  29.515  1.00  0.00     0.029 A 
ATOM     44  N   UNL A   1      39.593  30.231  31.173  1.00  0.00    -0.354 N 
ATOM     45  C   UNL A   1      39.517  32.990  34.507  1.00  0.00     0.074 A 
ATOM     46  C   UNL A   1      38.404  33.908  34.400  1.00  0.00     0.031 C 
ATOM     47  C   UNL A   1      38.981  29.444  29.171  1.00  0.00     0.029 A 
ATOM     48  C   UNL A   1      39.986  29.318  30.222  1.00  0.00     0.049 A 
ATOM     49  H   UNL A   1      40.074  30.364  32.022  1.00  0.00     0.167 HD
ATOM     50  C   UNL A   1      40.414  33.004  35.520  1.00  0.00     0.034 A 
ATOM     51  C   UNL A   1      41.039  28.476  30.201  1.00  0.00     0.034 A 
ATOM     52  C   UNL A   1      41.465  32.037  35.666  1.00  0.00     0.049 A 
ATOM     53  C   UNL A   1      41.975  28.456  31.380  1.00  0.00     0.074 A 
ATOM     54  C   UNL A   1      42.356  31.887  36.713  1.00  0.00     0.029 A 
ATOM     55  N   UNL A   1      41.760  31.048  34.741  1.00  0.00    -0.354 N 
ATOM     56  N   UNL A   1      41.940  29.179  32.473  1.00  0.00    -0.248 NA
ATOM     57  C   UNL A   1      43.077  27.482  31.339  1.00  0.00     0.031 C 
ATOM     58  C   UNL A   1      43.193  30.806  36.418  1.00  0.00     0.029 A 
ATOM     59  C   UNL A   1      42.819  30.281  35.191  1.00  0.00     0.049 A 
ATOM     60  H   UNL A   1      41.285  30.911  33.889  1.00  0.00     0.167 HD
ATOM     61  C   UNL A   1      42.990  28.728  33.264  1.00  0.00     0.074 A 
ATOM     62  C   UNL A   1      43.631  27.654  32.532  1.00  0.00     0.031 C 
ATOM     63  C   UNL A   1      43.400  29.175  34.476  1.00  0.00     0.034 A 
BRANCH  50  64
ATOM     64  C   UNL A   1      40.242  34.050  36.588  1.00  0.00     0.023 A 
ATOM     65  C   UNL A   1      40.598  35.385  36.308  1.00  0.00     0.012 A 
ATOM     66  C   UNL A   1      39.698  33.727  37.845  1.00  0.00     0.148 A 
ATOM     67  C   UNL A   1      40.451  36.377  37.276  1.00  0.00     0.002 A 
ATOM     68  C   UNL A   1      39.514  34.731  38.791  1.00  0.00     0.091 A 
ATOM     69  F   UNL A   1      39.390  32.447  38.102  1.00  0.00    -0.205 F 
ATOM     70  C   UNL A   1      39.901  36.052  38.512  1.00  0.00     0.022 A 
BRANCH  68  71
ATOM     71  S   UNL A   1      38.747  34.424  40.385  1.00  0.00     0.127 S 
ATOM     72  O   UNL A   1      37.584  33.622  40.005  1.00  0.00    -0.237 OA
ATOM     73  O   UNL A   1      39.791  33.684  41.094  1.00  0.00    -0.237 OA
ATOM     74  O   UNL A   1      38.451  35.735  40.944  1.00  0.00    -0.744 OA
ENDBRANCH  68  71
ENDBRANCH  50  64
BRANCH  51  75
ATOM     75  C   UNL A   1      41.210  27.523  29.068  1.00  0.00     0.023 A 
ATOM     76  C   UNL A   1      40.504  26.304  29.090  1.00  0.00     0.012 A 
ATOM     77  C   UNL A   1      42.026  27.824  27.960  1.00  0.00     0.148 A 
ATOM     78  C   UNL A   1      40.629  25.390  28.043  1.00  0.00     0.002 A 
ATOM     79  C   UNL A   1      42.106  26.930  26.897  1.00  0.00     0.091 A 
ATOM     80  F   UNL A   1      42.702  28.981  27.963  1.00  0.00    -0.205 F 
ATOM     81  C   UNL A   1      41.420  25.706  26.943  1.00  0.00     0.022 A 
BRANCH  79  82
ATOM     82  S   UNL A   1      42.998  27.315  25.386  1.00  0.00     0.127 S 
ATOM     83  O   UNL A   1      44.323  27.653  25.897  1.00  0.00    -0.237 OA
ATOM     84  O   UNL A   1      42.923  26.050  24.654  1.00  0.00    -0.237 OA
ATOM     85  O   UNL A   1      42.255  28.406  24.767  1.00  0.00    -0.744 OA
ENDBRANCH  79  82
ENDBRANCH  51  75
BRANCH  63  86
ATOM     86  C   UNL A   1      44.582  28.492  35.109  1.00  0.00     0.023 A 
ATOM     87  C   UNL A   1      45.876  28.996  34.882  1.00  0.00     0.012 A 
ATOM     88  C   UNL A   1      44.400  27.422  36.006  1.00  0.00     0.148 A 
ATOM     89  C   UNL A   1      46.978  28.431  35.522  1.00  0.00     0.002 A 
ATOM     90  C   UNL A   1      45.497  26.891  36.674  1.00  0.00     0.091 A 
ATOM     91  F   UNL A   1      43.160  26.946  36.193  1.00  0.00    -0.205 F 
ATOM     92  C   UNL A   1      46.787  27.388  36.427  1.00  0.00     0.022 A 
BRANCH  90  93
ATOM     93  S   UNL A   1      45.332  25.612  37.925  1.00  0.00     0.127 S 
ATOM     94  O   UNL A   1      46.723  25.402  38.322  1.00  0.00    -0.237 OA
ATOM     95  O   UNL A   1      44.501  26.268  38.935  1.00  0.00    -0.237 OA
ATOM     96  O   UNL A   1      44.693  24.484  37.260  1.00  0.00    -0.744 OA
ENDBRANCH  90  93
ENDBRANCH  63  86
ENDBRANCH  37  38
ENDBRANCH  29  32
ENDBRANCH  27  28
ENDBRANCH  26  27
ENDBRANCH   1  26
TORSDOF 18
ENDMDL
