MODEL 1
REMARK VINA RESULT:     -11.0      0.000      0.000
REMARK SMILES CSC[C@H](C(=O)NCCCCNC(=O)c1ccc(-c2c3nc(c(-c4cccc(S(=O)(=O)[O-])c4F)c4ccc([nH]4)c(-c4cccc(S(=O)(=O)[O-])c4F)c4nc(c(-c5cccc(S(=O)(=O)[O-])c5F)c5ccc2[nH]5)C=C4)C=C3)cc1)c1ccccc1
REMARK SMILES IDX 10 1 9 2 8 3 7 4 5 5 6 6 4 8 3 9 2 10 1 11 78 12 79 13 83 14
REMARK SMILES IDX 80 15 82 16 81 17 11 18 12 19 13 20 14 22 15 23 16 24 77 25
REMARK SMILES IDX 17 26 76 27 18 28 19 29 20 30 70 31 21 32 75 33 69 34 71 35
REMARK SMILES IDX 22 36 74 37 68 38 67 39 23 41 55 42 35 43 54 44 36 45 39 46
REMARK SMILES IDX 53 47 72 48 37 49 38 50 52 52 73 53 40 54 24 55 25 56 33 57
REMARK SMILES IDX 26 58 28 59 34 60 27 61 29 62 30 63 31 64 32 65 56 66 57 67
REMARK SMILES IDX 65 68 58 69 60 70 66 71 59 72 61 73 62 74 63 75 64 76 41 77
REMARK SMILES IDX 42 78 50 79 43 80 45 81 51 82 44 83 46 84 47 85 48 86 49 87
REMARK H PARENT 7 7 12 21 71 40 39 51
REMARK Flexibility Score: inf
ROOT
ATOM      1  C   UNL A   1      31.625  29.179  24.713  1.00  0.00     0.023 C 
ENDROOT
BRANCH   1   2
ATOM      2  C   UNL A   1      32.195  28.894  23.317  1.00  0.00     0.023 C 
BRANCH   2   3
ATOM      3  C   UNL A   1      33.436  28.004  23.229  1.00  0.00     0.116 C 
BRANCH   3   4
ATOM      4  N   UNL A   1      33.487  27.135  22.070  1.00  0.00    -0.356 N 
ATOM      5  C   UNL A   1      33.272  25.780  21.983  1.00  0.00     0.228 C 
ATOM      6  O   UNL A   1      33.269  25.297  20.849  1.00  0.00    -0.274 OA
ATOM      7  H   UNL A   1      33.710  27.580  21.221  1.00  0.00     0.163 HD
BRANCH   5   8
ATOM      8  C   UNL A   1      33.110  24.930  23.258  1.00  0.00     0.118 C 
BRANCH   8   9
ATOM      9  C   UNL A   1      31.902  23.967  23.216  1.00  0.00     0.087 C 
BRANCH   9  10
ATOM     10  S   UNL A   1      31.487  23.025  24.733  1.00  0.00    -0.164 SA
ATOM     11  C   UNL A   1      32.245  21.428  24.346  1.00  0.00     0.085 C 
ENDBRANCH   9  10
ENDBRANCH   8   9
BRANCH   8  12
ATOM     12  C   UNL A   1      34.433  24.312  23.758  1.00  0.00    -0.035 A 
ATOM     13  C   UNL A   1      35.168  23.358  23.035  1.00  0.00     0.004 A 
ATOM     14  C   UNL A   1      34.912  24.663  25.036  1.00  0.00     0.004 A 
ATOM     15  C   UNL A   1      36.313  22.759  23.572  1.00  0.00     0.000 A 
ATOM     16  C   UNL A   1      36.062  24.069  25.570  1.00  0.00     0.000 A 
ATOM     17  C   UNL A   1      36.757  23.110  24.842  1.00  0.00     0.000 A 
ENDBRANCH   8  12
ENDBRANCH   5   8
ENDBRANCH   3   4
ENDBRANCH   2   3
ENDBRANCH   1   2
BRANCH   1  18
ATOM     18  C   UNL A   1      32.590  29.631  25.808  1.00  0.00     0.116 C 
BRANCH  18  19
ATOM     19  N   UNL A   1      32.381  30.996  26.259  1.00  0.00    -0.352 N 
ATOM     20  C   UNL A   1      33.116  31.780  27.120  1.00  0.00     0.251 C 
ATOM     21  H   UNL A   1      31.581  31.432  25.887  1.00  0.00     0.163 HD
ATOM     22  O   UNL A   1      32.691  32.897  27.404  1.00  0.00    -0.269 OA
BRANCH  20  23
ATOM     23  C   UNL A   1      34.383  31.303  27.735  1.00  0.00     0.039 A 
ATOM     24  C   UNL A   1      35.399  32.238  27.960  1.00  0.00     0.014 A 
ATOM     25  C   UNL A   1      34.609  29.961  28.051  1.00  0.00     0.014 A 
ATOM     26  C   UNL A   1      36.602  31.843  28.557  1.00  0.00     0.010 A 
ATOM     27  C   UNL A   1      35.785  29.580  28.711  1.00  0.00     0.010 A 
ATOM     28  C   UNL A   1      36.797  30.516  28.974  1.00  0.00    -0.014 A 
BRANCH  28  29
ATOM     29  C   UNL A   1      38.034  30.135  29.716  1.00  0.00     0.031 A 
ATOM     30  C   UNL A   1      38.302  30.635  31.114  1.00  0.00     0.074 A 
ATOM     31  C   UNL A   1      38.951  29.350  29.113  1.00  0.00     0.049 A 
ATOM     32  N   UNL A   1      39.291  30.337  31.919  1.00  0.00    -0.248 NA
ATOM     33  C   UNL A   1      37.353  31.609  31.673  1.00  0.00     0.031 C 
ATOM     34  C   UNL A   1      38.869  28.868  27.732  1.00  0.00     0.029 A 
ATOM     35  N   UNL A   1      40.134  28.826  29.575  1.00  0.00    -0.354 N 
ATOM     36  C   UNL A   1      39.096  31.096  33.068  1.00  0.00     0.074 A 
ATOM     37  C   UNL A   1      37.914  31.900  32.838  1.00  0.00     0.031 C 
ATOM     38  C   UNL A   1      39.939  28.103  27.468  1.00  0.00     0.029 A 
ATOM     39  C   UNL A   1      40.797  28.055  28.647  1.00  0.00     0.049 A 
ATOM     40  H   UNL A   1      40.475  28.986  30.484  1.00  0.00     0.167 HD
ATOM     41  C   UNL A   1      39.815  31.108  34.218  1.00  0.00     0.034 A 
ATOM     42  C   UNL A   1      41.960  27.379  28.733  1.00  0.00     0.034 A 
ATOM     43  C   UNL A   1      40.980  30.295  34.457  1.00  0.00     0.049 A 
ATOM     44  C   UNL A   1      42.713  27.370  30.036  1.00  0.00     0.074 A 
ATOM     45  C   UNL A   1      41.726  30.180  35.617  1.00  0.00     0.029 A 
ATOM     46  N   UNL A   1      41.581  29.472  33.516  1.00  0.00    -0.354 N 
ATOM     47  N   UNL A   1      42.415  27.962  31.166  1.00  0.00    -0.248 NA
ATOM     48  C   UNL A   1      43.938  26.559  30.087  1.00  0.00     0.031 C 
ATOM     49  C   UNL A   1      42.797  29.314  35.368  1.00  0.00     0.029 A 
ATOM     50  C   UNL A   1      42.692  28.854  34.066  1.00  0.00     0.049 A 
ATOM     51  H   UNL A   1      41.265  29.346  32.593  1.00  0.00     0.167 HD
ATOM     52  C   UNL A   1      43.391  27.562  32.074  1.00  0.00     0.074 A 
ATOM     53  C   UNL A   1      44.274  26.659  31.366  1.00  0.00     0.031 C 
ATOM     54  C   UNL A   1      43.544  27.921  33.373  1.00  0.00     0.034 A 
BRANCH  41  55
ATOM     55  C   UNL A   1      39.333  31.999  35.338  1.00  0.00     0.023 A 
ATOM     56  C   UNL A   1      38.431  31.489  36.295  1.00  0.00     0.012 A 
ATOM     57  C   UNL A   1      39.822  33.312  35.484  1.00  0.00     0.148 A 
ATOM     58  C   UNL A   1      37.991  32.284  37.353  1.00  0.00     0.002 A 
ATOM     59  C   UNL A   1      39.417  34.082  36.570  1.00  0.00     0.091 A 
ATOM     60  F   UNL A   1      40.668  33.787  34.559  1.00  0.00    -0.205 F 
ATOM     61  C   UNL A   1      38.492  33.574  37.497  1.00  0.00     0.022 A 
BRANCH  59  62
ATOM     62  S   UNL A   1      40.068  35.725  36.894  1.00  0.00     0.127 S 
ATOM     63  O   UNL A   1      41.504  35.462  36.975  1.00  0.00    -0.237 OA
ATOM     64  O   UNL A   1      39.649  36.462  35.701  1.00  0.00    -0.237 OA
ATOM     65  O   UNL A   1      39.444  36.168  38.133  1.00  0.00    -0.744 OA
ENDBRANCH  59  62
ENDBRANCH  41  55
BRANCH  42  66
ATOM     66  C   UNL A   1      42.450  26.589  27.567  1.00  0.00     0.023 A 
ATOM     67  C   UNL A   1      43.290  27.199  26.615  1.00  0.00     0.012 A 
ATOM     68  C   UNL A   1      42.105  25.234  27.407  1.00  0.00     0.148 A 
ATOM     69  C   UNL A   1      43.745  26.486  25.504  1.00  0.00     0.002 A 
ATOM     70  C   UNL A   1      42.610  24.512  26.332  1.00  0.00     0.091 A 
ATOM     71  F   UNL A   1      41.296  24.673  28.319  1.00  0.00    -0.205 F 
ATOM     72  C   UNL A   1      43.413  25.141  25.369  1.00  0.00     0.022 A 
BRANCH  70  73
ATOM     73  S   UNL A   1      42.348  22.745  26.150  1.00  0.00     0.127 S 
ATOM     74  O   UNL A   1      43.034  22.217  27.326  1.00  0.00    -0.237 OA
ATOM     75  O   UNL A   1      40.889  22.651  26.194  1.00  0.00    -0.237 OA
ATOM     76  O   UNL A   1      42.934  22.391  24.864  1.00  0.00    -0.744 OA
ENDBRANCH  70  73
ENDBRANCH  42  66
BRANCH  54  77
ATOM     77  C   UNL A   1      44.684  27.295  34.138  1.00  0.00     0.023 A 
ATOM     78  C   UNL A   1      45.966  27.880  34.107  1.00  0.00     0.012 A 
ATOM     79  C   UNL A   1      44.474  26.141  34.920  1.00  0.00     0.148 A 
ATOM     80  C   UNL A   1      47.030  27.299  34.799  1.00  0.00     0.002 A 
ATOM     81  C   UNL A   1      45.524  25.599  35.650  1.00  0.00     0.091 A 
ATOM     82  F   UNL A   1      43.254  25.584  34.925  1.00  0.00    -0.205 F 
ATOM     83  C   UNL A   1      46.807  26.165  35.577  1.00  0.00     0.022 A 
BRANCH  81  84
ATOM     84  S   UNL A   1      45.304  24.200  36.756  1.00  0.00     0.127 S 
ATOM     85  O   UNL A   1      46.645  24.052  37.321  1.00  0.00    -0.237 OA
ATOM     86  O   UNL A   1      44.299  24.700  37.694  1.00  0.00    -0.237 OA
ATOM     87  O   UNL A   1      44.851  23.098  35.918  1.00  0.00    -0.744 OA
ENDBRANCH  81  84
ENDBRANCH  54  77
ENDBRANCH  28  29
ENDBRANCH  20  23
ENDBRANCH  18  19
ENDBRANCH   1  18
TORSDOF 17
ENDMDL
MODEL 2
REMARK VINA RESULT:     -10.9      5.245     10.357
REMARK SMILES CSC[C@H](C(=O)NCCCCNC(=O)c1ccc(-c2c3nc(c(-c4cccc(S(=O)(=O)[O-])c4F)c4ccc([nH]4)c(-c4cccc(S(=O)(=O)[O-])c4F)c4nc(c(-c5cccc(S(=O)(=O)[O-])c5F)c5ccc2[nH]5)C=C4)C=C3)cc1)c1ccccc1
REMARK SMILES IDX 10 1 9 2 8 3 7 4 5 5 6 6 4 8 3 9 2 10 1 11 78 12 79 13 83 14
REMARK SMILES IDX 80 15 82 16 81 17 11 18 12 19 13 20 14 22 15 23 16 24 77 25
REMARK SMILES IDX 17 26 76 27 18 28 19 29 20 30 70 31 21 32 75 33 69 34 71 35
REMARK SMILES IDX 22 36 74 37 68 38 67 39 23 41 55 42 35 43 54 44 36 45 39 46
REMARK SMILES IDX 53 47 72 48 37 49 38 50 52 52 73 53 40 54 24 55 25 56 33 57
REMARK SMILES IDX 26 58 28 59 34 60 27 61 29 62 30 63 31 64 32 65 56 66 57 67
REMARK SMILES IDX 65 68 58 69 60 70 66 71 59 72 61 73 62 74 63 75 64 76 41 77
REMARK SMILES IDX 42 78 50 79 43 80 45 81 51 82 44 83 46 84 47 85 48 86 49 87
REMARK H PARENT 7 7 12 21 71 40 39 51
REMARK Flexibility Score: inf
ROOT
ATOM      1  C   UNL A   1      35.660  21.373  25.091  1.00  0.00     0.023 C 
ENDROOT
BRANCH   1   2
ATOM      2  C   UNL A   1      34.554  22.404  24.833  1.00  0.00     0.023 C 
BRANCH   2   3
ATOM      3  C   UNL A   1      34.433  23.571  25.815  1.00  0.00     0.116 C 
BRANCH   3   4
ATOM      4  N   UNL A   1      33.236  23.565  26.632  1.00  0.00    -0.356 N 
ATOM      5  C   UNL A   1      32.089  24.312  26.509  1.00  0.00     0.228 C 
ATOM      6  O   UNL A   1      31.166  24.032  27.277  1.00  0.00    -0.274 OA
ATOM      7  H   UNL A   1      33.246  22.933  27.388  1.00  0.00     0.163 HD
BRANCH   5   8
ATOM      8  C   UNL A   1      32.016  25.471  25.495  1.00  0.00     0.118 C 
BRANCH   8   9
ATOM      9  C   UNL A   1      30.714  25.489  24.662  1.00  0.00     0.087 C 
BRANCH   9  10
ATOM     10  S   UNL A   1      30.726  26.359  23.048  1.00  0.00    -0.164 SA
ATOM     11  C   UNL A   1      29.558  27.698  23.387  1.00  0.00     0.085 C 
ENDBRANCH   9  10
ENDBRANCH   8   9
BRANCH   8  12
ATOM     12  C   UNL A   1      32.446  26.831  26.084  1.00  0.00    -0.035 A 
ATOM     13  C   UNL A   1      33.768  27.305  26.061  1.00  0.00     0.004 A 
ATOM     14  C   UNL A   1      31.487  27.626  26.743  1.00  0.00     0.004 A 
ATOM     15  C   UNL A   1      34.124  28.504  26.690  1.00  0.00     0.000 A 
ATOM     16  C   UNL A   1      31.842  28.829  27.365  1.00  0.00     0.000 A 
ATOM     17  C   UNL A   1      33.162  29.262  27.347  1.00  0.00     0.000 A 
ENDBRANCH   8  12
ENDBRANCH   5   8
ENDBRANCH   3   4
ENDBRANCH   2   3
ENDBRANCH   1   2
BRANCH   1  18
ATOM     18  C   UNL A   1      37.113  21.818  24.930  1.00  0.00     0.116 C 
BRANCH  18  19
ATOM     19  N   UNL A   1      38.089  20.839  25.377  1.00  0.00    -0.352 N 
ATOM     20  C   UNL A   1      39.274  20.999  26.060  1.00  0.00     0.251 C 
ATOM     21  H   UNL A   1      37.865  19.907  25.155  1.00  0.00     0.163 HD
ATOM     22  O   UNL A   1      39.971  20.008  26.265  1.00  0.00    -0.269 OA
BRANCH  20  23
ATOM     23  C   UNL A   1      39.745  22.332  26.521  1.00  0.00     0.039 A 
ATOM     24  C   UNL A   1      40.786  22.375  27.455  1.00  0.00     0.014 A 
ATOM     25  C   UNL A   1      39.161  23.527  26.095  1.00  0.00     0.014 A 
ATOM     26  C   UNL A   1      41.281  23.605  27.904  1.00  0.00     0.010 A 
ATOM     27  C   UNL A   1      39.702  24.757  26.492  1.00  0.00     0.010 A 
ATOM     28  C   UNL A   1      40.770  24.813  27.401  1.00  0.00    -0.014 A 
BRANCH  28  29
ATOM     29  C   UNL A   1      41.386  26.112  27.798  1.00  0.00     0.031 A 
ATOM     30  C   UNL A   1      42.800  26.467  27.411  1.00  0.00     0.074 A 
ATOM     31  C   UNL A   1      40.674  26.979  28.547  1.00  0.00     0.049 A 
ATOM     32  N   UNL A   1      43.454  27.584  27.613  1.00  0.00    -0.248 NA
ATOM     33  C   UNL A   1      43.589  25.432  26.727  1.00  0.00     0.031 C 
ATOM     34  C   UNL A   1      39.329  26.731  29.073  1.00  0.00     0.029 A 
ATOM     35  N   UNL A   1      40.979  28.238  29.007  1.00  0.00    -0.354 N 
ATOM     36  C   UNL A   1      44.731  27.382  27.103  1.00  0.00     0.074 A 
ATOM     37  C   UNL A   1      44.773  26.019  26.616  1.00  0.00     0.031 C 
ATOM     38  C   UNL A   1      38.918  27.808  29.760  1.00  0.00     0.029 A 
ATOM     39  C   UNL A   1      39.973  28.817  29.747  1.00  0.00     0.049 A 
ATOM     40  H   UNL A   1      41.837  28.685  28.823  1.00  0.00     0.167 HD
ATOM     41  C   UNL A   1      45.767  28.253  27.021  1.00  0.00     0.034 A 
ATOM     42  C   UNL A   1      39.900  30.023  30.344  1.00  0.00     0.034 A 
ATOM     43  C   UNL A   1      45.723  29.616  27.487  1.00  0.00     0.049 A 
ATOM     44  C   UNL A   1      41.045  30.988  30.196  1.00  0.00     0.074 A 
ATOM     45  C   UNL A   1      46.694  30.596  27.376  1.00  0.00     0.029 A 
ATOM     46  N   UNL A   1      44.660  30.188  28.169  1.00  0.00    -0.354 N 
ATOM     47  N   UNL A   1      42.179  30.834  29.559  1.00  0.00    -0.248 NA
ATOM     48  C   UNL A   1      40.877  32.313  30.811  1.00  0.00     0.031 C 
ATOM     49  C   UNL A   1      46.231  31.750  28.019  1.00  0.00     0.029 A 
ATOM     50  C   UNL A   1      44.953  31.503  28.492  1.00  0.00     0.049 A 
ATOM     51  H   UNL A   1      43.818  29.727  28.392  1.00  0.00     0.167 HD
ATOM     52  C   UNL A   1      42.842  32.053  29.660  1.00  0.00     0.074 A 
ATOM     53  C   UNL A   1      41.970  32.941  30.399  1.00  0.00     0.031 C 
ATOM     54  C   UNL A   1      44.066  32.399  29.189  1.00  0.00     0.034 A 
BRANCH  41  55
ATOM     55  C   UNL A   1      47.036  27.775  26.356  1.00  0.00     0.023 A 
ATOM     56  C   UNL A   1      48.020  27.119  27.124  1.00  0.00     0.012 A 
ATOM     57  C   UNL A   1      47.224  27.911  24.966  1.00  0.00     0.148 A 
ATOM     58  C   UNL A   1      49.189  26.645  26.528  1.00  0.00     0.002 A 
ATOM     59  C   UNL A   1      48.369  27.392  24.372  1.00  0.00     0.091 A 
ATOM     60  F   UNL A   1      46.286  28.549  24.252  1.00  0.00    -0.205 F 
ATOM     61  C   UNL A   1      49.358  26.771  25.153  1.00  0.00     0.022 A 
BRANCH  59  62
ATOM     62  S   UNL A   1      48.645  27.426  22.597  1.00  0.00     0.127 S 
ATOM     63  O   UNL A   1      47.505  28.218  22.137  1.00  0.00    -0.237 OA
ATOM     64  O   UNL A   1      49.938  28.104  22.499  1.00  0.00    -0.237 OA
ATOM     65  O   UNL A   1      48.653  26.035  22.163  1.00  0.00    -0.744 OA
ENDBRANCH  59  62
ENDBRANCH  41  55
BRANCH  42  66
ATOM     66  C   UNL A   1      38.663  30.418  31.076  1.00  0.00     0.023 A 
ATOM     67  C   UNL A   1      38.526  30.090  32.440  1.00  0.00     0.012 A 
ATOM     68  C   UNL A   1      37.632  31.131  30.436  1.00  0.00     0.148 A 
ATOM     69  C   UNL A   1      37.368  30.431  33.141  1.00  0.00     0.002 A 
ATOM     70  C   UNL A   1      36.509  31.521  31.155  1.00  0.00     0.091 A 
ATOM     71  F   UNL A   1      37.777  31.425  29.135  1.00  0.00    -0.205 F 
ATOM     72  C   UNL A   1      36.365  31.155  32.502  1.00  0.00     0.022 A 
BRANCH  70  73
ATOM     73  S   UNL A   1      35.232  32.570  30.453  1.00  0.00     0.127 S 
ATOM     74  O   UNL A   1      35.980  33.783  30.135  1.00  0.00    -0.237 OA
ATOM     75  O   UNL A   1      34.803  31.788  29.294  1.00  0.00    -0.237 OA
ATOM     76  O   UNL A   1      34.220  32.707  31.493  1.00  0.00    -0.744 OA
ENDBRANCH  70  73
ENDBRANCH  42  66
BRANCH  54  77
ATOM     77  C   UNL A   1      44.522  33.819  29.414  1.00  0.00     0.023 A 
ATOM     78  C   UNL A   1      45.115  34.190  30.638  1.00  0.00     0.012 A 
ATOM     79  C   UNL A   1      44.395  34.782  28.392  1.00  0.00     0.148 A 
ATOM     80  C   UNL A   1      45.525  35.506  30.859  1.00  0.00     0.002 A 
ATOM     81  C   UNL A   1      44.855  36.077  28.599  1.00  0.00     0.091 A 
ATOM     82  F   UNL A   1      43.812  34.421  27.240  1.00  0.00    -0.205 F 
ATOM     83  C   UNL A   1      45.404  36.445  29.838  1.00  0.00     0.022 A 
BRANCH  81  84
ATOM     84  S   UNL A   1      44.830  37.324  27.307  1.00  0.00     0.127 S 
ATOM     85  O   UNL A   1      45.741  36.748  26.318  1.00  0.00    -0.237 OA
ATOM     86  O   UNL A   1      43.423  37.330  26.908  1.00  0.00    -0.237 OA
ATOM     87  O   UNL A   1      45.284  38.558  27.934  1.00  0.00    -0.744 OA
ENDBRANCH  81  84
ENDBRANCH  54  77
ENDBRANCH  28  29
ENDBRANCH  20  23
ENDBRANCH  18  19
ENDBRANCH   1  18
TORSDOF 17
ENDMDL
MODEL 3
REMARK VINA RESULT:     -10.6      2.095      2.833
REMARK SMILES CSC[C@H](C(=O)NCCCCNC(=O)c1ccc(-c2c3nc(c(-c4cccc(S(=O)(=O)[O-])c4F)c4ccc([nH]4)c(-c4cccc(S(=O)(=O)[O-])c4F)c4nc(c(-c5cccc(S(=O)(=O)[O-])c5F)c5ccc2[nH]5)C=C4)C=C3)cc1)c1ccccc1
REMARK SMILES IDX 10 1 9 2 8 3 7 4 5 5 6 6 4 8 3 9 2 10 1 11 78 12 79 13 83 14
REMARK SMILES IDX 80 15 82 16 81 17 11 18 12 19 13 20 14 22 15 23 16 24 77 25
REMARK SMILES IDX 17 26 76 27 18 28 19 29 20 30 70 31 21 32 75 33 69 34 71 35
REMARK SMILES IDX 22 36 74 37 68 38 67 39 23 41 55 42 35 43 54 44 36 45 39 46
REMARK SMILES IDX 53 47 72 48 37 49 38 50 52 52 73 53 40 54 24 55 25 56 33 57
REMARK SMILES IDX 26 58 28 59 34 60 27 61 29 62 30 63 31 64 32 65 56 66 57 67
REMARK SMILES IDX 65 68 58 69 60 70 66 71 59 72 61 73 62 74 63 75 64 76 41 77
REMARK SMILES IDX 42 78 50 79 43 80 45 81 51 82 44 83 46 84 47 85 48 86 49 87
REMARK H PARENT 7 7 12 21 71 40 39 51
REMARK Flexibility Score: inf
ROOT
ATOM      1  C   UNL A   1      33.527  28.274  26.782  1.00  0.00     0.023 C 
ENDROOT
BRANCH   1   2
ATOM      2  C   UNL A   1      33.531  27.004  25.922  1.00  0.00     0.023 C 
BRANCH   2   3
ATOM      3  C   UNL A   1      32.529  26.928  24.769  1.00  0.00     0.116 C 
BRANCH   3   4
ATOM      4  N   UNL A   1      33.114  26.729  23.459  1.00  0.00    -0.356 N 
ATOM      5  C   UNL A   1      33.455  25.560  22.821  1.00  0.00     0.228 C 
ATOM      6  O   UNL A   1      33.838  25.663  21.654  1.00  0.00    -0.274 OA
ATOM      7  H   UNL A   1      33.297  27.552  22.950  1.00  0.00     0.163 HD
BRANCH   5   8
ATOM      8  C   UNL A   1      33.407  24.216  23.574  1.00  0.00     0.118 C 
BRANCH   8   9
ATOM      9  C   UNL A   1      32.602  23.119  22.841  1.00  0.00     0.087 C 
BRANCH   9  10
ATOM     10  S   UNL A   1      32.294  21.536  23.713  1.00  0.00    -0.164 SA
ATOM     11  C   UNL A   1      31.637  22.148  25.283  1.00  0.00     0.085 C 
ENDBRANCH   9  10
ENDBRANCH   8   9
BRANCH   8  12
ATOM     12  C   UNL A   1      34.776  23.773  24.131  1.00  0.00    -0.035 A 
ATOM     13  C   UNL A   1      35.232  24.096  25.420  1.00  0.00     0.004 A 
ATOM     14  C   UNL A   1      35.658  23.062  23.294  1.00  0.00     0.004 A 
ATOM     15  C   UNL A   1      36.519  23.750  25.846  1.00  0.00     0.000 A 
ATOM     16  C   UNL A   1      36.943  22.709  23.723  1.00  0.00     0.000 A 
ATOM     17  C   UNL A   1      37.377  23.062  24.996  1.00  0.00     0.000 A 
ENDBRANCH   8  12
ENDBRANCH   5   8
ENDBRANCH   3   4
ENDBRANCH   2   3
ENDBRANCH   1   2
BRANCH   1  18
ATOM     18  C   UNL A   1      33.922  29.594  26.121  1.00  0.00     0.116 C 
BRANCH  18  19
ATOM     19  N   UNL A   1      33.727  30.763  26.961  1.00  0.00    -0.352 N 
ATOM     20  C   UNL A   1      34.489  31.263  27.994  1.00  0.00     0.251 C 
ATOM     21  H   UNL A   1      32.917  31.283  26.759  1.00  0.00     0.163 HD
ATOM     22  O   UNL A   1      34.073  32.242  28.608  1.00  0.00    -0.269 OA
BRANCH  20  23
ATOM     23  C   UNL A   1      35.773  30.635  28.404  1.00  0.00     0.039 A 
ATOM     24  C   UNL A   1      36.927  30.966  27.684  1.00  0.00     0.014 A 
ATOM     25  C   UNL A   1      35.860  29.703  29.441  1.00  0.00     0.014 A 
ATOM     26  C   UNL A   1      38.164  30.419  28.043  1.00  0.00     0.010 A 
ATOM     27  C   UNL A   1      37.108  29.210  29.843  1.00  0.00     0.010 A 
ATOM     28  C   UNL A   1      38.277  29.562  29.151  1.00  0.00    -0.014 A 
BRANCH  28  29
ATOM     29  C   UNL A   1      39.618  29.082  29.596  1.00  0.00     0.031 A 
ATOM     30  C   UNL A   1      40.365  29.755  30.720  1.00  0.00     0.074 A 
ATOM     31  C   UNL A   1      40.192  28.042  28.957  1.00  0.00     0.049 A 
ATOM     32  N   UNL A   1      41.502  29.414  31.273  1.00  0.00    -0.248 NA
ATOM     33  C   UNL A   1      39.772  30.977  31.284  1.00  0.00     0.031 C 
ATOM     34  C   UNL A   1      39.629  27.353  27.793  1.00  0.00     0.029 A 
ATOM     35  N   UNL A   1      41.378  27.385  29.186  1.00  0.00    -0.354 N 
ATOM     36  C   UNL A   1      41.772  30.384  32.233  1.00  0.00     0.074 A 
ATOM     37  C   UNL A   1      40.696  31.350  32.159  1.00  0.00     0.031 C 
ATOM     38  C   UNL A   1      40.454  26.360  27.426  1.00  0.00     0.029 A 
ATOM     39  C   UNL A   1      41.616  26.351  28.309  1.00  0.00     0.049 A 
ATOM     40  H   UNL A   1      41.998  27.631  29.909  1.00  0.00     0.167 HD
ATOM     41  C   UNL A   1      42.801  30.455  33.113  1.00  0.00     0.034 A 
ATOM     42  C   UNL A   1      42.647  25.486  28.225  1.00  0.00     0.034 A 
ATOM     43  C   UNL A   1      43.863  29.484  33.202  1.00  0.00     0.049 A 
ATOM     44  C   UNL A   1      43.752  25.557  29.244  1.00  0.00     0.074 A 
ATOM     45  C   UNL A   1      44.904  29.429  34.112  1.00  0.00     0.029 A 
ATOM     46  N   UNL A   1      44.031  28.410  32.341  1.00  0.00    -0.354 N 
ATOM     47  N   UNL A   1      43.896  26.383  30.251  1.00  0.00    -0.248 NA
ATOM     48  C   UNL A   1      44.813  24.544  29.140  1.00  0.00     0.031 C 
ATOM     49  C   UNL A   1      45.720  28.341  33.781  1.00  0.00     0.029 A 
ATOM     50  C   UNL A   1      45.162  27.692  32.693  1.00  0.00     0.049 A 
ATOM     51  H   UNL A   1      43.434  28.190  31.590  1.00  0.00     0.167 HD
ATOM     52  C   UNL A   1      45.039  25.964  30.926  1.00  0.00     0.074 A 
ATOM     53  C   UNL A   1      45.533  24.798  30.225  1.00  0.00     0.031 C 
ATOM     54  C   UNL A   1      45.628  26.505  32.021  1.00  0.00     0.034 A 
BRANCH  41  55
ATOM     55  C   UNL A   1      42.809  31.603  34.093  1.00  0.00     0.023 A 
ATOM     56  C   UNL A   1      43.373  32.839  33.714  1.00  0.00     0.012 A 
ATOM     57  C   UNL A   1      42.200  31.484  35.359  1.00  0.00     0.148 A 
ATOM     58  C   UNL A   1      43.370  33.923  34.592  1.00  0.00     0.002 A 
ATOM     59  C   UNL A   1      42.157  32.583  36.209  1.00  0.00     0.091 A 
ATOM     60  F   UNL A   1      41.681  30.299  35.710  1.00  0.00    -0.205 F 
ATOM     61  C   UNL A   1      42.753  33.798  35.833  1.00  0.00     0.022 A 
BRANCH  59  62
ATOM     62  S   UNL A   1      41.312  32.554  37.794  1.00  0.00     0.127 S 
ATOM     63  O   UNL A   1      39.967  32.133  37.404  1.00  0.00    -0.237 OA
ATOM     64  O   UNL A   1      42.076  31.547  38.532  1.00  0.00    -0.237 OA
ATOM     65  O   UNL A   1      41.411  33.905  38.329  1.00  0.00    -0.744 OA
ENDBRANCH  59  62
ENDBRANCH  41  55
BRANCH  42  66
ATOM     66  C   UNL A   1      42.646  24.426  27.176  1.00  0.00     0.023 A 
ATOM     67  C   UNL A   1      43.429  24.593  26.016  1.00  0.00     0.012 A 
ATOM     68  C   UNL A   1      41.891  23.248  27.330  1.00  0.00     0.148 A 
ATOM     69  C   UNL A   1      43.429  23.624  25.012  1.00  0.00     0.002 A 
ATOM     70  C   UNL A   1      41.943  22.260  26.355  1.00  0.00     0.091 A 
ATOM     71  F   UNL A   1      41.145  23.113  28.436  1.00  0.00    -0.205 F 
ATOM     72  C   UNL A   1      42.694  22.454  25.186  1.00  0.00     0.022 A 
BRANCH  70  73
ATOM     73  S   UNL A   1      41.140  20.667  26.555  1.00  0.00     0.127 S 
ATOM     74  O   UNL A   1      41.461  20.340  27.941  1.00  0.00    -0.237 OA
ATOM     75  O   UNL A   1      39.738  21.003  26.309  1.00  0.00    -0.237 OA
ATOM     76  O   UNL A   1      41.733  19.798  25.547  1.00  0.00    -0.744 OA
ENDBRANCH  70  73
ENDBRANCH  42  66
BRANCH  54  77
ATOM     77  C   UNL A   1      46.851  25.812  32.567  1.00  0.00     0.023 A 
ATOM     78  C   UNL A   1      48.137  26.189  32.130  1.00  0.00     0.012 A 
ATOM     79  C   UNL A   1      46.726  24.806  33.547  1.00  0.00     0.148 A 
ATOM     80  C   UNL A   1      49.272  25.541  32.618  1.00  0.00     0.002 A 
ATOM     81  C   UNL A   1      47.864  24.204  34.070  1.00  0.00     0.091 A 
ATOM     82  F   UNL A   1      45.496  24.444  33.941  1.00  0.00    -0.205 F 
ATOM     83  C   UNL A   1      49.137  24.557  33.594  1.00  0.00     0.022 A 
BRANCH  81  84
ATOM     84  S   UNL A   1      47.788  22.998  35.400  1.00  0.00     0.127 S 
ATOM     85  O   UNL A   1      46.868  22.004  34.849  1.00  0.00    -0.237 OA
ATOM     86  O   UNL A   1      49.178  22.554  35.498  1.00  0.00    -0.237 OA
ATOM     87  O   UNL A   1      47.303  23.723  36.567  1.00  0.00    -0.744 OA
ENDBRANCH  81  84
ENDBRANCH  54  77
ENDBRANCH  28  29
ENDBRANCH  20  23
ENDBRANCH  18  19
ENDBRANCH   1  18
TORSDOF 17
ENDMDL
