MODEL 1
REMARK VINA RESULT:     -13.0      0.000      0.000
REMARK SMILES C[NH+]1CCC(NC(=O)N[C@H]2C=C[C@H](C(=O)NCCCCNC(=O)c3ccc(-c4c5nc(c(-c6cccc(S(=O)(=O)[O-])c6F)c6ccc([nH]6)c(-c6cccc(S(=O)(=O)[O-])c6F)c6nc(c(-c7cccc(S(=O)(=O)[O-])c7F)c7ccc4[nH]7)C=C6)C=C5)cc3)C2)CC1
REMARK SMILES IDX 19 1 18 2 17 3 16 4 14 5 15 6 13 8 10 9 11 10 87 11 12 12
REMARK SMILES IDX 9 13 6 14 7 15 8 17 5 19 1 20 2 21 3 22 89 23 4 25 88 26
REMARK SMILES IDX 20 27 21 28 22 29 23 31 24 32 25 33 86 34 26 35 85 36 27 37
REMARK SMILES IDX 28 38 29 39 79 40 30 41 84 42 78 43 80 44 31 45 83 46 77 47
REMARK SMILES IDX 76 48 32 50 64 51 44 52 63 53 45 54 48 55 62 56 81 57 46 58
REMARK SMILES IDX 47 59 61 61 82 62 49 63 33 64 34 65 42 66 35 67 37 68 43 69
REMARK SMILES IDX 36 70 38 71 39 72 40 73 41 74 65 75 66 76 74 77 67 78 69 79
REMARK SMILES IDX 75 80 68 81 70 82 71 83 72 84 73 85 50 86 51 87 59 88 52 89
REMARK SMILES IDX 54 90 60 91 53 92 55 93 56 94 57 95 58 96
REMARK H PARENT 16 7 6 16 9 18 2 24 21 30 80 49 48 60
REMARK Flexibility Score: inf
ROOT
ATOM      1  C   UNL A   1      32.015  29.486  24.995  1.00  0.00     0.023 C 
ENDROOT
BRANCH   1   2
ATOM      2  C   UNL A   1      33.312  29.080  24.286  1.00  0.00     0.023 C 
BRANCH   2   3
ATOM      3  C   UNL A   1      33.222  29.057  22.755  1.00  0.00     0.116 C 
BRANCH   3   4
ATOM      4  N   UNL A   1      33.680  27.804  22.169  1.00  0.00    -0.356 N 
ATOM      5  C   UNL A   1      33.173  26.537  22.325  1.00  0.00     0.227 C 
ATOM      6  O   UNL A   1      33.601  25.628  21.615  1.00  0.00    -0.274 OA
ATOM      7  H   UNL A   1      34.463  27.875  21.579  1.00  0.00     0.163 HD
BRANCH   5   8
ATOM      8  C   UNL A   1      32.085  26.310  23.374  1.00  0.00     0.103 C 
ATOM      9  C   UNL A   1      31.224  24.210  24.320  1.00  0.00     0.107 C 
ATOM     10  C   UNL A   1      30.274  24.790  23.335  1.00  0.00    -0.006 C 
ATOM     11  C   UNL A   1      32.408  25.178  24.374  1.00  0.00     0.047 C 
ATOM     12  C   UNL A   1      30.770  25.897  22.768  1.00  0.00    -0.016 C 
BRANCH   9  13
ATOM     13  N   UNL A   1      30.594  23.827  25.577  1.00  0.00    -0.332 N 
ATOM     14  N   UNL A   1      31.733  22.155  26.835  1.00  0.00    -0.335 N 
ATOM     15  C   UNL A   1      30.725  22.997  26.609  1.00  0.00     0.315 C 
ATOM     16  H   UNL A   1      31.579  21.568  27.611  1.00  0.00     0.165 HD
ATOM     17  O   UNL A   1      29.812  23.007  27.444  1.00  0.00    -0.249 OA
ATOM     18  H   UNL A   1      29.788  24.376  25.710  1.00  0.00     0.165 HD
BRANCH  14  19
ATOM     19  C   UNL A   1      33.003  21.915  26.189  1.00  0.00     0.095 C 
ATOM     20  C   UNL A   1      36.836  20.618  24.925  1.00  0.00     0.332 C 
ATOM     21  N   UNL A   1      35.609  20.701  25.726  1.00  0.00    -0.337 N 
ATOM     22  C   UNL A   1      34.444  20.311  24.922  1.00  0.00     0.264 C 
ATOM     23  C   UNL A   1      35.487  22.043  26.312  1.00  0.00     0.264 C 
ATOM     24  H   UNL A   1      35.653  20.039  26.501  1.00  0.00     0.347 HD
ATOM     25  C   UNL A   1      33.119  20.487  25.665  1.00  0.00     0.086 C 
ATOM     26  C   UNL A   1      34.188  22.218  27.099  1.00  0.00     0.086 C 
ENDBRANCH  14  19
ENDBRANCH   9  13
ENDBRANCH   5   8
ENDBRANCH   3   4
ENDBRANCH   2   3
ENDBRANCH   1   2
BRANCH   1  27
ATOM     27  C   UNL A   1      32.183  29.917  26.453  1.00  0.00     0.116 C 
BRANCH  27  28
ATOM     28  N   UNL A   1      32.065  31.352  26.673  1.00  0.00    -0.352 N 
ATOM     29  C   UNL A   1      32.976  32.193  27.278  1.00  0.00     0.251 C 
ATOM     30  H   UNL A   1      31.235  31.772  26.351  1.00  0.00     0.163 HD
ATOM     31  O   UNL A   1      32.695  33.376  27.459  1.00  0.00    -0.269 OA
BRANCH  29  32
ATOM     32  C   UNL A   1      34.273  31.654  27.758  1.00  0.00     0.039 A 
ATOM     33  C   UNL A   1      35.329  32.537  27.996  1.00  0.00     0.014 A 
ATOM     34  C   UNL A   1      34.435  30.291  28.021  1.00  0.00     0.014 A 
ATOM     35  C   UNL A   1      36.512  32.068  28.579  1.00  0.00     0.010 A 
ATOM     36  C   UNL A   1      35.582  29.839  28.671  1.00  0.00     0.010 A 
ATOM     37  C   UNL A   1      36.631  30.722  28.964  1.00  0.00    -0.014 A 
BRANCH  37  38
ATOM     38  C   UNL A   1      37.824  30.234  29.708  1.00  0.00     0.031 A 
ATOM     39  C   UNL A   1      38.104  30.700  31.112  1.00  0.00     0.074 A 
ATOM     40  C   UNL A   1      38.721  29.443  29.082  1.00  0.00     0.049 A 
ATOM     41  N   UNL A   1      39.104  30.393  31.899  1.00  0.00    -0.248 NA
ATOM     42  C   UNL A   1      37.156  31.661  31.699  1.00  0.00     0.031 C 
ATOM     43  C   UNL A   1      38.635  29.013  27.684  1.00  0.00     0.029 A 
ATOM     44  N   UNL A   1      39.894  28.886  29.529  1.00  0.00    -0.354 N 
ATOM     45  C   UNL A   1      38.929  31.147  33.052  1.00  0.00     0.074 A 
ATOM     46  C   UNL A   1      37.745  31.955  32.850  1.00  0.00     0.031 C 
ATOM     47  C   UNL A   1      39.706  28.255  27.391  1.00  0.00     0.029 A 
ATOM     48  C   UNL A   1      40.559  28.156  28.571  1.00  0.00     0.049 A 
ATOM     49  H   UNL A   1      40.227  28.998  30.448  1.00  0.00     0.167 HD
ATOM     50  C   UNL A   1      39.662  31.145  34.192  1.00  0.00     0.034 A 
ATOM     51  C   UNL A   1      41.722  27.477  28.633  1.00  0.00     0.034 A 
ATOM     52  C   UNL A   1      40.803  30.299  34.419  1.00  0.00     0.049 A 
ATOM     53  C   UNL A   1      42.465  27.410  29.941  1.00  0.00     0.074 A 
ATOM     54  C   UNL A   1      41.541  30.139  35.578  1.00  0.00     0.029 A 
ATOM     55  N   UNL A   1      41.375  29.471  33.465  1.00  0.00    -0.354 N 
ATOM     56  N   UNL A   1      42.168  27.975  31.086  1.00  0.00    -0.248 NA
ATOM     57  C   UNL A   1      43.674  26.575  29.979  1.00  0.00     0.031 C 
ATOM     58  C   UNL A   1      42.566  29.222  35.323  1.00  0.00     0.029 A 
ATOM     59  C   UNL A   1      42.458  28.801  34.008  1.00  0.00     0.049 A 
ATOM     60  H   UNL A   1      41.059  29.374  32.538  1.00  0.00     0.167 HD
ATOM     61  C   UNL A   1      43.133  27.538  31.988  1.00  0.00     0.074 A 
ATOM     62  C   UNL A   1      44.008  26.642  31.261  1.00  0.00     0.031 C 
ATOM     63  C   UNL A   1      43.290  27.866  33.294  1.00  0.00     0.034 A 
BRANCH  50  64
ATOM     64  C   UNL A   1      39.205  32.037  35.316  1.00  0.00     0.023 A 
ATOM     65  C   UNL A   1      38.277  31.543  36.257  1.00  0.00     0.012 A 
ATOM     66  C   UNL A   1      39.724  33.336  35.477  1.00  0.00     0.148 A 
ATOM     67  C   UNL A   1      37.844  32.339  37.316  1.00  0.00     0.002 A 
ATOM     68  C   UNL A   1      39.320  34.109  36.561  1.00  0.00     0.091 A 
ATOM     69  F   UNL A   1      40.587  33.800  34.561  1.00  0.00    -0.205 F 
ATOM     70  C   UNL A   1      38.373  33.617  37.474  1.00  0.00     0.022 A 
BRANCH  68  71
ATOM     71  S   UNL A   1      40.002  35.738  36.890  1.00  0.00     0.127 S 
ATOM     72  O   UNL A   1      41.425  35.438  37.041  1.00  0.00    -0.237 OA
ATOM     73  O   UNL A   1      39.660  36.471  35.669  1.00  0.00    -0.237 OA
ATOM     74  O   UNL A   1      39.328  36.217  38.088  1.00  0.00    -0.744 OA
ENDBRANCH  68  71
ENDBRANCH  50  64
BRANCH  51  75
ATOM     75  C   UNL A   1      42.204  26.723  27.441  1.00  0.00     0.023 A 
ATOM     76  C   UNL A   1      42.939  27.399  26.448  1.00  0.00     0.012 A 
ATOM     77  C   UNL A   1      41.977  25.340  27.306  1.00  0.00     0.148 A 
ATOM     78  C   UNL A   1      43.414  26.720  25.327  1.00  0.00     0.002 A 
ATOM     79  C   UNL A   1      42.500  24.657  26.213  1.00  0.00     0.091 A 
ATOM     80  F   UNL A   1      41.264  24.716  28.254  1.00  0.00    -0.205 F 
ATOM     81  C   UNL A   1      43.205  25.348  25.214  1.00  0.00     0.022 A 
BRANCH  79  82
ATOM     82  S   UNL A   1      42.397  22.870  26.060  1.00  0.00     0.127 S 
ATOM     83  O   UNL A   1      43.026  22.644  24.761  1.00  0.00    -0.237 OA
ATOM     84  O   UNL A   1      43.180  22.421  27.212  1.00  0.00    -0.237 OA
ATOM     85  O   UNL A   1      40.978  22.554  26.144  1.00  0.00    -0.744 OA
ENDBRANCH  79  82
ENDBRANCH  51  75
BRANCH  63  86
ATOM     86  C   UNL A   1      44.436  27.235  34.040  1.00  0.00     0.023 A 
ATOM     87  C   UNL A   1      45.722  27.805  33.956  1.00  0.00     0.012 A 
ATOM     88  C   UNL A   1      44.228  26.118  34.874  1.00  0.00     0.148 A 
ATOM     89  C   UNL A   1      46.790  27.255  34.664  1.00  0.00     0.002 A 
ATOM     90  C   UNL A   1      45.289  25.603  35.613  1.00  0.00     0.091 A 
ATOM     91  F   UNL A   1      43.004  25.574  34.925  1.00  0.00    -0.205 F 
ATOM     92  C   UNL A   1      46.572  26.163  35.501  1.00  0.00     0.022 A 
BRANCH  90  93
ATOM     93  S   UNL A   1      45.068  24.257  36.783  1.00  0.00     0.127 S 
ATOM     94  O   UNL A   1      44.088  24.822  37.707  1.00  0.00    -0.237 OA
ATOM     95  O   UNL A   1      44.556  23.181  35.933  1.00  0.00    -0.237 OA
ATOM     96  O   UNL A   1      46.390  24.001  37.340  1.00  0.00    -0.744 OA
ENDBRANCH  90  93
ENDBRANCH  63  86
ENDBRANCH  37  38
ENDBRANCH  29  32
ENDBRANCH  27  28
ENDBRANCH   1  27
TORSDOF 16
ENDMDL
MODEL 2
REMARK VINA RESULT:     -12.8      1.275      1.587
REMARK SMILES C[NH+]1CCC(NC(=O)N[C@H]2C=C[C@H](C(=O)NCCCCNC(=O)c3ccc(-c4c5nc(c(-c6cccc(S(=O)(=O)[O-])c6F)c6ccc([nH]6)c(-c6cccc(S(=O)(=O)[O-])c6F)c6nc(c(-c7cccc(S(=O)(=O)[O-])c7F)c7ccc4[nH]7)C=C6)C=C5)cc3)C2)CC1
REMARK SMILES IDX 19 1 18 2 17 3 16 4 14 5 15 6 13 8 10 9 11 10 87 11 12 12
REMARK SMILES IDX 9 13 6 14 7 15 8 17 5 19 1 20 2 21 3 22 89 23 4 25 88 26
REMARK SMILES IDX 20 27 21 28 22 29 23 31 24 32 25 33 86 34 26 35 85 36 27 37
REMARK SMILES IDX 28 38 29 39 79 40 30 41 84 42 78 43 80 44 31 45 83 46 77 47
REMARK SMILES IDX 76 48 32 50 64 51 44 52 63 53 45 54 48 55 62 56 81 57 46 58
REMARK SMILES IDX 47 59 61 61 82 62 49 63 33 64 34 65 42 66 35 67 37 68 43 69
REMARK SMILES IDX 36 70 38 71 39 72 40 73 41 74 65 75 66 76 74 77 67 78 69 79
REMARK SMILES IDX 75 80 68 81 70 82 71 83 72 84 73 85 50 86 51 87 59 88 52 89
REMARK SMILES IDX 54 90 60 91 53 92 55 93 56 94 57 95 58 96
REMARK H PARENT 16 7 6 16 9 18 2 24 21 30 80 49 48 60
REMARK Flexibility Score: inf
ROOT
ATOM      1  C   UNL A   1      32.280  29.643  24.979  1.00  0.00     0.023 C 
ENDROOT
BRANCH   1   2
ATOM      2  C   UNL A   1      33.475  28.972  24.293  1.00  0.00     0.023 C 
BRANCH   2   3
ATOM      3  C   UNL A   1      33.402  28.951  22.761  1.00  0.00     0.116 C 
BRANCH   3   4
ATOM      4  N   UNL A   1      33.802  27.676  22.182  1.00  0.00    -0.356 N 
ATOM      5  C   UNL A   1      33.278  26.424  22.394  1.00  0.00     0.227 C 
ATOM      6  O   UNL A   1      33.649  25.490  21.684  1.00  0.00    -0.274 OA
ATOM      7  H   UNL A   1      34.555  27.716  21.550  1.00  0.00     0.163 HD
BRANCH   5   8
ATOM      8  C   UNL A   1      32.242  26.245  23.502  1.00  0.00     0.103 C 
ATOM      9  C   UNL A   1      31.208  24.190  24.375  1.00  0.00     0.107 C 
ATOM     10  C   UNL A   1      30.269  24.940  23.500  1.00  0.00    -0.006 C 
ATOM     11  C   UNL A   1      32.497  25.017  24.403  1.00  0.00     0.047 C 
ATOM     12  C   UNL A   1      30.851  26.023  22.969  1.00  0.00    -0.016 C 
BRANCH   9  13
ATOM     13  N   UNL A   1      30.622  23.792  25.648  1.00  0.00    -0.332 N 
ATOM     14  N   UNL A   1      31.834  22.147  26.873  1.00  0.00    -0.335 N 
ATOM     15  C   UNL A   1      30.801  22.964  26.675  1.00  0.00     0.315 C 
ATOM     16  H   UNL A   1      31.715  21.556  27.652  1.00  0.00     0.165 HD
ATOM     17  O   UNL A   1      29.911  22.952  27.535  1.00  0.00    -0.249 OA
ATOM     18  H   UNL A   1      29.808  24.321  25.803  1.00  0.00     0.165 HD
BRANCH  14  19
ATOM     19  C   UNL A   1      33.091  21.938  26.193  1.00  0.00     0.095 C 
ATOM     20  C   UNL A   1      36.955  20.796  24.870  1.00  0.00     0.332 C 
ATOM     21  N   UNL A   1      35.757  20.865  25.715  1.00  0.00    -0.337 N 
ATOM     22  C   UNL A   1      34.592  20.331  25.000  1.00  0.00     0.264 C 
ATOM     23  C   UNL A   1      35.564  22.242  26.193  1.00  0.00     0.264 C 
ATOM     24  H   UNL A   1      35.878  20.278  26.540  1.00  0.00     0.347 HD
ATOM     25  C   UNL A   1      33.288  20.481  25.784  1.00  0.00     0.086 C 
ATOM     26  C   UNL A   1      34.287  22.397  27.020  1.00  0.00     0.086 C 
ENDBRANCH  14  19
ENDBRANCH   9  13
ENDBRANCH   5   8
ENDBRANCH   3   4
ENDBRANCH   2   3
ENDBRANCH   1   2
BRANCH   1  27
ATOM     27  C   UNL A   1      32.496  30.000  26.450  1.00  0.00     0.116 C 
BRANCH  27  28
ATOM     28  N   UNL A   1      32.396  31.422  26.745  1.00  0.00    -0.352 N 
ATOM     29  C   UNL A   1      33.309  32.215  27.411  1.00  0.00     0.251 C 
ATOM     30  H   UNL A   1      31.579  31.873  26.432  1.00  0.00     0.163 HD
ATOM     31  O   UNL A   1      33.042  33.391  27.650  1.00  0.00    -0.269 OA
BRANCH  29  32
ATOM     32  C   UNL A   1      34.588  31.630  27.885  1.00  0.00     0.039 A 
ATOM     33  C   UNL A   1      35.705  32.459  28.019  1.00  0.00     0.014 A 
ATOM     34  C   UNL A   1      34.675  30.282  28.243  1.00  0.00     0.014 A 
ATOM     35  C   UNL A   1      36.878  31.957  28.595  1.00  0.00     0.010 A 
ATOM     36  C   UNL A   1      35.817  29.805  28.884  1.00  0.00     0.010 A 
ATOM     37  C   UNL A   1      36.930  30.637  29.074  1.00  0.00    -0.014 A 
BRANCH  37  38
ATOM     38  C   UNL A   1      38.119  30.129  29.811  1.00  0.00     0.031 A 
ATOM     39  C   UNL A   1      38.420  30.597  31.210  1.00  0.00     0.074 A 
ATOM     40  C   UNL A   1      38.993  29.316  29.181  1.00  0.00     0.049 A 
ATOM     41  N   UNL A   1      39.421  30.273  31.989  1.00  0.00    -0.248 NA
ATOM     42  C   UNL A   1      37.498  31.581  31.799  1.00  0.00     0.031 C 
ATOM     43  C   UNL A   1      38.886  28.880  27.786  1.00  0.00     0.029 A 
ATOM     44  N   UNL A   1      40.158  28.737  29.621  1.00  0.00    -0.354 N 
ATOM     45  C   UNL A   1      39.271  31.037  33.140  1.00  0.00     0.074 A 
ATOM     46  C   UNL A   1      38.103  31.869  32.943  1.00  0.00     0.031 C 
ATOM     47  C   UNL A   1      39.938  28.098  27.488  1.00  0.00     0.029 A 
ATOM     48  C   UNL A   1      40.800  27.988  28.662  1.00  0.00     0.049 A 
ATOM     49  H   UNL A   1      40.501  28.847  30.536  1.00  0.00     0.167 HD
ATOM     50  C   UNL A   1      40.014  31.025  34.273  1.00  0.00     0.034 A 
ATOM     51  C   UNL A   1      41.949  27.285  28.718  1.00  0.00     0.034 A 
ATOM     52  C   UNL A   1      41.139  30.157  34.495  1.00  0.00     0.049 A 
ATOM     53  C   UNL A   1      42.701  27.210  30.019  1.00  0.00     0.074 A 
ATOM     54  C   UNL A   1      41.884  29.989  35.649  1.00  0.00     0.029 A 
ATOM     55  N   UNL A   1      41.686  29.313  33.541  1.00  0.00    -0.354 N 
ATOM     56  N   UNL A   1      42.427  27.788  31.163  1.00  0.00    -0.248 NA
ATOM     57  C   UNL A   1      43.893  26.350  30.051  1.00  0.00     0.031 C 
ATOM     58  C   UNL A   1      42.887  29.049  35.390  1.00  0.00     0.029 A 
ATOM     59  C   UNL A   1      42.759  28.623  34.078  1.00  0.00     0.049 A 
ATOM     60  H   UNL A   1      41.359  29.217  32.617  1.00  0.00     0.167 HD
ATOM     61  C   UNL A   1      43.390  27.335  32.060  1.00  0.00     0.074 A 
ATOM     62  C   UNL A   1      44.239  26.417  31.330  1.00  0.00     0.031 C 
ATOM     63  C   UNL A   1      43.565  27.667  33.363  1.00  0.00     0.034 A 
BRANCH  50  64
ATOM     64  C   UNL A   1      39.586  31.934  35.396  1.00  0.00     0.023 A 
ATOM     65  C   UNL A   1      39.998  33.283  35.389  1.00  0.00     0.012 A 
ATOM     66  C   UNL A   1      38.740  31.477  36.425  1.00  0.00     0.148 A 
ATOM     67  C   UNL A   1      39.607  34.152  36.406  1.00  0.00     0.002 A 
ATOM     68  C   UNL A   1      38.319  32.361  37.413  1.00  0.00     0.091 A 
ATOM     69  F   UNL A   1      38.377  30.186  36.431  1.00  0.00    -0.205 F 
ATOM     70  C   UNL A   1      38.761  33.694  37.411  1.00  0.00     0.022 A 
BRANCH  68  71
ATOM     71  S   UNL A   1      37.169  31.883  38.708  1.00  0.00     0.127 S 
ATOM     72  O   UNL A   1      37.003  30.454  38.442  1.00  0.00    -0.237 OA
ATOM     73  O   UNL A   1      37.922  32.192  39.924  1.00  0.00    -0.237 OA
ATOM     74  O   UNL A   1      35.983  32.703  38.508  1.00  0.00    -0.744 OA
ENDBRANCH  68  71
ENDBRANCH  50  64
BRANCH  51  75
ATOM     75  C   UNL A   1      42.404  26.515  27.526  1.00  0.00     0.023 A 
ATOM     76  C   UNL A   1      43.192  27.156  26.550  1.00  0.00     0.012 A 
ATOM     77  C   UNL A   1      42.100  25.148  27.374  1.00  0.00     0.148 A 
ATOM     78  C   UNL A   1      43.643  26.459  25.430  1.00  0.00     0.002 A 
ATOM     79  C   UNL A   1      42.600  24.446  26.282  1.00  0.00     0.091 A 
ATOM     80  F   UNL A   1      41.339  24.559  28.307  1.00  0.00    -0.205 F 
ATOM     81  C   UNL A   1      43.358  25.103  25.301  1.00  0.00     0.022 A 
BRANCH  79  82
ATOM     82  S   UNL A   1      42.396  22.669  26.112  1.00  0.00     0.127 S 
ATOM     83  O   UNL A   1      43.072  22.174  27.308  1.00  0.00    -0.237 OA
ATOM     84  O   UNL A   1      40.940  22.528  26.123  1.00  0.00    -0.237 OA
ATOM     85  O   UNL A   1      43.018  22.326  24.840  1.00  0.00    -0.744 OA
ENDBRANCH  79  82
ENDBRANCH  51  75
BRANCH  63  86
ATOM     86  C   UNL A   1      44.704  27.016  34.102  1.00  0.00     0.023 A 
ATOM     87  C   UNL A   1      45.987  27.598  34.060  1.00  0.00     0.012 A 
ATOM     88  C   UNL A   1      44.492  25.867  34.889  1.00  0.00     0.148 A 
ATOM     89  C   UNL A   1      47.048  27.029  34.764  1.00  0.00     0.002 A 
ATOM     90  C   UNL A   1      45.545  25.331  35.624  1.00  0.00     0.091 A 
ATOM     91  F   UNL A   1      43.272  25.311  34.900  1.00  0.00    -0.205 F 
ATOM     92  C   UNL A   1      46.825  25.905  35.555  1.00  0.00     0.022 A 
BRANCH  90  93
ATOM     93  S   UNL A   1      45.317  23.940  36.738  1.00  0.00     0.127 S 
ATOM     94  O   UNL A   1      44.647  22.971  35.873  1.00  0.00    -0.237 OA
ATOM     95  O   UNL A   1      46.693  23.590  37.094  1.00  0.00    -0.237 OA
ATOM     96  O   UNL A   1      44.524  24.451  37.848  1.00  0.00    -0.744 OA
ENDBRANCH  90  93
ENDBRANCH  63  86
ENDBRANCH  37  38
ENDBRANCH  29  32
ENDBRANCH  27  28
ENDBRANCH   1  27
TORSDOF 16
ENDMDL
MODEL 3
REMARK VINA RESULT:     -12.7      2.395      7.961
REMARK SMILES C[NH+]1CCC(NC(=O)N[C@H]2C=C[C@H](C(=O)NCCCCNC(=O)c3ccc(-c4c5nc(c(-c6cccc(S(=O)(=O)[O-])c6F)c6ccc([nH]6)c(-c6cccc(S(=O)(=O)[O-])c6F)c6nc(c(-c7cccc(S(=O)(=O)[O-])c7F)c7ccc4[nH]7)C=C6)C=C5)cc3)C2)CC1
REMARK SMILES IDX 19 1 18 2 17 3 16 4 14 5 15 6 13 8 10 9 11 10 87 11 12 12
REMARK SMILES IDX 9 13 6 14 7 15 8 17 5 19 1 20 2 21 3 22 89 23 4 25 88 26
REMARK SMILES IDX 20 27 21 28 22 29 23 31 24 32 25 33 86 34 26 35 85 36 27 37
REMARK SMILES IDX 28 38 29 39 79 40 30 41 84 42 78 43 80 44 31 45 83 46 77 47
REMARK SMILES IDX 76 48 32 50 64 51 44 52 63 53 45 54 48 55 62 56 81 57 46 58
REMARK SMILES IDX 47 59 61 61 82 62 49 63 33 64 34 65 42 66 35 67 37 68 43 69
REMARK SMILES IDX 36 70 38 71 39 72 40 73 41 74 65 75 66 76 74 77 67 78 69 79
REMARK SMILES IDX 75 80 68 81 70 82 71 83 72 84 73 85 50 86 51 87 59 88 52 89
REMARK SMILES IDX 54 90 60 91 53 92 55 93 56 94 57 95 58 96
REMARK H PARENT 16 7 6 16 9 18 2 24 21 30 80 49 48 60
REMARK Flexibility Score: inf
ROOT
ATOM      1  C   UNL A   1      31.850  32.019  26.644  1.00  0.00     0.023 C 
ENDROOT
BRANCH   1   2
ATOM      2  C   UNL A   1      31.909  30.504  26.870  1.00  0.00     0.023 C 
BRANCH   2   3
ATOM      3  C   UNL A   1      33.326  29.917  26.888  1.00  0.00     0.116 C 
BRANCH   3   4
ATOM      4  N   UNL A   1      33.708  29.293  25.629  1.00  0.00    -0.356 N 
ATOM      5  C   UNL A   1      33.059  28.316  24.912  1.00  0.00     0.227 C 
ATOM      6  O   UNL A   1      33.459  28.035  23.783  1.00  0.00    -0.274 OA
ATOM      7  H   UNL A   1      34.549  29.616  25.235  1.00  0.00     0.163 HD
BRANCH   5   8
ATOM      8  C   UNL A   1      31.855  27.623  25.548  1.00  0.00     0.103 C 
ATOM      9  C   UNL A   1      31.218  25.248  25.537  1.00  0.00     0.107 C 
ATOM     10  C   UNL A   1      30.378  26.038  24.599  1.00  0.00    -0.006 C 
ATOM     11  C   UNL A   1      32.182  26.251  26.175  1.00  0.00     0.047 C 
ATOM     12  C   UNL A   1      30.767  27.319  24.552  1.00  0.00    -0.016 C 
BRANCH   9  13
ATOM     13  N   UNL A   1      30.445  24.384  26.420  1.00  0.00    -0.332 N 
ATOM     14  N   UNL A   1      31.373  22.227  26.826  1.00  0.00    -0.335 N 
ATOM     15  C   UNL A   1      30.432  23.162  26.950  1.00  0.00     0.315 C 
ATOM     16  H   UNL A   1      31.114  21.364  27.223  1.00  0.00     0.165 HD
ATOM     17  O   UNL A   1      29.439  22.865  27.625  1.00  0.00    -0.249 OA
ATOM     18  H   UNL A   1      29.655  24.877  26.737  1.00  0.00     0.165 HD
BRANCH  14  19
ATOM     19  C   UNL A   1      32.691  22.204  26.234  1.00  0.00     0.095 C 
ATOM     20  C   UNL A   1      36.717  21.515  25.095  1.00  0.00     0.332 C 
ATOM     21  N   UNL A   1      35.455  21.378  25.832  1.00  0.00    -0.337 N 
ATOM     22  C   UNL A   1      34.390  20.899  24.942  1.00  0.00     0.264 C 
ATOM     23  C   UNL A   1      35.128  22.647  26.499  1.00  0.00     0.264 C 
ATOM     24  H   UNL A   1      35.553  20.673  26.563  1.00  0.00     0.347 HD
ATOM     25  C   UNL A   1      33.022  20.845  25.623  1.00  0.00     0.086 C 
ATOM     26  C   UNL A   1      33.783  22.592  27.225  1.00  0.00     0.086 C 
ENDBRANCH  14  19
ENDBRANCH   9  13
ENDBRANCH   5   8
ENDBRANCH   3   4
ENDBRANCH   2   3
ENDBRANCH   1   2
BRANCH   1  27
ATOM     27  C   UNL A   1      32.909  32.827  27.395  1.00  0.00     0.116 C 
BRANCH  27  28
ATOM     28  N   UNL A   1      32.515  34.192  27.710  1.00  0.00    -0.352 N 
ATOM     29  C   UNL A   1      33.072  35.041  28.644  1.00  0.00     0.251 C 
ATOM     30  H   UNL A   1      31.759  34.554  27.193  1.00  0.00     0.163 HD
ATOM     31  O   UNL A   1      32.573  36.146  28.847  1.00  0.00    -0.269 OA
BRANCH  29  32
ATOM     32  C   UNL A   1      34.241  34.594  29.442  1.00  0.00     0.039 A 
ATOM     33  C   UNL A   1      34.037  34.131  30.744  1.00  0.00     0.014 A 
ATOM     34  C   UNL A   1      35.527  34.584  28.894  1.00  0.00     0.014 A 
ATOM     35  C   UNL A   1      35.104  33.577  31.461  1.00  0.00     0.010 A 
ATOM     36  C   UNL A   1      36.570  33.964  29.579  1.00  0.00     0.010 A 
ATOM     37  C   UNL A   1      36.371  33.447  30.868  1.00  0.00    -0.014 A 
BRANCH  37  38
ATOM     38  C   UNL A   1      37.481  32.739  31.562  1.00  0.00     0.031 A 
ATOM     39  C   UNL A   1      38.185  31.579  30.910  1.00  0.00     0.074 A 
ATOM     40  C   UNL A   1      37.792  33.074  32.831  1.00  0.00     0.049 A 
ATOM     41  N   UNL A   1      39.157  30.836  31.377  1.00  0.00    -0.248 NA
ATOM     42  C   UNL A   1      37.717  31.177  29.573  1.00  0.00     0.031 C 
ATOM     43  C   UNL A   1      37.110  34.099  33.626  1.00  0.00     0.029 A 
ATOM     44  N   UNL A   1      38.740  32.569  33.687  1.00  0.00    -0.354 N 
ATOM     45  C   UNL A   1      39.390  29.862  30.414  1.00  0.00     0.074 A 
ATOM     46  C   UNL A   1      38.433  30.084  29.351  1.00  0.00     0.031 C 
ATOM     47  C   UNL A   1      37.666  34.151  34.848  1.00  0.00     0.029 A 
ATOM     48  C   UNL A   1      38.732  33.157  34.931  1.00  0.00     0.049 A 
ATOM     49  H   UNL A   1      39.368  31.856  33.433  1.00  0.00     0.167 HD
ATOM     50  C   UNL A   1      40.336  28.892  30.396  1.00  0.00     0.034 A 
ATOM     51  C   UNL A   1      39.498  32.930  36.016  1.00  0.00     0.034 A 
ATOM     52  C   UNL A   1      41.325  28.706  31.423  1.00  0.00     0.049 A 
ATOM     53  C   UNL A   1      40.606  31.914  35.934  1.00  0.00     0.074 A 
ATOM     54  C   UNL A   1      42.394  27.828  31.440  1.00  0.00     0.029 A 
ATOM     55  N   UNL A   1      41.367  29.409  32.617  1.00  0.00    -0.354 N 
ATOM     56  N   UNL A   1      40.938  31.137  34.931  1.00  0.00    -0.248 NA
ATOM     57  C   UNL A   1      41.473  31.777  37.113  1.00  0.00     0.031 C 
ATOM     58  C   UNL A   1      43.077  27.992  32.651  1.00  0.00     0.029 A 
ATOM     59  C   UNL A   1      42.440  28.982  33.380  1.00  0.00     0.049 A 
ATOM     60  H   UNL A   1      40.727  30.108  32.883  1.00  0.00     0.167 HD
ATOM     61  C   UNL A   1      42.071  30.445  35.344  1.00  0.00     0.074 A 
ATOM     62  C   UNL A   1      42.382  30.912  36.679  1.00  0.00     0.031 C 
ATOM     63  C   UNL A   1      42.777  29.493  34.684  1.00  0.00     0.034 A 
BRANCH  50  64
ATOM     64  C   UNL A   1      40.392  27.997  29.185  1.00  0.00     0.023 A 
ATOM     65  C   UNL A   1      39.473  26.933  29.069  1.00  0.00     0.012 A 
ATOM     66  C   UNL A   1      41.308  28.233  28.142  1.00  0.00     0.148 A 
ATOM     67  C   UNL A   1      39.490  26.096  27.955  1.00  0.00     0.002 A 
ATOM     68  C   UNL A   1      41.291  27.419  27.014  1.00  0.00     0.091 A 
ATOM     69  F   UNL A   1      42.191  29.233  28.278  1.00  0.00    -0.205 F 
ATOM     70  C   UNL A   1      40.391  26.345  26.924  1.00  0.00     0.022 A 
BRANCH  68  71
ATOM     71  S   UNL A   1      42.363  27.708  25.601  1.00  0.00     0.127 S 
ATOM     72  O   UNL A   1      43.680  27.759  26.236  1.00  0.00    -0.237 OA
ATOM     73  O   UNL A   1      42.127  26.517  24.783  1.00  0.00    -0.237 OA
ATOM     74  O   UNL A   1      41.903  28.952  25.001  1.00  0.00    -0.744 OA
ENDBRANCH  68  71
ENDBRANCH  50  64
BRANCH  51  75
ATOM     75  C   UNL A   1      39.305  33.752  37.244  1.00  0.00     0.023 A 
ATOM     76  C   UNL A   1      39.764  35.083  37.263  1.00  0.00     0.012 A 
ATOM     77  C   UNL A   1      38.634  33.241  38.372  1.00  0.00     0.148 A 
ATOM     78  C   UNL A   1      39.588  35.881  38.392  1.00  0.00     0.002 A 
ATOM     79  C   UNL A   1      38.412  34.060  39.474  1.00  0.00     0.091 A 
ATOM     80  F   UNL A   1      38.215  31.968  38.340  1.00  0.00    -0.205 F 
ATOM     81  C   UNL A   1      38.903  35.375  39.493  1.00  0.00     0.022 A 
BRANCH  79  82
ATOM     82  S   UNL A   1      37.420  33.531  40.876  1.00  0.00     0.127 S 
ATOM     83  O   UNL A   1      37.291  34.772  41.636  1.00  0.00    -0.237 OA
ATOM     84  O   UNL A   1      36.192  33.076  40.224  1.00  0.00    -0.237 OA
ATOM     85  O   UNL A   1      38.184  32.469  41.516  1.00  0.00    -0.744 OA
ENDBRANCH  79  82
ENDBRANCH  51  75
BRANCH  63  86
ATOM     86  C   UNL A   1      43.977  28.906  35.380  1.00  0.00     0.023 A 
ATOM     87  C   UNL A   1      45.254  29.456  35.153  1.00  0.00     0.012 A 
ATOM     88  C   UNL A   1      43.832  27.854  36.307  1.00  0.00     0.148 A 
ATOM     89  C   UNL A   1      46.373  28.948  35.812  1.00  0.00     0.002 A 
ATOM     90  C   UNL A   1      44.946  27.383  36.994  1.00  0.00     0.091 A 
ATOM     91  F   UNL A   1      42.614  27.326  36.494  1.00  0.00    -0.205 F 
ATOM     92  C   UNL A   1      46.218  27.921  36.740  1.00  0.00     0.022 A 
BRANCH  90  93
ATOM     93  S   UNL A   1      44.815  26.127  38.272  1.00  0.00     0.127 S 
ATOM     94  O   UNL A   1      44.244  25.005  37.530  1.00  0.00    -0.237 OA
ATOM     95  O   UNL A   1      46.209  25.942  38.678  1.00  0.00    -0.237 OA
ATOM     96  O   UNL A   1      43.963  26.703  39.303  1.00  0.00    -0.744 OA
ENDBRANCH  90  93
ENDBRANCH  63  86
ENDBRANCH  37  38
ENDBRANCH  29  32
ENDBRANCH  27  28
ENDBRANCH   1  27
TORSDOF 16
ENDMDL
