MODEL 1
REMARK VINA RESULT:     -12.5      0.000      0.000
REMARK SMILES O=C(NCCCCNC(=O)[C@@H]1CN(c2nccc(N3CCC(O)CC3)n2)CC[NH2+]1)c1ccc(-c2c3nc(c(-c4cccc(S(=O)(=O)[O-])c4F)c4ccc([nH]4)c(-c4cccc(S(=O)(=O)[O-])c4F)c4nc(c(-c5cccc(S(=O)(=O)[O-])c5F)c5ccc2[nH]5)C=C4)C=C3)cc1
REMARK SMILES IDX 5 1 4 2 3 3 1 4 2 5 30 7 31 8 92 9 32 10 91 11 33 12 34 13
REMARK SMILES IDX 35 14 85 15 36 16 90 17 84 18 86 19 37 20 89 21 83 22 82 23
REMARK SMILES IDX 38 25 70 26 50 27 69 28 51 29 54 30 68 31 87 32 52 33 53 34
REMARK SMILES IDX 67 36 88 37 55 38 39 39 40 40 48 41 41 42 43 43 49 44 42 45
REMARK SMILES IDX 44 46 45 47 46 48 47 49 71 50 72 51 80 52 73 53 75 54 81 55
REMARK SMILES IDX 74 56 76 57 77 58 78 59 79 60 56 61 57 62 65 63 58 64 60 65
REMARK SMILES IDX 66 66 59 67 61 68 62 69 63 70 64 71 6 72 7 73 8 74 9 75
REMARK SMILES IDX 10 77 11 78 12 79 29 80 13 81 28 82 27 85 14 86 15 87 26 88
REMARK SMILES IDX 16 89 18 90 17 91 19 92 20 93 25 94 21 95 24 96 22 97 23 98
REMARK H PARENT 3 6 86 24 54 35 8 76 29 83 29 84 23 99
REMARK Flexibility Score: inf
ROOT
ATOM      1  C   UNL A   1      37.352  19.564  24.956  1.00  0.00     0.023 C 
ENDROOT
BRANCH   1   2
ATOM      2  C   UNL A   1      38.532  20.275  25.606  1.00  0.00     0.116 C 
BRANCH   2   3
ATOM      3  N   UNL A   1      39.634  19.375  25.909  1.00  0.00    -0.352 N 
ATOM      4  O   UNL A   1      41.763  18.795  26.376  1.00  0.00    -0.269 OA
ATOM      5  C   UNL A   1      40.914  19.680  26.310  1.00  0.00     0.251 C 
ATOM      6  H   UNL A   1      39.438  18.416  25.814  1.00  0.00     0.163 HD
BRANCH   5   7
ATOM      7  C   UNL A   1      41.262  21.081  26.627  1.00  0.00     0.039 A 
ATOM      8  C   UNL A   1      40.872  22.117  25.776  1.00  0.00     0.014 A 
ATOM      9  C   UNL A   1      42.007  21.357  27.778  1.00  0.00     0.014 A 
ATOM     10  C   UNL A   1      41.354  23.403  25.990  1.00  0.00     0.010 A 
ATOM     11  C   UNL A   1      42.418  22.667  28.037  1.00  0.00     0.010 A 
ATOM     12  C   UNL A   1      42.127  23.695  27.126  1.00  0.00    -0.014 A 
BRANCH  12  13
ATOM     13  C   UNL A   1      42.557  25.094  27.373  1.00  0.00     0.031 A 
ATOM     14  C   UNL A   1      41.654  26.084  28.057  1.00  0.00     0.074 A 
ATOM     15  C   UNL A   1      43.788  25.466  26.973  1.00  0.00     0.049 A 
ATOM     16  N   UNL A   1      41.895  27.331  28.372  1.00  0.00    -0.248 NA
ATOM     17  C   UNL A   1      40.307  25.624  28.428  1.00  0.00     0.031 C 
ATOM     18  C   UNL A   1      44.733  24.604  26.258  1.00  0.00     0.029 A 
ATOM     19  N   UNL A   1      44.459  26.654  27.108  1.00  0.00    -0.354 N 
ATOM     20  C   UNL A   1      40.724  27.817  28.941  1.00  0.00     0.074 A 
ATOM     21  C   UNL A   1      39.767  26.732  28.923  1.00  0.00     0.031 C 
ATOM     22  C   UNL A   1      45.869  25.281  26.040  1.00  0.00     0.029 A 
ATOM     23  C   UNL A   1      45.718  26.638  26.556  1.00  0.00     0.049 A 
ATOM     24  H   UNL A   1      44.076  27.442  27.556  1.00  0.00     0.167 HD
ATOM     25  C   UNL A   1      40.477  29.050  29.447  1.00  0.00     0.034 A 
ATOM     26  C   UNL A   1      46.647  27.606  26.464  1.00  0.00     0.034 A 
ATOM     27  C   UNL A   1      41.447  30.111  29.502  1.00  0.00     0.049 A 
ATOM     28  C   UNL A   1      46.357  28.951  27.066  1.00  0.00     0.074 A 
ATOM     29  C   UNL A   1      41.313  31.371  30.059  1.00  0.00     0.029 A 
ATOM     30  N   UNL A   1      42.729  30.042  28.978  1.00  0.00    -0.354 N 
ATOM     31  N   UNL A   1      45.292  29.346  27.720  1.00  0.00    -0.248 NA
ATOM     32  C   UNL A   1      47.404  29.973  26.943  1.00  0.00     0.031 C 
ATOM     33  C   UNL A   1      42.511  32.068  29.861  1.00  0.00     0.029 A 
ATOM     34  C   UNL A   1      43.395  31.238  29.190  1.00  0.00     0.049 A 
ATOM     35  H   UNL A   1      43.111  29.257  28.522  1.00  0.00     0.167 HD
ATOM     36  C   UNL A   1      45.545  30.657  28.101  1.00  0.00     0.074 A 
ATOM     37  C   UNL A   1      46.879  30.977  27.633  1.00  0.00     0.031 C 
ATOM     38  C   UNL A   1      44.738  31.526  28.759  1.00  0.00     0.034 A 
BRANCH  25  39
ATOM     39  C   UNL A   1      39.113  29.310  30.033  1.00  0.00     0.023 A 
ATOM     40  C   UNL A   1      38.826  28.865  31.340  1.00  0.00     0.012 A 
ATOM     41  C   UNL A   1      38.148  30.058  29.331  1.00  0.00     0.148 A 
ATOM     42  C   UNL A   1      37.592  29.140  31.929  1.00  0.00     0.002 A 
ATOM     43  C   UNL A   1      36.934  30.360  29.939  1.00  0.00     0.091 A 
ATOM     44  F   UNL A   1      38.431  30.454  28.082  1.00  0.00    -0.205 F 
ATOM     45  C   UNL A   1      36.652  29.896  31.234  1.00  0.00     0.022 A 
BRANCH  43  46
ATOM     46  S   UNL A   1      35.688  31.387  29.149  1.00  0.00     0.127 S 
ATOM     47  O   UNL A   1      34.916  31.851  30.300  1.00  0.00    -0.237 OA
ATOM     48  O   UNL A   1      36.499  32.421  28.504  1.00  0.00    -0.237 OA
ATOM     49  O   UNL A   1      34.979  30.512  28.226  1.00  0.00    -0.744 OA
ENDBRANCH  43  46
ENDBRANCH  25  39
BRANCH  26  50
ATOM     50  C   UNL A   1      47.957  27.308  25.823  1.00  0.00     0.023 A 
ATOM     51  C   UNL A   1      48.987  26.730  26.588  1.00  0.00     0.012 A 
ATOM     52  C   UNL A   1      48.164  27.528  24.446  1.00  0.00     0.148 A 
ATOM     53  C   UNL A   1      50.206  26.392  25.999  1.00  0.00     0.002 A 
ATOM     54  C   UNL A   1      49.358  27.135  23.854  1.00  0.00     0.091 A 
ATOM     55  F   UNL A   1      47.179  28.098  23.738  1.00  0.00    -0.205 F 
ATOM     56  C   UNL A   1      50.386  26.580  24.631  1.00  0.00     0.022 A 
BRANCH  54  57
ATOM     57  S   UNL A   1      49.603  27.205  22.076  1.00  0.00     0.127 S 
ATOM     58  O   UNL A   1      51.015  26.853  21.954  1.00  0.00    -0.237 OA
ATOM     59  O   UNL A   1      48.669  26.185  21.596  1.00  0.00    -0.237 OA
ATOM     60  O   UNL A   1      49.246  28.564  21.692  1.00  0.00    -0.744 OA
ENDBRANCH  54  57
ENDBRANCH  26  50
BRANCH  38  61
ATOM     61  C   UNL A   1      45.278  32.905  29.019  1.00  0.00     0.023 A 
ATOM     62  C   UNL A   1      45.983  33.159  30.213  1.00  0.00     0.012 A 
ATOM     63  C   UNL A   1      45.141  33.930  28.064  1.00  0.00     0.148 A 
ATOM     64  C   UNL A   1      46.522  34.420  30.463  1.00  0.00     0.002 A 
ATOM     65  C   UNL A   1      45.717  35.173  28.302  1.00  0.00     0.091 A 
ATOM     66  F   UNL A   1      44.446  33.676  26.945  1.00  0.00    -0.205 F 
ATOM     67  C   UNL A   1      46.398  35.423  29.504  1.00  0.00     0.022 A 
BRANCH  65  68
ATOM     68  S   UNL A   1      45.678  36.493  27.083  1.00  0.00     0.127 S 
ATOM     69  O   UNL A   1      44.246  36.766  26.984  1.00  0.00    -0.237 OA
ATOM     70  O   UNL A   1      46.457  37.546  27.736  1.00  0.00    -0.237 OA
ATOM     71  O   UNL A   1      46.299  35.944  25.884  1.00  0.00    -0.744 OA
ENDBRANCH  65  68
ENDBRANCH  38  61
ENDBRANCH  12  13
ENDBRANCH   5   7
ENDBRANCH   2   3
ENDBRANCH   1   2
BRANCH   1  72
ATOM     72  C   UNL A   1      36.030  20.328  25.007  1.00  0.00     0.023 C 
BRANCH  72  73
ATOM     73  C   UNL A   1      36.071  21.624  25.810  1.00  0.00     0.116 C 
BRANCH  73  74
ATOM     74  N   UNL A   1      35.166  21.592  26.945  1.00  0.00    -0.351 N 
ATOM     75  C   UNL A   1      33.904  22.119  27.020  1.00  0.00     0.280 C 
ATOM     76  H   UNL A   1      35.498  21.140  27.754  1.00  0.00     0.163 HD
ATOM     77  O   UNL A   1      33.243  21.930  28.043  1.00  0.00    -0.268 OA
BRANCH  75  78
ATOM     78  C   UNL A   1      33.368  22.905  25.815  1.00  0.00     0.292 C 
ATOM     79  C   UNL A   1      32.320  23.937  26.278  1.00  0.00     0.195 C 
ATOM     80  N   UNL A   1      32.814  21.933  24.811  1.00  0.00    -0.333 N 
ATOM     81  N   UNL A   1      31.733  24.581  25.108  1.00  0.00    -0.329 N 
ATOM     82  C   UNL A   1      32.270  22.694  23.666  1.00  0.00     0.283 C 
ATOM     83  H   UNL A   1      32.071  21.381  25.241  1.00  0.00     0.347 HD
ATOM     84  H   UNL A   1      33.552  21.304  24.492  1.00  0.00     0.347 HD
ATOM     85  C   UNL A   1      31.196  23.739  24.059  1.00  0.00     0.181 C 
BRANCH  81  86
ATOM     86  C   UNL A   1      31.511  25.924  25.123  1.00  0.00     0.227 A 
ATOM     87  N   UNL A   1      31.939  26.638  26.173  1.00  0.00    -0.221 NA
ATOM     88  N   UNL A   1      30.836  26.452  24.091  1.00  0.00    -0.196 NA
ATOM     89  C   UNL A   1      31.744  27.964  26.113  1.00  0.00     0.119 A 
ATOM     90  C   UNL A   1      30.605  27.772  24.082  1.00  0.00     0.134 A 
ATOM     91  C   UNL A   1      31.093  28.588  25.078  1.00  0.00     0.067 A 
BRANCH  90  92
ATOM     92  N   UNL A   1      29.812  28.296  23.083  1.00  0.00    -0.356 N 
ATOM     93  C   UNL A   1      28.393  27.992  23.036  1.00  0.00     0.121 C 
ATOM     94  C   UNL A   1      30.371  29.333  22.228  1.00  0.00     0.121 C 
ATOM     95  C   UNL A   1      27.578  29.279  23.142  1.00  0.00     0.053 C 
ATOM     96  C   UNL A   1      29.547  30.613  22.293  1.00  0.00     0.053 C 
ATOM     97  C   UNL A   1      28.051  30.341  22.151  1.00  0.00     0.118 C 
BRANCH  97  98
ATOM     98  O   UNL A   1      27.725  29.959  20.814  1.00  0.00    -0.393 OA
ATOM     99  H   UNL A   1      27.354  30.720  20.341  1.00  0.00     0.210 HD
ENDBRANCH  97  98
ENDBRANCH  90  92
ENDBRANCH  81  86
ENDBRANCH  75  78
ENDBRANCH  73  74
ENDBRANCH  72  73
ENDBRANCH   1  72
TORSDOF 17
ENDMDL
MODEL 2
REMARK VINA RESULT:     -12.3      1.889      7.726
REMARK SMILES O=C(NCCCCNC(=O)[C@@H]1CN(c2nccc(N3CCC(O)CC3)n2)CC[NH2+]1)c1ccc(-c2c3nc(c(-c4cccc(S(=O)(=O)[O-])c4F)c4ccc([nH]4)c(-c4cccc(S(=O)(=O)[O-])c4F)c4nc(c(-c5cccc(S(=O)(=O)[O-])c5F)c5ccc2[nH]5)C=C4)C=C3)cc1
REMARK SMILES IDX 5 1 4 2 3 3 1 4 2 5 30 7 31 8 92 9 32 10 91 11 33 12 34 13
REMARK SMILES IDX 35 14 85 15 36 16 90 17 84 18 86 19 37 20 89 21 83 22 82 23
REMARK SMILES IDX 38 25 70 26 50 27 69 28 51 29 54 30 68 31 87 32 52 33 53 34
REMARK SMILES IDX 67 36 88 37 55 38 39 39 40 40 48 41 41 42 43 43 49 44 42 45
REMARK SMILES IDX 44 46 45 47 46 48 47 49 71 50 72 51 80 52 73 53 75 54 81 55
REMARK SMILES IDX 74 56 76 57 77 58 78 59 79 60 56 61 57 62 65 63 58 64 60 65
REMARK SMILES IDX 66 66 59 67 61 68 62 69 63 70 64 71 6 72 7 73 8 74 9 75
REMARK SMILES IDX 10 77 11 78 12 79 29 80 13 81 28 82 27 85 14 86 15 87 26 88
REMARK SMILES IDX 16 89 18 90 17 91 19 92 20 93 25 94 21 95 24 96 22 97 23 98
REMARK H PARENT 3 6 86 24 54 35 8 76 29 83 29 84 23 99
REMARK Flexibility Score: inf
ROOT
ATOM      1  C   UNL A   1      34.780  22.048  25.292  1.00  0.00     0.023 C 
ENDROOT
BRANCH   1   2
ATOM      2  C   UNL A   1      36.180  22.451  25.737  1.00  0.00     0.116 C 
BRANCH   2   3
ATOM      3  N   UNL A   1      37.121  21.342  25.714  1.00  0.00    -0.352 N 
ATOM      4  O   UNL A   1      39.142  20.343  25.751  1.00  0.00    -0.269 OA
ATOM      5  C   UNL A   1      38.473  21.350  25.965  1.00  0.00     0.251 C 
ATOM      6  H   UNL A   1      36.738  20.465  25.489  1.00  0.00     0.163 HD
BRANCH   5   7
ATOM      7  C   UNL A   1      39.114  22.587  26.460  1.00  0.00     0.039 A 
ATOM      8  C   UNL A   1      38.715  23.833  25.973  1.00  0.00     0.014 A 
ATOM      9  C   UNL A   1      40.140  22.495  27.404  1.00  0.00     0.014 A 
ATOM     10  C   UNL A   1      39.441  24.970  26.312  1.00  0.00     0.010 A 
ATOM     11  C   UNL A   1      40.813  23.651  27.809  1.00  0.00     0.010 A 
ATOM     12  C   UNL A   1      40.493  24.893  27.239  1.00  0.00    -0.014 A 
BRANCH  12  13
ATOM     13  C   UNL A   1      41.195  26.136  27.645  1.00  0.00     0.031 A 
ATOM     14  C   UNL A   1      42.614  26.408  27.226  1.00  0.00     0.074 A 
ATOM     15  C   UNL A   1      40.530  27.031  28.401  1.00  0.00     0.049 A 
ATOM     16  N   UNL A   1      43.355  27.459  27.473  1.00  0.00    -0.248 NA
ATOM     17  C   UNL A   1      43.296  25.370  26.438  1.00  0.00     0.031 C 
ATOM     18  C   UNL A   1      39.166  26.852  28.906  1.00  0.00     0.029 A 
ATOM     19  N   UNL A   1      40.901  28.263  28.875  1.00  0.00    -0.354 N 
ATOM     20  C   UNL A   1      44.597  27.196  26.908  1.00  0.00     0.074 A 
ATOM     21  C   UNL A   1      44.515  25.882  26.309  1.00  0.00     0.031 C 
ATOM     22  C   UNL A   1      38.806  27.943  29.596  1.00  0.00     0.029 A 
ATOM     23  C   UNL A   1      39.926  28.878  29.623  1.00  0.00     0.049 A 
ATOM     24  H   UNL A   1      41.781  28.667  28.697  1.00  0.00     0.167 HD
ATOM     25  C   UNL A   1      45.697  27.987  26.876  1.00  0.00     0.034 A 
ATOM     26  C   UNL A   1      39.931  30.058  30.271  1.00  0.00     0.034 A 
ATOM     27  C   UNL A   1      45.757  29.312  27.436  1.00  0.00     0.049 A 
ATOM     28  C   UNL A   1      41.152  30.926  30.188  1.00  0.00     0.074 A 
ATOM     29  C   UNL A   1      46.804  30.217  27.392  1.00  0.00     0.029 A 
ATOM     30  N   UNL A   1      44.732  29.921  28.144  1.00  0.00    -0.354 N 
ATOM     31  N   UNL A   1      42.268  30.715  29.533  1.00  0.00    -0.248 NA
ATOM     32  C   UNL A   1      41.107  32.205  30.908  1.00  0.00     0.031 C 
ATOM     33  C   UNL A   1      46.416  31.369  28.085  1.00  0.00     0.029 A 
ATOM     34  C   UNL A   1      45.123  31.187  28.550  1.00  0.00     0.049 A 
ATOM     35  H   UNL A   1      43.855  29.515  28.330  1.00  0.00     0.167 HD
ATOM     36  C   UNL A   1      43.052  31.840  29.747  1.00  0.00     0.074 A 
ATOM     37  C   UNL A   1      42.269  32.745  30.566  1.00  0.00     0.031 C 
ATOM     38  C   UNL A   1      44.316  32.093  29.325  1.00  0.00     0.034 A 
BRANCH  25  39
ATOM     39  C   UNL A   1      46.920  27.463  26.170  1.00  0.00     0.023 A 
ATOM     40  C   UNL A   1      47.106  27.754  24.803  1.00  0.00     0.012 A 
ATOM     41  C   UNL A   1      47.920  26.757  26.868  1.00  0.00     0.148 A 
ATOM     42  C   UNL A   1      48.256  27.330  24.137  1.00  0.00     0.002 A 
ATOM     43  C   UNL A   1      49.080  26.370  26.205  1.00  0.00     0.091 A 
ATOM     44  F   UNL A   1      47.716  26.471  28.161  1.00  0.00    -0.205 F 
ATOM     45  C   UNL A   1      49.246  26.649  24.839  1.00  0.00     0.022 A 
BRANCH  43  46
ATOM     46  S   UNL A   1      50.442  25.549  27.043  1.00  0.00     0.127 S 
ATOM     47  O   UNL A   1      51.401  25.383  25.954  1.00  0.00    -0.237 OA
ATOM     48  O   UNL A   1      50.830  26.538  28.050  1.00  0.00    -0.237 OA
ATOM     49  O   UNL A   1      49.888  24.318  27.589  1.00  0.00    -0.744 OA
ENDBRANCH  43  46
ENDBRANCH  25  39
BRANCH  26  50
ATOM     50  C   UNL A   1      38.711  30.498  31.001  1.00  0.00     0.023 A 
ATOM     51  C   UNL A   1      38.645  30.340  32.398  1.00  0.00     0.012 A 
ATOM     52  C   UNL A   1      37.648  31.136  30.331  1.00  0.00     0.148 A 
ATOM     53  C   UNL A   1      37.536  30.792  33.113  1.00  0.00     0.002 A 
ATOM     54  C   UNL A   1      36.573  31.637  31.055  1.00  0.00     0.091 A 
ATOM     55  F   UNL A   1      37.719  31.260  28.998  1.00  0.00    -0.205 F 
ATOM     56  C   UNL A   1      36.508  31.454  32.445  1.00  0.00     0.022 A 
BRANCH  54  57
ATOM     57  S   UNL A   1      35.290  32.631  30.285  1.00  0.00     0.127 S 
ATOM     58  O   UNL A   1      34.358  32.827  31.392  1.00  0.00    -0.237 OA
ATOM     59  O   UNL A   1      36.029  33.829  29.883  1.00  0.00    -0.237 OA
ATOM     60  O   UNL A   1      34.802  31.832  29.170  1.00  0.00    -0.744 OA
ENDBRANCH  54  57
ENDBRANCH  26  50
BRANCH  38  61
ATOM     61  C   UNL A   1      44.930  33.404  29.733  1.00  0.00     0.023 A 
ATOM     62  C   UNL A   1      45.680  33.476  30.925  1.00  0.00     0.012 A 
ATOM     63  C   UNL A   1      44.819  34.544  28.915  1.00  0.00     0.148 A 
ATOM     64  C   UNL A   1      46.286  34.670  31.310  1.00  0.00     0.002 A 
ATOM     65  C   UNL A   1      45.462  35.721  29.284  1.00  0.00     0.091 A 
ATOM     66  F   UNL A   1      44.082  34.462  27.798  1.00  0.00    -0.205 F 
ATOM     67  C   UNL A   1      46.186  35.789  30.484  1.00  0.00     0.022 A 
BRANCH  65  68
ATOM     68  S   UNL A   1      45.455  37.181  28.238  1.00  0.00     0.127 S 
ATOM     69  O   UNL A   1      46.058  36.671  27.008  1.00  0.00    -0.237 OA
ATOM     70  O   UNL A   1      44.028  37.489  28.136  1.00  0.00    -0.237 OA
ATOM     71  O   UNL A   1      46.235  38.184  28.952  1.00  0.00    -0.744 OA
ENDBRANCH  65  68
ENDBRANCH  38  61
ENDBRANCH  12  13
ENDBRANCH   5   7
ENDBRANCH   2   3
ENDBRANCH   1   2
BRANCH   1  72
ATOM     72  C   UNL A   1      33.904  21.442  26.387  1.00  0.00     0.023 C 
BRANCH  72  73
ATOM     73  C   UNL A   1      33.388  22.440  27.418  1.00  0.00     0.116 C 
BRANCH  73  74
ATOM     74  N   UNL A   1      31.957  22.318  27.629  1.00  0.00    -0.351 N 
ATOM     75  C   UNL A   1      30.955  22.915  26.912  1.00  0.00     0.280 C 
ATOM     76  H   UNL A   1      31.675  21.739  28.374  1.00  0.00     0.163 HD
ATOM     77  O   UNL A   1      29.786  22.635  27.183  1.00  0.00    -0.268 OA
BRANCH  75  78
ATOM     78  C   UNL A   1      31.340  23.891  25.791  1.00  0.00     0.292 C 
ATOM     79  C   UNL A   1      30.519  25.190  25.913  1.00  0.00     0.195 C 
ATOM     80  N   UNL A   1      31.143  23.208  24.466  1.00  0.00    -0.333 N 
ATOM     81  N   UNL A   1      30.806  26.048  24.768  1.00  0.00    -0.329 N 
ATOM     82  C   UNL A   1      31.485  24.159  23.388  1.00  0.00     0.283 C 
ATOM     83  H   UNL A   1      30.170  22.916  24.371  1.00  0.00     0.347 HD
ATOM     84  H   UNL A   1      31.743  22.385  24.407  1.00  0.00     0.347 HD
ATOM     85  C   UNL A   1      30.681  25.483  23.440  1.00  0.00     0.181 C 
BRANCH  81  86
ATOM     86  C   UNL A   1      30.972  27.386  24.958  1.00  0.00     0.227 A 
ATOM     87  N   UNL A   1      31.628  27.807  26.047  1.00  0.00    -0.221 NA
ATOM     88  N   UNL A   1      30.429  28.212  24.051  1.00  0.00    -0.196 NA
ATOM     89  C   UNL A   1      31.812  29.132  26.159  1.00  0.00     0.119 A 
ATOM     90  C   UNL A   1      30.579  29.533  24.215  1.00  0.00     0.134 A 
ATOM     91  C   UNL A   1      31.318  30.043  25.258  1.00  0.00     0.067 A 
BRANCH  90  92
ATOM     92  N   UNL A   1      29.923  30.383  23.350  1.00  0.00    -0.356 N 
ATOM     93  C   UNL A   1      29.756  30.025  21.954  1.00  0.00     0.121 C 
ATOM     94  C   UNL A   1      29.205  31.520  23.909  1.00  0.00     0.121 C 
ATOM     95  C   UNL A   1      28.272  29.953  21.604  1.00  0.00     0.053 C 
ATOM     96  C   UNL A   1      27.728  31.483  23.538  1.00  0.00     0.053 C 
ATOM     97  C   UNL A   1      27.515  31.202  22.052  1.00  0.00     0.118 C 
BRANCH  97  98
ATOM     98  O   UNL A   1      27.894  32.328  21.259  1.00  0.00    -0.393 OA
ATOM     99  H   UNL A   1      28.812  32.222  20.964  1.00  0.00     0.210 HD
ENDBRANCH  97  98
ENDBRANCH  90  92
ENDBRANCH  81  86
ENDBRANCH  75  78
ENDBRANCH  73  74
ENDBRANCH  72  73
ENDBRANCH   1  72
TORSDOF 17
ENDMDL
MODEL 3
REMARK VINA RESULT:     -12.3      1.634      2.066
REMARK SMILES O=C(NCCCCNC(=O)[C@@H]1CN(c2nccc(N3CCC(O)CC3)n2)CC[NH2+]1)c1ccc(-c2c3nc(c(-c4cccc(S(=O)(=O)[O-])c4F)c4ccc([nH]4)c(-c4cccc(S(=O)(=O)[O-])c4F)c4nc(c(-c5cccc(S(=O)(=O)[O-])c5F)c5ccc2[nH]5)C=C4)C=C3)cc1
REMARK SMILES IDX 5 1 4 2 3 3 1 4 2 5 30 7 31 8 92 9 32 10 91 11 33 12 34 13
REMARK SMILES IDX 35 14 85 15 36 16 90 17 84 18 86 19 37 20 89 21 83 22 82 23
REMARK SMILES IDX 38 25 70 26 50 27 69 28 51 29 54 30 68 31 87 32 52 33 53 34
REMARK SMILES IDX 67 36 88 37 55 38 39 39 40 40 48 41 41 42 43 43 49 44 42 45
REMARK SMILES IDX 44 46 45 47 46 48 47 49 71 50 72 51 80 52 73 53 75 54 81 55
REMARK SMILES IDX 74 56 76 57 77 58 78 59 79 60 56 61 57 62 65 63 58 64 60 65
REMARK SMILES IDX 66 66 59 67 61 68 62 69 63 70 64 71 6 72 7 73 8 74 9 75
REMARK SMILES IDX 10 77 11 78 12 79 29 80 13 81 28 82 27 85 14 86 15 87 26 88
REMARK SMILES IDX 16 89 18 90 17 91 19 92 20 93 25 94 21 95 24 96 22 97 23 98
REMARK H PARENT 3 6 86 24 54 35 8 76 29 83 29 84 23 99
REMARK Flexibility Score: inf
ROOT
ATOM      1  C   UNL A   1      38.072  19.612  25.000  1.00  0.00     0.023 C 
ENDROOT
BRANCH   1   2
ATOM      2  C   UNL A   1      39.215  20.109  25.875  1.00  0.00     0.116 C 
BRANCH   2   3
ATOM      3  N   UNL A   1      40.300  19.147  25.988  1.00  0.00    -0.352 N 
ATOM      4  O   UNL A   1      42.440  18.442  26.086  1.00  0.00    -0.269 OA
ATOM      5  C   UNL A   1      41.644  19.375  26.164  1.00  0.00     0.251 C 
ATOM      6  H   UNL A   1      40.035  18.200  25.931  1.00  0.00     0.163 HD
BRANCH   5   7
ATOM      7  C   UNL A   1      42.121  20.751  26.413  1.00  0.00     0.039 A 
ATOM      8  C   UNL A   1      42.302  21.212  27.719  1.00  0.00     0.014 A 
ATOM      9  C   UNL A   1      42.368  21.597  25.328  1.00  0.00     0.014 A 
ATOM     10  C   UNL A   1      42.579  22.556  27.944  1.00  0.00     0.010 A 
ATOM     11  C   UNL A   1      42.731  22.927  25.556  1.00  0.00     0.010 A 
ATOM     12  C   UNL A   1      42.804  23.427  26.865  1.00  0.00    -0.014 A 
BRANCH  12  13
ATOM     13  C   UNL A   1      43.180  24.837  27.137  1.00  0.00     0.031 A 
ATOM     14  C   UNL A   1      42.250  25.773  27.858  1.00  0.00     0.074 A 
ATOM     15  C   UNL A   1      44.388  25.269  26.725  1.00  0.00     0.049 A 
ATOM     16  N   UNL A   1      42.444  27.022  28.198  1.00  0.00    -0.248 NA
ATOM     17  C   UNL A   1      40.929  25.248  28.242  1.00  0.00     0.031 C 
ATOM     18  C   UNL A   1      45.355  24.463  25.974  1.00  0.00     0.029 A 
ATOM     19  N   UNL A   1      45.011  26.481  26.876  1.00  0.00    -0.354 N 
ATOM     20  C   UNL A   1      41.264  27.446  28.798  1.00  0.00     0.074 A 
ATOM     21  C   UNL A   1      40.353  26.322  28.771  1.00  0.00     0.031 C 
ATOM     22  C   UNL A   1      46.457  25.193  25.753  1.00  0.00     0.029 A 
ATOM     23  C   UNL A   1      46.260  26.529  26.303  1.00  0.00     0.049 A 
ATOM     24  H   UNL A   1      44.603  27.242  27.348  1.00  0.00     0.167 HD
ATOM     25  C   UNL A   1      40.975  28.655  29.337  1.00  0.00     0.034 A 
ATOM     26  C   UNL A   1      47.146  27.538  26.218  1.00  0.00     0.034 A 
ATOM     27  C   UNL A   1      41.902  29.754  29.400  1.00  0.00     0.049 A 
ATOM     28  C   UNL A   1      46.812  28.855  26.855  1.00  0.00     0.074 A 
ATOM     29  C   UNL A   1      41.726  30.995  29.989  1.00  0.00     0.029 A 
ATOM     30  N   UNL A   1      43.176  29.750  28.853  1.00  0.00    -0.354 N 
ATOM     31  N   UNL A   1      45.743  29.190  27.536  1.00  0.00    -0.248 NA
ATOM     32  C   UNL A   1      47.813  29.923  26.738  1.00  0.00     0.031 C 
ATOM     33  C   UNL A   1      42.890  31.745  29.786  1.00  0.00     0.029 A 
ATOM     34  C   UNL A   1      43.795  30.968  29.082  1.00  0.00     0.049 A 
ATOM     35  H   UNL A   1      43.582  28.993  28.372  1.00  0.00     0.167 HD
ATOM     36  C   UNL A   1      45.948  30.502  27.943  1.00  0.00     0.074 A 
ATOM     37  C   UNL A   1      47.259  30.888  27.460  1.00  0.00     0.031 C 
ATOM     38  C   UNL A   1      45.118  31.321  28.634  1.00  0.00     0.034 A 
BRANCH  25  39
ATOM     39  C   UNL A   1      39.613  28.844  29.952  1.00  0.00     0.023 A 
ATOM     40  C   UNL A   1      39.357  28.328  31.239  1.00  0.00     0.012 A 
ATOM     41  C   UNL A   1      38.616  29.596  29.299  1.00  0.00     0.148 A 
ATOM     42  C   UNL A   1      38.124  28.537  31.855  1.00  0.00     0.002 A 
ATOM     43  C   UNL A   1      37.402  29.831  29.935  1.00  0.00     0.091 A 
ATOM     44  F   UNL A   1      38.870  30.060  28.067  1.00  0.00    -0.205 F 
ATOM     45  C   UNL A   1      37.152  29.296  31.210  1.00  0.00     0.022 A 
BRANCH  43  46
ATOM     46  S   UNL A   1      36.116  30.856  29.212  1.00  0.00     0.127 S 
ATOM     47  O   UNL A   1      35.419  31.339  30.403  1.00  0.00    -0.237 OA
ATOM     48  O   UNL A   1      36.890  31.877  28.505  1.00  0.00    -0.237 OA
ATOM     49  O   UNL A   1      35.345  29.974  28.346  1.00  0.00    -0.744 OA
ENDBRANCH  43  46
ENDBRANCH  25  39
BRANCH  26  50
ATOM     50  C   UNL A   1      48.456  27.309  25.547  1.00  0.00     0.023 A 
ATOM     51  C   UNL A   1      49.542  26.819  26.297  1.00  0.00     0.012 A 
ATOM     52  C   UNL A   1      48.611  27.506  24.161  1.00  0.00     0.148 A 
ATOM     53  C   UNL A   1      50.764  26.547  25.683  1.00  0.00     0.002 A 
ATOM     54  C   UNL A   1      49.813  27.176  23.545  1.00  0.00     0.091 A 
ATOM     55  F   UNL A   1      47.573  27.992  23.466  1.00  0.00    -0.205 F 
ATOM     56  C   UNL A   1      50.895  26.710  24.306  1.00  0.00     0.022 A 
BRANCH  54  57
ATOM     57  S   UNL A   1      50.006  27.216  21.760  1.00  0.00     0.127 S 
ATOM     58  O   UNL A   1      48.915  26.350  21.320  1.00  0.00    -0.237 OA
ATOM     59  O   UNL A   1      49.823  28.638  21.462  1.00  0.00    -0.237 OA
ATOM     60  O   UNL A   1      51.354  26.726  21.508  1.00  0.00    -0.744 OA
ENDBRANCH  54  57
ENDBRANCH  26  50
BRANCH  38  61
ATOM     61  C   UNL A   1      45.604  32.716  28.917  1.00  0.00     0.023 A 
ATOM     62  C   UNL A   1      46.341  32.968  30.093  1.00  0.00     0.012 A 
ATOM     63  C   UNL A   1      45.388  33.761  27.999  1.00  0.00     0.148 A 
ATOM     64  C   UNL A   1      46.831  34.244  30.363  1.00  0.00     0.002 A 
ATOM     65  C   UNL A   1      45.916  35.021  28.254  1.00  0.00     0.091 A 
ATOM     66  F   UNL A   1      44.665  33.507  26.898  1.00  0.00    -0.205 F 
ATOM     67  C   UNL A   1      46.628  35.268  29.439  1.00  0.00     0.022 A 
BRANCH  65  68
ATOM     68  S   UNL A   1      45.775  36.372  27.078  1.00  0.00     0.127 S 
ATOM     69  O   UNL A   1      44.327  36.559  27.009  1.00  0.00    -0.237 OA
ATOM     70  O   UNL A   1      46.498  37.452  27.751  1.00  0.00    -0.237 OA
ATOM     71  O   UNL A   1      46.407  35.900  25.853  1.00  0.00    -0.744 OA
ENDBRANCH  65  68
ENDBRANCH  38  61
ENDBRANCH  12  13
ENDBRANCH   5   7
ENDBRANCH   2   3
ENDBRANCH   1   2
BRANCH   1  72
ATOM     72  C   UNL A   1      37.065  20.682  24.583  1.00  0.00     0.023 C 
BRANCH  72  73
ATOM     73  C   UNL A   1      36.799  21.754  25.634  1.00  0.00     0.116 C 
BRANCH  73  74
ATOM     74  N   UNL A   1      35.730  21.377  26.540  1.00  0.00    -0.351 N 
ATOM     75  C   UNL A   1      34.384  21.382  26.290  1.00  0.00     0.280 C 
ATOM     76  H   UNL A   1      36.004  21.086  27.439  1.00  0.00     0.163 HD
ATOM     77  O   UNL A   1      33.619  20.953  27.155  1.00  0.00    -0.268 OA
BRANCH  75  78
ATOM     78  C   UNL A   1      33.895  21.904  24.932  1.00  0.00     0.292 C 
ATOM     79  C   UNL A   1      33.308  23.321  25.088  1.00  0.00     0.195 C 
ATOM     80  N   UNL A   1      32.900  20.929  24.366  1.00  0.00    -0.333 N 
ATOM     81  N   UNL A   1      32.736  23.746  23.815  1.00  0.00    -0.329 N 
ATOM     82  C   UNL A   1      32.409  21.449  23.073  1.00  0.00     0.283 C 
ATOM     83  H   UNL A   1      32.119  20.821  25.013  1.00  0.00     0.347 HD
ATOM     84  H   UNL A   1      33.344  20.020  24.229  1.00  0.00     0.347 HD
ATOM     85  C   UNL A   1      31.788  22.866  23.162  1.00  0.00     0.181 C 
BRANCH  81  86
ATOM     86  C   UNL A   1      32.933  25.022  23.384  1.00  0.00     0.227 A 
ATOM     87  N   UNL A   1      33.199  25.232  22.088  1.00  0.00    -0.221 NA
ATOM     88  N   UNL A   1      32.884  26.000  24.301  1.00  0.00    -0.196 NA
ATOM     89  C   UNL A   1      33.331  26.512  21.705  1.00  0.00     0.119 A 
ATOM     90  C   UNL A   1      33.074  27.266  23.901  1.00  0.00     0.134 A 
ATOM     91  C   UNL A   1      33.262  27.573  22.573  1.00  0.00     0.067 A 
BRANCH  90  92
ATOM     92  N   UNL A   1      33.141  28.255  24.858  1.00  0.00    -0.356 N 
ATOM     93  C   UNL A   1      32.695  29.603  24.554  1.00  0.00     0.121 C 
ATOM     94  C   UNL A   1      33.442  27.872  26.230  1.00  0.00     0.121 C 
ATOM     95  C   UNL A   1      31.557  30.002  25.490  1.00  0.00     0.053 C 
ATOM     96  C   UNL A   1      32.332  28.297  27.183  1.00  0.00     0.053 C 
ATOM     97  C   UNL A   1      31.901  29.744  26.956  1.00  0.00     0.118 C 
BRANCH  97  98
ATOM     98  O   UNL A   1      32.909  30.654  27.401  1.00  0.00    -0.393 OA
ATOM     99  H   UNL A   1      32.490  31.408  27.845  1.00  0.00     0.210 HD
ENDBRANCH  97  98
ENDBRANCH  90  92
ENDBRANCH  81  86
ENDBRANCH  75  78
ENDBRANCH  73  74
ENDBRANCH  72  73
ENDBRANCH   1  72
TORSDOF 17
ENDMDL
