MODEL 1
REMARK VINA RESULT:     -13.0      0.000      0.000
REMARK SMILES NC(=O)c1c(-c2ccc(Cl)cc2)csc1NC(=O)[C@H]1[C@@H](C(=O)NCCCCNC(=O)c2ccc(-c3c4nc(c(-c5cccc(S(=O)(=O)[O-])c5F)c5ccc([nH]5)c(-c5cccc(S(=O)(=O)[O-])c5F)c5nc(c(-c6cccc(S(=O)(=O)[O-])c6F)c6ccc3[nH]6)C=C5)C=C4)cc2)[C@@H]2CC[C@H]1O2
REMARK SMILES IDX 25 1 24 2 23 3 21 4 22 5 20 7 19 8 97 9 94 10 96 11 98 12
REMARK SMILES IDX 95 13 17 14 16 15 18 17 15 18 4 19 5 20 13 21 14 22 2 23
REMARK SMILES IDX 1 24 3 27 6 28 7 29 12 30 8 31 11 32 9 33 10 34 26 35 27 36
REMARK SMILES IDX 28 37 29 38 30 40 31 41 32 42 93 43 33 44 92 45 34 46 35 47
REMARK SMILES IDX 36 48 86 49 37 50 91 51 85 52 87 53 38 54 90 55 84 56 83 57
REMARK SMILES IDX 39 59 71 60 51 61 70 62 52 63 55 64 69 65 88 66 53 67 54 68
REMARK SMILES IDX 68 70 89 71 56 72 40 73 41 74 49 75 42 76 44 77 50 78 43 79
REMARK SMILES IDX 45 80 46 81 47 82 48 83 72 84 73 85 81 86 74 87 76 88 82 89
REMARK SMILES IDX 75 90 77 91 78 92 79 93 80 94 57 95 58 96 66 97 59 98 61 99
REMARK SMILES IDX 67 100 60 101 62 102 63 103 64 104 65 105
REMARK H PARENT 23 6 16 16 1 25 1 26 28 39 87 58 55 69
REMARK Flexibility Score: inf
ROOT
ATOM      1  C   UNL A   1      35.376  23.113  23.497  1.00  0.00     0.023 C 
ENDROOT
BRANCH   1   2
ATOM      2  C   UNL A   1      34.850  24.341  24.224  1.00  0.00     0.116 C 
BRANCH   2   3
ATOM      3  N   UNL A   1      34.204  25.330  23.408  1.00  0.00    -0.356 N 
ATOM      4  C   UNL A   1      33.831  26.591  23.736  1.00  0.00     0.226 C 
ATOM      5  O   UNL A   1      33.460  27.307  22.795  1.00  0.00    -0.275 OA
ATOM      6  H   UNL A   1      34.006  25.056  22.484  1.00  0.00     0.163 HD
BRANCH   4   7
ATOM      7  C   UNL A   1      33.679  27.137  25.154  1.00  0.00     0.122 C 
ATOM      8  C   UNL A   1      32.472  27.015  26.111  1.00  0.00     0.123 C 
ATOM      9  C   UNL A   1      32.425  28.410  26.701  1.00  0.00     0.132 C 
ATOM     10  C   UNL A   1      33.972  28.649  25.190  1.00  0.00     0.132 C 
ATOM     11  C   UNL A   1      33.663  28.756  27.537  1.00  0.00     0.035 C 
ATOM     12  O   UNL A   1      32.685  29.211  25.526  1.00  0.00    -0.373 OA
ATOM     13  C   UNL A   1      34.724  29.020  26.466  1.00  0.00     0.035 C 
BRANCH   8  14
ATOM     14  C   UNL A   1      31.229  26.267  25.636  1.00  0.00     0.231 C 
ATOM     15  N   UNL A   1      30.961  24.951  25.431  1.00  0.00    -0.317 N 
ATOM     16  H   UNL A   1      30.087  24.854  24.991  1.00  0.00     0.170 HD
ATOM     17  O   UNL A   1      30.257  27.005  25.376  1.00  0.00    -0.274 OA
BRANCH  15  18
ATOM     18  C   UNL A   1      31.523  23.696  25.642  1.00  0.00     0.108 A 
ATOM     19  C   UNL A   1      31.778  22.726  24.660  1.00  0.00     0.082 A 
ATOM     20  C   UNL A   1      32.433  21.557  25.229  1.00  0.00     0.007 A 
ATOM     21  C   UNL A   1      32.587  21.690  26.591  1.00  0.00     0.076 A 
ATOM     22  S   UNL A   1      31.883  23.095  27.167  1.00  0.00    -0.125 S 
BRANCH  19  23
ATOM     23  C   UNL A   1      31.358  22.937  23.276  1.00  0.00     0.252 C 
ATOM     24  N   UNL A   1      32.157  22.403  22.315  1.00  0.00    -0.365 N 
ATOM     25  H   UNL A   1      31.925  22.512  21.364  1.00  0.00     0.159 HD
ATOM     26  H   UNL A   1      32.968  21.907  22.569  1.00  0.00     0.159 HD
ATOM     27  O   UNL A   1      30.279  23.452  22.993  1.00  0.00    -0.269 OA
ENDBRANCH  19  23
BRANCH  20  28
ATOM     28  C   UNL A   1      32.968  20.343  24.623  1.00  0.00    -0.017 A 
ATOM     29  C   UNL A   1      32.123  19.538  23.839  1.00  0.00     0.010 A 
ATOM     30  C   UNL A   1      34.259  19.896  24.920  1.00  0.00     0.010 A 
ATOM     31  C   UNL A   1      32.543  18.284  23.398  1.00  0.00     0.021 A 
ATOM     32  C   UNL A   1      34.683  18.642  24.468  1.00  0.00     0.021 A 
ATOM     33  C   UNL A   1      33.821  17.837  23.722  1.00  0.00     0.041 A 
ATOM     34  Cl  UNL A   1      34.323  16.270  23.221  1.00  0.00    -0.084 Cl
ENDBRANCH  20  28
ENDBRANCH  15  18
ENDBRANCH   8  14
ENDBRANCH   4   7
ENDBRANCH   2   3
ENDBRANCH   1   2
BRANCH   1  35
ATOM     35  C   UNL A   1      36.770  22.634  23.899  1.00  0.00     0.023 C 
BRANCH  35  36
ATOM     36  C   UNL A   1      36.964  22.190  25.347  1.00  0.00     0.116 C 
BRANCH  36  37
ATOM     37  N   UNL A   1      38.057  21.244  25.552  1.00  0.00    -0.352 N 
ATOM     38  C   UNL A   1      39.286  21.427  26.151  1.00  0.00     0.251 C 
ATOM     39  H   UNL A   1      37.891  20.336  25.210  1.00  0.00     0.163 HD
ATOM     40  O   UNL A   1      40.110  20.514  26.164  1.00  0.00    -0.269 OA
BRANCH  38  41
ATOM     41  C   UNL A   1      39.641  22.742  26.731  1.00  0.00     0.039 A 
ATOM     42  C   UNL A   1      40.657  22.803  27.691  1.00  0.00     0.014 A 
ATOM     43  C   UNL A   1      39.014  23.914  26.304  1.00  0.00     0.014 A 
ATOM     44  C   UNL A   1      41.120  24.046  28.131  1.00  0.00     0.010 A 
ATOM     45  C   UNL A   1      39.536  25.150  26.675  1.00  0.00     0.010 A 
ATOM     46  C   UNL A   1      40.605  25.231  27.580  1.00  0.00    -0.014 A 
BRANCH  46  47
ATOM     47  C   UNL A   1      41.202  26.557  27.895  1.00  0.00     0.031 A 
ATOM     48  C   UNL A   1      42.643  26.843  27.569  1.00  0.00     0.074 A 
ATOM     49  C   UNL A   1      40.476  27.465  28.581  1.00  0.00     0.049 A 
ATOM     50  N   UNL A   1      43.353  27.907  27.843  1.00  0.00    -0.248 NA
ATOM     51  C   UNL A   1      43.394  25.784  26.875  1.00  0.00     0.031 C 
ATOM     52  C   UNL A   1      39.100  27.272  29.047  1.00  0.00     0.029 A 
ATOM     53  N   UNL A   1      40.803  28.720  29.034  1.00  0.00    -0.354 N 
ATOM     54  C   UNL A   1      44.640  27.629  27.400  1.00  0.00     0.074 A 
ATOM     55  C   UNL A   1      44.622  26.284  26.866  1.00  0.00     0.031 C 
ATOM     56  C   UNL A   1      38.702  28.368  29.713  1.00  0.00     0.029 A 
ATOM     57  C   UNL A   1      39.796  29.332  29.745  1.00  0.00     0.049 A 
ATOM     58  H   UNL A   1      41.676  29.142  28.865  1.00  0.00     0.167 HD
ATOM     59  C   UNL A   1      45.732  28.430  27.404  1.00  0.00     0.034 A 
ATOM     60  C   UNL A   1      39.757  30.533  30.355  1.00  0.00     0.034 A 
ATOM     61  C   UNL A   1      45.734  29.789  27.874  1.00  0.00     0.049 A 
ATOM     62  C   UNL A   1      40.958  31.435  30.271  1.00  0.00     0.074 A 
ATOM     63  C   UNL A   1      46.760  30.716  27.823  1.00  0.00     0.029 A 
ATOM     64  N   UNL A   1      44.657  30.418  28.478  1.00  0.00    -0.354 N 
ATOM     65  N   UNL A   1      42.113  31.217  29.691  1.00  0.00    -0.248 NA
ATOM     66  C   UNL A   1      40.839  32.763  30.892  1.00  0.00     0.031 C 
ATOM     67  C   UNL A   1      46.304  31.905  28.401  1.00  0.00     0.029 A 
ATOM     68  C   UNL A   1      44.990  31.721  28.804  1.00  0.00     0.049 A 
ATOM     69  H   UNL A   1      43.782  29.999  28.650  1.00  0.00     0.167 HD
ATOM     70  C   UNL A   1      42.845  32.389  29.845  1.00  0.00     0.074 A 
ATOM     71  C   UNL A   1      41.995  33.322  30.556  1.00  0.00     0.031 C 
ATOM     72  C   UNL A   1      44.113  32.660  29.453  1.00  0.00     0.034 A 
BRANCH  59  73
ATOM     73  C   UNL A   1      47.002  27.881  26.810  1.00  0.00     0.023 A 
ATOM     74  C   UNL A   1      47.957  27.281  27.657  1.00  0.00     0.012 A 
ATOM     75  C   UNL A   1      47.230  27.905  25.420  1.00  0.00     0.148 A 
ATOM     76  C   UNL A   1      49.132  26.744  27.136  1.00  0.00     0.002 A 
ATOM     77  C   UNL A   1      48.387  27.330  24.904  1.00  0.00     0.091 A 
ATOM     78  F   UNL A   1      46.322  28.499  24.632  1.00  0.00    -0.205 F 
ATOM     79  C   UNL A   1      49.342  26.760  25.760  1.00  0.00     0.022 A 
BRANCH  77  80
ATOM     80  S   UNL A   1      48.713  27.231  23.140  1.00  0.00     0.127 S 
ATOM     81  O   UNL A   1      50.168  27.367  23.100  1.00  0.00    -0.237 OA
ATOM     82  O   UNL A   1      48.217  25.895  22.809  1.00  0.00    -0.237 OA
ATOM     83  O   UNL A   1      47.964  28.321  22.532  1.00  0.00    -0.744 OA
ENDBRANCH  77  80
ENDBRANCH  59  73
BRANCH  60  84
ATOM     84  C   UNL A   1      38.504  30.986  31.024  1.00  0.00     0.023 A 
ATOM     85  C   UNL A   1      38.398  30.880  32.424  1.00  0.00     0.012 A 
ATOM     86  C   UNL A   1      37.440  31.554  30.296  1.00  0.00     0.148 A 
ATOM     87  C   UNL A   1      37.243  31.303  33.086  1.00  0.00     0.002 A 
ATOM     88  C   UNL A   1      36.315  32.021  30.967  1.00  0.00     0.091 A 
ATOM     89  F   UNL A   1      37.554  31.634  28.963  1.00  0.00    -0.205 F 
ATOM     90  C   UNL A   1      36.208  31.882  32.359  1.00  0.00     0.022 A 
BRANCH  88  91
ATOM     91  S   UNL A   1      34.995  32.902  30.125  1.00  0.00     0.127 S 
ATOM     92  O   UNL A   1      34.100  33.229  31.232  1.00  0.00    -0.237 OA
ATOM     93  O   UNL A   1      35.707  34.044  29.550  1.00  0.00    -0.237 OA
ATOM     94  O   UNL A   1      34.473  31.967  29.138  1.00  0.00    -0.744 OA
ENDBRANCH  88  91
ENDBRANCH  60  84
BRANCH  72  95
ATOM     95  C   UNL A   1      44.661  34.030  29.751  1.00  0.00     0.023 A 
ATOM     96  C   UNL A   1      45.398  34.242  30.933  1.00  0.00     0.012 A 
ATOM     97  C   UNL A   1      44.519  35.081  28.824  1.00  0.00     0.148 A 
ATOM     98  C   UNL A   1      45.964  35.488  31.200  1.00  0.00     0.002 A 
ATOM     99  C   UNL A   1      45.123  36.308  29.077  1.00  0.00     0.091 A 
ATOM    100  F   UNL A   1      43.795  34.865  27.716  1.00  0.00    -0.205 F 
ATOM    101  C   UNL A   1      45.837  36.516  30.268  1.00  0.00     0.022 A 
BRANCH  99 102
ATOM    102  S   UNL A   1      45.087  37.654  27.888  1.00  0.00     0.127 S 
ATOM    103  O   UNL A   1      45.977  37.152  26.842  1.00  0.00    -0.237 OA
ATOM    104  O   UNL A   1      43.674  37.704  27.512  1.00  0.00    -0.237 OA
ATOM    105  O   UNL A   1      45.561  38.830  28.604  1.00  0.00    -0.744 OA
ENDBRANCH  99 102
ENDBRANCH  72  95
ENDBRANCH  46  47
ENDBRANCH  38  41
ENDBRANCH  36  37
ENDBRANCH  35  36
ENDBRANCH   1  35
TORSDOF 18
ENDMDL
MODEL 2
REMARK VINA RESULT:     -12.7      3.129      8.817
REMARK SMILES NC(=O)c1c(-c2ccc(Cl)cc2)csc1NC(=O)[C@H]1[C@@H](C(=O)NCCCCNC(=O)c2ccc(-c3c4nc(c(-c5cccc(S(=O)(=O)[O-])c5F)c5ccc([nH]5)c(-c5cccc(S(=O)(=O)[O-])c5F)c5nc(c(-c6cccc(S(=O)(=O)[O-])c6F)c6ccc3[nH]6)C=C5)C=C4)cc2)[C@@H]2CC[C@H]1O2
REMARK SMILES IDX 25 1 24 2 23 3 21 4 22 5 20 7 19 8 97 9 94 10 96 11 98 12
REMARK SMILES IDX 95 13 17 14 16 15 18 17 15 18 4 19 5 20 13 21 14 22 2 23
REMARK SMILES IDX 1 24 3 27 6 28 7 29 12 30 8 31 11 32 9 33 10 34 26 35 27 36
REMARK SMILES IDX 28 37 29 38 30 40 31 41 32 42 93 43 33 44 92 45 34 46 35 47
REMARK SMILES IDX 36 48 86 49 37 50 91 51 85 52 87 53 38 54 90 55 84 56 83 57
REMARK SMILES IDX 39 59 71 60 51 61 70 62 52 63 55 64 69 65 88 66 53 67 54 68
REMARK SMILES IDX 68 70 89 71 56 72 40 73 41 74 49 75 42 76 44 77 50 78 43 79
REMARK SMILES IDX 45 80 46 81 47 82 48 83 72 84 73 85 81 86 74 87 76 88 82 89
REMARK SMILES IDX 75 90 77 91 78 92 79 93 80 94 57 95 58 96 66 97 59 98 61 99
REMARK SMILES IDX 67 100 60 101 62 102 63 103 64 104 65 105
REMARK H PARENT 23 6 16 16 1 25 1 26 28 39 87 58 55 69
REMARK Flexibility Score: inf
ROOT
ATOM      1  C   UNL A   1      37.074  21.035  25.418  1.00  0.00     0.023 C 
ENDROOT
BRANCH   1   2
ATOM      2  C   UNL A   1      37.025  22.483  25.881  1.00  0.00     0.116 C 
BRANCH   2   3
ATOM      3  N   UNL A   1      35.859  22.871  26.621  1.00  0.00    -0.356 N 
ATOM      4  C   UNL A   1      34.578  22.452  26.471  1.00  0.00     0.226 C 
ATOM      5  O   UNL A   1      33.789  22.801  27.361  1.00  0.00    -0.275 OA
ATOM      6  H   UNL A   1      36.009  23.531  27.335  1.00  0.00     0.163 HD
BRANCH   4   7
ATOM      7  C   UNL A   1      34.008  21.742  25.246  1.00  0.00     0.122 C 
ATOM      8  C   UNL A   1      34.059  22.181  23.765  1.00  0.00     0.123 C 
ATOM      9  C   UNL A   1      32.656  21.833  23.309  1.00  0.00     0.132 C 
ATOM     10  C   UNL A   1      32.513  21.432  25.443  1.00  0.00     0.132 C 
ATOM     11  C   UNL A   1      32.361  20.328  23.350  1.00  0.00     0.035 C 
ATOM     12  O   UNL A   1      31.883  22.271  24.450  1.00  0.00    -0.373 OA
ATOM     13  C   UNL A   1      32.163  20.070  24.845  1.00  0.00     0.035 C 
BRANCH   8  14
ATOM     14  C   UNL A   1      34.750  23.495  23.410  1.00  0.00     0.231 C 
ATOM     15  N   UNL A   1      34.374  24.797  23.511  1.00  0.00    -0.317 N 
ATOM     16  H   UNL A   1      35.031  25.370  23.055  1.00  0.00     0.170 HD
ATOM     17  O   UNL A   1      35.891  23.357  22.922  1.00  0.00    -0.274 OA
BRANCH  15  18
ATOM     18  C   UNL A   1      33.360  25.582  24.050  1.00  0.00     0.108 A 
ATOM     19  C   UNL A   1      32.671  26.613  23.392  1.00  0.00     0.082 A 
ATOM     20  C   UNL A   1      31.630  27.176  24.239  1.00  0.00     0.007 A 
ATOM     21  C   UNL A   1      31.626  26.583  25.482  1.00  0.00     0.076 A 
ATOM     22  S   UNL A   1      32.878  25.485  25.654  1.00  0.00    -0.125 S 
BRANCH  19  23
ATOM     23  C   UNL A   1      33.057  27.027  22.045  1.00  0.00     0.252 C 
ATOM     24  N   UNL A   1      33.544  28.289  21.917  1.00  0.00    -0.365 N 
ATOM     25  H   UNL A   1      33.820  28.625  21.034  1.00  0.00     0.159 HD
ATOM     26  H   UNL A   1      33.620  28.869  22.709  1.00  0.00     0.159 HD
ATOM     27  O   UNL A   1      33.066  26.243  21.099  1.00  0.00    -0.269 OA
ENDBRANCH  19  23
BRANCH  20  28
ATOM     28  C   UNL A   1      30.608  28.188  23.992  1.00  0.00    -0.017 A 
ATOM     29  C   UNL A   1      29.445  27.828  23.286  1.00  0.00     0.010 A 
ATOM     30  C   UNL A   1      30.824  29.529  24.319  1.00  0.00     0.010 A 
ATOM     31  C   UNL A   1      28.535  28.801  22.872  1.00  0.00     0.021 A 
ATOM     32  C   UNL A   1      29.905  30.503  23.912  1.00  0.00     0.021 A 
ATOM     33  C   UNL A   1      28.775  30.136  23.181  1.00  0.00     0.041 A 
ATOM     34  Cl  UNL A   1      27.680  31.343  22.628  1.00  0.00    -0.084 Cl
ENDBRANCH  20  28
ENDBRANCH  15  18
ENDBRANCH   8  14
ENDBRANCH   4   7
ENDBRANCH   2   3
ENDBRANCH   1   2
BRANCH   1  35
ATOM     35  C   UNL A   1      38.449  20.494  25.030  1.00  0.00     0.023 C 
BRANCH  35  36
ATOM     36  C   UNL A   1      39.527  20.486  26.113  1.00  0.00     0.116 C 
BRANCH  36  37
ATOM     37  N   UNL A   1      40.437  19.346  26.055  1.00  0.00    -0.352 N 
ATOM     38  C   UNL A   1      41.806  19.297  26.217  1.00  0.00     0.251 C 
ATOM     39  H   UNL A   1      40.007  18.478  25.875  1.00  0.00     0.163 HD
ATOM     40  O   UNL A   1      42.410  18.237  26.061  1.00  0.00    -0.269 OA
BRANCH  38  41
ATOM     41  C   UNL A   1      42.562  20.532  26.523  1.00  0.00     0.039 A 
ATOM     42  C   UNL A   1      43.145  21.244  25.469  1.00  0.00     0.014 A 
ATOM     43  C   UNL A   1      42.661  21.015  27.829  1.00  0.00     0.014 A 
ATOM     44  C   UNL A   1      43.723  22.493  25.712  1.00  0.00     0.010 A 
ATOM     45  C   UNL A   1      43.155  22.297  28.055  1.00  0.00     0.010 A 
ATOM     46  C   UNL A   1      43.677  23.058  26.997  1.00  0.00    -0.014 A 
BRANCH  46  47
ATOM     47  C   UNL A   1      44.118  24.457  27.248  1.00  0.00     0.031 A 
ATOM     48  C   UNL A   1      43.141  25.489  27.743  1.00  0.00     0.074 A 
ATOM     49  C   UNL A   1      45.374  24.825  26.917  1.00  0.00     0.049 A 
ATOM     50  N   UNL A   1      43.325  26.769  27.937  1.00  0.00    -0.248 NA
ATOM     51  C   UNL A   1      41.771  25.031  28.025  1.00  0.00     0.031 C 
ATOM     52  C   UNL A   1      46.388  23.945  26.331  1.00  0.00     0.029 A 
ATOM     53  N   UNL A   1      46.003  26.044  26.996  1.00  0.00    -0.354 N 
ATOM     54  C   UNL A   1      42.089  27.277  28.317  1.00  0.00     0.074 A 
ATOM     55  C   UNL A   1      41.154  26.173  28.297  1.00  0.00     0.031 C 
ATOM     56  C   UNL A   1      47.509  24.649  26.110  1.00  0.00     0.029 A 
ATOM     57  C   UNL A   1      47.291  26.034  26.513  1.00  0.00     0.049 A 
ATOM     58  H   UNL A   1      45.571  26.848  27.364  1.00  0.00     0.167 HD
ATOM     59  C   UNL A   1      41.765  28.540  28.683  1.00  0.00     0.034 A 
ATOM     60  C   UNL A   1      48.195  27.028  26.405  1.00  0.00     0.034 A 
ATOM     61  C   UNL A   1      42.708  29.622  28.768  1.00  0.00     0.049 A 
ATOM     62  C   UNL A   1      47.834  28.403  26.897  1.00  0.00     0.074 A 
ATOM     63  C   UNL A   1      42.500  30.910  29.229  1.00  0.00     0.029 A 
ATOM     64  N   UNL A   1      44.037  29.544  28.385  1.00  0.00    -0.354 N 
ATOM     65  N   UNL A   1      46.706  28.820  27.419  1.00  0.00    -0.248 NA
ATOM     66  C   UNL A   1      48.880  29.433  26.823  1.00  0.00     0.031 C 
ATOM     67  C   UNL A   1      43.705  31.613  29.120  1.00  0.00     0.029 A 
ATOM     68  C   UNL A   1      44.665  30.758  28.601  1.00  0.00     0.049 A 
ATOM     69  H   UNL A   1      44.472  28.742  28.015  1.00  0.00     0.167 HD
ATOM     70  C   UNL A   1      46.916  30.150  27.766  1.00  0.00     0.074 A 
ATOM     71  C   UNL A   1      48.286  30.462  27.415  1.00  0.00     0.031 C 
ATOM     72  C   UNL A   1      46.046  31.037  28.307  1.00  0.00     0.034 A 
BRANCH  59  73
ATOM     73  C   UNL A   1      40.342  28.803  29.099  1.00  0.00     0.023 A 
ATOM     74  C   UNL A   1      39.368  29.044  28.108  1.00  0.00     0.012 A 
ATOM     75  C   UNL A   1      39.953  28.757  30.452  1.00  0.00     0.148 A 
ATOM     76  C   UNL A   1      38.038  29.269  28.457  1.00  0.00     0.002 A 
ATOM     77  C   UNL A   1      38.616  28.942  30.789  1.00  0.00     0.091 A 
ATOM     78  F   UNL A   1      40.896  28.548  31.382  1.00  0.00    -0.205 F 
ATOM     79  C   UNL A   1      37.661  29.208  29.796  1.00  0.00     0.022 A 
BRANCH  77  80
ATOM     80  S   UNL A   1      38.018  28.806  32.478  1.00  0.00     0.127 S 
ATOM     81  O   UNL A   1      36.636  29.262  32.340  1.00  0.00    -0.237 OA
ATOM     82  O   UNL A   1      38.162  27.373  32.742  1.00  0.00    -0.237 OA
ATOM     83  O   UNL A   1      38.884  29.658  33.280  1.00  0.00    -0.744 OA
ENDBRANCH  77  80
ENDBRANCH  59  73
BRANCH  60  84
ATOM     84  C   UNL A   1      49.562  26.735  25.886  1.00  0.00     0.023 A 
ATOM     85  C   UNL A   1      50.466  26.024  26.700  1.00  0.00     0.012 A 
ATOM     86  C   UNL A   1      49.960  27.117  24.589  1.00  0.00     0.148 A 
ATOM     87  C   UNL A   1      51.751  25.725  26.245  1.00  0.00     0.002 A 
ATOM     88  C   UNL A   1      51.223  26.769  24.123  1.00  0.00     0.091 A 
ATOM     89  F   UNL A   1      49.091  27.804  23.835  1.00  0.00    -0.205 F 
ATOM     90  C   UNL A   1      52.125  26.087  24.954  1.00  0.00     0.022 A 
BRANCH  88  91
ATOM     91  S   UNL A   1      51.737  27.076  22.430  1.00  0.00     0.127 S 
ATOM     92  O   UNL A   1      50.537  26.713  21.681  1.00  0.00    -0.237 OA
ATOM     93  O   UNL A   1      52.038  28.509  22.456  1.00  0.00    -0.237 OA
ATOM     94  O   UNL A   1      52.902  26.228  22.218  1.00  0.00    -0.744 OA
ENDBRANCH  88  91
ENDBRANCH  60  84
BRANCH  72  95
ATOM     95  C   UNL A   1      46.549  32.429  28.586  1.00  0.00     0.023 A 
ATOM     96  C   UNL A   1      47.099  32.729  29.848  1.00  0.00     0.012 A 
ATOM     97  C   UNL A   1      46.555  33.410  27.576  1.00  0.00     0.148 A 
ATOM     98  C   UNL A   1      47.623  33.994  30.109  1.00  0.00     0.002 A 
ATOM     99  C   UNL A   1      47.119  34.655  27.830  1.00  0.00     0.091 A 
ATOM    100  F   UNL A   1      46.006  33.112  26.389  1.00  0.00    -0.205 F 
ATOM    101  C   UNL A   1      47.645  34.952  29.097  1.00  0.00     0.022 A 
BRANCH  99 102
ATOM    102  S   UNL A   1      47.271  35.913  26.556  1.00  0.00     0.127 S 
ATOM    103  O   UNL A   1      48.462  35.465  25.835  1.00  0.00    -0.237 OA
ATOM    104  O   UNL A   1      46.018  35.763  25.815  1.00  0.00    -0.237 OA
ATOM    105  O   UNL A   1      47.404  37.180  27.262  1.00  0.00    -0.744 OA
ENDBRANCH  99 102
ENDBRANCH  72  95
ENDBRANCH  46  47
ENDBRANCH  38  41
ENDBRANCH  36  37
ENDBRANCH  35  36
ENDBRANCH   1  35
TORSDOF 18
ENDMDL
MODEL 3
REMARK VINA RESULT:     -12.6      2.841      4.925
REMARK SMILES NC(=O)c1c(-c2ccc(Cl)cc2)csc1NC(=O)[C@H]1[C@@H](C(=O)NCCCCNC(=O)c2ccc(-c3c4nc(c(-c5cccc(S(=O)(=O)[O-])c5F)c5ccc([nH]5)c(-c5cccc(S(=O)(=O)[O-])c5F)c5nc(c(-c6cccc(S(=O)(=O)[O-])c6F)c6ccc3[nH]6)C=C5)C=C4)cc2)[C@@H]2CC[C@H]1O2
REMARK SMILES IDX 25 1 24 2 23 3 21 4 22 5 20 7 19 8 97 9 94 10 96 11 98 12
REMARK SMILES IDX 95 13 17 14 16 15 18 17 15 18 4 19 5 20 13 21 14 22 2 23
REMARK SMILES IDX 1 24 3 27 6 28 7 29 12 30 8 31 11 32 9 33 10 34 26 35 27 36
REMARK SMILES IDX 28 37 29 38 30 40 31 41 32 42 93 43 33 44 92 45 34 46 35 47
REMARK SMILES IDX 36 48 86 49 37 50 91 51 85 52 87 53 38 54 90 55 84 56 83 57
REMARK SMILES IDX 39 59 71 60 51 61 70 62 52 63 55 64 69 65 88 66 53 67 54 68
REMARK SMILES IDX 68 70 89 71 56 72 40 73 41 74 49 75 42 76 44 77 50 78 43 79
REMARK SMILES IDX 45 80 46 81 47 82 48 83 72 84 73 85 81 86 74 87 76 88 82 89
REMARK SMILES IDX 75 90 77 91 78 92 79 93 80 94 57 95 58 96 66 97 59 98 61 99
REMARK SMILES IDX 67 100 60 101 62 102 63 103 64 104 65 105
REMARK H PARENT 23 6 16 16 1 25 1 26 28 39 87 58 55 69
REMARK Flexibility Score: inf
ROOT
ATOM      1  C   UNL A   1      37.152  20.731  25.221  1.00  0.00     0.023 C 
ENDROOT
BRANCH   1   2
ATOM      2  C   UNL A   1      37.286  22.169  25.697  1.00  0.00     0.116 C 
BRANCH   2   3
ATOM      3  N   UNL A   1      36.205  22.675  26.494  1.00  0.00    -0.356 N 
ATOM      4  C   UNL A   1      34.887  22.365  26.432  1.00  0.00     0.226 C 
ATOM      5  O   UNL A   1      34.186  22.803  27.356  1.00  0.00    -0.275 OA
ATOM      6  H   UNL A   1      36.454  23.337  27.178  1.00  0.00     0.163 HD
BRANCH   4   7
ATOM      7  C   UNL A   1      34.184  21.678  25.264  1.00  0.00     0.122 C 
ATOM      8  C   UNL A   1      34.099  22.128  23.789  1.00  0.00     0.123 C 
ATOM      9  C   UNL A   1      32.651  21.814  23.470  1.00  0.00     0.132 C 
ATOM     10  C   UNL A   1      32.708  21.397  25.605  1.00  0.00     0.132 C 
ATOM     11  C   UNL A   1      32.329  20.315  23.531  1.00  0.00     0.035 C 
ATOM     12  O   UNL A   1      32.003  22.258  24.685  1.00  0.00    -0.373 OA
ATOM     13  C   UNL A   1      32.272  20.048  25.037  1.00  0.00     0.035 C 
BRANCH   8  14
ATOM     14  C   UNL A   1      34.780  23.430  23.376  1.00  0.00     0.231 C 
ATOM     15  N   UNL A   1      34.410  24.736  23.456  1.00  0.00    -0.317 N 
ATOM     16  H   UNL A   1      35.053  25.294  22.962  1.00  0.00     0.170 HD
ATOM     17  O   UNL A   1      35.903  23.276  22.853  1.00  0.00    -0.274 OA
BRANCH  15  18
ATOM     18  C   UNL A   1      33.417  25.538  24.009  1.00  0.00     0.108 A 
ATOM     19  C   UNL A   1      32.694  26.539  23.342  1.00  0.00     0.082 A 
ATOM     20  C   UNL A   1      31.689  27.132  24.212  1.00  0.00     0.007 A 
ATOM     21  C   UNL A   1      31.744  26.588  25.476  1.00  0.00     0.076 A 
ATOM     22  S   UNL A   1      33.009  25.503  25.636  1.00  0.00    -0.125 S 
BRANCH  19  23
ATOM     23  C   UNL A   1      33.016  26.900  21.963  1.00  0.00     0.252 C 
ATOM     24  N   UNL A   1      32.236  26.347  20.997  1.00  0.00    -0.365 N 
ATOM     25  H   UNL A   1      32.405  26.553  20.049  1.00  0.00     0.159 HD
ATOM     26  H   UNL A   1      31.502  25.739  21.244  1.00  0.00     0.159 HD
ATOM     27  O   UNL A   1      33.856  27.754  21.692  1.00  0.00    -0.269 OA
ENDBRANCH  19  23
BRANCH  20  28
ATOM     28  C   UNL A   1      30.650  28.128  23.972  1.00  0.00    -0.017 A 
ATOM     29  C   UNL A   1      29.494  27.756  23.263  1.00  0.00     0.010 A 
ATOM     30  C   UNL A   1      30.845  29.471  24.309  1.00  0.00     0.010 A 
ATOM     31  C   UNL A   1      28.569  28.716  22.856  1.00  0.00     0.021 A 
ATOM     32  C   UNL A   1      29.911  30.432  23.908  1.00  0.00     0.021 A 
ATOM     33  C   UNL A   1      28.787  30.053  23.174  1.00  0.00     0.041 A 
ATOM     34  Cl  UNL A   1      27.673  31.246  22.630  1.00  0.00    -0.084 Cl
ENDBRANCH  20  28
ENDBRANCH  15  18
ENDBRANCH   8  14
ENDBRANCH   4   7
ENDBRANCH   2   3
ENDBRANCH   1   2
BRANCH   1  35
ATOM     35  C   UNL A   1      38.457  19.987  24.940  1.00  0.00     0.023 C 
BRANCH  35  36
ATOM     36  C   UNL A   1      39.542  20.052  26.012  1.00  0.00     0.116 C 
BRANCH  36  37
ATOM     37  N   UNL A   1      40.561  19.011  25.910  1.00  0.00    -0.352 N 
ATOM     38  C   UNL A   1      41.931  19.096  26.051  1.00  0.00     0.251 C 
ATOM     39  H   UNL A   1      40.218  18.110  25.711  1.00  0.00     0.163 HD
ATOM     40  O   UNL A   1      42.635  18.106  25.856  1.00  0.00    -0.269 OA
BRANCH  38  41
ATOM     41  C   UNL A   1      42.565  20.392  26.381  1.00  0.00     0.039 A 
ATOM     42  C   UNL A   1      43.061  21.184  25.340  1.00  0.00     0.014 A 
ATOM     43  C   UNL A   1      42.631  20.850  27.698  1.00  0.00     0.014 A 
ATOM     44  C   UNL A   1      43.515  22.478  25.610  1.00  0.00     0.010 A 
ATOM     45  C   UNL A   1      42.998  22.168  27.952  1.00  0.00     0.010 A 
ATOM     46  C   UNL A   1      43.429  23.004  26.910  1.00  0.00    -0.014 A 
BRANCH  46  47
ATOM     47  C   UNL A   1      43.733  24.433  27.192  1.00  0.00     0.031 A 
ATOM     48  C   UNL A   1      45.129  24.966  27.015  1.00  0.00     0.074 A 
ATOM     49  C   UNL A   1      42.775  25.223  27.720  1.00  0.00     0.049 A 
ATOM     50  N   UNL A   1      45.596  26.156  27.290  1.00  0.00    -0.248 NA
ATOM     51  C   UNL A   1      46.140  24.032  26.493  1.00  0.00     0.031 C 
ATOM     52  C   UNL A   1      41.408  24.800  28.038  1.00  0.00     0.029 A 
ATOM     53  N   UNL A   1      42.811  26.538  28.114  1.00  0.00    -0.354 N 
ATOM     54  C   UNL A   1      46.958  26.102  27.019  1.00  0.00     0.074 A 
ATOM     55  C   UNL A   1      47.249  24.752  26.589  1.00  0.00     0.031 C 
ATOM     56  C   UNL A   1      40.738  25.835  28.570  1.00  0.00     0.029 A 
ATOM     57  C   UNL A   1      41.629  26.987  28.656  1.00  0.00     0.049 A 
ATOM     58  H   UNL A   1      43.609  27.107  28.016  1.00  0.00     0.167 HD
ATOM     59  C   UNL A   1      47.879  27.092  27.091  1.00  0.00     0.034 A 
ATOM     60  C   UNL A   1      41.298  28.189  29.167  1.00  0.00     0.034 A 
ATOM     61  C   UNL A   1      47.577  28.450  27.455  1.00  0.00     0.049 A 
ATOM     62  C   UNL A   1      42.318  29.295  29.156  1.00  0.00     0.074 A 
ATOM     63  C   UNL A   1      48.418  29.548  27.454  1.00  0.00     0.029 A 
ATOM     64  N   UNL A   1      46.337  28.896  27.882  1.00  0.00    -0.354 N 
ATOM     65  N   UNL A   1      43.558  29.267  28.730  1.00  0.00    -0.248 NA
ATOM     66  C   UNL A   1      41.884  30.607  29.658  1.00  0.00     0.031 C 
ATOM     67  C   UNL A   1      47.687  30.659  27.886  1.00  0.00     0.029 A 
ATOM     68  C   UNL A   1      46.387  30.254  28.147  1.00  0.00     0.049 A 
ATOM     69  H   UNL A   1      45.537  28.331  27.983  1.00  0.00     0.167 HD
ATOM     70  C   UNL A   1      44.041  30.561  28.881  1.00  0.00     0.074 A 
ATOM     71  C   UNL A   1      42.954  31.354  29.417  1.00  0.00     0.031 C 
ATOM     72  C   UNL A   1      45.280  31.044  28.619  1.00  0.00     0.034 A 
BRANCH  59  73
ATOM     73  C   UNL A   1      49.292  26.761  26.689  1.00  0.00     0.023 A 
ATOM     74  C   UNL A   1      50.100  26.009  27.567  1.00  0.00     0.012 A 
ATOM     75  C   UNL A   1      49.804  27.138  25.432  1.00  0.00     0.148 A 
ATOM     76  C   UNL A   1      51.404  25.667  27.217  1.00  0.00     0.002 A 
ATOM     77  C   UNL A   1      51.093  26.757  25.073  1.00  0.00     0.091 A 
ATOM     78  F   UNL A   1      49.029  27.871  24.619  1.00  0.00    -0.205 F 
ATOM     79  C   UNL A   1      51.896  26.032  25.967  1.00  0.00     0.022 A 
BRANCH  77  80
ATOM     80  S   UNL A   1      51.790  27.112  23.456  1.00  0.00     0.127 S 
ATOM     81  O   UNL A   1      52.194  28.509  23.609  1.00  0.00    -0.237 OA
ATOM     82  O   UNL A   1      52.901  26.162  23.384  1.00  0.00    -0.237 OA
ATOM     83  O   UNL A   1      50.723  26.868  22.497  1.00  0.00    -0.744 OA
ENDBRANCH  77  80
ENDBRANCH  59  73
BRANCH  60  84
ATOM     84  C   UNL A   1      39.909  28.434  29.651  1.00  0.00     0.023 A 
ATOM     85  C   UNL A   1      39.556  28.031  30.953  1.00  0.00     0.012 A 
ATOM     86  C   UNL A   1      38.952  29.093  28.853  1.00  0.00     0.148 A 
ATOM     87  C   UNL A   1      38.267  28.251  31.443  1.00  0.00     0.002 A 
ATOM     88  C   UNL A   1      37.687  29.356  29.367  1.00  0.00     0.091 A 
ATOM     89  F   UNL A   1      39.302  29.458  27.612  1.00  0.00    -0.205 F 
ATOM     90  C   UNL A   1      37.338  28.923  30.656  1.00  0.00     0.022 A 
BRANCH  88  91
ATOM     91  S   UNL A   1      36.474  30.334  28.472  1.00  0.00     0.127 S 
ATOM     92  O   UNL A   1      37.293  31.426  27.953  1.00  0.00    -0.237 OA
ATOM     93  O   UNL A   1      36.001  29.385  27.463  1.00  0.00    -0.237 OA
ATOM     94  O   UNL A   1      35.469  30.703  29.460  1.00  0.00    -0.744 OA
ENDBRANCH  88  91
ENDBRANCH  60  84
BRANCH  72  95
ATOM     95  C   UNL A   1      45.531  32.507  28.875  1.00  0.00     0.023 A 
ATOM     96  C   UNL A   1      46.104  32.909  30.098  1.00  0.00     0.012 A 
ATOM     97  C   UNL A   1      45.278  33.468  27.878  1.00  0.00     0.148 A 
ATOM     98  C   UNL A   1      46.398  34.252  30.333  1.00  0.00     0.002 A 
ATOM     99  C   UNL A   1      45.615  34.798  28.102  1.00  0.00     0.091 A 
ATOM    100  F   UNL A   1      44.711  33.067  26.730  1.00  0.00    -0.205 F 
ATOM    101  C   UNL A   1      46.165  35.193  29.332  1.00  0.00     0.022 A 
BRANCH  99 102
ATOM    102  S   UNL A   1      45.435  36.057  26.834  1.00  0.00     0.127 S 
ATOM    103  O   UNL A   1      46.243  35.505  25.748  1.00  0.00    -0.237 OA
ATOM    104  O   UNL A   1      43.993  36.049  26.585  1.00  0.00    -0.237 OA
ATOM    105  O   UNL A   1      45.936  37.291  27.424  1.00  0.00    -0.744 OA
ENDBRANCH  99 102
ENDBRANCH  72  95
ENDBRANCH  46  47
ENDBRANCH  38  41
ENDBRANCH  36  37
ENDBRANCH  35  36
ENDBRANCH   1  35
TORSDOF 18
ENDMDL
