MODEL 1
REMARK VINA RESULT:     -12.9      0.000      0.000
REMARK SMILES C[C@]12CCC(=O)N1[C@H](C(=O)N1CCC[C@@H]1C(=O)NCCCCNC(=O)c1ccc(-c3c4nc(c(-c5cccc(S(=O)(=O)[O-])c5F)c5ccc([nH]5)c(-c5cccc(S(=O)(=O)[O-])c5F)c5nc(c(-c6cccc(S(=O)(=O)[O-])c6F)c6ccc3[nH]6)C=C5)C=C4)cc1)CS2
REMARK SMILES IDX 21 1 20 2 19 3 18 4 16 5 17 6 15 8 11 9 12 10 13 11 14 12
REMARK SMILES IDX 9 13 10 14 8 15 1 16 2 17 3 18 7 19 90 20 4 21 5 22 89 23
REMARK SMILES IDX 6 24 22 25 23 26 24 27 25 29 26 30 27 31 88 32 28 33 87 34
REMARK SMILES IDX 29 35 30 36 31 37 81 38 32 39 86 40 80 41 82 42 33 43 85 44
REMARK SMILES IDX 79 45 78 46 34 48 66 49 46 50 65 51 47 52 50 53 64 54 83 55
REMARK SMILES IDX 48 56 49 57 63 59 84 60 51 61 35 62 36 63 44 64 37 65 39 66
REMARK SMILES IDX 45 67 38 68 40 69 41 70 42 71 43 72 67 73 68 74 76 75 69 76
REMARK SMILES IDX 71 77 77 78 70 79 72 80 73 81 74 82 75 83 52 84 53 85 61 86
REMARK SMILES IDX 54 87 56 88 62 89 55 90 57 91 58 92 59 93 60 94
REMARK H PARENT 18 7 23 28 82 47 50 58
REMARK Flexibility Score: inf
ROOT
ATOM      1  C   UNL A   1      35.916  21.691  25.497  1.00  0.00     0.023 C 
ENDROOT
BRANCH   1   2
ATOM      2  C   UNL A   1      35.143  20.476  24.979  1.00  0.00     0.023 C 
BRANCH   2   3
ATOM      3  C   UNL A   1      33.779  20.236  25.610  1.00  0.00     0.116 C 
BRANCH   3   4
ATOM      4  N   UNL A   1      33.604  20.957  26.839  1.00  0.00    -0.354 N 
ATOM      5  C   UNL A   1      32.930  22.107  27.096  1.00  0.00     0.242 C 
ATOM      6  O   UNL A   1      32.798  22.368  28.299  1.00  0.00    -0.273 OA
ATOM      7  H   UNL A   1      34.043  20.553  27.622  1.00  0.00     0.163 HD
BRANCH   5   8
ATOM      8  C   UNL A   1      32.218  22.981  25.986  1.00  0.00     0.174 C 
ATOM      9  N   UNL A   1      31.718  24.330  26.367  1.00  0.00    -0.329 N 
ATOM     10  C   UNL A   1      30.313  24.237  26.763  1.00  0.00     0.120 C 
ATOM     11  C   UNL A   1      29.950  22.767  26.699  1.00  0.00     0.024 C 
ATOM     12  C   UNL A   1      30.904  22.250  25.629  1.00  0.00     0.037 C 
BRANCH   9  13
ATOM     13  C   UNL A   1      32.187  25.630  26.233  1.00  0.00     0.246 C 
ATOM     14  O   UNL A   1      31.661  26.500  26.944  1.00  0.00    -0.272 OA
BRANCH  13  15
ATOM     15  C   UNL A   1      33.059  26.091  25.017  1.00  0.00     0.186 C 
ATOM     16  C   UNL A   1      30.051  26.136  23.630  1.00  0.00     0.047 C 
ATOM     17  C   UNL A   1      31.448  26.576  23.191  1.00  0.00     0.087 C 
ATOM     18  C   UNL A   1      31.540  26.517  21.669  1.00  0.00     0.049 C 
ATOM     19  N   UNL A   1      32.492  25.716  23.694  1.00  0.00    -0.315 N 
ATOM     20  S   UNL A   1      31.975  28.219  23.836  1.00  0.00    -0.131 SA
ATOM     21  C   UNL A   1      32.906  25.935  21.377  1.00  0.00     0.103 C 
ATOM     22  C   UNL A   1      33.336  25.293  22.674  1.00  0.00     0.224 C 
ATOM     23  C   UNL A   1      33.358  27.569  24.836  1.00  0.00     0.107 C 
ATOM     24  O   UNL A   1      34.370  24.657  22.822  1.00  0.00    -0.275 OA
ENDBRANCH  13  15
ENDBRANCH   9  13
ENDBRANCH   5   8
ENDBRANCH   3   4
ENDBRANCH   2   3
ENDBRANCH   1   2
BRANCH   1  25
ATOM     25  C   UNL A   1      37.329  21.906  24.951  1.00  0.00     0.116 C 
BRANCH  25  26
ATOM     26  N   UNL A   1      38.286  20.903  25.385  1.00  0.00    -0.352 N 
ATOM     27  C   UNL A   1      39.450  21.030  26.114  1.00  0.00     0.251 C 
ATOM     28  H   UNL A   1      38.069  19.981  25.116  1.00  0.00     0.163 HD
ATOM     29  O   UNL A   1      40.191  20.081  26.313  1.00  0.00    -0.269 OA
BRANCH  27  30
ATOM     30  C   UNL A   1      39.797  22.346  26.662  1.00  0.00     0.039 A 
ATOM     31  C   UNL A   1      40.771  22.436  27.658  1.00  0.00     0.014 A 
ATOM     32  C   UNL A   1      39.178  23.483  26.143  1.00  0.00     0.014 A 
ATOM     33  C   UNL A   1      41.211  23.694  28.057  1.00  0.00     0.010 A 
ATOM     34  C   UNL A   1      39.683  24.725  26.468  1.00  0.00     0.010 A 
ATOM     35  C   UNL A   1      40.710  24.837  27.416  1.00  0.00    -0.014 A 
BRANCH  35  36
ATOM     36  C   UNL A   1      41.272  26.177  27.668  1.00  0.00     0.031 A 
ATOM     37  C   UNL A   1      42.668  26.482  27.213  1.00  0.00     0.074 A 
ATOM     38  C   UNL A   1      40.574  27.026  28.445  1.00  0.00     0.049 A 
ATOM     39  N   UNL A   1      43.404  27.528  27.464  1.00  0.00    -0.248 NA
ATOM     40  C   UNL A   1      43.347  25.443  26.416  1.00  0.00     0.031 C 
ATOM     41  C   UNL A   1      39.254  26.754  29.024  1.00  0.00     0.029 A 
ATOM     42  N   UNL A   1      40.888  28.273  28.913  1.00  0.00    -0.354 N 
ATOM     43  C   UNL A   1      44.646  27.254  26.905  1.00  0.00     0.074 A 
ATOM     44  C   UNL A   1      44.578  25.926  26.338  1.00  0.00     0.031 C 
ATOM     45  C   UNL A   1      38.867  27.808  29.758  1.00  0.00     0.029 A 
ATOM     46  C   UNL A   1      39.919  28.815  29.725  1.00  0.00     0.049 A 
ATOM     47  H   UNL A   1      41.727  28.738  28.690  1.00  0.00     0.167 HD
ATOM     48  C   UNL A   1      45.734  28.056  26.845  1.00  0.00     0.034 A 
ATOM     49  C   UNL A   1      39.890  29.999  30.364  1.00  0.00     0.034 A 
ATOM     50  C   UNL A   1      45.745  29.395  27.370  1.00  0.00     0.049 A 
ATOM     51  C   UNL A   1      41.063  30.921  30.178  1.00  0.00     0.074 A 
ATOM     52  C   UNL A   1      46.745  30.344  27.300  1.00  0.00     0.029 A 
ATOM     53  N   UNL A   1      44.686  29.974  28.057  1.00  0.00    -0.354 N 
ATOM     54  N   UNL A   1      42.180  30.708  29.524  1.00  0.00    -0.248 NA
ATOM     55  C   UNL A   1      40.959  32.258  30.775  1.00  0.00     0.031 C 
ATOM     56  C   UNL A   1      46.289  31.500  27.947  1.00  0.00     0.029 A 
ATOM     57  C   UNL A   1      45.000  31.274  28.405  1.00  0.00     0.049 A 
ATOM     58  H   UNL A   1      43.835  29.524  28.265  1.00  0.00     0.167 HD
ATOM     59  C   UNL A   1      42.897  31.893  29.595  1.00  0.00     0.074 A 
ATOM     60  C   UNL A   1      42.077  32.827  30.343  1.00  0.00     0.031 C 
ATOM     61  C   UNL A   1      44.128  32.185  29.104  1.00  0.00     0.034 A 
BRANCH  48  62
ATOM     62  C   UNL A   1      46.955  27.523  26.140  1.00  0.00     0.023 A 
ATOM     63  C   UNL A   1      47.886  26.743  26.859  1.00  0.00     0.012 A 
ATOM     64  C   UNL A   1      47.187  27.785  24.776  1.00  0.00     0.148 A 
ATOM     65  C   UNL A   1      49.049  26.276  26.249  1.00  0.00     0.002 A 
ATOM     66  C   UNL A   1      48.327  27.275  24.162  1.00  0.00     0.091 A 
ATOM     67  F   UNL A   1      46.307  28.546  24.111  1.00  0.00    -0.205 F 
ATOM     68  C   UNL A   1      49.266  26.536  24.900  1.00  0.00     0.022 A 
BRANCH  66  69
ATOM     69  S   UNL A   1      48.664  27.491  22.411  1.00  0.00     0.127 S 
ATOM     70  O   UNL A   1      47.513  28.287  21.984  1.00  0.00    -0.237 OA
ATOM     71  O   UNL A   1      49.934  28.218  22.429  1.00  0.00    -0.237 OA
ATOM     72  O   UNL A   1      48.742  26.150  21.849  1.00  0.00    -0.744 OA
ENDBRANCH  66  69
ENDBRANCH  48  62
BRANCH  49  73
ATOM     73  C   UNL A   1      38.671  30.409  31.118  1.00  0.00     0.023 A 
ATOM     74  C   UNL A   1      38.611  30.164  32.504  1.00  0.00     0.012 A 
ATOM     75  C   UNL A   1      37.611  31.099  30.498  1.00  0.00     0.148 A 
ATOM     76  C   UNL A   1      37.507  30.572  33.254  1.00  0.00     0.002 A 
ATOM     77  C   UNL A   1      36.537  31.548  31.260  1.00  0.00     0.091 A 
ATOM     78  F   UNL A   1      37.683  31.322  29.178  1.00  0.00    -0.205 F 
ATOM     79  C   UNL A   1      36.476  31.273  32.635  1.00  0.00     0.022 A 
BRANCH  77  80
ATOM     80  S   UNL A   1      35.232  32.576  30.574  1.00  0.00     0.127 S 
ATOM     81  O   UNL A   1      34.273  32.618  31.676  1.00  0.00    -0.237 OA
ATOM     82  O   UNL A   1      35.934  33.833  30.319  1.00  0.00    -0.237 OA
ATOM     83  O   UNL A   1      34.787  31.887  29.370  1.00  0.00    -0.744 OA
ENDBRANCH  77  80
ENDBRANCH  49  73
BRANCH  61  84
ATOM     84  C   UNL A   1      44.641  33.579  29.330  1.00  0.00     0.023 A 
ATOM     85  C   UNL A   1      45.327  33.886  30.519  1.00  0.00     0.012 A 
ATOM     86  C   UNL A   1      44.511  34.557  28.325  1.00  0.00     0.148 A 
ATOM     87  C   UNL A   1      45.855  35.160  30.719  1.00  0.00     0.002 A 
ATOM     88  C   UNL A   1      45.083  35.808  28.510  1.00  0.00     0.091 A 
ATOM     89  F   UNL A   1      43.832  34.246  27.211  1.00  0.00    -0.205 F 
ATOM     90  C   UNL A   1      45.745  36.115  29.711  1.00  0.00     0.022 A 
BRANCH  88  91
ATOM     91  S   UNL A   1      45.074  37.058  27.223  1.00  0.00     0.127 S 
ATOM     92  O   UNL A   1      45.700  38.191  27.903  1.00  0.00    -0.237 OA
ATOM     93  O   UNL A   1      45.897  36.441  26.182  1.00  0.00    -0.237 OA
ATOM     94  O   UNL A   1      43.676  37.240  26.854  1.00  0.00    -0.744 OA
ENDBRANCH  88  91
ENDBRANCH  61  84
ENDBRANCH  35  36
ENDBRANCH  27  30
ENDBRANCH  25  26
ENDBRANCH   1  25
TORSDOF 16
ENDMDL
MODEL 2
REMARK VINA RESULT:     -12.7      5.693      8.873
REMARK SMILES C[C@]12CCC(=O)N1[C@H](C(=O)N1CCC[C@@H]1C(=O)NCCCCNC(=O)c1ccc(-c3c4nc(c(-c5cccc(S(=O)(=O)[O-])c5F)c5ccc([nH]5)c(-c5cccc(S(=O)(=O)[O-])c5F)c5nc(c(-c6cccc(S(=O)(=O)[O-])c6F)c6ccc3[nH]6)C=C5)C=C4)cc1)CS2
REMARK SMILES IDX 21 1 20 2 19 3 18 4 16 5 17 6 15 8 11 9 12 10 13 11 14 12
REMARK SMILES IDX 9 13 10 14 8 15 1 16 2 17 3 18 7 19 90 20 4 21 5 22 89 23
REMARK SMILES IDX 6 24 22 25 23 26 24 27 25 29 26 30 27 31 88 32 28 33 87 34
REMARK SMILES IDX 29 35 30 36 31 37 81 38 32 39 86 40 80 41 82 42 33 43 85 44
REMARK SMILES IDX 79 45 78 46 34 48 66 49 46 50 65 51 47 52 50 53 64 54 83 55
REMARK SMILES IDX 48 56 49 57 63 59 84 60 51 61 35 62 36 63 44 64 37 65 39 66
REMARK SMILES IDX 45 67 38 68 40 69 41 70 42 71 43 72 67 73 68 74 76 75 69 76
REMARK SMILES IDX 71 77 77 78 70 79 72 80 73 81 74 82 75 83 52 84 53 85 61 86
REMARK SMILES IDX 54 87 56 88 62 89 55 90 57 91 58 92 59 93 60 94
REMARK H PARENT 18 7 23 28 82 47 50 58
REMARK Flexibility Score: inf
ROOT
ATOM      1  C   UNL A   1      32.196  31.402  26.809  1.00  0.00     0.023 C 
ENDROOT
BRANCH   1   2
ATOM      2  C   UNL A   1      32.156  29.906  27.132  1.00  0.00     0.023 C 
BRANCH   2   3
ATOM      3  C   UNL A   1      33.343  29.087  26.644  1.00  0.00     0.116 C 
BRANCH   3   4
ATOM      4  N   UNL A   1      33.687  29.373  25.280  1.00  0.00    -0.354 N 
ATOM      5  C   UNL A   1      33.368  28.716  24.135  1.00  0.00     0.242 C 
ATOM      6  O   UNL A   1      33.650  29.327  23.096  1.00  0.00    -0.273 OA
ATOM      7  H   UNL A   1      34.243  30.175  25.153  1.00  0.00     0.163 HD
BRANCH   5   8
ATOM      8  C   UNL A   1      32.557  27.359  24.093  1.00  0.00     0.174 C 
ATOM      9  N   UNL A   1      32.583  26.563  22.835  1.00  0.00    -0.329 N 
ATOM     10  C   UNL A   1      31.434  26.923  22.004  1.00  0.00     0.120 C 
ATOM     11  C   UNL A   1      30.712  28.035  22.737  1.00  0.00     0.024 C 
ATOM     12  C   UNL A   1      31.061  27.738  24.190  1.00  0.00     0.037 C 
BRANCH   9  13
ATOM     13  C   UNL A   1      33.289  25.456  22.384  1.00  0.00     0.246 C 
ATOM     14  O   UNL A   1      33.262  25.223  21.164  1.00  0.00    -0.272 OA
BRANCH  13  15
ATOM     15  C   UNL A   1      33.791  24.327  23.344  1.00  0.00     0.186 C 
ATOM     16  C   UNL A   1      30.517  23.897  23.603  1.00  0.00     0.047 C 
ATOM     17  C   UNL A   1      31.747  23.136  24.099  1.00  0.00     0.087 C 
ATOM     18  C   UNL A   1      31.389  22.371  25.370  1.00  0.00     0.049 C 
ATOM     19  N   UNL A   1      32.845  24.008  24.446  1.00  0.00    -0.315 N 
ATOM     20  S   UNL A   1      32.528  22.035  22.846  1.00  0.00    -0.131 SA
ATOM     21  C   UNL A   1      32.577  22.553  26.290  1.00  0.00     0.103 C 
ATOM     22  C   UNL A   1      33.330  23.729  25.717  1.00  0.00     0.224 C 
ATOM     23  C   UNL A   1      34.105  22.953  22.776  1.00  0.00     0.107 C 
ATOM     24  O   UNL A   1      34.326  24.225  26.225  1.00  0.00    -0.275 OA
ENDBRANCH  13  15
ENDBRANCH   9  13
ENDBRANCH   5   8
ENDBRANCH   3   4
ENDBRANCH   2   3
ENDBRANCH   1   2
BRANCH   1  25
ATOM     25  C   UNL A   1      33.221  32.252  27.562  1.00  0.00     0.116 C 
BRANCH  25  26
ATOM     26  N   UNL A   1      32.809  33.633  27.757  1.00  0.00    -0.352 N 
ATOM     27  C   UNL A   1      33.242  34.578  28.663  1.00  0.00     0.251 C 
ATOM     28  H   UNL A   1      32.106  33.944  27.142  1.00  0.00     0.163 HD
ATOM     29  O   UNL A   1      32.715  35.675  28.748  1.00  0.00    -0.269 OA
BRANCH  27  30
ATOM     30  C   UNL A   1      34.368  34.246  29.542  1.00  0.00     0.039 A 
ATOM     31  C   UNL A   1      34.122  33.582  30.746  1.00  0.00     0.014 A 
ATOM     32  C   UNL A   1      35.665  34.560  29.136  1.00  0.00     0.014 A 
ATOM     33  C   UNL A   1      35.201  33.126  31.496  1.00  0.00     0.010 A 
ATOM     34  C   UNL A   1      36.730  34.024  29.829  1.00  0.00     0.010 A 
ATOM     35  C   UNL A   1      36.505  33.294  31.005  1.00  0.00    -0.014 A 
BRANCH  35  36
ATOM     36  C   UNL A   1      37.668  32.672  31.663  1.00  0.00     0.031 A 
ATOM     37  C   UNL A   1      38.376  31.540  30.981  1.00  0.00     0.074 A 
ATOM     38  C   UNL A   1      37.953  33.030  32.929  1.00  0.00     0.049 A 
ATOM     39  N   UNL A   1      39.311  30.758  31.441  1.00  0.00    -0.248 NA
ATOM     40  C   UNL A   1      37.930  31.207  29.614  1.00  0.00     0.031 C 
ATOM     41  C   UNL A   1      37.232  34.046  33.704  1.00  0.00     0.029 A 
ATOM     42  N   UNL A   1      38.896  32.559  33.801  1.00  0.00    -0.354 N 
ATOM     43  C   UNL A   1      39.529  29.810  30.450  1.00  0.00     0.074 A 
ATOM     44  C   UNL A   1      38.599  30.089  29.379  1.00  0.00     0.031 C 
ATOM     45  C   UNL A   1      37.769  34.130  34.930  1.00  0.00     0.029 A 
ATOM     46  C   UNL A   1      38.849  33.159  35.038  1.00  0.00     0.049 A 
ATOM     47  H   UNL A   1      39.547  31.859  33.566  1.00  0.00     0.167 HD
ATOM     48  C   UNL A   1      40.447  28.816  30.426  1.00  0.00     0.034 A 
ATOM     49  C   UNL A   1      39.603  32.944  36.132  1.00  0.00     0.034 A 
ATOM     50  C   UNL A   1      41.395  28.606  31.487  1.00  0.00     0.049 A 
ATOM     51  C   UNL A   1      40.697  31.918  36.035  1.00  0.00     0.074 A 
ATOM     52  C   UNL A   1      42.432  27.697  31.554  1.00  0.00     0.029 A 
ATOM     53  N   UNL A   1      41.420  29.335  32.668  1.00  0.00    -0.354 N 
ATOM     54  N   UNL A   1      40.990  31.121  35.034  1.00  0.00    -0.248 NA
ATOM     55  C   UNL A   1      41.592  31.788  37.190  1.00  0.00     0.031 C 
ATOM     56  C   UNL A   1      43.085  27.876  32.780  1.00  0.00     0.029 A 
ATOM     57  C   UNL A   1      42.463  28.908  33.468  1.00  0.00     0.049 A 
ATOM     58  H   UNL A   1      40.786  30.052  32.903  1.00  0.00     0.167 HD
ATOM     59  C   UNL A   1      42.124  30.422  35.421  1.00  0.00     0.074 A 
ATOM     60  C   UNL A   1      42.474  30.904  36.743  1.00  0.00     0.031 C 
ATOM     61  C   UNL A   1      42.807  29.457  34.756  1.00  0.00     0.034 A 
BRANCH  48  62
ATOM     62  C   UNL A   1      40.498  27.943  29.199  1.00  0.00     0.023 A 
ATOM     63  C   UNL A   1      39.648  26.820  29.110  1.00  0.00     0.012 A 
ATOM     64  C   UNL A   1      41.376  28.225  28.134  1.00  0.00     0.148 A 
ATOM     65  C   UNL A   1      39.705  25.966  28.010  1.00  0.00     0.002 A 
ATOM     66  C   UNL A   1      41.393  27.394  27.018  1.00  0.00     0.091 A 
ATOM     67  F   UNL A   1      42.194  29.281  28.241  1.00  0.00    -0.205 F 
ATOM     68  C   UNL A   1      40.571  26.256  26.962  1.00  0.00     0.022 A 
BRANCH  66  69
ATOM     69  S   UNL A   1      42.422  27.720  25.582  1.00  0.00     0.127 S 
ATOM     70  O   UNL A   1      43.752  27.805  26.183  1.00  0.00    -0.237 OA
ATOM     71  O   UNL A   1      42.198  26.528  24.765  1.00  0.00    -0.237 OA
ATOM     72  O   UNL A   1      41.918  28.957  25.000  1.00  0.00    -0.744 OA
ENDBRANCH  66  69
ENDBRANCH  48  62
BRANCH  49  73
ATOM     73  C   UNL A   1      39.422  33.798  37.340  1.00  0.00     0.023 A 
ATOM     74  C   UNL A   1      39.852  35.139  37.299  1.00  0.00     0.012 A 
ATOM     75  C   UNL A   1      38.769  33.324  38.495  1.00  0.00     0.148 A 
ATOM     76  C   UNL A   1      39.661  35.984  38.392  1.00  0.00     0.002 A 
ATOM     77  C   UNL A   1      38.537  34.186  39.562  1.00  0.00     0.091 A 
ATOM     78  F   UNL A   1      38.369  32.045  38.519  1.00  0.00    -0.205 F 
ATOM     79  C   UNL A   1      38.994  35.512  39.519  1.00  0.00     0.022 A 
BRANCH  77  80
ATOM     80  S   UNL A   1      37.567  33.703  40.997  1.00  0.00     0.127 S 
ATOM     81  O   UNL A   1      38.480  32.792  41.683  1.00  0.00    -0.237 OA
ATOM     82  O   UNL A   1      37.355  34.984  41.669  1.00  0.00    -0.237 OA
ATOM     83  O   UNL A   1      36.353  33.102  40.461  1.00  0.00    -0.744 OA
ENDBRANCH  77  80
ENDBRANCH  49  73
BRANCH  61  84
ATOM     84  C   UNL A   1      44.022  28.889  35.435  1.00  0.00     0.023 A 
ATOM     85  C   UNL A   1      45.286  29.460  35.193  1.00  0.00     0.012 A 
ATOM     86  C   UNL A   1      43.893  27.847  36.371  1.00  0.00     0.148 A 
ATOM     87  C   UNL A   1      46.413  28.979  35.856  1.00  0.00     0.002 A 
ATOM     88  C   UNL A   1      45.012  27.407  37.065  1.00  0.00     0.091 A 
ATOM     89  F   UNL A   1      42.681  27.306  36.566  1.00  0.00    -0.205 F 
ATOM     90  C   UNL A   1      46.275  27.964  36.800  1.00  0.00     0.022 A 
BRANCH  88  91
ATOM     91  S   UNL A   1      44.902  26.177  38.367  1.00  0.00     0.127 S 
ATOM     92  O   UNL A   1      46.306  25.808  38.548  1.00  0.00    -0.237 OA
ATOM     93  O   UNL A   1      44.325  26.942  39.472  1.00  0.00    -0.237 OA
ATOM     94  O   UNL A   1      44.038  25.125  37.849  1.00  0.00    -0.744 OA
ENDBRANCH  88  91
ENDBRANCH  61  84
ENDBRANCH  35  36
ENDBRANCH  27  30
ENDBRANCH  25  26
ENDBRANCH   1  25
TORSDOF 16
ENDMDL
MODEL 3
REMARK VINA RESULT:     -12.6      4.987     10.136
REMARK SMILES C[C@]12CCC(=O)N1[C@H](C(=O)N1CCC[C@@H]1C(=O)NCCCCNC(=O)c1ccc(-c3c4nc(c(-c5cccc(S(=O)(=O)[O-])c5F)c5ccc([nH]5)c(-c5cccc(S(=O)(=O)[O-])c5F)c5nc(c(-c6cccc(S(=O)(=O)[O-])c6F)c6ccc3[nH]6)C=C5)C=C4)cc1)CS2
REMARK SMILES IDX 21 1 20 2 19 3 18 4 16 5 17 6 15 8 11 9 12 10 13 11 14 12
REMARK SMILES IDX 9 13 10 14 8 15 1 16 2 17 3 18 7 19 90 20 4 21 5 22 89 23
REMARK SMILES IDX 6 24 22 25 23 26 24 27 25 29 26 30 27 31 88 32 28 33 87 34
REMARK SMILES IDX 29 35 30 36 31 37 81 38 32 39 86 40 80 41 82 42 33 43 85 44
REMARK SMILES IDX 79 45 78 46 34 48 66 49 46 50 65 51 47 52 50 53 64 54 83 55
REMARK SMILES IDX 48 56 49 57 63 59 84 60 51 61 35 62 36 63 44 64 37 65 39 66
REMARK SMILES IDX 45 67 38 68 40 69 41 70 42 71 43 72 67 73 68 74 76 75 69 76
REMARK SMILES IDX 71 77 77 78 70 79 72 80 73 81 74 82 75 83 52 84 53 85 61 86
REMARK SMILES IDX 54 87 56 88 62 89 55 90 57 91 58 92 59 93 60 94
REMARK H PARENT 18 7 23 28 82 47 50 58
REMARK Flexibility Score: inf
ROOT
ATOM      1  C   UNL A   1      32.152  29.368  25.454  1.00  0.00     0.023 C 
ENDROOT
BRANCH   1   2
ATOM      2  C   UNL A   1      33.365  29.337  24.521  1.00  0.00     0.023 C 
BRANCH   2   3
ATOM      3  C   UNL A   1      33.741  27.972  23.962  1.00  0.00     0.116 C 
BRANCH   3   4
ATOM      4  N   UNL A   1      32.643  27.324  23.302  1.00  0.00    -0.354 N 
ATOM      5  C   UNL A   1      32.016  26.152  23.581  1.00  0.00     0.242 C 
ATOM      6  O   UNL A   1      30.970  25.965  22.945  1.00  0.00    -0.273 OA
ATOM      7  H   UNL A   1      32.285  27.808  22.523  1.00  0.00     0.163 HD
BRANCH   5   8
ATOM      8  C   UNL A   1      32.465  25.163  24.730  1.00  0.00     0.174 C 
ATOM      9  N   UNL A   1      31.951  23.766  24.695  1.00  0.00    -0.329 N 
ATOM     10  C   UNL A   1      30.736  23.671  25.505  1.00  0.00     0.120 C 
ATOM     11  C   UNL A   1      30.443  25.074  25.997  1.00  0.00     0.024 C 
ATOM     12  C   UNL A   1      31.835  25.694  26.038  1.00  0.00     0.037 C 
BRANCH   9  13
ATOM     13  C   UNL A   1      32.450  22.542  24.272  1.00  0.00     0.246 C 
ATOM     14  O   UNL A   1      31.917  22.024  23.277  1.00  0.00    -0.272 OA
BRANCH  13  15
ATOM     15  C   UNL A   1      33.370  21.649  25.171  1.00  0.00     0.186 C 
ATOM     16  C   UNL A   1      35.665  23.274  23.421  1.00  0.00     0.047 C 
ATOM     17  C   UNL A   1      35.695  22.315  24.612  1.00  0.00     0.087 C 
ATOM     18  C   UNL A   1      37.030  21.576  24.631  1.00  0.00     0.049 C 
ATOM     19  N   UNL A   1      34.671  21.300  24.543  1.00  0.00    -0.315 N 
ATOM     20  S   UNL A   1      35.334  23.099  26.239  1.00  0.00    -0.131 SA
ATOM     21  C   UNL A   1      36.686  20.145  24.983  1.00  0.00     0.103 C 
ATOM     22  C   UNL A   1      35.204  20.029  24.715  1.00  0.00     0.224 C 
ATOM     23  C   UNL A   1      33.795  22.162  26.537  1.00  0.00     0.107 C 
ATOM     24  O   UNL A   1      34.562  18.994  24.822  1.00  0.00    -0.275 OA
ENDBRANCH  13  15
ENDBRANCH   9  13
ENDBRANCH   5   8
ENDBRANCH   3   4
ENDBRANCH   2   3
ENDBRANCH   1   2
BRANCH   1  25
ATOM     25  C   UNL A   1      32.380  29.875  26.879  1.00  0.00     0.116 C 
BRANCH  25  26
ATOM     26  N   UNL A   1      32.413  31.324  26.990  1.00  0.00    -0.352 N 
ATOM     27  C   UNL A   1      33.386  32.163  27.492  1.00  0.00     0.251 C 
ATOM     28  H   UNL A   1      31.610  31.782  26.652  1.00  0.00     0.163 HD
ATOM     29  O   UNL A   1      33.207  33.365  27.593  1.00  0.00    -0.269 OA
BRANCH  27  30
ATOM     30  C   UNL A   1      34.666  31.583  27.911  1.00  0.00     0.039 A 
ATOM     31  C   UNL A   1      35.771  32.420  28.081  1.00  0.00     0.014 A 
ATOM     32  C   UNL A   1      34.741  30.216  28.173  1.00  0.00     0.014 A 
ATOM     33  C   UNL A   1      36.935  31.894  28.633  1.00  0.00     0.010 A 
ATOM     34  C   UNL A   1      35.859  29.718  28.809  1.00  0.00     0.010 A 
ATOM     35  C   UNL A   1      36.957  30.556  29.054  1.00  0.00    -0.014 A 
BRANCH  35  36
ATOM     36  C   UNL A   1      38.094  29.999  29.809  1.00  0.00     0.031 A 
ATOM     37  C   UNL A   1      38.342  30.469  31.211  1.00  0.00     0.074 A 
ATOM     38  C   UNL A   1      38.969  29.211  29.157  1.00  0.00     0.049 A 
ATOM     39  N   UNL A   1      39.359  30.231  31.991  1.00  0.00    -0.248 NA
ATOM     40  C   UNL A   1      37.335  31.377  31.793  1.00  0.00     0.031 C 
ATOM     41  C   UNL A   1      38.857  28.803  27.753  1.00  0.00     0.029 A 
ATOM     42  N   UNL A   1      40.143  28.643  29.572  1.00  0.00    -0.354 N 
ATOM     43  C   UNL A   1      39.145  30.998  33.130  1.00  0.00     0.074 A 
ATOM     44  C   UNL A   1      37.923  31.741  32.923  1.00  0.00     0.031 C 
ATOM     45  C   UNL A   1      39.911  28.039  27.429  1.00  0.00     0.029 A 
ATOM     46  C   UNL A   1      40.785  27.928  28.589  1.00  0.00     0.049 A 
ATOM     47  H   UNL A   1      40.494  28.737  30.488  1.00  0.00     0.167 HD
ATOM     48  C   UNL A   1      39.890  31.048  34.258  1.00  0.00     0.034 A 
ATOM     49  C   UNL A   1      41.950  27.254  28.630  1.00  0.00     0.034 A 
ATOM     50  C   UNL A   1      41.069  30.249  34.450  1.00  0.00     0.049 A 
ATOM     51  C   UNL A   1      42.694  27.227  29.936  1.00  0.00     0.074 A 
ATOM     52  C   UNL A   1      41.866  30.136  35.572  1.00  0.00     0.029 A 
ATOM     53  N   UNL A   1      41.612  29.411  33.484  1.00  0.00    -0.354 N 
ATOM     54  N   UNL A   1      42.406  27.843  31.059  1.00  0.00    -0.248 NA
ATOM     55  C   UNL A   1      43.892  26.383  30.002  1.00  0.00     0.031 C 
ATOM     56  C   UNL A   1      42.893  29.228  35.283  1.00  0.00     0.029 A 
ATOM     57  C   UNL A   1      42.725  28.765  33.986  1.00  0.00     0.049 A 
ATOM     58  H   UNL A   1      41.255  29.295  32.573  1.00  0.00     0.167 HD
ATOM     59  C   UNL A   1      43.362  27.433  31.976  1.00  0.00     0.074 A 
ATOM     60  C   UNL A   1      44.228  26.501  31.280  1.00  0.00     0.031 C 
ATOM     61  C   UNL A   1      43.525  27.802  33.271  1.00  0.00     0.034 A 
BRANCH  48  62
ATOM     62  C   UNL A   1      39.408  31.943  35.371  1.00  0.00     0.023 A 
ATOM     63  C   UNL A   1      38.452  31.457  36.288  1.00  0.00     0.012 A 
ATOM     64  C   UNL A   1      39.894  33.256  35.519  1.00  0.00     0.148 A 
ATOM     65  C   UNL A   1      37.950  32.275  37.299  1.00  0.00     0.002 A 
ATOM     66  C   UNL A   1      39.423  34.051  36.559  1.00  0.00     0.091 A 
ATOM     67  F   UNL A   1      40.785  33.714  34.628  1.00  0.00    -0.205 F 
ATOM     68  C   UNL A   1      38.440  33.569  37.439  1.00  0.00     0.022 A 
BRANCH  66  69
ATOM     69  S   UNL A   1      40.043  35.709  36.871  1.00  0.00     0.127 S 
ATOM     70  O   UNL A   1      39.580  36.426  35.683  1.00  0.00    -0.237 OA
ATOM     71  O   UNL A   1      39.351  36.069  38.108  1.00  0.00    -0.237 OA
ATOM     72  O   UNL A   1      41.488  35.579  37.000  1.00  0.00    -0.744 OA
ENDBRANCH  66  69
ENDBRANCH  48  62
BRANCH  49  73
ATOM     73  C   UNL A   1      42.397  26.466  27.447  1.00  0.00     0.023 A 
ATOM     74  C   UNL A   1      43.209  27.088  26.479  1.00  0.00     0.012 A 
ATOM     75  C   UNL A   1      42.091  25.097  27.306  1.00  0.00     0.148 A 
ATOM     76  C   UNL A   1      43.686  26.373  25.380  1.00  0.00     0.002 A 
ATOM     77  C   UNL A   1      42.611  24.378  26.235  1.00  0.00     0.091 A 
ATOM     78  F   UNL A   1      41.314  24.521  28.235  1.00  0.00    -0.205 F 
ATOM     79  C   UNL A   1      43.396  25.017  25.264  1.00  0.00     0.022 A 
BRANCH  77  80
ATOM     80  S   UNL A   1      42.403  22.599  26.078  1.00  0.00     0.127 S 
ATOM     81  O   UNL A   1      43.077  22.111  27.278  1.00  0.00    -0.237 OA
ATOM     82  O   UNL A   1      40.947  22.459  26.089  1.00  0.00    -0.237 OA
ATOM     83  O   UNL A   1      43.026  22.246  24.809  1.00  0.00    -0.744 OA
ENDBRANCH  77  80
ENDBRANCH  49  73
BRANCH  61  84
ATOM     84  C   UNL A   1      44.660  27.167  34.025  1.00  0.00     0.023 A 
ATOM     85  C   UNL A   1      45.937  27.758  33.991  1.00  0.00     0.012 A 
ATOM     86  C   UNL A   1      44.435  26.034  34.829  1.00  0.00     0.148 A 
ATOM     87  C   UNL A   1      46.985  27.211  34.728  1.00  0.00     0.002 A 
ATOM     88  C   UNL A   1      45.472  25.525  35.599  1.00  0.00     0.091 A 
ATOM     89  F   UNL A   1      43.216  25.477  34.825  1.00  0.00    -0.205 F 
ATOM     90  C   UNL A   1      46.750  26.104  35.541  1.00  0.00     0.022 A 
BRANCH  88  91
ATOM     91  S   UNL A   1      45.226  24.167  36.747  1.00  0.00     0.127 S 
ATOM     92  O   UNL A   1      44.229  24.725  37.659  1.00  0.00    -0.237 OA
ATOM     93  O   UNL A   1      44.727  23.105  35.872  1.00  0.00    -0.237 OA
ATOM     94  O   UNL A   1      46.533  23.899  37.332  1.00  0.00    -0.744 OA
ENDBRANCH  88  91
ENDBRANCH  61  84
ENDBRANCH  35  36
ENDBRANCH  27  30
ENDBRANCH  25  26
ENDBRANCH   1  25
TORSDOF 16
ENDMDL
