MODEL 1
REMARK VINA RESULT:     -11.4      0.000      0.000
REMARK SMILES CC/C(=C/C(=O)[C@H](Cc1ccc(Cl)cc1Cl)C(=O)NCCCCNC(=O)c1ccc(-c2c3nc(c(-c4cccc(S(=O)(=O)[O-])c4F)c4ccc([nH]4)c(-c4cccc(S(=O)(=O)[O-])c4F)c4nc(c(-c5cccc(S(=O)(=O)[O-])c5F)c5ccc2[nH]5)C=C4)C=C3)cc1)N(C)C
REMARK SMILES IDX 21 1 20 2 19 3 17 4 18 5 7 7 5 8 6 9 4 10 3 11 2 12 1 13
REMARK SMILES IDX 90 14 91 15 92 16 8 17 9 18 10 19 15 20 11 21 14 22 16 23
REMARK SMILES IDX 12 24 13 25 22 26 23 27 24 28 25 29 26 31 27 32 28 33 89 34
REMARK SMILES IDX 29 35 88 36 30 37 31 38 32 39 82 40 33 41 87 42 81 43 83 44
REMARK SMILES IDX 34 45 86 46 80 47 79 48 35 50 67 51 47 52 66 53 48 54 51 55
REMARK SMILES IDX 65 56 84 57 49 58 50 59 64 61 85 62 52 63 36 64 37 65 45 66
REMARK SMILES IDX 38 67 40 68 46 69 39 70 41 71 42 72 43 73 44 74 68 75 69 76
REMARK SMILES IDX 77 77 70 78 72 79 78 80 71 81 73 82 74 83 75 84 76 85 53 86
REMARK SMILES IDX 54 87 62 88 55 89 57 90 63 91 56 92 58 93 59 94 60 95 61 96
REMARK H PARENT 19 6 24 30 83 49 51 60
REMARK Flexibility Score: inf
ROOT
ATOM      1  C   UNL A   1      36.347  23.140  24.385  1.00  0.00     0.023 C 
ENDROOT
BRANCH   1   2
ATOM      2  C   UNL A   1      35.616  23.723  25.618  1.00  0.00     0.116 C 
BRANCH   2   3
ATOM      3  N   UNL A   1      34.962  25.069  25.303  1.00  0.00    -0.355 N 
ATOM      4  C   UNL A   1      33.787  25.785  25.314  1.00  0.00     0.231 C 
ATOM      5  O   UNL A   1      33.858  26.836  24.650  1.00  0.00    -0.274 OA
ATOM      6  H   UNL A   1      35.665  25.661  24.949  1.00  0.00     0.163 HD
BRANCH   4   7
ATOM      7  C   UNL A   1      32.445  25.546  26.086  1.00  0.00     0.154 C 
BRANCH   7   8
ATOM      8  C   UNL A   1      32.097  24.137  26.225  1.00  0.00     0.170 C 
ATOM      9  O   UNL A   1      31.819  23.647  27.322  1.00  0.00    -0.294 OA
BRANCH   8  10
ATOM     10  C   UNL A   1      32.027  23.286  25.043  1.00  0.00     0.069 C 
ATOM     11  C   UNL A   1      32.441  22.063  24.637  1.00  0.00     0.016 C 
BRANCH  11  12
ATOM     12  C   UNL A   1      32.203  22.006  23.106  1.00  0.00     0.050 C 
ATOM     13  C   UNL A   1      33.106  22.894  22.233  1.00  0.00     0.010 C 
ENDBRANCH  11  12
BRANCH  11  14
ATOM     14  N   UNL A   1      33.050  20.933  25.303  1.00  0.00    -0.381 N 
ATOM     15  C   UNL A   1      32.859  19.530  24.863  1.00  0.00     0.143 C 
ATOM     16  C   UNL A   1      33.676  20.829  26.653  1.00  0.00     0.143 C 
ENDBRANCH  11  14
ENDBRANCH   8  10
ENDBRANCH   7   8
BRANCH   7  17
ATOM     17  C   UNL A   1      31.133  26.498  26.167  1.00  0.00     0.059 C 
BRANCH  17  18
ATOM     18  C   UNL A   1      30.599  27.508  25.104  1.00  0.00    -0.028 A 
ATOM     19  C   UNL A   1      29.660  27.128  24.124  1.00  0.00     0.007 A 
ATOM     20  C   UNL A   1      31.030  28.858  25.035  1.00  0.00     0.045 A 
ATOM     21  C   UNL A   1      29.377  27.943  23.006  1.00  0.00     0.021 A 
ATOM     22  C   UNL A   1      30.713  29.692  23.943  1.00  0.00     0.041 A 
ATOM     23  Cl  UNL A   1      31.991  29.581  26.277  1.00  0.00    -0.084 Cl
ATOM     24  C   UNL A   1      29.935  29.208  22.903  1.00  0.00     0.042 A 
ATOM     25  Cl  UNL A   1      29.691  30.155  21.486  1.00  0.00    -0.084 Cl
ENDBRANCH  17  18
ENDBRANCH   7  17
ENDBRANCH   4   7
ENDBRANCH   2   3
ENDBRANCH   1   2
BRANCH   1  26
ATOM     26  C   UNL A   1      37.024  21.777  24.251  1.00  0.00     0.023 C 
BRANCH  26  27
ATOM     27  C   UNL A   1      37.550  21.027  25.478  1.00  0.00     0.116 C 
BRANCH  27  28
ATOM     28  N   UNL A   1      38.941  20.574  25.448  1.00  0.00    -0.352 N 
ATOM     29  C   UNL A   1      40.076  20.973  26.141  1.00  0.00     0.251 C 
ATOM     30  H   UNL A   1      39.105  19.840  24.812  1.00  0.00     0.163 HD
ATOM     31  O   UNL A   1      41.101  20.297  26.071  1.00  0.00    -0.269 OA
BRANCH  29  32
ATOM     32  C   UNL A   1      40.113  22.266  26.865  1.00  0.00     0.039 A 
ATOM     33  C   UNL A   1      40.919  22.400  28.004  1.00  0.00     0.014 A 
ATOM     34  C   UNL A   1      39.496  23.386  26.335  1.00  0.00     0.014 A 
ATOM     35  C   UNL A   1      41.250  23.677  28.474  1.00  0.00     0.010 A 
ATOM     36  C   UNL A   1      39.977  24.640  26.675  1.00  0.00     0.010 A 
ATOM     37  C   UNL A   1      40.867  24.812  27.743  1.00  0.00    -0.014 A 
BRANCH  37  38
ATOM     38  C   UNL A   1      41.403  26.176  28.028  1.00  0.00     0.031 A 
ATOM     39  C   UNL A   1      42.823  26.530  27.650  1.00  0.00     0.074 A 
ATOM     40  C   UNL A   1      40.679  27.044  28.770  1.00  0.00     0.049 A 
ATOM     41  N   UNL A   1      43.516  27.598  27.950  1.00  0.00    -0.248 NA
ATOM     42  C   UNL A   1      43.593  25.518  26.904  1.00  0.00     0.031 C 
ATOM     43  C   UNL A   1      39.355  26.783  29.343  1.00  0.00     0.029 A 
ATOM     44  N   UNL A   1      40.969  28.318  29.194  1.00  0.00    -0.354 N 
ATOM     45  C   UNL A   1      44.810  27.348  27.506  1.00  0.00     0.074 A 
ATOM     46  C   UNL A   1      44.823  26.003  26.979  1.00  0.00     0.031 C 
ATOM     47  C   UNL A   1      38.932  27.873  30.003  1.00  0.00     0.029 A 
ATOM     48  C   UNL A   1      39.962  28.902  29.931  1.00  0.00     0.049 A 
ATOM     49  H   UNL A   1      41.818  28.772  28.992  1.00  0.00     0.167 HD
ATOM     50  C   UNL A   1      45.881  28.176  27.479  1.00  0.00     0.034 A 
ATOM     51  C   UNL A   1      39.870  30.134  30.470  1.00  0.00     0.034 A 
ATOM     52  C   UNL A   1      45.829  29.554  27.878  1.00  0.00     0.049 A 
ATOM     53  C   UNL A   1      41.007  31.099  30.266  1.00  0.00     0.074 A 
ATOM     54  C   UNL A   1      46.806  30.526  27.755  1.00  0.00     0.029 A 
ATOM     55  N   UNL A   1      44.726  30.164  28.454  1.00  0.00    -0.354 N 
ATOM     56  N   UNL A   1      42.160  30.900  29.676  1.00  0.00    -0.248 NA
ATOM     57  C   UNL A   1      40.812  32.470  30.758  1.00  0.00     0.031 C 
ATOM     58  C   UNL A   1      46.289  31.728  28.253  1.00  0.00     0.029 A 
ATOM     59  C   UNL A   1      44.989  31.502  28.679  1.00  0.00     0.049 A 
ATOM     60  H   UNL A   1      43.880  29.710  28.671  1.00  0.00     0.167 HD
ATOM     61  C   UNL A   1      42.816  32.125  29.698  1.00  0.00     0.074 A 
ATOM     62  C   UNL A   1      41.917  33.067  30.331  1.00  0.00     0.031 C 
ATOM     63  C   UNL A   1      44.060  32.438  29.257  1.00  0.00     0.034 A 
BRANCH  50  64
ATOM     64  C   UNL A   1      47.166  27.636  26.902  1.00  0.00     0.023 A 
ATOM     65  C   UNL A   1      48.134  27.080  27.765  1.00  0.00     0.012 A 
ATOM     66  C   UNL A   1      47.409  27.653  25.515  1.00  0.00     0.148 A 
ATOM     67  C   UNL A   1      49.344  26.602  27.266  1.00  0.00     0.002 A 
ATOM     68  C   UNL A   1      48.598  27.127  25.019  1.00  0.00     0.091 A 
ATOM     69  F   UNL A   1      46.490  28.202  24.709  1.00  0.00    -0.205 F 
ATOM     70  C   UNL A   1      49.572  26.617  25.894  1.00  0.00     0.022 A 
BRANCH  68  71
ATOM     71  S   UNL A   1      48.953  27.024  23.261  1.00  0.00     0.127 S 
ATOM     72  O   UNL A   1      48.221  25.817  22.883  1.00  0.00    -0.237 OA
ATOM     73  O   UNL A   1      48.374  28.271  22.757  1.00  0.00    -0.237 OA
ATOM     74  O   UNL A   1      50.402  26.942  23.151  1.00  0.00    -0.744 OA
ENDBRANCH  68  71
ENDBRANCH  50  64
BRANCH  51  75
ATOM     75  C   UNL A   1      38.607  30.565  31.138  1.00  0.00     0.023 A 
ATOM     76  C   UNL A   1      38.445  30.316  32.515  1.00  0.00     0.012 A 
ATOM     77  C   UNL A   1      37.591  31.248  30.443  1.00  0.00     0.148 A 
ATOM     78  C   UNL A   1      37.283  30.707  33.181  1.00  0.00     0.002 A 
ATOM     79  C   UNL A   1      36.458  31.682  31.124  1.00  0.00     0.091 A 
ATOM     80  F   UNL A   1      37.755  31.468  29.131  1.00  0.00    -0.205 F 
ATOM     81  C   UNL A   1      36.294  31.399  32.489  1.00  0.00     0.022 A 
BRANCH  79  82
ATOM     82  S   UNL A   1      35.198  32.698  30.344  1.00  0.00     0.127 S 
ATOM     83  O   UNL A   1      35.974  33.847  29.891  1.00  0.00    -0.237 OA
ATOM     84  O   UNL A   1      34.713  31.821  29.278  1.00  0.00    -0.237 OA
ATOM     85  O   UNL A   1      34.214  32.965  31.389  1.00  0.00    -0.744 OA
ENDBRANCH  79  82
ENDBRANCH  51  75
BRANCH  63  86
ATOM     86  C   UNL A   1      44.515  33.862  29.420  1.00  0.00     0.023 A 
ATOM     87  C   UNL A   1      45.170  34.252  30.604  1.00  0.00     0.012 A 
ATOM     88  C   UNL A   1      44.352  34.796  28.379  1.00  0.00     0.148 A 
ATOM     89  C   UNL A   1      45.625  35.558  30.764  1.00  0.00     0.002 A 
ATOM     90  C   UNL A   1      44.850  36.085  28.527  1.00  0.00     0.091 A 
ATOM     91  F   UNL A   1      43.706  34.414  27.268  1.00  0.00    -0.205 F 
ATOM     92  C   UNL A   1      45.476  36.472  29.723  1.00  0.00     0.022 A 
BRANCH  90  93
ATOM     93  S   UNL A   1      44.780  37.284  27.192  1.00  0.00     0.127 S 
ATOM     94  O   UNL A   1      43.386  37.177  26.766  1.00  0.00    -0.237 OA
ATOM     95  O   UNL A   1      45.115  38.537  27.872  1.00  0.00    -0.237 OA
ATOM     96  O   UNL A   1      45.776  36.847  26.223  1.00  0.00    -0.744 OA
ENDBRANCH  90  93
ENDBRANCH  63  86
ENDBRANCH  37  38
ENDBRANCH  29  32
ENDBRANCH  27  28
ENDBRANCH  26  27
ENDBRANCH   1  26
TORSDOF 20
ENDMDL
MODEL 2
REMARK VINA RESULT:     -10.9      1.484      2.915
REMARK SMILES CC/C(=C/C(=O)[C@H](Cc1ccc(Cl)cc1Cl)C(=O)NCCCCNC(=O)c1ccc(-c2c3nc(c(-c4cccc(S(=O)(=O)[O-])c4F)c4ccc([nH]4)c(-c4cccc(S(=O)(=O)[O-])c4F)c4nc(c(-c5cccc(S(=O)(=O)[O-])c5F)c5ccc2[nH]5)C=C4)C=C3)cc1)N(C)C
REMARK SMILES IDX 21 1 20 2 19 3 17 4 18 5 7 7 5 8 6 9 4 10 3 11 2 12 1 13
REMARK SMILES IDX 90 14 91 15 92 16 8 17 9 18 10 19 15 20 11 21 14 22 16 23
REMARK SMILES IDX 12 24 13 25 22 26 23 27 24 28 25 29 26 31 27 32 28 33 89 34
REMARK SMILES IDX 29 35 88 36 30 37 31 38 32 39 82 40 33 41 87 42 81 43 83 44
REMARK SMILES IDX 34 45 86 46 80 47 79 48 35 50 67 51 47 52 66 53 48 54 51 55
REMARK SMILES IDX 65 56 84 57 49 58 50 59 64 61 85 62 52 63 36 64 37 65 45 66
REMARK SMILES IDX 38 67 40 68 46 69 39 70 41 71 42 72 43 73 44 74 68 75 69 76
REMARK SMILES IDX 77 77 70 78 72 79 78 80 71 81 73 82 74 83 75 84 76 85 53 86
REMARK SMILES IDX 54 87 62 88 55 89 57 90 63 91 56 92 58 93 59 94 60 95 61 96
REMARK H PARENT 19 6 24 30 83 49 51 60
REMARK Flexibility Score: inf
ROOT
ATOM      1  C   UNL A   1      36.133  22.905  23.411  1.00  0.00     0.023 C 
ENDROOT
BRANCH   1   2
ATOM      2  C   UNL A   1      34.799  23.663  23.205  1.00  0.00     0.116 C 
BRANCH   2   3
ATOM      3  N   UNL A   1      34.059  23.874  24.526  1.00  0.00    -0.355 N 
ATOM      4  C   UNL A   1      33.545  24.807  25.398  1.00  0.00     0.231 C 
ATOM      5  O   UNL A   1      33.256  24.319  26.507  1.00  0.00    -0.274 OA
ATOM      6  H   UNL A   1      33.877  22.984  24.906  1.00  0.00     0.163 HD
BRANCH   4   7
ATOM      7  C   UNL A   1      33.186  26.317  25.193  1.00  0.00     0.154 C 
BRANCH   7   8
ATOM      8  C   UNL A   1      32.683  26.965  26.398  1.00  0.00     0.170 C 
ATOM      9  O   UNL A   1      31.569  26.698  26.857  1.00  0.00    -0.294 OA
BRANCH   8  10
ATOM     10  C   UNL A   1      33.521  27.918  27.115  1.00  0.00     0.069 C 
ATOM     11  C   UNL A   1      33.690  29.257  27.219  1.00  0.00     0.016 C 
BRANCH  11  12
ATOM     12  C   UNL A   1      35.011  29.474  28.000  1.00  0.00     0.050 C 
ATOM     13  C   UNL A   1      36.246  29.869  27.171  1.00  0.00     0.010 C 
ENDBRANCH  11  12
BRANCH  11  14
ATOM     14  N   UNL A   1      32.954  30.405  26.736  1.00  0.00    -0.381 N 
ATOM     15  C   UNL A   1      33.012  31.739  27.382  1.00  0.00     0.143 C 
ATOM     16  C   UNL A   1      31.805  30.489  25.788  1.00  0.00     0.143 C 
ENDBRANCH  11  14
ENDBRANCH   8  10
ENDBRANCH   7   8
BRANCH   7  17
ATOM     17  C   UNL A   1      32.669  27.068  23.850  1.00  0.00     0.059 C 
BRANCH  17  18
ATOM     18  C   UNL A   1      31.210  27.462  23.459  1.00  0.00    -0.028 A 
ATOM     19  C   UNL A   1      30.903  28.721  22.908  1.00  0.00     0.007 A 
ATOM     20  C   UNL A   1      30.100  26.597  23.646  1.00  0.00     0.045 A 
ATOM     21  C   UNL A   1      29.573  29.187  22.803  1.00  0.00     0.021 A 
ATOM     22  C   UNL A   1      28.770  27.043  23.499  1.00  0.00     0.041 A 
ATOM     23  Cl  UNL A   1      30.291  24.936  24.085  1.00  0.00    -0.084 Cl
ATOM     24  C   UNL A   1      28.514  28.356  23.135  1.00  0.00     0.042 A 
ATOM     25  Cl  UNL A   1      26.900  28.956  23.126  1.00  0.00    -0.084 Cl
ENDBRANCH  17  18
ENDBRANCH   7  17
ENDBRANCH   4   7
ENDBRANCH   2   3
ENDBRANCH   1   2
BRANCH   1  26
ATOM     26  C   UNL A   1      36.381  21.646  24.239  1.00  0.00     0.023 C 
BRANCH  26  27
ATOM     27  C   UNL A   1      37.221  21.690  25.519  1.00  0.00     0.116 C 
BRANCH  27  28
ATOM     28  N   UNL A   1      38.570  21.125  25.461  1.00  0.00    -0.352 N 
ATOM     29  C   UNL A   1      39.735  21.395  26.165  1.00  0.00     0.251 C 
ATOM     30  H   UNL A   1      38.671  20.410  24.791  1.00  0.00     0.163 HD
ATOM     31  O   UNL A   1      40.700  20.640  26.059  1.00  0.00    -0.269 OA
BRANCH  29  32
ATOM     32  C   UNL A   1      39.881  22.647  26.947  1.00  0.00     0.039 A 
ATOM     33  C   UNL A   1      40.850  22.724  27.957  1.00  0.00     0.014 A 
ATOM     34  C   UNL A   1      39.191  23.789  26.580  1.00  0.00     0.014 A 
ATOM     35  C   UNL A   1      41.249  23.976  28.443  1.00  0.00     0.010 A 
ATOM     36  C   UNL A   1      39.717  25.026  26.913  1.00  0.00     0.010 A 
ATOM     37  C   UNL A   1      40.759  25.147  27.842  1.00  0.00    -0.014 A 
BRANCH  37  38
ATOM     38  C   UNL A   1      41.332  26.497  28.119  1.00  0.00     0.031 A 
ATOM     39  C   UNL A   1      42.726  26.844  27.649  1.00  0.00     0.074 A 
ATOM     40  C   UNL A   1      40.674  27.355  28.932  1.00  0.00     0.049 A 
ATOM     41  N   UNL A   1      43.452  27.897  27.922  1.00  0.00    -0.248 NA
ATOM     42  C   UNL A   1      43.427  25.842  26.826  1.00  0.00     0.031 C 
ATOM     43  C   UNL A   1      39.391  27.096  29.593  1.00  0.00     0.029 A 
ATOM     44  N   UNL A   1      41.010  28.615  29.364  1.00  0.00    -0.354 N 
ATOM     45  C   UNL A   1      44.707  27.643  27.380  1.00  0.00     0.074 A 
ATOM     46  C   UNL A   1      44.665  26.310  26.823  1.00  0.00     0.031 C 
ATOM     47  C   UNL A   1      39.031  28.174  30.307  1.00  0.00     0.029 A 
ATOM     48  C   UNL A   1      40.067  29.193  30.184  1.00  0.00     0.049 A 
ATOM     49  H   UNL A   1      41.849  29.064  29.111  1.00  0.00     0.167 HD
ATOM     50  C   UNL A   1      45.784  28.458  27.296  1.00  0.00     0.034 A 
ATOM     51  C   UNL A   1      40.030  30.412  30.757  1.00  0.00     0.034 A 
ATOM     52  C   UNL A   1      45.779  29.827  27.729  1.00  0.00     0.049 A 
ATOM     53  C   UNL A   1      41.161  31.369  30.494  1.00  0.00     0.074 A 
ATOM     54  C   UNL A   1      46.757  30.791  27.559  1.00  0.00     0.029 A 
ATOM     55  N   UNL A   1      44.729  30.436  28.397  1.00  0.00    -0.354 N 
ATOM     56  N   UNL A   1      42.266  31.171  29.818  1.00  0.00    -0.248 NA
ATOM     57  C   UNL A   1      41.021  32.730  31.031  1.00  0.00     0.031 C 
ATOM     58  C   UNL A   1      46.293  31.986  28.120  1.00  0.00     0.029 A 
ATOM     59  C   UNL A   1      45.025  31.765  28.634  1.00  0.00     0.049 A 
ATOM     60  H   UNL A   1      43.894  29.986  28.665  1.00  0.00     0.167 HD
ATOM     61  C   UNL A   1      42.938  32.388  29.821  1.00  0.00     0.074 A 
ATOM     62  C   UNL A   1      42.099  33.325  30.539  1.00  0.00     0.031 C 
ATOM     63  C   UNL A   1      44.151  32.697  29.299  1.00  0.00     0.034 A 
BRANCH  50  64
ATOM     64  C   UNL A   1      47.017  27.918  26.615  1.00  0.00     0.023 A 
ATOM     65  C   UNL A   1      48.021  27.298  27.389  1.00  0.00     0.012 A 
ATOM     66  C   UNL A   1      47.176  27.998  25.218  1.00  0.00     0.148 A 
ATOM     67  C   UNL A   1      49.186  26.817  26.794  1.00  0.00     0.002 A 
ATOM     68  C   UNL A   1      48.319  27.470  24.625  1.00  0.00     0.091 A 
ATOM     69  F   UNL A   1      46.225  28.608  24.498  1.00  0.00    -0.205 F 
ATOM     70  C   UNL A   1      49.330  26.895  25.412  1.00  0.00     0.022 A 
BRANCH  68  71
ATOM     71  S   UNL A   1      48.564  27.446  22.846  1.00  0.00     0.127 S 
ATOM     72  O   UNL A   1      48.524  26.013  22.562  1.00  0.00    -0.237 OA
ATOM     73  O   UNL A   1      47.401  28.195  22.365  1.00  0.00    -0.237 OA
ATOM     74  O   UNL A   1      49.843  28.100  22.611  1.00  0.00    -0.744 OA
ENDBRANCH  68  71
ENDBRANCH  50  64
BRANCH  51  75
ATOM     75  C   UNL A   1      38.824  30.841  31.524  1.00  0.00     0.023 A 
ATOM     76  C   UNL A   1      38.755  30.556  32.902  1.00  0.00     0.012 A 
ATOM     77  C   UNL A   1      37.771  31.557  30.922  1.00  0.00     0.148 A 
ATOM     78  C   UNL A   1      37.649  30.944  33.660  1.00  0.00     0.002 A 
ATOM     79  C   UNL A   1      36.696  31.987  31.693  1.00  0.00     0.091 A 
ATOM     80  F   UNL A   1      37.847  31.811  29.608  1.00  0.00    -0.205 F 
ATOM     81  C   UNL A   1      36.625  31.668  33.058  1.00  0.00     0.022 A 
BRANCH  79  82
ATOM     82  S   UNL A   1      35.400  33.041  31.031  1.00  0.00     0.127 S 
ATOM     83  O   UNL A   1      34.576  33.281  32.211  1.00  0.00    -0.237 OA
ATOM     84  O   UNL A   1      36.157  34.201  30.561  1.00  0.00    -0.237 OA
ATOM     85  O   UNL A   1      34.777  32.264  29.964  1.00  0.00    -0.744 OA
ENDBRANCH  79  82
ENDBRANCH  51  75
BRANCH  63  86
ATOM     86  C   UNL A   1      44.635  34.112  29.461  1.00  0.00     0.023 A 
ATOM     87  C   UNL A   1      45.304  34.487  30.643  1.00  0.00     0.012 A 
ATOM     88  C   UNL A   1      44.486  35.050  28.422  1.00  0.00     0.148 A 
ATOM     89  C   UNL A   1      45.786  35.783  30.803  1.00  0.00     0.002 A 
ATOM     90  C   UNL A   1      45.010  36.328  28.570  1.00  0.00     0.091 A 
ATOM     91  F   UNL A   1      43.828  34.683  27.314  1.00  0.00    -0.205 F 
ATOM     92  C   UNL A   1      45.650  36.701  29.763  1.00  0.00     0.022 A 
BRANCH  90  93
ATOM     93  S   UNL A   1      44.958  37.531  27.236  1.00  0.00     0.127 S 
ATOM     94  O   UNL A   1      45.580  38.697  27.860  1.00  0.00    -0.237 OA
ATOM     95  O   UNL A   1      45.768  36.890  26.199  1.00  0.00    -0.237 OA
ATOM     96  O   UNL A   1      43.550  37.670  26.892  1.00  0.00    -0.744 OA
ENDBRANCH  90  93
ENDBRANCH  63  86
ENDBRANCH  37  38
ENDBRANCH  29  32
ENDBRANCH  27  28
ENDBRANCH  26  27
ENDBRANCH   1  26
TORSDOF 20
ENDMDL
MODEL 3
REMARK VINA RESULT:     -10.8      2.280      3.973
REMARK SMILES CC/C(=C/C(=O)[C@H](Cc1ccc(Cl)cc1Cl)C(=O)NCCCCNC(=O)c1ccc(-c2c3nc(c(-c4cccc(S(=O)(=O)[O-])c4F)c4ccc([nH]4)c(-c4cccc(S(=O)(=O)[O-])c4F)c4nc(c(-c5cccc(S(=O)(=O)[O-])c5F)c5ccc2[nH]5)C=C4)C=C3)cc1)N(C)C
REMARK SMILES IDX 21 1 20 2 19 3 17 4 18 5 7 7 5 8 6 9 4 10 3 11 2 12 1 13
REMARK SMILES IDX 90 14 91 15 92 16 8 17 9 18 10 19 15 20 11 21 14 22 16 23
REMARK SMILES IDX 12 24 13 25 22 26 23 27 24 28 25 29 26 31 27 32 28 33 89 34
REMARK SMILES IDX 29 35 88 36 30 37 31 38 32 39 82 40 33 41 87 42 81 43 83 44
REMARK SMILES IDX 34 45 86 46 80 47 79 48 35 50 67 51 47 52 66 53 48 54 51 55
REMARK SMILES IDX 65 56 84 57 49 58 50 59 64 61 85 62 52 63 36 64 37 65 45 66
REMARK SMILES IDX 38 67 40 68 46 69 39 70 41 71 42 72 43 73 44 74 68 75 69 76
REMARK SMILES IDX 77 77 70 78 72 79 78 80 71 81 73 82 74 83 75 84 76 85 53 86
REMARK SMILES IDX 54 87 62 88 55 89 57 90 63 91 56 92 58 93 59 94 60 95 61 96
REMARK H PARENT 19 6 24 30 83 49 51 60
REMARK Flexibility Score: inf
ROOT
ATOM      1  C   UNL A   1      37.922  23.971  26.514  1.00  0.00     0.023 C 
ENDROOT
BRANCH   1   2
ATOM      2  C   UNL A   1      36.530  23.886  25.841  1.00  0.00     0.116 C 
BRANCH   2   3
ATOM      3  N   UNL A   1      35.610  22.903  26.566  1.00  0.00    -0.355 N 
ATOM      4  C   UNL A   1      34.304  22.534  26.793  1.00  0.00     0.231 C 
ATOM      5  O   UNL A   1      34.187  21.744  27.749  1.00  0.00    -0.274 OA
ATOM      6  H   UNL A   1      36.184  22.286  27.076  1.00  0.00     0.163 HD
BRANCH   4   7
ATOM      7  C   UNL A   1      32.992  22.862  26.004  1.00  0.00     0.154 C 
BRANCH   7   8
ATOM      8  C   UNL A   1      32.209  23.939  26.598  1.00  0.00     0.170 C 
ATOM      9  O   UNL A   1      31.299  23.709  27.399  1.00  0.00    -0.294 OA
BRANCH   8  10
ATOM     10  C   UNL A   1      32.525  25.327  26.283  1.00  0.00     0.069 C 
ATOM     11  C   UNL A   1      32.325  26.222  25.288  1.00  0.00     0.016 C 
BRANCH  11  12
ATOM     12  C   UNL A   1      33.243  27.433  25.596  1.00  0.00     0.050 C 
ATOM     13  C   UNL A   1      33.839  28.173  24.385  1.00  0.00     0.010 C 
ENDBRANCH  11  12
BRANCH  11  14
ATOM     14  N   UNL A   1      31.523  26.227  24.085  1.00  0.00    -0.381 N 
ATOM     15  C   UNL A   1      30.307  27.060  23.922  1.00  0.00     0.143 C 
ATOM     16  C   UNL A   1      31.484  25.267  22.944  1.00  0.00     0.143 C 
ENDBRANCH  11  14
ENDBRANCH   8  10
ENDBRANCH   7   8
BRANCH   7  17
ATOM     17  C   UNL A   1      32.066  21.872  25.110  1.00  0.00     0.059 C 
BRANCH  17  18
ATOM     18  C   UNL A   1      32.357  20.402  24.675  1.00  0.00    -0.028 A 
ATOM     19  C   UNL A   1      32.657  19.395  25.613  1.00  0.00     0.007 A 
ATOM     20  C   UNL A   1      32.359  19.984  23.319  1.00  0.00     0.045 A 
ATOM     21  C   UNL A   1      33.181  18.142  25.223  1.00  0.00     0.021 A 
ATOM     22  C   UNL A   1      32.838  18.717  22.926  1.00  0.00     0.041 A 
ATOM     23  Cl  UNL A   1      31.789  21.000  22.041  1.00  0.00    -0.084 Cl
ATOM     24  C   UNL A   1      33.303  17.824  23.879  1.00  0.00     0.042 A 
ATOM     25  Cl  UNL A   1      34.053  16.350  23.397  1.00  0.00    -0.084 Cl
ENDBRANCH  17  18
ENDBRANCH   7  17
ENDBRANCH   4   7
ENDBRANCH   2   3
ENDBRANCH   1   2
BRANCH   1  26
ATOM     26  C   UNL A   1      38.984  22.879  26.619  1.00  0.00     0.023 C 
BRANCH  26  27
ATOM     27  C   UNL A   1      38.989  21.682  25.664  1.00  0.00     0.116 C 
BRANCH  27  28
ATOM     28  N   UNL A   1      39.840  20.543  26.013  1.00  0.00    -0.352 N 
ATOM     29  C   UNL A   1      41.053  20.444  26.682  1.00  0.00     0.251 C 
ATOM     30  H   UNL A   1      39.482  19.675  25.716  1.00  0.00     0.163 HD
ATOM     31  O   UNL A   1      41.475  19.339  27.017  1.00  0.00    -0.269 OA
BRANCH  29  32
ATOM     32  C   UNL A   1      41.909  21.637  26.888  1.00  0.00     0.039 A 
ATOM     33  C   UNL A   1      42.136  22.520  25.824  1.00  0.00     0.014 A 
ATOM     34  C   UNL A   1      42.347  21.977  28.157  1.00  0.00     0.014 A 
ATOM     35  C   UNL A   1      42.619  23.809  26.080  1.00  0.00     0.010 A 
ATOM     36  C   UNL A   1      42.635  23.303  28.433  1.00  0.00     0.010 A 
ATOM     37  C   UNL A   1      42.769  24.248  27.406  1.00  0.00    -0.014 A 
BRANCH  37  38
ATOM     38  C   UNL A   1      43.018  25.675  27.762  1.00  0.00     0.031 A 
ATOM     39  C   UNL A   1      44.415  26.248  27.679  1.00  0.00     0.074 A 
ATOM     40  C   UNL A   1      42.031  26.415  28.314  1.00  0.00     0.049 A 
ATOM     41  N   UNL A   1      44.858  27.408  28.089  1.00  0.00    -0.248 NA
ATOM     42  C   UNL A   1      45.470  25.373  27.136  1.00  0.00     0.031 C 
ATOM     43  C   UNL A   1      40.672  25.949  28.605  1.00  0.00     0.029 A 
ATOM     44  N   UNL A   1      42.027  27.716  28.757  1.00  0.00    -0.354 N 
ATOM     45  C   UNL A   1      46.239  27.364  27.931  1.00  0.00     0.074 A 
ATOM     46  C   UNL A   1      46.567  26.041  27.453  1.00  0.00     0.031 C 
ATOM     47  C   UNL A   1      39.958  26.956  29.135  1.00  0.00     0.029 A 
ATOM     48  C   UNL A   1      40.811  28.132  29.253  1.00  0.00     0.049 A 
ATOM     49  H   UNL A   1      42.820  28.298  28.725  1.00  0.00     0.167 HD
ATOM     50  C   UNL A   1      47.152  28.348  28.107  1.00  0.00     0.034 A 
ATOM     51  C   UNL A   1      40.421  29.331  29.730  1.00  0.00     0.034 A 
ATOM     52  C   UNL A   1      46.809  29.698  28.451  1.00  0.00     0.049 A 
ATOM     53  C   UNL A   1      41.414  30.462  29.743  1.00  0.00     0.074 A 
ATOM     54  C   UNL A   1      47.628  30.811  28.510  1.00  0.00     0.029 A 
ATOM     55  N   UNL A   1      45.529  30.127  28.769  1.00  0.00    -0.354 N 
ATOM     56  N   UNL A   1      42.682  30.448  29.411  1.00  0.00    -0.248 NA
ATOM     57  C   UNL A   1      40.914  31.782  30.148  1.00  0.00     0.031 C 
ATOM     58  C   UNL A   1      46.841  31.914  28.858  1.00  0.00     0.029 A 
ATOM     59  C   UNL A   1      45.531  31.488  29.010  1.00  0.00     0.049 A 
ATOM     60  H   UNL A   1      44.736  29.545  28.817  1.00  0.00     0.167 HD
ATOM     61  C   UNL A   1      43.124  31.759  29.538  1.00  0.00     0.074 A 
ATOM     62  C   UNL A   1      41.979  32.546  29.946  1.00  0.00     0.031 C 
ATOM     63  C   UNL A   1      44.370  32.264  29.358  1.00  0.00     0.034 A 
BRANCH  50  64
ATOM     64  C   UNL A   1      48.597  28.017  27.823  1.00  0.00     0.023 A 
ATOM     65  C   UNL A   1      49.445  27.648  28.889  1.00  0.00     0.012 A 
ATOM     66  C   UNL A   1      49.111  28.047  26.513  1.00  0.00     0.148 A 
ATOM     67  C   UNL A   1      50.792  27.368  28.665  1.00  0.00     0.002 A 
ATOM     68  C   UNL A   1      50.444  27.716  26.290  1.00  0.00     0.091 A 
ATOM     69  F   UNL A   1      48.299  28.419  25.514  1.00  0.00    -0.205 F 
ATOM     70  C   UNL A   1      51.288  27.393  27.365  1.00  0.00     0.022 A 
BRANCH  68  71
ATOM     71  S   UNL A   1      51.160  27.638  24.645  1.00  0.00     0.127 S 
ATOM     72  O   UNL A   1      51.275  29.054  24.305  1.00  0.00    -0.237 OA
ATOM     73  O   UNL A   1      52.436  26.966  24.896  1.00  0.00    -0.237 OA
ATOM     74  O   UNL A   1      50.222  26.871  23.838  1.00  0.00    -0.744 OA
ENDBRANCH  68  71
ENDBRANCH  50  64
BRANCH  51  75
ATOM     75  C   UNL A   1      38.995  29.556  30.109  1.00  0.00     0.023 A 
ATOM     76  C   UNL A   1      38.579  29.236  31.417  1.00  0.00     0.012 A 
ATOM     77  C   UNL A   1      38.064  30.116  29.213  1.00  0.00     0.148 A 
ATOM     78  C   UNL A   1      37.257  29.437  31.816  1.00  0.00     0.002 A 
ATOM     79  C   UNL A   1      36.761  30.362  29.634  1.00  0.00     0.091 A 
ATOM     80  F   UNL A   1      38.473  30.405  27.970  1.00  0.00    -0.205 F 
ATOM     81  C   UNL A   1      36.351  30.009  30.928  1.00  0.00     0.022 A 
BRANCH  79  82
ATOM     82  S   UNL A   1      35.565  31.220  28.603  1.00  0.00     0.127 S 
ATOM     83  O   UNL A   1      36.402  32.204  27.926  1.00  0.00    -0.237 OA
ATOM     84  O   UNL A   1      35.065  30.142  27.750  1.00  0.00    -0.237 OA
ATOM     85  O   UNL A   1      34.571  31.756  29.529  1.00  0.00    -0.744 OA
ENDBRANCH  79  82
ENDBRANCH  51  75
BRANCH  63  86
ATOM     86  C   UNL A   1      44.557  33.740  29.576  1.00  0.00     0.023 A 
ATOM     87  C   UNL A   1      44.911  34.215  30.854  1.00  0.00     0.012 A 
ATOM     88  C   UNL A   1      44.447  34.648  28.505  1.00  0.00     0.148 A 
ATOM     89  C   UNL A   1      45.118  35.575  31.071  1.00  0.00     0.002 A 
ATOM     90  C   UNL A   1      44.700  35.997  28.719  1.00  0.00     0.091 A 
ATOM     91  F   UNL A   1      44.087  34.181  27.301  1.00  0.00    -0.205 F 
ATOM     92  C   UNL A   1      45.024  36.465  30.003  1.00  0.00     0.022 A 
BRANCH  90  93
ATOM     93  S   UNL A   1      44.693  37.185  27.372  1.00  0.00     0.127 S 
ATOM     94  O   UNL A   1      43.363  36.984  26.801  1.00  0.00    -0.237 OA
ATOM     95  O   UNL A   1      44.870  38.459  28.071  1.00  0.00    -0.237 OA
ATOM     96  O   UNL A   1      45.813  36.813  26.518  1.00  0.00    -0.744 OA
ENDBRANCH  90  93
ENDBRANCH  63  86
ENDBRANCH  37  38
ENDBRANCH  29  32
ENDBRANCH  27  28
ENDBRANCH  26  27
ENDBRANCH   1  26
TORSDOF 20
ENDMDL
