MODEL 1
REMARK VINA RESULT:     -12.3      0.000      0.000
REMARK SMILES O=C(NCCCCNC(=O)[C@@H]1CCCN1C(=O)[C@@H]1CCCN1C(=O)OCC1c2ccccc2-c2ccccc21)c1ccc(-c2c3nc(c(-c4cccc(S(=O)(=O)[O-])c4F)c4ccc([nH]4)c(-c4cccc(S(=O)(=O)[O-])c4F)c4nc(c(-c5cccc(S(=O)(=O)[O-])c5F)c5ccc2[nH]5)C=C4)C=C3)cc1
REMARK SMILES IDX 7 1 6 2 5 3 4 4 3 5 1 6 2 7 40 9 41 10 102 11 42 12 101 13
REMARK SMILES IDX 43 14 44 15 45 16 95 17 46 18 100 19 94 20 96 21 47 22 99 23
REMARK SMILES IDX 93 24 92 25 48 27 80 28 60 29 79 30 61 31 64 32 78 33 97 34
REMARK SMILES IDX 62 35 63 36 77 38 98 39 65 40 49 41 50 42 58 43 51 44 53 45
REMARK SMILES IDX 59 46 52 47 54 48 55 49 56 50 57 51 81 52 82 53 90 54 83 55
REMARK SMILES IDX 85 56 91 57 84 58 86 59 87 60 88 61 89 62 66 63 67 64 75 65
REMARK SMILES IDX 68 66 70 67 76 68 69 69 71 70 72 71 73 72 74 73 8 74 9 75
REMARK SMILES IDX 10 77 11 78 12 79 15 80 13 81 14 82 16 83 17 84 18 85 19 86
REMARK SMILES IDX 22 87 20 88 21 89 23 90 24 91 25 92 26 93 27 94 28 95 39 96
REMARK SMILES IDX 29 97 33 98 34 99 38 100 30 101 32 102 35 103 37 104 31 105
REMARK SMILES IDX 36 106
REMARK H PARENT 3 8 96 26 64 37 8 76
REMARK Flexibility Score: inf
ROOT
ATOM      1  C   UNL A   1      35.550  20.872  25.020  1.00  0.00     0.116 C 
ENDROOT
BRANCH   1   2
ATOM      2  C   UNL A   1      36.572  19.736  24.998  1.00  0.00     0.023 C 
BRANCH   2   3
ATOM      3  C   UNL A   1      38.011  20.123  24.649  1.00  0.00     0.023 C 
BRANCH   3   4
ATOM      4  C   UNL A   1      38.941  20.364  25.833  1.00  0.00     0.116 C 
BRANCH   4   5
ATOM      5  N   UNL A   1      40.004  19.380  25.940  1.00  0.00    -0.352 N 
ATOM      6  O   UNL A   1      42.114  18.591  25.998  1.00  0.00    -0.269 OA
ATOM      7  C   UNL A   1      41.358  19.549  26.121  1.00  0.00     0.251 C 
ATOM      8  H   UNL A   1      39.711  18.444  25.870  1.00  0.00     0.163 HD
BRANCH   7   9
ATOM      9  C   UNL A   1      41.903  20.889  26.439  1.00  0.00     0.039 A 
ATOM     10  C   UNL A   1      42.178  21.256  27.759  1.00  0.00     0.014 A 
ATOM     11  C   UNL A   1      42.159  21.784  25.398  1.00  0.00     0.014 A 
ATOM     12  C   UNL A   1      42.553  22.564  28.053  1.00  0.00     0.010 A 
ATOM     13  C   UNL A   1      42.610  23.075  25.689  1.00  0.00     0.010 A 
ATOM     14  C   UNL A   1      42.766  23.490  27.020  1.00  0.00    -0.014 A 
BRANCH  14  15
ATOM     15  C   UNL A   1      43.181  24.881  27.338  1.00  0.00     0.031 A 
ATOM     16  C   UNL A   1      42.212  25.848  27.961  1.00  0.00     0.074 A 
ATOM     17  C   UNL A   1      44.430  25.281  27.033  1.00  0.00     0.049 A 
ATOM     18  N   UNL A   1      42.381  27.112  28.252  1.00  0.00    -0.248 NA
ATOM     19  C   UNL A   1      40.874  25.333  28.292  1.00  0.00     0.031 C 
ATOM     20  C   UNL A   1      45.448  24.442  26.398  1.00  0.00     0.029 A 
ATOM     21  N   UNL A   1      45.049  26.495  27.192  1.00  0.00    -0.354 N 
ATOM     22  C   UNL A   1      41.164  27.556  28.752  1.00  0.00     0.074 A 
ATOM     23  C   UNL A   1      40.261  26.426  28.725  1.00  0.00     0.031 C 
ATOM     24  C   UNL A   1      46.560  25.166  26.213  1.00  0.00     0.029 A 
ATOM     25  C   UNL A   1      46.322  26.531  26.672  1.00  0.00     0.049 A 
ATOM     26  H   UNL A   1      44.624  27.264  27.635  1.00  0.00     0.167 HD
ATOM     27  C   UNL A   1      40.832  28.790  29.205  1.00  0.00     0.034 A 
ATOM     28  C   UNL A   1      47.190  27.552  26.547  1.00  0.00     0.034 A 
ATOM     29  C   UNL A   1      41.747  29.898  29.267  1.00  0.00     0.049 A 
ATOM     30  C   UNL A   1      46.811  28.904  27.079  1.00  0.00     0.074 A 
ATOM     31  C   UNL A   1      41.529  31.167  29.776  1.00  0.00     0.029 A 
ATOM     32  N   UNL A   1      43.053  29.874  28.800  1.00  0.00    -0.354 N 
ATOM     33  N   UNL A   1      45.697  29.272  27.664  1.00  0.00    -0.248 NA
ATOM     34  C   UNL A   1      47.813  29.972  26.966  1.00  0.00     0.031 C 
ATOM     35  C   UNL A   1      42.697  31.915  29.601  1.00  0.00     0.029 A 
ATOM     36  C   UNL A   1      43.650  31.107  29.001  1.00  0.00     0.049 A 
ATOM     37  H   UNL A   1      43.490  29.095  28.387  1.00  0.00     0.167 HD
ATOM     38  C   UNL A   1      45.872  30.605  28.014  1.00  0.00     0.074 A 
ATOM     39  C   UNL A   1      47.206  30.976  27.588  1.00  0.00     0.031 C 
ATOM     40  C   UNL A   1      45.000  31.445  28.623  1.00  0.00     0.034 A 
BRANCH  27  41
ATOM     41  C   UNL A   1      39.425  28.997  29.702  1.00  0.00     0.023 A 
ATOM     42  C   UNL A   1      39.084  28.603  31.011  1.00  0.00     0.012 A 
ATOM     43  C   UNL A   1      38.455  29.624  28.895  1.00  0.00     0.148 A 
ATOM     44  C   UNL A   1      37.790  28.796  31.497  1.00  0.00     0.002 A 
ATOM     45  C   UNL A   1      37.178  29.846  29.400  1.00  0.00     0.091 A 
ATOM     46  F   UNL A   1      38.786  29.971  27.642  1.00  0.00    -0.205 F 
ATOM     47  C   UNL A   1      36.840  29.425  30.696  1.00  0.00     0.022 A 
BRANCH  45  48
ATOM     48  S   UNL A   1      35.919  30.715  28.457  1.00  0.00     0.127 S 
ATOM     49  O   UNL A   1      35.621  29.750  27.401  1.00  0.00    -0.237 OA
ATOM     50  O   UNL A   1      34.850  30.889  29.441  1.00  0.00    -0.237 OA
ATOM     51  O   UNL A   1      36.543  31.959  28.026  1.00  0.00    -0.744 OA
ENDBRANCH  45  48
ENDBRANCH  27  41
BRANCH  28  52
ATOM     52  C   UNL A   1      48.518  27.297  25.923  1.00  0.00     0.023 A 
ATOM     53  C   UNL A   1      49.549  26.729  26.694  1.00  0.00     0.012 A 
ATOM     54  C   UNL A   1      48.727  27.519  24.546  1.00  0.00     0.148 A 
ATOM     55  C   UNL A   1      50.769  26.390  26.105  1.00  0.00     0.002 A 
ATOM     56  C   UNL A   1      49.922  27.127  23.957  1.00  0.00     0.091 A 
ATOM     57  F   UNL A   1      47.735  28.073  23.836  1.00  0.00    -0.205 F 
ATOM     58  C   UNL A   1      50.950  26.575  24.737  1.00  0.00     0.022 A 
BRANCH  56  59
ATOM     59  S   UNL A   1      50.186  27.187  22.180  1.00  0.00     0.127 S 
ATOM     60  O   UNL A   1      49.096  26.348  21.689  1.00  0.00    -0.237 OA
ATOM     61  O   UNL A   1      50.037  28.616  21.902  1.00  0.00    -0.237 OA
ATOM     62  O   UNL A   1      51.529  26.669  21.964  1.00  0.00    -0.744 OA
ENDBRANCH  56  59
ENDBRANCH  28  52
BRANCH  40  63
ATOM     63  C   UNL A   1      45.460  32.851  28.903  1.00  0.00     0.023 A 
ATOM     64  C   UNL A   1      46.266  33.108  30.030  1.00  0.00     0.012 A 
ATOM     65  C   UNL A   1      45.185  33.890  27.993  1.00  0.00     0.148 A 
ATOM     66  C   UNL A   1      46.779  34.385  30.253  1.00  0.00     0.002 A 
ATOM     67  C   UNL A   1      45.735  35.149  28.200  1.00  0.00     0.091 A 
ATOM     68  F   UNL A   1      44.400  33.624  26.940  1.00  0.00    -0.205 F 
ATOM     69  C   UNL A   1      46.525  35.400  29.333  1.00  0.00     0.022 A 
BRANCH  67  70
ATOM     70  S   UNL A   1      45.538  36.491  27.023  1.00  0.00     0.127 S 
ATOM     71  O   UNL A   1      46.040  37.633  27.785  1.00  0.00    -0.237 OA
ATOM     72  O   UNL A   1      46.399  36.066  25.920  1.00  0.00    -0.237 OA
ATOM     73  O   UNL A   1      44.117  36.535  26.697  1.00  0.00    -0.744 OA
ENDBRANCH  67  70
ENDBRANCH  40  63
ENDBRANCH  14  15
ENDBRANCH   7   9
ENDBRANCH   4   5
ENDBRANCH   3   4
ENDBRANCH   2   3
ENDBRANCH   1   2
BRANCH   1  74
ATOM     74  N   UNL A   1      34.176  20.404  25.003  1.00  0.00    -0.354 N 
ATOM     75  C   UNL A   1      33.037  21.099  25.311  1.00  0.00     0.242 C 
ATOM     76  H   UNL A   1      34.046  19.465  24.737  1.00  0.00     0.163 HD
ATOM     77  O   UNL A   1      31.954  20.529  25.159  1.00  0.00    -0.273 OA
BRANCH  75  78
ATOM     78  C   UNL A   1      33.143  22.502  25.935  1.00  0.00     0.174 C 
ATOM     79  C   UNL A   1      32.006  22.571  26.972  1.00  0.00     0.037 C 
ATOM     80  N   UNL A   1      32.868  23.644  25.052  1.00  0.00    -0.329 N 
ATOM     81  C   UNL A   1      31.566  24.020  27.013  1.00  0.00     0.024 C 
ATOM     82  C   UNL A   1      31.961  24.591  25.671  1.00  0.00     0.120 C 
BRANCH  80  83
ATOM     83  C   UNL A   1      33.533  24.073  23.928  1.00  0.00     0.246 C 
ATOM     84  O   UNL A   1      34.759  24.273  23.984  1.00  0.00    -0.272 OA
BRANCH  83  85
ATOM     85  C   UNL A   1      32.820  24.495  22.635  1.00  0.00     0.178 C 
ATOM     86  C   UNL A   1      32.867  23.378  21.577  1.00  0.00     0.037 C 
ATOM     87  N   UNL A   1      33.133  25.715  21.910  1.00  0.00    -0.296 N 
ATOM     88  C   UNL A   1      33.081  24.074  20.232  1.00  0.00     0.024 C 
ATOM     89  C   UNL A   1      32.809  25.536  20.512  1.00  0.00     0.124 C 
BRANCH  87  90
ATOM     90  C   UNL A   1      32.987  26.961  22.477  1.00  0.00     0.410 C 
ATOM     91  O   UNL A   1      33.847  27.484  23.179  1.00  0.00    -0.224 OA
BRANCH  90  92
ATOM     92  O   UNL A   1      31.793  27.530  22.177  1.00  0.00    -0.448 OA
BRANCH  92  93
ATOM     93  C   UNL A   1      30.639  27.052  22.892  1.00  0.00     0.248 C 
BRANCH  93  94
ATOM     94  C   UNL A   1      29.973  28.059  23.848  1.00  0.00     0.088 C 
ATOM     95  C   UNL A   1      30.864  28.678  24.921  1.00  0.00    -0.029 A 
ATOM     96  C   UNL A   1      29.340  29.293  23.220  1.00  0.00    -0.029 A 
ATOM     97  C   UNL A   1      31.632  28.047  25.886  1.00  0.00     0.005 A 
ATOM     98  C   UNL A   1      30.728  30.085  24.910  1.00  0.00    -0.014 A 
ATOM     99  C   UNL A   1      29.780  30.458  23.884  1.00  0.00    -0.014 A 
ATOM    100  C   UNL A   1      28.389  29.360  22.214  1.00  0.00     0.005 A 
ATOM    101  C   UNL A   1      32.286  28.842  26.831  1.00  0.00     0.000 A 
ATOM    102  C   UNL A   1      31.413  30.874  25.821  1.00  0.00     0.009 A 
ATOM    103  C   UNL A   1      29.265  31.699  23.546  1.00  0.00     0.009 A 
ATOM    104  C   UNL A   1      27.888  30.613  21.859  1.00  0.00     0.000 A 
ATOM    105  C   UNL A   1      32.199  30.243  26.786  1.00  0.00     0.001 A 
ATOM    106  C   UNL A   1      28.316  31.772  22.525  1.00  0.00     0.001 A 
ENDBRANCH  93  94
ENDBRANCH  92  93
ENDBRANCH  90  92
ENDBRANCH  87  90
ENDBRANCH  83  85
ENDBRANCH  80  83
ENDBRANCH  75  78
ENDBRANCH   1  74
TORSDOF 20
ENDMDL
MODEL 2
REMARK VINA RESULT:     -12.3      1.304      7.465
REMARK SMILES O=C(NCCCCNC(=O)[C@@H]1CCCN1C(=O)[C@@H]1CCCN1C(=O)OCC1c2ccccc2-c2ccccc21)c1ccc(-c2c3nc(c(-c4cccc(S(=O)(=O)[O-])c4F)c4ccc([nH]4)c(-c4cccc(S(=O)(=O)[O-])c4F)c4nc(c(-c5cccc(S(=O)(=O)[O-])c5F)c5ccc2[nH]5)C=C4)C=C3)cc1
REMARK SMILES IDX 7 1 6 2 5 3 4 4 3 5 1 6 2 7 40 9 41 10 102 11 42 12 101 13
REMARK SMILES IDX 43 14 44 15 45 16 95 17 46 18 100 19 94 20 96 21 47 22 99 23
REMARK SMILES IDX 93 24 92 25 48 27 80 28 60 29 79 30 61 31 64 32 78 33 97 34
REMARK SMILES IDX 62 35 63 36 77 38 98 39 65 40 49 41 50 42 58 43 51 44 53 45
REMARK SMILES IDX 59 46 52 47 54 48 55 49 56 50 57 51 81 52 82 53 90 54 83 55
REMARK SMILES IDX 85 56 91 57 84 58 86 59 87 60 88 61 89 62 66 63 67 64 75 65
REMARK SMILES IDX 68 66 70 67 76 68 69 69 71 70 72 71 73 72 74 73 8 74 9 75
REMARK SMILES IDX 10 77 11 78 12 79 15 80 13 81 14 82 16 83 17 84 18 85 19 86
REMARK SMILES IDX 22 87 20 88 21 89 23 90 24 91 25 92 26 93 27 94 28 95 39 96
REMARK SMILES IDX 29 97 33 98 34 99 38 100 30 101 32 102 35 103 37 104 31 105
REMARK SMILES IDX 36 106
REMARK H PARENT 3 8 96 26 64 37 8 76
REMARK Flexibility Score: inf
ROOT
ATOM      1  C   UNL A   1      38.043  23.361  26.021  1.00  0.00     0.116 C 
ENDROOT
BRANCH   1   2
ATOM      2  C   UNL A   1      39.248  22.526  26.453  1.00  0.00     0.023 C 
BRANCH   2   3
ATOM      3  C   UNL A   1      39.393  21.152  25.797  1.00  0.00     0.023 C 
BRANCH   3   4
ATOM      4  C   UNL A   1      39.853  20.022  26.712  1.00  0.00     0.116 C 
BRANCH   4   5
ATOM      5  N   UNL A   1      40.993  19.287  26.191  1.00  0.00    -0.352 N 
ATOM      6  O   UNL A   1      43.022  18.974  25.260  1.00  0.00    -0.269 OA
ATOM      7  C   UNL A   1      42.257  19.722  25.862  1.00  0.00     0.251 C 
ATOM      8  H   UNL A   1      40.837  18.326  26.050  1.00  0.00     0.163 HD
BRANCH   7   9
ATOM      9  C   UNL A   1      42.684  21.096  26.211  1.00  0.00     0.039 A 
ATOM     10  C   UNL A   1      42.941  21.451  27.538  1.00  0.00     0.014 A 
ATOM     11  C   UNL A   1      42.846  22.037  25.191  1.00  0.00     0.014 A 
ATOM     12  C   UNL A   1      43.201  22.780  27.862  1.00  0.00     0.010 A 
ATOM     13  C   UNL A   1      43.183  23.356  25.512  1.00  0.00     0.010 A 
ATOM     14  C   UNL A   1      43.318  23.748  26.853  1.00  0.00    -0.014 A 
BRANCH  14  15
ATOM     15  C   UNL A   1      43.611  25.162  27.204  1.00  0.00     0.031 A 
ATOM     16  C   UNL A   1      44.997  25.723  27.038  1.00  0.00     0.074 A 
ATOM     17  C   UNL A   1      42.628  25.932  27.707  1.00  0.00     0.049 A 
ATOM     18  N   UNL A   1      45.447  26.912  27.346  1.00  0.00    -0.248 NA
ATOM     19  C   UNL A   1      46.013  24.831  26.457  1.00  0.00     0.031 C 
ATOM     20  C   UNL A   1      41.254  25.489  27.945  1.00  0.00     0.029 A 
ATOM     21  N   UNL A   1      42.637  27.237  28.130  1.00  0.00    -0.354 N 
ATOM     22  C   UNL A   1      46.804  26.897  27.045  1.00  0.00     0.074 A 
ATOM     23  C   UNL A   1      47.106  25.580  26.530  1.00  0.00     0.031 C 
ATOM     24  C   UNL A   1      40.553  26.499  28.478  1.00  0.00     0.029 A 
ATOM     25  C   UNL A   1      41.437  27.645  28.664  1.00  0.00     0.049 A 
ATOM     26  H   UNL A   1      43.424  27.823  28.058  1.00  0.00     0.167 HD
ATOM     27  C   UNL A   1      47.712  27.895  27.175  1.00  0.00     0.034 A 
ATOM     28  C   UNL A   1      41.091  28.799  29.266  1.00  0.00     0.034 A 
ATOM     29  C   UNL A   1      47.396  29.215  27.650  1.00  0.00     0.049 A 
ATOM     30  C   UNL A   1      42.106  29.900  29.375  1.00  0.00     0.074 A 
ATOM     31  C   UNL A   1      48.229  30.317  27.749  1.00  0.00     0.029 A 
ATOM     32  N   UNL A   1      46.149  29.614  28.111  1.00  0.00    -0.354 N 
ATOM     33  N   UNL A   1      43.353  29.909  28.969  1.00  0.00    -0.248 NA
ATOM     34  C   UNL A   1      41.665  31.157  29.993  1.00  0.00     0.031 C 
ATOM     35  C   UNL A   1      47.490  31.376  28.287  1.00  0.00     0.029 A 
ATOM     36  C   UNL A   1      46.192  30.941  28.504  1.00  0.00     0.049 A 
ATOM     37  H   UNL A   1      45.353  29.038  28.152  1.00  0.00     0.167 HD
ATOM     38  C   UNL A   1      43.839  31.179  29.256  1.00  0.00     0.074 A 
ATOM     39  C   UNL A   1      42.746  31.917  29.858  1.00  0.00     0.031 C 
ATOM     40  C   UNL A   1      45.081  31.680  29.049  1.00  0.00     0.034 A 
BRANCH  27  41
ATOM     41  C   UNL A   1      49.132  27.605  26.764  1.00  0.00     0.023 A 
ATOM     42  C   UNL A   1      50.043  27.103  27.715  1.00  0.00     0.012 A 
ATOM     43  C   UNL A   1      49.553  27.782  25.432  1.00  0.00     0.148 A 
ATOM     44  C   UNL A   1      51.360  26.816  27.355  1.00  0.00     0.002 A 
ATOM     45  C   UNL A   1      50.858  27.458  25.072  1.00  0.00     0.091 A 
ATOM     46  F   UNL A   1      48.683  28.284  24.543  1.00  0.00    -0.205 F 
ATOM     47  C   UNL A   1      51.765  26.985  26.033  1.00  0.00     0.022 A 
BRANCH  45  48
ATOM     48  S   UNL A   1      51.436  27.579  23.375  1.00  0.00     0.127 S 
ATOM     49  O   UNL A   1      51.428  29.024  23.161  1.00  0.00    -0.237 OA
ATOM     50  O   UNL A   1      52.770  26.983  23.452  1.00  0.00    -0.237 OA
ATOM     51  O   UNL A   1      50.483  26.813  22.583  1.00  0.00    -0.744 OA
ENDBRANCH  45  48
ENDBRANCH  27  41
BRANCH  28  52
ATOM     52  C   UNL A   1      39.698  28.963  29.766  1.00  0.00     0.023 A 
ATOM     53  C   UNL A   1      39.358  28.485  31.044  1.00  0.00     0.012 A 
ATOM     54  C   UNL A   1      38.740  29.681  29.020  1.00  0.00     0.148 A 
ATOM     55  C   UNL A   1      38.087  28.714  31.572  1.00  0.00     0.002 A 
ATOM     56  C   UNL A   1      37.497  29.955  29.575  1.00  0.00     0.091 A 
ATOM     57  F   UNL A   1      39.083  30.116  27.800  1.00  0.00    -0.205 F 
ATOM     58  C   UNL A   1      37.163  29.461  30.846  1.00  0.00     0.022 A 
BRANCH  56  59
ATOM     59  S   UNL A   1      36.302  31.035  28.777  1.00  0.00     0.127 S 
ATOM     60  O   UNL A   1      37.062  32.275  28.645  1.00  0.00    -0.237 OA
ATOM     61  O   UNL A   1      36.051  30.328  27.520  1.00  0.00    -0.237 OA
ATOM     62  O   UNL A   1      35.158  31.088  29.676  1.00  0.00    -0.744 OA
ENDBRANCH  56  59
ENDBRANCH  28  52
BRANCH  40  63
ATOM     63  C   UNL A   1      45.334  33.111  29.441  1.00  0.00     0.023 A 
ATOM     64  C   UNL A   1      45.867  33.401  30.713  1.00  0.00     0.012 A 
ATOM     65  C   UNL A   1      45.146  34.152  28.512  1.00  0.00     0.148 A 
ATOM     66  C   UNL A   1      46.195  34.712  31.058  1.00  0.00     0.002 A 
ATOM     67  C   UNL A   1      45.515  35.449  28.848  1.00  0.00     0.091 A 
ATOM     68  F   UNL A   1      44.619  33.853  27.316  1.00  0.00    -0.205 F 
ATOM     69  C   UNL A   1      46.032  35.732  30.122  1.00  0.00     0.022 A 
BRANCH  67  70
ATOM     70  S   UNL A   1      45.426  36.809  27.678  1.00  0.00     0.127 S 
ATOM     71  O   UNL A   1      46.241  36.307  26.573  1.00  0.00    -0.237 OA
ATOM     72  O   UNL A   1      43.993  36.884  27.396  1.00  0.00    -0.237 OA
ATOM     73  O   UNL A   1      45.966  37.972  28.372  1.00  0.00    -0.744 OA
ENDBRANCH  67  70
ENDBRANCH  40  63
ENDBRANCH  14  15
ENDBRANCH   7   9
ENDBRANCH   4   5
ENDBRANCH   3   4
ENDBRANCH   2   3
ENDBRANCH   1   2
BRANCH   1  74
ATOM     74  N   UNL A   1      37.779  23.287  24.595  1.00  0.00    -0.354 N 
ATOM     75  C   UNL A   1      36.626  22.906  23.962  1.00  0.00     0.242 C 
ATOM     76  H   UNL A   1      38.527  23.542  24.007  1.00  0.00     0.163 HD
ATOM     77  O   UNL A   1      36.589  22.985  22.732  1.00  0.00    -0.273 OA
BRANCH  75  78
ATOM     78  C   UNL A   1      35.474  22.293  24.777  1.00  0.00     0.174 C 
ATOM     79  C   UNL A   1      35.785  20.785  24.847  1.00  0.00     0.037 C 
ATOM     80  N   UNL A   1      34.135  22.337  24.172  1.00  0.00    -0.329 N 
ATOM     81  C   UNL A   1      34.442  20.084  24.890  1.00  0.00     0.024 C 
ATOM     82  C   UNL A   1      33.471  21.050  24.251  1.00  0.00     0.120 C 
BRANCH  80  83
ATOM     83  C   UNL A   1      33.350  23.415  23.839  1.00  0.00     0.246 C 
ATOM     84  O   UNL A   1      33.368  23.843  22.672  1.00  0.00    -0.272 OA
BRANCH  83  85
ATOM     85  C   UNL A   1      32.575  24.246  24.871  1.00  0.00     0.178 C 
ATOM     86  C   UNL A   1      32.921  23.820  26.309  1.00  0.00     0.037 C 
ATOM     87  N   UNL A   1      31.129  24.391  24.858  1.00  0.00    -0.296 N 
ATOM     88  C   UNL A   1      31.612  23.880  27.097  1.00  0.00     0.024 C 
ATOM     89  C   UNL A   1      30.662  24.647  26.203  1.00  0.00     0.124 C 
BRANCH  87  90
ATOM     90  C   UNL A   1      30.461  24.961  23.797  1.00  0.00     0.410 C 
ATOM     91  O   UNL A   1      29.934  24.305  22.905  1.00  0.00    -0.224 OA
BRANCH  90  92
ATOM     92  O   UNL A   1      30.460  26.317  23.854  1.00  0.00    -0.448 OA
BRANCH  92  93
ATOM     93  C   UNL A   1      30.883  27.022  22.672  1.00  0.00     0.248 C 
BRANCH  93  94
ATOM     94  C   UNL A   1      31.131  28.532  22.841  1.00  0.00     0.088 C 
ATOM     95  C   UNL A   1      29.904  29.438  22.786  1.00  0.00    -0.029 A 
ATOM     96  C   UNL A   1      31.793  28.984  24.135  1.00  0.00    -0.029 A 
ATOM     97  C   UNL A   1      28.953  29.557  21.786  1.00  0.00     0.005 A 
ATOM     98  C   UNL A   1      29.894  30.307  23.901  1.00  0.00    -0.014 A 
ATOM     99  C   UNL A   1      31.061  30.042  24.715  1.00  0.00    -0.014 A 
ATOM    100  C   UNL A   1      32.987  28.553  24.691  1.00  0.00     0.005 A 
ATOM    101  C   UNL A   1      27.971  30.543  21.924  1.00  0.00     0.000 A 
ATOM    102  C   UNL A   1      28.894  31.253  24.059  1.00  0.00     0.009 A 
ATOM    103  C   UNL A   1      31.524  30.680  25.854  1.00  0.00     0.009 A 
ATOM    104  C   UNL A   1      33.441  29.181  25.851  1.00  0.00     0.000 A 
ATOM    105  C   UNL A   1      27.925  31.367  23.061  1.00  0.00     0.001 A 
ATOM    106  C   UNL A   1      32.720  30.241  26.423  1.00  0.00     0.001 A 
ENDBRANCH  93  94
ENDBRANCH  92  93
ENDBRANCH  90  92
ENDBRANCH  87  90
ENDBRANCH  83  85
ENDBRANCH  80  83
ENDBRANCH  75  78
ENDBRANCH   1  74
TORSDOF 20
ENDMDL
MODEL 3
REMARK VINA RESULT:     -12.2      1.782      3.022
REMARK SMILES O=C(NCCCCNC(=O)[C@@H]1CCCN1C(=O)[C@@H]1CCCN1C(=O)OCC1c2ccccc2-c2ccccc21)c1ccc(-c2c3nc(c(-c4cccc(S(=O)(=O)[O-])c4F)c4ccc([nH]4)c(-c4cccc(S(=O)(=O)[O-])c4F)c4nc(c(-c5cccc(S(=O)(=O)[O-])c5F)c5ccc2[nH]5)C=C4)C=C3)cc1
REMARK SMILES IDX 7 1 6 2 5 3 4 4 3 5 1 6 2 7 40 9 41 10 102 11 42 12 101 13
REMARK SMILES IDX 43 14 44 15 45 16 95 17 46 18 100 19 94 20 96 21 47 22 99 23
REMARK SMILES IDX 93 24 92 25 48 27 80 28 60 29 79 30 61 31 64 32 78 33 97 34
REMARK SMILES IDX 62 35 63 36 77 38 98 39 65 40 49 41 50 42 58 43 51 44 53 45
REMARK SMILES IDX 59 46 52 47 54 48 55 49 56 50 57 51 81 52 82 53 90 54 83 55
REMARK SMILES IDX 85 56 91 57 84 58 86 59 87 60 88 61 89 62 66 63 67 64 75 65
REMARK SMILES IDX 68 66 70 67 76 68 69 69 71 70 72 71 73 72 74 73 8 74 9 75
REMARK SMILES IDX 10 77 11 78 12 79 15 80 13 81 14 82 16 83 17 84 18 85 19 86
REMARK SMILES IDX 22 87 20 88 21 89 23 90 24 91 25 92 26 93 27 94 28 95 39 96
REMARK SMILES IDX 29 97 33 98 34 99 38 100 30 101 32 102 35 103 37 104 31 105
REMARK SMILES IDX 36 106
REMARK H PARENT 3 8 96 26 64 37 8 76
REMARK Flexibility Score: inf
ROOT
ATOM      1  C   UNL A   1      38.010  23.454  26.075  1.00  0.00     0.116 C 
ENDROOT
BRANCH   1   2
ATOM      2  C   UNL A   1      39.250  22.659  26.482  1.00  0.00     0.023 C 
BRANCH   2   3
ATOM      3  C   UNL A   1      39.411  21.278  25.845  1.00  0.00     0.023 C 
BRANCH   3   4
ATOM      4  C   UNL A   1      39.956  20.184  26.756  1.00  0.00     0.116 C 
BRANCH   4   5
ATOM      5  N   UNL A   1      40.984  19.370  26.128  1.00  0.00    -0.352 N 
ATOM      6  O   UNL A   1      42.901  18.914  25.034  1.00  0.00    -0.269 OA
ATOM      7  C   UNL A   1      42.253  19.705  25.714  1.00  0.00     0.251 C 
ATOM      8  H   UNL A   1      40.733  18.432  25.974  1.00  0.00     0.163 HD
BRANCH   7   9
ATOM      9  C   UNL A   1      42.826  21.024  26.065  1.00  0.00     0.039 A 
ATOM     10  C   UNL A   1      43.177  21.325  27.384  1.00  0.00     0.014 A 
ATOM     11  C   UNL A   1      43.032  21.968  25.055  1.00  0.00     0.014 A 
ATOM     12  C   UNL A   1      43.577  22.616  27.719  1.00  0.00     0.010 A 
ATOM     13  C   UNL A   1      43.508  23.241  25.382  1.00  0.00     0.010 A 
ATOM     14  C   UNL A   1      43.741  23.589  26.722  1.00  0.00    -0.014 A 
BRANCH  14  15
ATOM     15  C   UNL A   1      44.185  24.961  27.082  1.00  0.00     0.031 A 
ATOM     16  C   UNL A   1      43.212  25.958  27.650  1.00  0.00     0.074 A 
ATOM     17  C   UNL A   1      45.465  25.317  26.865  1.00  0.00     0.049 A 
ATOM     18  N   UNL A   1      43.407  27.212  27.966  1.00  0.00    -0.248 NA
ATOM     19  C   UNL A   1      41.836  25.490  27.885  1.00  0.00     0.031 C 
ATOM     20  C   UNL A   1      46.492  24.447  26.290  1.00  0.00     0.029 A 
ATOM     21  N   UNL A   1      46.115  26.506  27.079  1.00  0.00    -0.354 N 
ATOM     22  C   UNL A   1      42.176  27.697  28.389  1.00  0.00     0.074 A 
ATOM     23  C   UNL A   1      41.236  26.601  28.289  1.00  0.00     0.031 C 
ATOM     24  C   UNL A   1      47.639  25.130  26.188  1.00  0.00     0.029 A 
ATOM     25  C   UNL A   1      47.421  26.499  26.646  1.00  0.00     0.049 A 
ATOM     26  H   UNL A   1      45.690  27.286  27.502  1.00  0.00     0.167 HD
ATOM     27  C   UNL A   1      41.860  28.938  28.833  1.00  0.00     0.034 A 
ATOM     28  C   UNL A   1      48.333  27.488  26.590  1.00  0.00     0.034 A 
ATOM     29  C   UNL A   1      42.808  30.010  28.969  1.00  0.00     0.049 A 
ATOM     30  C   UNL A   1      47.968  28.848  27.112  1.00  0.00     0.074 A 
ATOM     31  C   UNL A   1      42.603  31.282  29.477  1.00  0.00     0.029 A 
ATOM     32  N   UNL A   1      44.141  29.942  28.589  1.00  0.00    -0.354 N 
ATOM     33  N   UNL A   1      46.831  29.252  27.625  1.00  0.00    -0.248 NA
ATOM     34  C   UNL A   1      49.013  29.879  27.078  1.00  0.00     0.031 C 
ATOM     35  C   UNL A   1      43.807  31.987  29.389  1.00  0.00     0.029 A 
ATOM     36  C   UNL A   1      44.768  31.150  28.844  1.00  0.00     0.049 A 
ATOM     37  H   UNL A   1      44.576  29.151  28.198  1.00  0.00     0.167 HD
ATOM     38  C   UNL A   1      47.031  30.575  28.002  1.00  0.00     0.074 A 
ATOM     39  C   UNL A   1      48.404  30.900  27.669  1.00  0.00     0.031 C 
ATOM     40  C   UNL A   1      46.151  31.441  28.560  1.00  0.00     0.034 A 
BRANCH  27  41
ATOM     41  C   UNL A   1      40.431  29.193  29.237  1.00  0.00     0.023 A 
ATOM     42  C   UNL A   1      39.491  29.582  28.263  1.00  0.00     0.012 A 
ATOM     43  C   UNL A   1      40.008  29.001  30.567  1.00  0.00     0.148 A 
ATOM     44  C   UNL A   1      38.159  29.812  28.612  1.00  0.00     0.002 A 
ATOM     45  C   UNL A   1      38.671  29.197  30.900  1.00  0.00     0.091 A 
ATOM     46  F   UNL A   1      40.919  28.655  31.489  1.00  0.00    -0.205 F 
ATOM     47  C   UNL A   1      37.748  29.611  29.927  1.00  0.00     0.022 A 
BRANCH  45  48
ATOM     48  S   UNL A   1      38.047  28.888  32.557  1.00  0.00     0.127 S 
ATOM     49  O   UNL A   1      38.284  27.453  32.700  1.00  0.00    -0.237 OA
ATOM     50  O   UNL A   1      38.911  29.732  33.383  1.00  0.00    -0.237 OA
ATOM     51  O   UNL A   1      36.651  29.303  32.532  1.00  0.00    -0.744 OA
ENDBRANCH  45  48
ENDBRANCH  27  41
BRANCH  28  52
ATOM     52  C   UNL A   1      49.689  27.189  26.054  1.00  0.00     0.023 A 
ATOM     53  C   UNL A   1      50.631  26.538  26.871  1.00  0.00     0.012 A 
ATOM     54  C   UNL A   1      50.010  27.456  24.707  1.00  0.00     0.148 A 
ATOM     55  C   UNL A   1      51.873  26.160  26.358  1.00  0.00     0.002 A 
ATOM     56  C   UNL A   1      51.225  27.026  24.189  1.00  0.00     0.091 A 
ATOM     57  F   UNL A   1      49.102  28.089  23.951  1.00  0.00    -0.205 F 
ATOM     58  C   UNL A   1      52.163  26.390  25.016  1.00  0.00     0.022 A 
BRANCH  56  59
ATOM     59  S   UNL A   1      51.623  27.143  22.440  1.00  0.00     0.127 S 
ATOM     60  O   UNL A   1      50.398  26.644  21.821  1.00  0.00    -0.237 OA
ATOM     61  O   UNL A   1      51.853  28.580  22.279  1.00  0.00    -0.237 OA
ATOM     62  O   UNL A   1      52.808  26.320  22.249  1.00  0.00    -0.744 OA
ENDBRANCH  56  59
ENDBRANCH  28  52
BRANCH  40  63
ATOM     63  C   UNL A   1      46.643  32.826  28.887  1.00  0.00     0.023 A 
ATOM     64  C   UNL A   1      47.208  33.084  30.151  1.00  0.00     0.012 A 
ATOM     65  C   UNL A   1      46.644  33.836  27.906  1.00  0.00     0.148 A 
ATOM     66  C   UNL A   1      47.754  34.335  30.438  1.00  0.00     0.002 A 
ATOM     67  C   UNL A   1      47.227  35.066  28.184  1.00  0.00     0.091 A 
ATOM     68  F   UNL A   1      46.082  33.571  26.717  1.00  0.00    -0.205 F 
ATOM     69  C   UNL A   1      47.776  35.320  29.451  1.00  0.00     0.022 A 
BRANCH  67  70
ATOM     70  S   UNL A   1      47.383  36.360  26.949  1.00  0.00     0.127 S 
ATOM     71  O   UNL A   1      47.069  37.556  27.729  1.00  0.00    -0.237 OA
ATOM     72  O   UNL A   1      48.784  36.242  26.549  1.00  0.00    -0.237 OA
ATOM     73  O   UNL A   1      46.426  36.031  25.899  1.00  0.00    -0.744 OA
ENDBRANCH  67  70
ENDBRANCH  40  63
ENDBRANCH  14  15
ENDBRANCH   7   9
ENDBRANCH   4   5
ENDBRANCH   3   4
ENDBRANCH   2   3
ENDBRANCH   1   2
BRANCH   1  74
ATOM     74  N   UNL A   1      37.725  23.379  24.654  1.00  0.00    -0.354 N 
ATOM     75  C   UNL A   1      36.616  22.869  24.034  1.00  0.00     0.242 C 
ATOM     76  H   UNL A   1      38.420  23.742  24.058  1.00  0.00     0.163 HD
ATOM     77  O   UNL A   1      36.541  22.970  22.807  1.00  0.00    -0.273 OA
BRANCH  75  78
ATOM     78  C   UNL A   1      35.570  22.094  24.856  1.00  0.00     0.174 C 
ATOM     79  C   UNL A   1      36.049  20.630  24.843  1.00  0.00     0.037 C 
ATOM     80  N   UNL A   1      34.213  22.014  24.297  1.00  0.00    -0.329 N 
ATOM     81  C   UNL A   1      34.795  19.780  24.895  1.00  0.00     0.024 C 
ATOM     82  C   UNL A   1      33.700  20.658  24.336  1.00  0.00     0.120 C 
BRANCH  80  83
ATOM     83  C   UNL A   1      33.301  23.010  24.042  1.00  0.00     0.246 C 
ATOM     84  O   UNL A   1      33.200  23.462  22.888  1.00  0.00    -0.272 OA
BRANCH  83  85
ATOM     85  C   UNL A   1      32.511  23.733  25.141  1.00  0.00     0.178 C 
ATOM     86  C   UNL A   1      32.627  23.001  26.490  1.00  0.00     0.037 C 
ATOM     87  N   UNL A   1      31.105  24.080  25.020  1.00  0.00    -0.296 N 
ATOM     88  C   UNL A   1      31.248  23.095  27.146  1.00  0.00     0.024 C 
ATOM     89  C   UNL A   1      30.513  24.142  26.338  1.00  0.00     0.124 C 
BRANCH  87  90
ATOM     90  C   UNL A   1      30.643  24.927  24.038  1.00  0.00     0.410 C 
ATOM     91  O   UNL A   1      29.990  24.543  23.073  1.00  0.00    -0.224 OA
BRANCH  90  92
ATOM     92  O   UNL A   1      30.997  26.218  24.258  1.00  0.00    -0.448 OA
BRANCH  92  93
ATOM     93  C   UNL A   1      31.688  26.900  23.194  1.00  0.00     0.248 C 
BRANCH  93  94
ATOM     94  C   UNL A   1      31.914  28.409  23.395  1.00  0.00     0.088 C 
ATOM     95  C   UNL A   1      30.714  29.320  23.151  1.00  0.00    -0.029 A 
ATOM     96  C   UNL A   1      32.372  28.861  24.774  1.00  0.00    -0.029 A 
ATOM     97  C   UNL A   1      29.928  29.440  22.016  1.00  0.00     0.005 A 
ATOM     98  C   UNL A   1      30.538  30.192  24.249  1.00  0.00    -0.014 A 
ATOM     99  C   UNL A   1      31.565  29.925  25.232  1.00  0.00    -0.014 A 
ATOM    100  C   UNL A   1      33.465  28.428  25.507  1.00  0.00     0.005 A 
ATOM    101  C   UNL A   1      28.941  30.430  22.000  1.00  0.00     0.000 A 
ATOM    102  C   UNL A   1      29.530  31.143  24.249  1.00  0.00     0.009 A 
ATOM    103  C   UNL A   1      31.851  30.564  26.427  1.00  0.00     0.009 A 
ATOM    104  C   UNL A   1      33.739  29.058  26.722  1.00  0.00     0.000 A 
ATOM    105  C   UNL A   1      28.726  31.258  23.114  1.00  0.00     0.001 A 
ATOM    106  C   UNL A   1      32.944  30.122  27.174  1.00  0.00     0.001 A 
ENDBRANCH  93  94
ENDBRANCH  92  93
ENDBRANCH  90  92
ENDBRANCH  87  90
ENDBRANCH  83  85
ENDBRANCH  80  83
ENDBRANCH  75  78
ENDBRANCH   1  74
TORSDOF 20
ENDMDL
