MODEL 1
REMARK VINA RESULT:     -11.7      0.000      0.000
REMARK SMILES O=C(NCCCCNC(=O)c1cn(C2C[NH+](CC[NH+]3CCCCC3)C2)nn1)c1ccc(-c2c3nc(c(-c4cccc(S(=O)(=O)[O-])c4F)c4ccc([nH]4)c(-c4cccc(S(=O)(=O)[O-])c4F)c4nc(c(-c5cccc(S(=O)(=O)[O-])c5F)c5ccc2[nH]5)C=C4)C=C3)cc1
REMARK SMILES IDX 6 1 5 2 4 3 3 4 1 5 2 6 28 8 29 9 90 10 30 11 89 12 31 13
REMARK SMILES IDX 32 14 33 15 83 16 34 17 88 18 82 19 84 20 35 21 87 22 81 23
REMARK SMILES IDX 80 24 36 26 68 27 48 28 67 29 49 30 52 31 66 32 85 33 50 34
REMARK SMILES IDX 51 35 65 37 86 38 53 39 37 40 38 41 46 42 39 43 41 44 47 45
REMARK SMILES IDX 40 46 42 47 43 48 44 49 45 50 69 51 70 52 78 53 71 54 73 55
REMARK SMILES IDX 79 56 72 57 74 58 75 59 76 60 77 61 54 62 55 63 63 64 56 65
REMARK SMILES IDX 58 66 64 67 57 68 59 69 60 70 61 71 62 72 7 73 8 74 9 75
REMARK SMILES IDX 10 77 11 78 12 79 27 80 13 81 26 82 14 83 15 84 25 85 16 86
REMARK SMILES IDX 17 88 18 89 19 90 20 91 24 92 21 94 23 95 22 96
REMARK H PARENT 3 7 84 25 52 36 8 76 16 87 19 93
REMARK Flexibility Score: inf
ROOT
ATOM      1  C   UNL A   1      37.314  21.309  24.696  1.00  0.00     0.023 C 
ENDROOT
BRANCH   1   2
ATOM      2  C   UNL A   1      38.628  20.889  25.366  1.00  0.00     0.023 C 
BRANCH   2   3
ATOM      3  C   UNL A   1      38.787  19.388  25.601  1.00  0.00     0.116 C 
BRANCH   3   4
ATOM      4  N   UNL A   1      40.145  18.899  25.501  1.00  0.00    -0.352 N 
ATOM      5  O   UNL A   1      42.293  18.546  25.859  1.00  0.00    -0.269 OA
ATOM      6  C   UNL A   1      41.350  19.332  25.985  1.00  0.00     0.251 C 
ATOM      7  H   UNL A   1      40.218  18.075  24.968  1.00  0.00     0.163 HD
BRANCH   6   8
ATOM      8  C   UNL A   1      41.603  20.684  26.554  1.00  0.00     0.039 A 
ATOM      9  C   UNL A   1      42.172  21.761  25.871  1.00  0.00     0.014 A 
ATOM     10  C   UNL A   1      41.247  20.854  27.904  1.00  0.00     0.014 A 
ATOM     11  C   UNL A   1      42.473  22.942  26.544  1.00  0.00     0.010 A 
ATOM     12  C   UNL A   1      41.530  22.035  28.580  1.00  0.00     0.010 A 
ATOM     13  C   UNL A   1      42.174  23.067  27.903  1.00  0.00    -0.014 A 
BRANCH  13  14
ATOM     14  C   UNL A   1      42.324  24.381  28.524  1.00  0.00     0.031 A 
ATOM     15  C   UNL A   1      41.180  25.292  28.242  1.00  0.00     0.074 A 
ATOM     16  C   UNL A   1      43.306  24.697  29.394  1.00  0.00     0.049 A 
ATOM     17  N   UNL A   1      41.190  26.400  27.572  1.00  0.00    -0.248 NA
ATOM     18  C   UNL A   1      39.830  24.829  28.606  1.00  0.00     0.031 C 
ATOM     19  C   UNL A   1      44.305  23.790  29.961  1.00  0.00     0.029 A 
ATOM     20  N   UNL A   1      43.533  25.866  30.066  1.00  0.00    -0.354 N 
ATOM     21  C   UNL A   1      39.888  26.896  27.663  1.00  0.00     0.074 A 
ATOM     22  C   UNL A   1      39.070  25.798  28.097  1.00  0.00     0.031 C 
ATOM     23  C   UNL A   1      44.855  24.364  31.055  1.00  0.00     0.029 A 
ATOM     24  C   UNL A   1      44.339  25.714  31.197  1.00  0.00     0.049 A 
ATOM     25  H   UNL A   1      43.164  26.733  29.781  1.00  0.00     0.167 HD
ATOM     26  C   UNL A   1      39.647  28.236  27.667  1.00  0.00     0.034 A 
ATOM     27  C   UNL A   1      44.502  26.598  32.214  1.00  0.00     0.034 A 
ATOM     28  C   UNL A   1      40.773  28.968  27.141  1.00  0.00     0.049 A 
ATOM     29  C   UNL A   1      44.078  27.926  31.724  1.00  0.00     0.074 A 
ATOM     30  C   UNL A   1      41.489  28.967  25.961  1.00  0.00     0.029 A 
ATOM     31  N   UNL A   1      41.549  29.635  28.055  1.00  0.00    -0.354 N 
ATOM     32  N   UNL A   1      44.725  28.604  30.821  1.00  0.00    -0.248 NA
ATOM     33  C   UNL A   1      42.702  28.333  31.953  1.00  0.00     0.031 C 
ATOM     34  C   UNL A   1      42.838  29.224  26.349  1.00  0.00     0.029 A 
ATOM     35  C   UNL A   1      42.858  29.433  27.729  1.00  0.00     0.049 A 
ATOM     36  H   UNL A   1      41.218  30.167  28.814  1.00  0.00     0.167 HD
ATOM     37  C   UNL A   1      43.724  29.169  30.045  1.00  0.00     0.074 A 
ATOM     38  C   UNL A   1      42.514  29.077  30.860  1.00  0.00     0.031 C 
ATOM     39  C   UNL A   1      43.916  29.378  28.710  1.00  0.00     0.034 A 
BRANCH  26  40
ATOM     40  C   UNL A   1      38.614  28.925  28.550  1.00  0.00     0.023 A 
ATOM     41  C   UNL A   1      37.837  29.941  27.942  1.00  0.00     0.012 A 
ATOM     42  C   UNL A   1      38.582  28.866  29.963  1.00  0.00     0.148 A 
ATOM     43  C   UNL A   1      37.164  30.908  28.698  1.00  0.00     0.002 A 
ATOM     44  C   UNL A   1      37.850  29.784  30.708  1.00  0.00     0.091 A 
ATOM     45  F   UNL A   1      39.352  28.003  30.623  1.00  0.00    -0.205 F 
ATOM     46  C   UNL A   1      37.174  30.832  30.083  1.00  0.00     0.022 A 
BRANCH  44  47
ATOM     47  S   UNL A   1      37.789  29.708  32.505  1.00  0.00     0.127 S 
ATOM     48  O   UNL A   1      39.151  30.094  32.857  1.00  0.00    -0.237 OA
ATOM     49  O   UNL A   1      36.761  30.705  32.806  1.00  0.00    -0.237 OA
ATOM     50  O   UNL A   1      37.408  28.340  32.831  1.00  0.00    -0.744 OA
ENDBRANCH  44  47
ENDBRANCH  26  40
BRANCH  27  51
ATOM     51  C   UNL A   1      44.761  26.372  33.658  1.00  0.00     0.023 A 
ATOM     52  C   UNL A   1      46.060  26.569  34.176  1.00  0.00     0.012 A 
ATOM     53  C   UNL A   1      43.695  26.258  34.575  1.00  0.00     0.148 A 
ATOM     54  C   UNL A   1      46.280  26.690  35.555  1.00  0.00     0.002 A 
ATOM     55  C   UNL A   1      43.919  26.370  35.945  1.00  0.00     0.091 A 
ATOM     56  F   UNL A   1      42.447  26.138  34.102  1.00  0.00    -0.205 F 
ATOM     57  C   UNL A   1      45.210  26.599  36.438  1.00  0.00     0.022 A 
BRANCH  55  58
ATOM     58  S   UNL A   1      42.581  26.290  37.143  1.00  0.00     0.127 S 
ATOM     59  O   UNL A   1      43.304  26.377  38.412  1.00  0.00    -0.237 OA
ATOM     60  O   UNL A   1      41.798  27.474  36.802  1.00  0.00    -0.237 OA
ATOM     61  O   UNL A   1      41.922  25.009  36.918  1.00  0.00    -0.744 OA
ENDBRANCH  55  58
ENDBRANCH  27  51
BRANCH  39  62
ATOM     62  C   UNL A   1      45.321  29.309  28.175  1.00  0.00     0.023 A 
ATOM     63  C   UNL A   1      46.211  30.401  28.208  1.00  0.00     0.012 A 
ATOM     64  C   UNL A   1      45.798  28.052  27.769  1.00  0.00     0.148 A 
ATOM     65  C   UNL A   1      47.544  30.245  27.819  1.00  0.00     0.002 A 
ATOM     66  C   UNL A   1      47.134  27.889  27.433  1.00  0.00     0.091 A 
ATOM     67  F   UNL A   1      44.934  27.025  27.741  1.00  0.00    -0.205 F 
ATOM     68  C   UNL A   1      48.010  28.985  27.446  1.00  0.00     0.022 A 
BRANCH  66  69
ATOM     69  S   UNL A   1      47.811  26.268  27.073  1.00  0.00     0.127 S 
ATOM     70  O   UNL A   1      47.160  25.940  25.807  1.00  0.00    -0.237 OA
ATOM     71  O   UNL A   1      49.245  26.541  26.974  1.00  0.00    -0.237 OA
ATOM     72  O   UNL A   1      47.447  25.423  28.204  1.00  0.00    -0.744 OA
ENDBRANCH  66  69
ENDBRANCH  39  62
ENDBRANCH  13  14
ENDBRANCH   6   8
ENDBRANCH   3   4
ENDBRANCH   2   3
ENDBRANCH   1   2
BRANCH   1  73
ATOM     73  C   UNL A   1      36.094  21.391  25.615  1.00  0.00     0.116 C 
BRANCH  73  74
ATOM     74  N   UNL A   1      35.135  20.335  25.351  1.00  0.00    -0.351 N 
ATOM     75  C   UNL A   1      33.763  20.348  25.447  1.00  0.00     0.273 C 
ATOM     76  H   UNL A   1      35.524  19.479  25.059  1.00  0.00     0.163 HD
ATOM     77  O   UNL A   1      33.166  19.277  25.379  1.00  0.00    -0.267 OA
BRANCH  75  78
ATOM     78  C   UNL A   1      33.065  21.611  25.625  1.00  0.00     0.170 A 
ATOM     79  C   UNL A   1      32.577  22.491  24.675  1.00  0.00     0.145 A 
ATOM     80  N   UNL A   1      32.745  22.084  26.873  1.00  0.00    -0.125 NA
ATOM     81  N   UNL A   1      32.067  23.521  25.411  1.00  0.00    -0.237 N 
ATOM     82  N   UNL A   1      32.139  23.251  26.729  1.00  0.00    -0.066 NA
BRANCH  81  83
ATOM     83  C   UNL A   1      31.811  24.865  25.010  1.00  0.00     0.218 C 
ATOM     84  C   UNL A   1      31.563  25.862  26.189  1.00  0.00     0.296 C 
ATOM     85  C   UNL A   1      32.956  25.820  24.683  1.00  0.00     0.296 C 
ATOM     86  N   UNL A   1      32.175  26.909  25.353  1.00  0.00    -0.326 N 
ATOM     87  H   UNL A   1      32.654  27.725  25.733  1.00  0.00     0.348 HD
BRANCH  86  88
ATOM     88  C   UNL A   1      31.176  27.617  24.509  1.00  0.00     0.324 C 
BRANCH  88  89
ATOM     89  C   UNL A   1      31.369  28.931  23.641  1.00  0.00     0.324 C 
BRANCH  89  90
ATOM     90  N   UNL A   1      30.254  29.809  23.211  1.00  0.00    -0.330 N 
ATOM     91  C   UNL A   1      29.113  29.130  22.593  1.00  0.00     0.262 C 
ATOM     92  C   UNL A   1      29.945  30.888  24.146  1.00  0.00     0.262 C 
ATOM     93  H   UNL A   1      30.629  30.311  22.407  1.00  0.00     0.348 HD
ATOM     94  C   UNL A   1      27.894  29.981  22.253  1.00  0.00     0.062 C 
ATOM     95  C   UNL A   1      28.754  31.754  23.723  1.00  0.00     0.062 C 
ATOM     96  C   UNL A   1      27.542  30.889  23.419  1.00  0.00     0.012 C 
ENDBRANCH  89  90
ENDBRANCH  88  89
ENDBRANCH  86  88
ENDBRANCH  81  83
ENDBRANCH  75  78
ENDBRANCH  73  74
ENDBRANCH   1  73
TORSDOF 18
ENDMDL
MODEL 2
REMARK VINA RESULT:     -11.4      3.089      8.528
REMARK SMILES O=C(NCCCCNC(=O)c1cn(C2C[NH+](CC[NH+]3CCCCC3)C2)nn1)c1ccc(-c2c3nc(c(-c4cccc(S(=O)(=O)[O-])c4F)c4ccc([nH]4)c(-c4cccc(S(=O)(=O)[O-])c4F)c4nc(c(-c5cccc(S(=O)(=O)[O-])c5F)c5ccc2[nH]5)C=C4)C=C3)cc1
REMARK SMILES IDX 6 1 5 2 4 3 3 4 1 5 2 6 28 8 29 9 90 10 30 11 89 12 31 13
REMARK SMILES IDX 32 14 33 15 83 16 34 17 88 18 82 19 84 20 35 21 87 22 81 23
REMARK SMILES IDX 80 24 36 26 68 27 48 28 67 29 49 30 52 31 66 32 85 33 50 34
REMARK SMILES IDX 51 35 65 37 86 38 53 39 37 40 38 41 46 42 39 43 41 44 47 45
REMARK SMILES IDX 40 46 42 47 43 48 44 49 45 50 69 51 70 52 78 53 71 54 73 55
REMARK SMILES IDX 79 56 72 57 74 58 75 59 76 60 77 61 54 62 55 63 63 64 56 65
REMARK SMILES IDX 58 66 64 67 57 68 59 69 60 70 61 71 62 72 7 73 8 74 9 75
REMARK SMILES IDX 10 77 11 78 12 79 27 80 13 81 26 82 14 83 15 84 25 85 16 86
REMARK SMILES IDX 17 88 18 89 19 90 20 91 24 92 21 94 23 95 22 96
REMARK H PARENT 3 7 84 25 52 36 8 76 16 87 19 93
REMARK Flexibility Score: inf
ROOT
ATOM      1  C   UNL A   1      31.944  29.844  25.894  1.00  0.00     0.023 C 
ENDROOT
BRANCH   1   2
ATOM      2  C   UNL A   1      32.810  29.791  27.158  1.00  0.00     0.023 C 
BRANCH   2   3
ATOM      3  C   UNL A   1      33.904  30.853  27.242  1.00  0.00     0.116 C 
BRANCH   3   4
ATOM      4  N   UNL A   1      33.968  31.559  28.502  1.00  0.00    -0.352 N 
ATOM      5  O   UNL A   1      34.700  32.601  30.303  1.00  0.00    -0.269 OA
ATOM      6  C   UNL A   1      34.958  31.776  29.422  1.00  0.00     0.251 C 
ATOM      7  H   UNL A   1      33.111  31.974  28.754  1.00  0.00     0.163 HD
BRANCH   6   8
ATOM      8  C   UNL A   1      36.247  31.036  29.476  1.00  0.00     0.039 A 
ATOM      9  C   UNL A   1      36.388  29.649  29.554  1.00  0.00     0.014 A 
ATOM     10  C   UNL A   1      37.408  31.831  29.465  1.00  0.00     0.014 A 
ATOM     11  C   UNL A   1      37.645  29.077  29.722  1.00  0.00     0.010 A 
ATOM     12  C   UNL A   1      38.669  31.267  29.617  1.00  0.00     0.010 A 
ATOM     13  C   UNL A   1      38.781  29.889  29.778  1.00  0.00    -0.014 A 
BRANCH  13  14
ATOM     14  C   UNL A   1      40.092  29.244  29.759  1.00  0.00     0.031 A 
ATOM     15  C   UNL A   1      40.675  29.072  31.119  1.00  0.00     0.074 A 
ATOM     16  C   UNL A   1      40.655  28.710  28.655  1.00  0.00     0.049 A 
ATOM     17  N   UNL A   1      41.745  29.619  31.601  1.00  0.00    -0.248 NA
ATOM     18  C   UNL A   1      39.882  28.336  32.117  1.00  0.00     0.031 C 
ATOM     19  C   UNL A   1      40.039  28.565  27.335  1.00  0.00     0.029 A 
ATOM     20  N   UNL A   1      41.846  28.053  28.514  1.00  0.00    -0.354 N 
ATOM     21  C   UNL A   1      41.889  29.080  32.880  1.00  0.00     0.074 A 
ATOM     22  C   UNL A   1      40.619  28.497  33.215  1.00  0.00     0.031 C 
ATOM     23  C   UNL A   1      40.740  27.660  26.615  1.00  0.00     0.029 A 
ATOM     24  C   UNL A   1      41.912  27.254  27.370  1.00  0.00     0.049 A 
ATOM     25  H   UNL A   1      42.587  28.135  29.157  1.00  0.00     0.167 HD
ATOM     26  C   UNL A   1      43.121  28.891  33.428  1.00  0.00     0.034 A 
ATOM     27  C   UNL A   1      42.813  26.273  27.104  1.00  0.00     0.034 A 
ATOM     28  C   UNL A   1      44.116  29.688  32.753  1.00  0.00     0.049 A 
ATOM     29  C   UNL A   1      43.984  26.494  27.978  1.00  0.00     0.074 A 
ATOM     30  C   UNL A   1      44.295  31.030  32.486  1.00  0.00     0.029 A 
ATOM     31  N   UNL A   1      44.965  29.018  31.909  1.00  0.00    -0.354 N 
ATOM     32  N   UNL A   1      44.802  27.499  27.850  1.00  0.00    -0.248 NA
ATOM     33  C   UNL A   1      44.024  25.808  29.258  1.00  0.00     0.031 C 
ATOM     34  C   UNL A   1      44.893  31.073  31.192  1.00  0.00     0.029 A 
ATOM     35  C   UNL A   1      45.107  29.758  30.772  1.00  0.00     0.049 A 
ATOM     36  H   UNL A   1      45.397  28.152  32.092  1.00  0.00     0.167 HD
ATOM     37  C   UNL A   1      45.086  27.868  29.157  1.00  0.00     0.074 A 
ATOM     38  C   UNL A   1      44.689  26.721  29.970  1.00  0.00     0.031 C 
ATOM     39  C   UNL A   1      45.332  29.173  29.471  1.00  0.00     0.034 A 
BRANCH  26  40
ATOM     40  C   UNL A   1      43.524  27.673  34.249  1.00  0.00     0.023 A 
ATOM     41  C   UNL A   1      44.159  27.926  35.489  1.00  0.00     0.012 A 
ATOM     42  C   UNL A   1      43.611  26.350  33.754  1.00  0.00     0.148 A 
ATOM     43  C   UNL A   1      44.927  26.953  36.139  1.00  0.00     0.002 A 
ATOM     44  C   UNL A   1      44.312  25.366  34.442  1.00  0.00     0.091 A 
ATOM     45  F   UNL A   1      43.123  26.042  32.554  1.00  0.00    -0.205 F 
ATOM     46  C   UNL A   1      45.008  25.671  35.612  1.00  0.00     0.022 A 
BRANCH  44  47
ATOM     47  S   UNL A   1      44.414  23.677  33.831  1.00  0.00     0.127 S 
ATOM     48  O   UNL A   1      45.495  23.137  34.650  1.00  0.00    -0.237 OA
ATOM     49  O   UNL A   1      43.079  23.169  34.149  1.00  0.00    -0.237 OA
ATOM     50  O   UNL A   1      44.687  23.786  32.404  1.00  0.00    -0.744 OA
ENDBRANCH  44  47
ENDBRANCH  26  40
BRANCH  27  51
ATOM     51  C   UNL A   1      42.669  25.010  26.338  1.00  0.00     0.023 A 
ATOM     52  C   UNL A   1      43.669  24.631  25.417  1.00  0.00     0.012 A 
ATOM     53  C   UNL A   1      41.718  24.039  26.718  1.00  0.00     0.148 A 
ATOM     54  C   UNL A   1      43.744  23.321  24.926  1.00  0.00     0.002 A 
ATOM     55  C   UNL A   1      41.791  22.740  26.221  1.00  0.00     0.091 A 
ATOM     56  F   UNL A   1      40.802  24.359  27.641  1.00  0.00    -0.205 F 
ATOM     57  C   UNL A   1      42.811  22.374  25.334  1.00  0.00     0.022 A 
BRANCH  55  58
ATOM     58  S   UNL A   1      40.636  21.458  26.725  1.00  0.00     0.127 S 
ATOM     59  O   UNL A   1      41.165  20.284  26.030  1.00  0.00    -0.237 OA
ATOM     60  O   UNL A   1      40.814  21.442  28.174  1.00  0.00    -0.237 OA
ATOM     61  O   UNL A   1      39.327  21.893  26.253  1.00  0.00    -0.744 OA
ENDBRANCH  55  58
ENDBRANCH  27  51
BRANCH  39  62
ATOM     62  C   UNL A   1      45.624  30.132  28.349  1.00  0.00     0.023 A 
ATOM     63  C   UNL A   1      44.616  30.806  27.632  1.00  0.00     0.012 A 
ATOM     64  C   UNL A   1      46.968  30.473  28.122  1.00  0.00     0.148 A 
ATOM     65  C   UNL A   1      44.946  31.784  26.689  1.00  0.00     0.002 A 
ATOM     66  C   UNL A   1      47.289  31.480  27.223  1.00  0.00     0.091 A 
ATOM     67  F   UNL A   1      47.913  29.817  28.813  1.00  0.00    -0.205 F 
ATOM     68  C   UNL A   1      46.281  32.132  26.496  1.00  0.00     0.022 A 
BRANCH  66  69
ATOM     69  S   UNL A   1      48.977  32.053  27.034  1.00  0.00     0.127 S 
ATOM     70  O   UNL A   1      49.642  30.871  26.491  1.00  0.00    -0.237 OA
ATOM     71  O   UNL A   1      48.829  33.162  26.092  1.00  0.00    -0.237 OA
ATOM     72  O   UNL A   1      49.411  32.462  28.365  1.00  0.00    -0.744 OA
ENDBRANCH  66  69
ENDBRANCH  39  62
ENDBRANCH  13  14
ENDBRANCH   6   8
ENDBRANCH   3   4
ENDBRANCH   2   3
ENDBRANCH   1   2
BRANCH   1  73
ATOM     73  C   UNL A   1      31.668  28.500  25.218  1.00  0.00     0.116 C 
BRANCH  73  74
ATOM     74  N   UNL A   1      30.904  28.646  23.993  1.00  0.00    -0.351 N 
ATOM     75  C   UNL A   1      30.987  27.944  22.814  1.00  0.00     0.273 C 
ATOM     76  H   UNL A   1      30.222  29.356  24.008  1.00  0.00     0.163 HD
ATOM     77  O   UNL A   1      30.386  28.377  21.835  1.00  0.00    -0.267 OA
BRANCH  75  78
ATOM     78  C   UNL A   1      31.774  26.723  22.757  1.00  0.00     0.170 A 
ATOM     79  C   UNL A   1      31.506  25.473  23.290  1.00  0.00     0.145 A 
ATOM     80  N   UNL A   1      32.956  26.663  22.062  1.00  0.00    -0.125 NA
ATOM     81  N   UNL A   1      32.609  24.735  22.971  1.00  0.00    -0.237 N 
ATOM     82  N   UNL A   1      33.456  25.447  22.202  1.00  0.00    -0.066 NA
BRANCH  81  83
ATOM     83  C   UNL A   1      33.090  23.539  23.579  1.00  0.00     0.218 C 
ATOM     84  C   UNL A   1      34.647  23.443  23.687  1.00  0.00     0.296 C 
ATOM     85  C   UNL A   1      33.158  23.402  25.098  1.00  0.00     0.296 C 
ATOM     86  N   UNL A   1      34.453  22.669  24.925  1.00  0.00    -0.326 N 
ATOM     87  H   UNL A   1      35.133  22.642  25.685  1.00  0.00     0.348 HD
BRANCH  86  88
ATOM     88  C   UNL A   1      34.354  21.207  24.671  1.00  0.00     0.324 C 
BRANCH  88  89
ATOM     89  C   UNL A   1      33.393  20.148  25.358  1.00  0.00     0.324 C 
BRANCH  89  90
ATOM     90  N   UNL A   1      33.679  18.694  25.428  1.00  0.00    -0.330 N 
ATOM     91  C   UNL A   1      32.549  17.841  25.799  1.00  0.00     0.262 C 
ATOM     92  C   UNL A   1      34.548  18.204  24.360  1.00  0.00     0.262 C 
ATOM     93  H   UNL A   1      34.266  18.596  26.256  1.00  0.00     0.348 HD
ATOM     94  C   UNL A   1      32.770  16.332  25.758  1.00  0.00     0.062 C 
ATOM     95  C   UNL A   1      34.792  16.692  24.405  1.00  0.00     0.062 C 
ATOM     96  C   UNL A   1      33.474  15.937  24.471  1.00  0.00     0.012 C 
ENDBRANCH  89  90
ENDBRANCH  88  89
ENDBRANCH  86  88
ENDBRANCH  81  83
ENDBRANCH  75  78
ENDBRANCH  73  74
ENDBRANCH   1  73
TORSDOF 18
ENDMDL
MODEL 3
REMARK VINA RESULT:     -11.3      3.087      8.825
REMARK SMILES O=C(NCCCCNC(=O)c1cn(C2C[NH+](CC[NH+]3CCCCC3)C2)nn1)c1ccc(-c2c3nc(c(-c4cccc(S(=O)(=O)[O-])c4F)c4ccc([nH]4)c(-c4cccc(S(=O)(=O)[O-])c4F)c4nc(c(-c5cccc(S(=O)(=O)[O-])c5F)c5ccc2[nH]5)C=C4)C=C3)cc1
REMARK SMILES IDX 6 1 5 2 4 3 3 4 1 5 2 6 28 8 29 9 90 10 30 11 89 12 31 13
REMARK SMILES IDX 32 14 33 15 83 16 34 17 88 18 82 19 84 20 35 21 87 22 81 23
REMARK SMILES IDX 80 24 36 26 68 27 48 28 67 29 49 30 52 31 66 32 85 33 50 34
REMARK SMILES IDX 51 35 65 37 86 38 53 39 37 40 38 41 46 42 39 43 41 44 47 45
REMARK SMILES IDX 40 46 42 47 43 48 44 49 45 50 69 51 70 52 78 53 71 54 73 55
REMARK SMILES IDX 79 56 72 57 74 58 75 59 76 60 77 61 54 62 55 63 63 64 56 65
REMARK SMILES IDX 58 66 64 67 57 68 59 69 60 70 61 71 62 72 7 73 8 74 9 75
REMARK SMILES IDX 10 77 11 78 12 79 27 80 13 81 26 82 14 83 15 84 25 85 16 86
REMARK SMILES IDX 17 88 18 89 19 90 20 91 24 92 21 94 23 95 22 96
REMARK H PARENT 3 7 84 25 52 36 8 76 16 87 19 93
REMARK Flexibility Score: inf
ROOT
ATOM      1  C   UNL A   1      33.823  30.260  27.172  1.00  0.00     0.023 C 
ENDROOT
BRANCH   1   2
ATOM      2  C   UNL A   1      34.132  31.672  27.686  1.00  0.00     0.023 C 
BRANCH   2   3
ATOM      3  C   UNL A   1      35.385  31.789  28.551  1.00  0.00     0.116 C 
BRANCH   3   4
ATOM      4  N   UNL A   1      35.140  31.785  29.976  1.00  0.00    -0.352 N 
ATOM      5  O   UNL A   1      35.413  31.818  32.165  1.00  0.00    -0.269 OA
ATOM      6  C   UNL A   1      35.919  31.538  31.074  1.00  0.00     0.251 C 
ATOM      7  H   UNL A   1      34.209  32.007  30.207  1.00  0.00     0.163 HD
BRANCH   6   8
ATOM      8  C   UNL A   1      37.258  30.891  31.040  1.00  0.00     0.039 A 
ATOM      9  C   UNL A   1      38.484  31.551  31.138  1.00  0.00     0.014 A 
ATOM     10  C   UNL A   1      37.257  29.494  30.873  1.00  0.00     0.014 A 
ATOM     11  C   UNL A   1      39.676  30.852  30.970  1.00  0.00     0.010 A 
ATOM     12  C   UNL A   1      38.443  28.786  30.720  1.00  0.00     0.010 A 
ATOM     13  C   UNL A   1      39.652  29.475  30.737  1.00  0.00    -0.014 A 
BRANCH  13  14
ATOM     14  C   UNL A   1      40.919  28.749  30.760  1.00  0.00     0.031 A 
ATOM     15  C   UNL A   1      41.488  28.614  32.130  1.00  0.00     0.074 A 
ATOM     16  C   UNL A   1      41.449  28.120  29.690  1.00  0.00     0.049 A 
ATOM     17  N   UNL A   1      42.589  29.118  32.588  1.00  0.00    -0.248 NA
ATOM     18  C   UNL A   1      40.647  27.985  33.162  1.00  0.00     0.031 C 
ATOM     19  C   UNL A   1      40.829  27.943  28.376  1.00  0.00     0.029 A 
ATOM     20  N   UNL A   1      42.597  27.382  29.590  1.00  0.00    -0.354 N 
ATOM     21  C   UNL A   1      42.696  28.640  33.896  1.00  0.00     0.074 A 
ATOM     22  C   UNL A   1      41.391  28.159  34.254  1.00  0.00     0.031 C 
ATOM     23  C   UNL A   1      41.472  26.958  27.710  1.00  0.00     0.029 A 
ATOM     24  C   UNL A   1      42.614  26.520  28.492  1.00  0.00     0.049 A 
ATOM     25  H   UNL A   1      43.339  27.452  30.232  1.00  0.00     0.167 HD
ATOM     26  C   UNL A   1      43.913  28.404  34.460  1.00  0.00     0.034 A 
ATOM     27  C   UNL A   1      43.451  25.471  28.285  1.00  0.00     0.034 A 
ATOM     28  C   UNL A   1      44.957  29.098  33.748  1.00  0.00     0.049 A 
ATOM     29  C   UNL A   1      44.632  25.665  29.152  1.00  0.00     0.074 A 
ATOM     30  C   UNL A   1      45.222  30.410  33.410  1.00  0.00     0.029 A 
ATOM     31  N   UNL A   1      45.764  28.331  32.945  1.00  0.00    -0.354 N 
ATOM     32  N   UNL A   1      45.512  26.607  28.974  1.00  0.00    -0.248 NA
ATOM     33  C   UNL A   1      44.626  25.048  30.467  1.00  0.00     0.031 C 
ATOM     34  C   UNL A   1      45.824  30.344  32.118  1.00  0.00     0.029 A 
ATOM     35  C   UNL A   1      45.955  28.998  31.771  1.00  0.00     0.049 A 
ATOM     36  H   UNL A   1      46.140  27.451  33.178  1.00  0.00     0.167 HD
ATOM     37  C   UNL A   1      45.817  27.028  30.261  1.00  0.00     0.074 A 
ATOM     38  C   UNL A   1      45.346  25.954  31.133  1.00  0.00     0.031 C 
ATOM     39  C   UNL A   1      46.144  28.330  30.505  1.00  0.00     0.034 A 
BRANCH  26  40
ATOM     40  C   UNL A   1      44.236  27.209  35.348  1.00  0.00     0.023 A 
ATOM     41  C   UNL A   1      44.967  27.477  36.529  1.00  0.00     0.012 A 
ATOM     42  C   UNL A   1      44.153  25.854  34.950  1.00  0.00     0.148 A 
ATOM     43  C   UNL A   1      45.668  26.474  37.209  1.00  0.00     0.002 A 
ATOM     44  C   UNL A   1      44.789  24.849  35.671  1.00  0.00     0.091 A 
ATOM     45  F   UNL A   1      43.564  25.518  33.803  1.00  0.00    -0.205 F 
ATOM     46  C   UNL A   1      45.582  25.158  36.777  1.00  0.00     0.022 A 
BRANCH  44  47
ATOM     47  S   UNL A   1      44.676  23.121  35.185  1.00  0.00     0.127 S 
ATOM     48  O   UNL A   1      45.513  23.101  33.990  1.00  0.00    -0.237 OA
ATOM     49  O   UNL A   1      45.244  22.449  36.354  1.00  0.00    -0.237 OA
ATOM     50  O   UNL A   1      43.258  22.859  34.976  1.00  0.00    -0.744 OA
ENDBRANCH  44  47
ENDBRANCH  26  40
BRANCH  27  51
ATOM     51  C   UNL A   1      43.228  24.180  27.588  1.00  0.00     0.023 A 
ATOM     52  C   UNL A   1      41.941  23.601  27.580  1.00  0.00     0.012 A 
ATOM     53  C   UNL A   1      44.188  23.670  26.687  1.00  0.00     0.148 A 
ATOM     54  C   UNL A   1      41.610  22.579  26.680  1.00  0.00     0.002 A 
ATOM     55  C   UNL A   1      43.857  22.648  25.799  1.00  0.00     0.091 A 
ATOM     56  F   UNL A   1      45.394  24.250  26.632  1.00  0.00    -0.205 F 
ATOM     57  C   UNL A   1      42.565  22.110  25.784  1.00  0.00     0.022 A 
BRANCH  55  58
ATOM     58  S   UNL A   1      45.031  22.011  24.597  1.00  0.00     0.127 S 
ATOM     59  O   UNL A   1      46.182  21.686  25.439  1.00  0.00    -0.237 OA
ATOM     60  O   UNL A   1      44.318  20.855  24.061  1.00  0.00    -0.237 OA
ATOM     61  O   UNL A   1      45.268  23.100  23.656  1.00  0.00    -0.744 OA
ENDBRANCH  55  58
ENDBRANCH  27  51
BRANCH  39  62
ATOM     62  C   UNL A   1      46.500  29.205  29.334  1.00  0.00     0.023 A 
ATOM     63  C   UNL A   1      47.773  29.200  28.730  1.00  0.00     0.012 A 
ATOM     64  C   UNL A   1      45.463  29.938  28.735  1.00  0.00     0.148 A 
ATOM     65  C   UNL A   1      48.010  29.935  27.564  1.00  0.00     0.002 A 
ATOM     66  C   UNL A   1      45.688  30.624  27.550  1.00  0.00     0.091 A 
ATOM     67  F   UNL A   1      44.258  29.933  29.327  1.00  0.00    -0.205 F 
ATOM     68  C   UNL A   1      46.964  30.634  26.965  1.00  0.00     0.022 A 
BRANCH  66  69
ATOM     69  S   UNL A   1      44.348  31.430  26.674  1.00  0.00     0.127 S 
ATOM     70  O   UNL A   1      43.434  30.318  26.425  1.00  0.00    -0.237 OA
ATOM     71  O   UNL A   1      43.874  32.407  27.654  1.00  0.00    -0.237 OA
ATOM     72  O   UNL A   1      44.949  32.027  25.487  1.00  0.00    -0.744 OA
ENDBRANCH  66  69
ENDBRANCH  39  62
ENDBRANCH  13  14
ENDBRANCH   6   8
ENDBRANCH   3   4
ENDBRANCH   2   3
ENDBRANCH   1   2
BRANCH   1  73
ATOM     73  C   UNL A   1      32.352  29.844  27.211  1.00  0.00     0.116 C 
BRANCH  73  74
ATOM     74  N   UNL A   1      31.743  29.851  25.894  1.00  0.00    -0.351 N 
ATOM     75  C   UNL A   1      31.458  28.803  25.050  1.00  0.00     0.273 C 
ATOM     76  H   UNL A   1      31.496  30.740  25.552  1.00  0.00     0.163 HD
ATOM     77  O   UNL A   1      31.134  29.060  23.894  1.00  0.00    -0.267 OA
BRANCH  75  78
ATOM     78  C   UNL A   1      31.546  27.438  25.542  1.00  0.00     0.170 A 
ATOM     79  C   UNL A   1      32.392  26.413  25.154  1.00  0.00     0.145 A 
ATOM     80  N   UNL A   1      30.757  26.994  26.573  1.00  0.00    -0.125 NA
ATOM     81  N   UNL A   1      31.994  25.351  25.914  1.00  0.00    -0.237 N 
ATOM     82  N   UNL A   1      31.037  25.720  26.788  1.00  0.00    -0.066 NA
BRANCH  81  83
ATOM     83  C   UNL A   1      32.198  23.960  25.682  1.00  0.00     0.218 C 
ATOM     84  C   UNL A   1      32.492  23.120  26.969  1.00  0.00     0.296 C 
ATOM     85  C   UNL A   1      31.016  23.003  25.549  1.00  0.00     0.296 C 
ATOM     86  N   UNL A   1      31.811  21.990  26.315  1.00  0.00    -0.326 N 
ATOM     87  H   UNL A   1      31.337  21.246  26.825  1.00  0.00     0.348 HD
BRANCH  86  88
ATOM     88  C   UNL A   1      32.745  21.148  25.519  1.00  0.00     0.324 C 
BRANCH  88  89
ATOM     89  C   UNL A   1      32.407  19.918  24.577  1.00  0.00     0.324 C 
BRANCH  89  90
ATOM     90  N   UNL A   1      33.103  18.610  24.644  1.00  0.00    -0.330 N 
ATOM     91  C   UNL A   1      32.727  17.747  25.766  1.00  0.00     0.262 C 
ATOM     92  C   UNL A   1      33.282  17.959  23.349  1.00  0.00     0.262 C 
ATOM     93  H   UNL A   1      34.059  18.850  24.907  1.00  0.00     0.348 HD
ATOM     94  C   UNL A   1      33.326  16.344  25.800  1.00  0.00     0.062 C 
ATOM     95  C   UNL A   1      33.949  16.582  23.434  1.00  0.00     0.062 C 
ATOM     96  C   UNL A   1      33.224  15.694  24.431  1.00  0.00     0.012 C 
ENDBRANCH  89  90
ENDBRANCH  88  89
ENDBRANCH  86  88
ENDBRANCH  81  83
ENDBRANCH  75  78
ENDBRANCH  73  74
ENDBRANCH   1  73
TORSDOF 18
ENDMDL
