MODEL 1
REMARK VINA RESULT:     -13.5      0.000      0.000
REMARK SMILES CC1=C([C@H](NC(=O)[C@@H]2[C@H](C)c3cc(F)ccc3N2C)C(=O)NCCCCNC(=O)c2ccc(-c3c4nc(c(-c5cccc(S(=O)(=O)[O-])c5F)c5ccc([nH]5)c(-c5cccc(S(=O)(=O)[O-])c5F)c5nc(c(-c6cccc(S(=O)(=O)[O-])c6F)c6ccc3[nH]6)C=C5)C=C4)cc2)[C@@H](C)N=N1
REMARK SMILES IDX 25 1 24 2 23 3 22 4 20 5 21 6 4 8 3 9 1 10 2 11 96 12 93 13
REMARK SMILES IDX 95 14 94 15 5 16 6 17 7 19 8 20 9 21 18 22 11 23 10 24 17 25
REMARK SMILES IDX 19 26 12 27 16 28 13 29 15 30 14 31 26 32 27 33 28 34 29 36
REMARK SMILES IDX 30 37 31 38 92 39 32 40 91 41 33 42 34 43 35 44 85 45 36 46
REMARK SMILES IDX 90 47 84 48 86 49 37 50 89 51 83 52 82 53 38 55 70 56 50 57
REMARK SMILES IDX 69 58 51 59 54 60 68 61 87 62 52 63 53 64 67 66 88 67 55 68
REMARK SMILES IDX 39 69 40 70 48 71 41 72 43 73 49 74 42 75 44 76 45 77 46 78
REMARK SMILES IDX 47 79 71 80 72 81 80 82 73 83 75 84 81 85 74 86 76 87 77 88
REMARK SMILES IDX 78 89 79 90 56 91 57 92 65 93 58 94 60 95 66 96 59 97 61 98
REMARK SMILES IDX 62 99 63 100 64 101
REMARK H PARENT 22 7 5 18 27 35 86 54 54 65
REMARK Flexibility Score: inf
ROOT
ATOM      1  C   UNL A   1      32.387  30.444  26.828  1.00  0.00     0.023 C 
ENDROOT
BRANCH   1   2
ATOM      2  C   UNL A   1      31.909  29.124  26.233  1.00  0.00     0.023 C 
BRANCH   2   3
ATOM      3  C   UNL A   1      32.081  27.898  27.113  1.00  0.00     0.116 C 
BRANCH   3   4
ATOM      4  N   UNL A   1      31.335  26.744  26.722  1.00  0.00    -0.354 N 
ATOM      5  C   UNL A   1      31.830  25.684  26.015  1.00  0.00     0.247 C 
ATOM      6  O   UNL A   1      31.159  24.645  26.019  1.00  0.00    -0.272 OA
ATOM      7  H   UNL A   1      30.386  26.709  26.982  1.00  0.00     0.163 HD
BRANCH   5   8
ATOM      8  C   UNL A   1      33.255  25.714  25.333  1.00  0.00     0.202 C 
BRANCH   8   9
ATOM      9  C   UNL A   1      33.296  25.703  23.845  1.00  0.00     0.011 C 
ATOM     10  C   UNL A   1      33.925  28.132  23.382  1.00  0.00     0.069 C 
ATOM     11  C   UNL A   1      33.601  26.721  23.029  1.00  0.00     0.064 C 
ATOM     12  N   UNL A   1      33.609  26.350  21.710  1.00  0.00    -0.160 NA
ATOM     13  C   UNL A   1      33.024  24.545  22.940  1.00  0.00     0.156 C 
ATOM     14  N   UNL A   1      33.316  25.130  21.599  1.00  0.00    -0.181 NA
ATOM     15  C   UNL A   1      31.594  24.016  22.918  1.00  0.00     0.040 C 
ENDBRANCH   8   9
BRANCH   8  16
ATOM     16  N   UNL A   1      34.421  25.043  25.952  1.00  0.00    -0.339 N 
ATOM     17  C   UNL A   1      35.224  23.968  25.668  1.00  0.00     0.244 C 
ATOM     18  H   UNL A   1      34.691  25.485  26.788  1.00  0.00     0.164 HD
ATOM     19  O   UNL A   1      36.384  24.064  26.087  1.00  0.00    -0.273 OA
BRANCH  17  20
ATOM     20  C   UNL A   1      34.709  22.684  24.979  1.00  0.00     0.178 C 
ATOM     21  C   UNL A   1      33.490  22.063  25.730  1.00  0.00     0.050 C 
ATOM     22  N   UNL A   1      35.689  21.573  24.867  1.00  0.00    -0.362 N 
ATOM     23  C   UNL A   1      33.675  20.610  25.451  1.00  0.00    -0.016 A 
ATOM     24  C   UNL A   1      33.387  22.368  27.219  1.00  0.00     0.015 C 
ATOM     25  C   UNL A   1      34.951  20.393  24.927  1.00  0.00     0.041 A 
ATOM     26  C   UNL A   1      36.934  21.684  24.155  1.00  0.00     0.144 C 
ATOM     27  C   UNL A   1      32.723  19.609  25.583  1.00  0.00     0.045 A 
ATOM     28  C   UNL A   1      35.292  19.115  24.522  1.00  0.00     0.029 A 
ATOM     29  C   UNL A   1      33.070  18.343  25.150  1.00  0.00     0.123 A 
ATOM     30  C   UNL A   1      34.338  18.087  24.623  1.00  0.00     0.041 A 
ATOM     31  F   UNL A   1      32.170  17.354  25.222  1.00  0.00    -0.207 F 
ENDBRANCH  17  20
ENDBRANCH   8  16
ENDBRANCH   5   8
ENDBRANCH   3   4
ENDBRANCH   2   3
ENDBRANCH   1   2
BRANCH   1  32
ATOM     32  C   UNL A   1      33.790  30.454  27.456  1.00  0.00     0.116 C 
BRANCH  32  33
ATOM     33  N   UNL A   1      34.388  31.754  27.710  1.00  0.00    -0.352 N 
ATOM     34  C   UNL A   1      35.688  32.176  27.840  1.00  0.00     0.251 C 
ATOM     35  H   UNL A   1      33.728  32.477  27.810  1.00  0.00     0.163 HD
ATOM     36  O   UNL A   1      35.900  33.367  27.606  1.00  0.00    -0.269 OA
BRANCH  34  37
ATOM     37  C   UNL A   1      36.785  31.327  28.363  1.00  0.00     0.039 A 
ATOM     38  C   UNL A   1      37.755  31.771  29.256  1.00  0.00     0.014 A 
ATOM     39  C   UNL A   1      36.903  30.038  27.813  1.00  0.00     0.014 A 
ATOM     40  C   UNL A   1      38.914  31.044  29.444  1.00  0.00     0.010 A 
ATOM     41  C   UNL A   1      38.036  29.272  28.050  1.00  0.00     0.010 A 
ATOM     42  C   UNL A   1      39.072  29.819  28.798  1.00  0.00    -0.014 A 
BRANCH  42  43
ATOM     43  C   UNL A   1      40.336  29.129  29.016  1.00  0.00     0.031 A 
ATOM     44  C   UNL A   1      40.632  28.817  30.447  1.00  0.00     0.074 A 
ATOM     45  C   UNL A   1      41.127  28.743  27.998  1.00  0.00     0.049 A 
ATOM     46  N   UNL A   1      41.615  29.232  31.183  1.00  0.00    -0.248 NA
ATOM     47  C   UNL A   1      39.608  28.055  31.182  1.00  0.00     0.031 C 
ATOM     48  C   UNL A   1      40.825  28.732  26.563  1.00  0.00     0.029 A 
ATOM     49  N   UNL A   1      42.333  28.120  28.060  1.00  0.00    -0.354 N 
ATOM     50  C   UNL A   1      41.430  28.626  32.426  1.00  0.00     0.074 A 
ATOM     51  C   UNL A   1      40.113  28.043  32.415  1.00  0.00     0.031 C 
ATOM     52  C   UNL A   1      41.670  27.879  25.945  1.00  0.00     0.029 A 
ATOM     53  C   UNL A   1      42.645  27.403  26.910  1.00  0.00     0.049 A 
ATOM     54  H   UNL A   1      42.927  28.172  28.843  1.00  0.00     0.167 HD
ATOM     55  C   UNL A   1      42.431  28.452  33.332  1.00  0.00     0.034 A 
ATOM     56  C   UNL A   1      43.555  26.403  26.829  1.00  0.00     0.034 A 
ATOM     57  C   UNL A   1      43.592  29.237  33.049  1.00  0.00     0.049 A 
ATOM     58  C   UNL A   1      44.455  26.539  28.002  1.00  0.00     0.074 A 
ATOM     59  C   UNL A   1      43.874  30.588  33.005  1.00  0.00     0.029 A 
ATOM     60  N   UNL A   1      44.618  28.616  32.381  1.00  0.00    -0.354 N 
ATOM     61  N   UNL A   1      45.257  27.551  28.188  1.00  0.00    -0.248 NA
ATOM     62  C   UNL A   1      44.151  25.753  29.187  1.00  0.00     0.031 C 
ATOM     63  C   UNL A   1      44.767  30.736  31.906  1.00  0.00     0.029 A 
ATOM     64  C   UNL A   1      45.005  29.464  31.378  1.00  0.00     0.049 A 
ATOM     65  H   UNL A   1      44.999  27.732  32.583  1.00  0.00     0.167 HD
ATOM     66  C   UNL A   1      45.223  27.778  29.557  1.00  0.00     0.074 A 
ATOM     67  C   UNL A   1      44.604  26.585  30.129  1.00  0.00     0.031 C 
ATOM     68  C   UNL A   1      45.435  29.023  30.072  1.00  0.00     0.034 A 
BRANCH  55  69
ATOM     69  C   UNL A   1      42.461  27.309  34.304  1.00  0.00     0.023 A 
ATOM     70  C   UNL A   1      41.968  27.494  35.611  1.00  0.00     0.012 A 
ATOM     71  C   UNL A   1      43.180  26.121  34.038  1.00  0.00     0.148 A 
ATOM     72  C   UNL A   1      42.166  26.525  36.602  1.00  0.00     0.002 A 
ATOM     73  C   UNL A   1      43.307  25.131  35.000  1.00  0.00     0.091 A 
ATOM     74  F   UNL A   1      43.846  26.004  32.882  1.00  0.00    -0.205 F 
ATOM     75  C   UNL A   1      42.818  25.334  36.292  1.00  0.00     0.022 A 
BRANCH  73  76
ATOM     76  S   UNL A   1      44.096  23.563  34.625  1.00  0.00     0.127 S 
ATOM     77  O   UNL A   1      45.298  24.000  33.925  1.00  0.00    -0.237 OA
ATOM     78  O   UNL A   1      44.318  23.010  35.962  1.00  0.00    -0.237 OA
ATOM     79  O   UNL A   1      43.117  22.827  33.834  1.00  0.00    -0.744 OA
ENDBRANCH  73  76
ENDBRANCH  55  69
BRANCH  56  80
ATOM     80  C   UNL A   1      43.497  25.147  26.039  1.00  0.00     0.023 A 
ATOM     81  C   UNL A   1      44.499  24.900  25.078  1.00  0.00     0.012 A 
ATOM     82  C   UNL A   1      42.661  24.072  26.417  1.00  0.00     0.148 A 
ATOM     83  C   UNL A   1      44.697  23.618  24.552  1.00  0.00     0.002 A 
ATOM     84  C   UNL A   1      42.853  22.801  25.879  1.00  0.00     0.091 A 
ATOM     85  F   UNL A   1      41.746  24.262  27.375  1.00  0.00    -0.205 F 
ATOM     86  C   UNL A   1      43.882  22.568  24.959  1.00  0.00     0.022 A 
BRANCH  84  87
ATOM     87  S   UNL A   1      41.842  21.395  26.368  1.00  0.00     0.127 S 
ATOM     88  O   UNL A   1      42.144  21.285  27.796  1.00  0.00    -0.237 OA
ATOM     89  O   UNL A   1      40.495  21.869  26.062  1.00  0.00    -0.237 OA
ATOM     90  O   UNL A   1      42.319  20.272  25.571  1.00  0.00    -0.744 OA
ENDBRANCH  84  87
ENDBRANCH  56  80
BRANCH  68  91
ATOM     91  C   UNL A   1      45.898  30.102  29.129  1.00  0.00     0.023 A 
ATOM     92  C   UNL A   1      47.267  30.310  28.851  1.00  0.00     0.012 A 
ATOM     93  C   UNL A   1      44.936  30.784  28.369  1.00  0.00     0.148 A 
ATOM     94  C   UNL A   1      47.666  31.190  27.842  1.00  0.00     0.002 A 
ATOM     95  C   UNL A   1      45.336  31.631  27.343  1.00  0.00     0.091 A 
ATOM     96  F   UNL A   1      43.642  30.557  28.639  1.00  0.00    -0.205 F 
ATOM     97  C   UNL A   1      46.700  31.841  27.080  1.00  0.00     0.022 A 
BRANCH  95  98
ATOM     98  S   UNL A   1      44.145  32.407  26.249  1.00  0.00     0.127 S 
ATOM     99  O   UNL A   1      44.997  32.862  25.147  1.00  0.00    -0.237 OA
ATOM    100  O   UNL A   1      43.261  31.287  25.909  1.00  0.00    -0.237 OA
ATOM    101  O   UNL A   1      43.508  33.457  27.020  1.00  0.00    -0.744 OA
ENDBRANCH  95  98
ENDBRANCH  68  91
ENDBRANCH  42  43
ENDBRANCH  34  37
ENDBRANCH  32  33
ENDBRANCH   1  32
TORSDOF 17
ENDMDL
MODEL 2
REMARK VINA RESULT:     -13.4      1.318      1.578
REMARK SMILES CC1=C([C@H](NC(=O)[C@@H]2[C@H](C)c3cc(F)ccc3N2C)C(=O)NCCCCNC(=O)c2ccc(-c3c4nc(c(-c5cccc(S(=O)(=O)[O-])c5F)c5ccc([nH]5)c(-c5cccc(S(=O)(=O)[O-])c5F)c5nc(c(-c6cccc(S(=O)(=O)[O-])c6F)c6ccc3[nH]6)C=C5)C=C4)cc2)[C@@H](C)N=N1
REMARK SMILES IDX 25 1 24 2 23 3 22 4 20 5 21 6 4 8 3 9 1 10 2 11 96 12 93 13
REMARK SMILES IDX 95 14 94 15 5 16 6 17 7 19 8 20 9 21 18 22 11 23 10 24 17 25
REMARK SMILES IDX 19 26 12 27 16 28 13 29 15 30 14 31 26 32 27 33 28 34 29 36
REMARK SMILES IDX 30 37 31 38 92 39 32 40 91 41 33 42 34 43 35 44 85 45 36 46
REMARK SMILES IDX 90 47 84 48 86 49 37 50 89 51 83 52 82 53 38 55 70 56 50 57
REMARK SMILES IDX 69 58 51 59 54 60 68 61 87 62 52 63 53 64 67 66 88 67 55 68
REMARK SMILES IDX 39 69 40 70 48 71 41 72 43 73 49 74 42 75 44 76 45 77 46 78
REMARK SMILES IDX 47 79 71 80 72 81 80 82 73 83 75 84 81 85 74 86 76 87 77 88
REMARK SMILES IDX 78 89 79 90 56 91 57 92 65 93 58 94 60 95 66 96 59 97 61 98
REMARK SMILES IDX 62 99 63 100 64 101
REMARK H PARENT 22 7 5 18 27 35 86 54 54 65
REMARK Flexibility Score: inf
ROOT
ATOM      1  C   UNL A   1      33.197  29.960  25.986  1.00  0.00     0.023 C 
ENDROOT
BRANCH   1   2
ATOM      2  C   UNL A   1      31.741  29.515  26.053  1.00  0.00     0.023 C 
BRANCH   2   3
ATOM      3  C   UNL A   1      31.342  28.403  25.099  1.00  0.00     0.116 C 
BRANCH   3   4
ATOM      4  N   UNL A   1      30.952  27.171  25.710  1.00  0.00    -0.354 N 
ATOM      5  C   UNL A   1      31.752  26.073  25.859  1.00  0.00     0.247 C 
ATOM      6  O   UNL A   1      31.380  25.213  26.663  1.00  0.00    -0.272 OA
ATOM      7  H   UNL A   1      30.031  27.108  26.053  1.00  0.00     0.163 HD
BRANCH   5   8
ATOM      8  C   UNL A   1      33.160  25.951  25.150  1.00  0.00     0.202 C 
BRANCH   8   9
ATOM      9  C   UNL A   1      33.163  25.781  23.671  1.00  0.00     0.011 C 
ATOM     10  C   UNL A   1      34.097  28.042  22.948  1.00  0.00     0.069 C 
ATOM     11  C   UNL A   1      33.580  26.659  22.749  1.00  0.00     0.064 C 
ATOM     12  N   UNL A   1      33.507  26.157  21.477  1.00  0.00    -0.160 NA
ATOM     13  C   UNL A   1      32.717  24.583  22.896  1.00  0.00     0.156 C 
ATOM     14  N   UNL A   1      33.052  24.982  21.497  1.00  0.00    -0.181 NA
ATOM     15  C   UNL A   1      31.230  24.251  22.944  1.00  0.00     0.040 C 
ENDBRANCH   8   9
BRANCH   8  16
ATOM     16  N   UNL A   1      34.303  25.283  25.814  1.00  0.00    -0.339 N 
ATOM     17  C   UNL A   1      35.088  24.181  25.588  1.00  0.00     0.244 C 
ATOM     18  H   UNL A   1      34.569  25.754  26.635  1.00  0.00     0.164 HD
ATOM     19  O   UNL A   1      36.243  24.272  26.021  1.00  0.00    -0.273 OA
BRANCH  17  20
ATOM     20  C   UNL A   1      34.556  22.880  24.945  1.00  0.00     0.178 C 
ATOM     21  C   UNL A   1      33.393  22.250  25.772  1.00  0.00     0.050 C 
ATOM     22  N   UNL A   1      35.547  21.784  24.792  1.00  0.00    -0.362 N 
ATOM     23  C   UNL A   1      33.586  20.796  25.501  1.00  0.00    -0.016 A 
ATOM     24  C   UNL A   1      33.368  22.572  27.260  1.00  0.00     0.015 C 
ATOM     25  C   UNL A   1      34.834  20.593  24.909  1.00  0.00     0.041 A 
ATOM     26  C   UNL A   1      36.748  21.906  24.009  1.00  0.00     0.144 C 
ATOM     27  C   UNL A   1      32.660  19.782  25.699  1.00  0.00     0.045 A 
ATOM     28  C   UNL A   1      35.174  19.315  24.500  1.00  0.00     0.029 A 
ATOM     29  C   UNL A   1      33.004  18.515  25.263  1.00  0.00     0.123 A 
ATOM     30  C   UNL A   1      34.245  18.274  24.668  1.00  0.00     0.041 A 
ATOM     31  F   UNL A   1      32.127  17.513  25.398  1.00  0.00    -0.207 F 
ENDBRANCH  17  20
ENDBRANCH   8  16
ENDBRANCH   5   8
ENDBRANCH   3   4
ENDBRANCH   2   3
ENDBRANCH   1   2
BRANCH   1  32
ATOM     32  C   UNL A   1      34.030  29.804  27.268  1.00  0.00     0.116 C 
BRANCH  32  33
ATOM     33  N   UNL A   1      34.016  30.918  28.202  1.00  0.00    -0.352 N 
ATOM     34  C   UNL A   1      35.011  31.609  28.847  1.00  0.00     0.251 C 
ATOM     35  H   UNL A   1      33.111  31.241  28.414  1.00  0.00     0.163 HD
ATOM     36  O   UNL A   1      34.734  32.754  29.208  1.00  0.00    -0.269 OA
BRANCH  34  37
ATOM     37  C   UNL A   1      36.312  31.014  29.240  1.00  0.00     0.039 A 
ATOM     38  C   UNL A   1      37.503  31.728  29.316  1.00  0.00     0.014 A 
ATOM     39  C   UNL A   1      36.339  29.619  29.419  1.00  0.00     0.014 A 
ATOM     40  C   UNL A   1      38.712  31.062  29.364  1.00  0.00     0.010 A 
ATOM     41  C   UNL A   1      37.548  28.947  29.535  1.00  0.00     0.010 A 
ATOM     42  C   UNL A   1      38.731  29.670  29.421  1.00  0.00    -0.014 A 
BRANCH  42  43
ATOM     43  C   UNL A   1      40.043  29.038  29.433  1.00  0.00     0.031 A 
ATOM     44  C   UNL A   1      40.631  28.856  30.794  1.00  0.00     0.074 A 
ATOM     45  C   UNL A   1      40.634  28.592  28.309  1.00  0.00     0.049 A 
ATOM     46  N   UNL A   1      41.720  29.361  31.284  1.00  0.00    -0.248 NA
ATOM     47  C   UNL A   1      39.809  28.129  31.776  1.00  0.00     0.031 C 
ATOM     48  C   UNL A   1      40.054  28.452  26.970  1.00  0.00     0.029 A 
ATOM     49  N   UNL A   1      41.855  28.012  28.174  1.00  0.00    -0.354 N 
ATOM     50  C   UNL A   1      41.813  28.855  32.582  1.00  0.00     0.074 A 
ATOM     51  C   UNL A   1      40.547  28.235  32.880  1.00  0.00     0.031 C 
ATOM     52  C   UNL A   1      40.799  27.575  26.261  1.00  0.00     0.029 A 
ATOM     53  C   UNL A   1      41.966  27.211  27.043  1.00  0.00     0.049 A 
ATOM     54  H   UNL A   1      42.590  28.147  28.816  1.00  0.00     0.167 HD
ATOM     55  C   UNL A   1      42.980  28.788  33.279  1.00  0.00     0.034 A 
ATOM     56  C   UNL A   1      42.888  26.235  26.857  1.00  0.00     0.034 A 
ATOM     57  C   UNL A   1      44.024  29.581  32.708  1.00  0.00     0.049 A 
ATOM     58  C   UNL A   1      43.994  26.496  27.812  1.00  0.00     0.074 A 
ATOM     59  C   UNL A   1      44.230  30.931  32.506  1.00  0.00     0.029 A 
ATOM     60  N   UNL A   1      44.925  28.937  31.898  1.00  0.00    -0.354 N 
ATOM     61  N   UNL A   1      44.770  27.543  27.755  1.00  0.00    -0.248 NA
ATOM     62  C   UNL A   1      43.968  25.803  29.090  1.00  0.00     0.031 C 
ATOM     63  C   UNL A   1      44.880  31.013  31.241  1.00  0.00     0.029 A 
ATOM     64  C   UNL A   1      45.067  29.709  30.775  1.00  0.00     0.049 A 
ATOM     65  H   UNL A   1      45.379  28.084  32.085  1.00  0.00     0.167 HD
ATOM     66  C   UNL A   1      44.997  27.884  29.082  1.00  0.00     0.074 A 
ATOM     67  C   UNL A   1      44.559  26.724  29.855  1.00  0.00     0.031 C 
ATOM     68  C   UNL A   1      45.250  29.173  29.446  1.00  0.00     0.034 A 
BRANCH  55  69
ATOM     69  C   UNL A   1      43.254  27.732  34.309  1.00  0.00     0.023 A 
ATOM     70  C   UNL A   1      43.407  28.102  35.660  1.00  0.00     0.012 A 
ATOM     71  C   UNL A   1      43.600  26.410  33.949  1.00  0.00     0.148 A 
ATOM     72  C   UNL A   1      43.865  27.183  36.612  1.00  0.00     0.002 A 
ATOM     73  C   UNL A   1      43.980  25.483  34.908  1.00  0.00     0.091 A 
ATOM     74  F   UNL A   1      43.677  26.083  32.652  1.00  0.00    -0.205 F 
ATOM     75  C   UNL A   1      44.132  25.868  36.241  1.00  0.00     0.022 A 
BRANCH  73  76
ATOM     76  S   UNL A   1      44.285  23.767  34.477  1.00  0.00     0.127 S 
ATOM     77  O   UNL A   1      45.343  23.899  33.483  1.00  0.00    -0.237 OA
ATOM     78  O   UNL A   1      44.702  23.204  35.762  1.00  0.00    -0.237 OA
ATOM     79  O   UNL A   1      43.003  23.265  33.997  1.00  0.00    -0.744 OA
ENDBRANCH  73  76
ENDBRANCH  55  69
BRANCH  56  80
ATOM     80  C   UNL A   1      42.731  24.916  26.194  1.00  0.00     0.023 A 
ATOM     81  C   UNL A   1      43.739  24.475  25.311  1.00  0.00     0.012 A 
ATOM     82  C   UNL A   1      41.777  23.972  26.635  1.00  0.00     0.148 A 
ATOM     83  C   UNL A   1      43.826  23.133  24.925  1.00  0.00     0.002 A 
ATOM     84  C   UNL A   1      41.859  22.640  26.235  1.00  0.00     0.091 A 
ATOM     85  F   UNL A   1      40.850  24.348  27.524  1.00  0.00    -0.205 F 
ATOM     86  C   UNL A   1      42.893  22.214  25.394  1.00  0.00     0.022 A 
BRANCH  84  87
ATOM     87  S   UNL A   1      40.692  21.398  26.811  1.00  0.00     0.127 S 
ATOM     88  O   UNL A   1      39.422  21.907  26.290  1.00  0.00    -0.237 OA
ATOM     89  O   UNL A   1      41.184  20.191  26.152  1.00  0.00    -0.237 OA
ATOM     90  O   UNL A   1      40.787  21.413  28.265  1.00  0.00    -0.744 OA
ENDBRANCH  84  87
ENDBRANCH  56  80
BRANCH  68  91
ATOM     91  C   UNL A   1      45.467  30.183  28.350  1.00  0.00     0.023 A 
ATOM     92  C   UNL A   1      44.389  30.853  27.733  1.00  0.00     0.012 A 
ATOM     93  C   UNL A   1      46.778  30.600  28.076  1.00  0.00     0.148 A 
ATOM     94  C   UNL A   1      44.617  31.911  26.850  1.00  0.00     0.002 A 
ATOM     95  C   UNL A   1      46.999  31.675  27.226  1.00  0.00     0.091 A 
ATOM     96  F   UNL A   1      47.785  29.960  28.689  1.00  0.00    -0.205 F 
ATOM     97  C   UNL A   1      45.922  32.330  26.606  1.00  0.00     0.022 A 
BRANCH  95  98
ATOM     98  S   UNL A   1      48.645  32.340  26.962  1.00  0.00     0.127 S 
ATOM     99  O   UNL A   1      48.403  33.344  25.922  1.00  0.00    -0.237 OA
ATOM    100  O   UNL A   1      48.967  32.898  28.279  1.00  0.00    -0.237 OA
ATOM    101  O   UNL A   1      49.477  31.221  26.567  1.00  0.00    -0.744 OA
ENDBRANCH  95  98
ENDBRANCH  68  91
ENDBRANCH  42  43
ENDBRANCH  34  37
ENDBRANCH  32  33
ENDBRANCH   1  32
TORSDOF 17
ENDMDL
MODEL 3
REMARK VINA RESULT:     -13.3      3.261      7.777
REMARK SMILES CC1=C([C@H](NC(=O)[C@@H]2[C@H](C)c3cc(F)ccc3N2C)C(=O)NCCCCNC(=O)c2ccc(-c3c4nc(c(-c5cccc(S(=O)(=O)[O-])c5F)c5ccc([nH]5)c(-c5cccc(S(=O)(=O)[O-])c5F)c5nc(c(-c6cccc(S(=O)(=O)[O-])c6F)c6ccc3[nH]6)C=C5)C=C4)cc2)[C@@H](C)N=N1
REMARK SMILES IDX 25 1 24 2 23 3 22 4 20 5 21 6 4 8 3 9 1 10 2 11 96 12 93 13
REMARK SMILES IDX 95 14 94 15 5 16 6 17 7 19 8 20 9 21 18 22 11 23 10 24 17 25
REMARK SMILES IDX 19 26 12 27 16 28 13 29 15 30 14 31 26 32 27 33 28 34 29 36
REMARK SMILES IDX 30 37 31 38 92 39 32 40 91 41 33 42 34 43 35 44 85 45 36 46
REMARK SMILES IDX 90 47 84 48 86 49 37 50 89 51 83 52 82 53 38 55 70 56 50 57
REMARK SMILES IDX 69 58 51 59 54 60 68 61 87 62 52 63 53 64 67 66 88 67 55 68
REMARK SMILES IDX 39 69 40 70 48 71 41 72 43 73 49 74 42 75 44 76 45 77 46 78
REMARK SMILES IDX 47 79 71 80 72 81 80 82 73 83 75 84 81 85 74 86 76 87 77 88
REMARK SMILES IDX 78 89 79 90 56 91 57 92 65 93 58 94 60 95 66 96 59 97 61 98
REMARK SMILES IDX 62 99 63 100 64 101
REMARK H PARENT 22 7 5 18 27 35 86 54 54 65
REMARK Flexibility Score: inf
ROOT
ATOM      1  C   UNL A   1      37.670  22.146  24.989  1.00  0.00     0.023 C 
ENDROOT
BRANCH   1   2
ATOM      2  C   UNL A   1      37.032  23.194  25.893  1.00  0.00     0.023 C 
BRANCH   2   3
ATOM      3  C   UNL A   1      35.913  24.013  25.274  1.00  0.00     0.116 C 
BRANCH   3   4
ATOM      4  N   UNL A   1      35.695  23.809  23.876  1.00  0.00    -0.354 N 
ATOM      5  C   UNL A   1      34.533  23.361  23.313  1.00  0.00     0.247 C 
ATOM      6  O   UNL A   1      34.400  23.526  22.095  1.00  0.00    -0.272 OA
ATOM      7  H   UNL A   1      36.444  24.008  23.267  1.00  0.00     0.163 HD
BRANCH   5   8
ATOM      8  C   UNL A   1      33.343  22.783  24.178  1.00  0.00     0.202 C 
BRANCH   8   9
ATOM      9  C   UNL A   1      33.333  21.315  24.424  1.00  0.00     0.011 C 
ATOM     10  C   UNL A   1      31.973  20.520  22.417  1.00  0.00     0.069 C 
ATOM     11  C   UNL A   1      32.773  20.363  23.665  1.00  0.00     0.064 C 
ATOM     12  N   UNL A   1      33.008  19.103  24.147  1.00  0.00    -0.160 NA
ATOM     13  C   UNL A   1      33.966  20.583  25.563  1.00  0.00     0.156 C 
ATOM     14  N   UNL A   1      33.697  19.161  25.201  1.00  0.00    -0.181 NA
ATOM     15  C   UNL A   1      33.377  20.832  26.947  1.00  0.00     0.040 C 
ENDBRANCH   8   9
BRANCH   8  16
ATOM     16  N   UNL A   1      31.985  23.370  24.112  1.00  0.00    -0.339 N 
ATOM     17  C   UNL A   1      31.435  24.590  23.811  1.00  0.00     0.244 C 
ATOM     18  H   UNL A   1      31.294  22.710  24.347  1.00  0.00     0.164 HD
ATOM     19  O   UNL A   1      30.298  24.540  23.328  1.00  0.00    -0.273 OA
BRANCH  17  20
ATOM     20  C   UNL A   1      32.122  25.934  24.145  1.00  0.00     0.178 C 
ATOM     21  C   UNL A   1      32.485  26.048  25.658  1.00  0.00     0.050 C 
ATOM     22  N   UNL A   1      31.328  27.155  23.855  1.00  0.00    -0.362 N 
ATOM     23  C   UNL A   1      32.359  27.516  25.887  1.00  0.00    -0.016 A 
ATOM     24  C   UNL A   1      31.636  25.228  26.621  1.00  0.00     0.015 C 
ATOM     25  C   UNL A   1      31.710  28.105  24.800  1.00  0.00     0.041 A 
ATOM     26  C   UNL A   1      30.861  27.502  22.539  1.00  0.00     0.144 C 
ATOM     27  C   UNL A   1      32.877  28.241  26.951  1.00  0.00     0.045 A 
ATOM     28  C   UNL A   1      31.568  29.481  24.778  1.00  0.00     0.029 A 
ATOM     29  C   UNL A   1      32.749  29.617  26.902  1.00  0.00     0.123 A 
ATOM     30  C   UNL A   1      32.104  30.240  25.832  1.00  0.00     0.041 A 
ATOM     31  F   UNL A   1      33.268  30.360  27.888  1.00  0.00    -0.207 F 
ENDBRANCH  17  20
ENDBRANCH   8  16
ENDBRANCH   5   8
ENDBRANCH   3   4
ENDBRANCH   2   3
ENDBRANCH   1   2
BRANCH   1  32
ATOM     32  C   UNL A   1      37.563  20.682  25.441  1.00  0.00     0.116 C 
BRANCH  32  33
ATOM     33  N   UNL A   1      38.680  19.810  25.119  1.00  0.00    -0.352 N 
ATOM     34  C   UNL A   1      39.910  19.613  25.696  1.00  0.00     0.251 C 
ATOM     35  H   UNL A   1      38.523  19.247  24.327  1.00  0.00     0.163 HD
ATOM     36  O   UNL A   1      40.445  18.524  25.484  1.00  0.00    -0.269 OA
BRANCH  34  37
ATOM     37  C   UNL A   1      40.661  20.666  26.423  1.00  0.00     0.039 A 
ATOM     38  C   UNL A   1      40.850  20.676  27.802  1.00  0.00     0.014 A 
ATOM     39  C   UNL A   1      41.089  21.771  25.667  1.00  0.00     0.014 A 
ATOM     40  C   UNL A   1      41.263  21.830  28.439  1.00  0.00     0.010 A 
ATOM     41  C   UNL A   1      41.569  22.912  26.297  1.00  0.00     0.010 A 
ATOM     42  C   UNL A   1      41.572  22.961  27.686  1.00  0.00    -0.014 A 
BRANCH  42  43
ATOM     43  C   UNL A   1      41.965  24.149  28.431  1.00  0.00     0.031 A 
ATOM     44  C   UNL A   1      41.011  25.293  28.319  1.00  0.00     0.074 A 
ATOM     45  C   UNL A   1      43.061  24.176  29.213  1.00  0.00     0.049 A 
ATOM     46  N   UNL A   1      41.212  26.475  27.826  1.00  0.00    -0.248 NA
ATOM     47  C   UNL A   1      39.608  25.021  28.677  1.00  0.00     0.031 C 
ATOM     48  C   UNL A   1      43.910  23.056  29.629  1.00  0.00     0.029 A 
ATOM     49  N   UNL A   1      43.552  25.216  29.935  1.00  0.00    -0.354 N 
ATOM     50  C   UNL A   1      40.005  27.157  27.988  1.00  0.00     0.074 A 
ATOM     51  C   UNL A   1      39.021  26.176  28.371  1.00  0.00     0.031 C 
ATOM     52  C   UNL A   1      44.599  23.417  30.734  1.00  0.00     0.029 A 
ATOM     53  C   UNL A   1      44.343  24.819  31.007  1.00  0.00     0.049 A 
ATOM     54  H   UNL A   1      43.365  26.158  29.720  1.00  0.00     0.167 HD
ATOM     55  C   UNL A   1      39.905  28.513  28.000  1.00  0.00     0.034 A 
ATOM     56  C   UNL A   1      44.637  25.577  32.092  1.00  0.00     0.034 A 
ATOM     57  C   UNL A   1      41.073  29.169  27.497  1.00  0.00     0.049 A 
ATOM     58  C   UNL A   1      44.382  26.990  31.715  1.00  0.00     0.074 A 
ATOM     59  C   UNL A   1      41.711  29.232  26.275  1.00  0.00     0.029 A 
ATOM     60  N   UNL A   1      41.982  29.619  28.422  1.00  0.00    -0.354 N 
ATOM     61  N   UNL A   1      45.063  27.634  30.808  1.00  0.00    -0.248 NA
ATOM     62  C   UNL A   1      43.086  27.560  32.049  1.00  0.00     0.031 C 
ATOM     63  C   UNL A   1      43.100  29.238  26.591  1.00  0.00     0.029 A 
ATOM     64  C   UNL A   1      43.218  29.221  27.984  1.00  0.00     0.049 A 
ATOM     65  H   UNL A   1      41.785  30.127  29.241  1.00  0.00     0.167 HD
ATOM     66  C   UNL A   1      44.125  28.430  30.164  1.00  0.00     0.074 A 
ATOM     67  C   UNL A   1      42.950  28.414  31.032  1.00  0.00     0.031 C 
ATOM     68  C   UNL A   1      44.284  28.793  28.860  1.00  0.00     0.034 A 
BRANCH  55  69
ATOM     69  C   UNL A   1      38.853  29.247  28.778  1.00  0.00     0.023 A 
ATOM     70  C   UNL A   1      38.029  30.182  28.123  1.00  0.00     0.012 A 
ATOM     71  C   UNL A   1      38.810  29.213  30.191  1.00  0.00     0.148 A 
ATOM     72  C   UNL A   1      37.182  31.031  28.846  1.00  0.00     0.002 A 
ATOM     73  C   UNL A   1      37.915  30.001  30.899  1.00  0.00     0.091 A 
ATOM     74  F   UNL A   1      39.727  28.499  30.857  1.00  0.00    -0.205 F 
ATOM     75  C   UNL A   1      37.110  30.927  30.233  1.00  0.00     0.022 A 
BRANCH  73  76
ATOM     76  S   UNL A   1      37.757  29.861  32.681  1.00  0.00     0.127 S 
ATOM     77  O   UNL A   1      39.089  30.257  33.125  1.00  0.00    -0.237 OA
ATOM     78  O   UNL A   1      36.693  30.824  32.966  1.00  0.00    -0.237 OA
ATOM     79  O   UNL A   1      37.382  28.473  32.919  1.00  0.00    -0.744 OA
ENDBRANCH  73  76
ENDBRANCH  55  69
BRANCH  56  80
ATOM     80  C   UNL A   1      44.768  25.165  33.512  1.00  0.00     0.023 A 
ATOM     81  C   UNL A   1      43.597  24.911  34.257  1.00  0.00     0.012 A 
ATOM     82  C   UNL A   1      46.002  24.735  34.050  1.00  0.00     0.148 A 
ATOM     83  C   UNL A   1      43.648  24.207  35.466  1.00  0.00     0.002 A 
ATOM     84  C   UNL A   1      46.048  24.049  35.261  1.00  0.00     0.091 A 
ATOM     85  F   UNL A   1      47.120  24.905  33.333  1.00  0.00    -0.205 F 
ATOM     86  C   UNL A   1      44.871  23.768  35.963  1.00  0.00     0.022 A 
BRANCH  84  87
ATOM     87  S   UNL A   1      47.594  23.443  35.956  1.00  0.00     0.127 S 
ATOM     88  O   UNL A   1      48.063  22.534  34.909  1.00  0.00    -0.237 OA
ATOM     89  O   UNL A   1      48.368  24.673  36.091  1.00  0.00    -0.237 OA
ATOM     90  O   UNL A   1      47.230  22.779  37.201  1.00  0.00    -0.744 OA
ENDBRANCH  84  87
ENDBRANCH  56  80
BRANCH  68  91
ATOM     91  C   UNL A   1      45.596  28.469  28.195  1.00  0.00     0.023 A 
ATOM     92  C   UNL A   1      46.729  29.297  28.345  1.00  0.00     0.012 A 
ATOM     93  C   UNL A   1      45.740  27.219  27.575  1.00  0.00     0.148 A 
ATOM     94  C   UNL A   1      47.979  28.889  27.873  1.00  0.00     0.002 A 
ATOM     95  C   UNL A   1      46.991  26.802  27.140  1.00  0.00     0.091 A 
ATOM     96  F   UNL A   1      44.653  26.442  27.461  1.00  0.00    -0.205 F 
ATOM     97  C   UNL A   1      48.113  27.636  27.282  1.00  0.00     0.022 A 
BRANCH  95  98
ATOM     98  S   UNL A   1      47.254  25.155  26.479  1.00  0.00     0.127 S 
ATOM     99  O   UNL A   1      46.242  25.088  25.421  1.00  0.00    -0.237 OA
ATOM    100  O   UNL A   1      48.635  25.234  25.992  1.00  0.00    -0.237 OA
ATOM    101  O   UNL A   1      47.062  24.237  27.585  1.00  0.00    -0.744 OA
ENDBRANCH  95  98
ENDBRANCH  68  91
ENDBRANCH  42  43
ENDBRANCH  34  37
ENDBRANCH  32  33
ENDBRANCH   1  32
TORSDOF 17
ENDMDL
