MODEL 1
REMARK VINA RESULT:     -13.1      0.000      0.000
REMARK SMILES Cc1cc(Br)cc2c1O[C@H](C(F)(F)F)C(C(=O)NCCCCNC(=O)c1ccc(-c3c4nc(c(-c5cccc(S(=O)(=O)[O-])c5F)c5ccc([nH]5)c(-c5cccc(S(=O)(=O)[O-])c5F)c5nc(c(-c6cccc(S(=O)(=O)[O-])c6F)c6ccc3[nH]6)C=C5)C=C4)cc1)=C2
REMARK SMILES IDX 21 1 20 2 19 3 18 4 16 5 17 6 15 8 1 9 2 10 3 11 8 12 4 13
REMARK SMILES IDX 7 14 9 15 5 16 6 17 89 18 10 19 11 20 12 21 13 22 14 23
REMARK SMILES IDX 22 24 23 25 24 26 25 28 26 29 27 30 88 31 28 32 87 33 29 34
REMARK SMILES IDX 30 35 31 36 81 37 32 38 86 39 80 40 82 41 33 42 85 43 79 44
REMARK SMILES IDX 78 45 34 47 66 48 46 49 65 50 47 51 50 52 64 53 83 54 48 55
REMARK SMILES IDX 49 56 63 58 84 59 51 60 35 61 36 62 44 63 37 64 39 65 45 66
REMARK SMILES IDX 38 67 40 68 41 69 42 70 43 71 67 72 68 73 76 74 69 75 71 76
REMARK SMILES IDX 77 77 70 78 72 79 73 80 74 81 75 82 52 83 53 84 61 85 54 86
REMARK SMILES IDX 56 87 62 88 55 89 57 90 58 91 59 92 60 93
REMARK H PARENT 18 7 23 27 82 46 50 57
REMARK Flexibility Score: inf
ROOT
ATOM      1  C   UNL A   1      35.643  21.091  25.207  1.00  0.00     0.023 C 
ENDROOT
BRANCH   1   2
ATOM      2  C   UNL A   1      34.534  21.778  26.009  1.00  0.00     0.023 C 
BRANCH   2   3
ATOM      3  C   UNL A   1      33.122  21.450  25.531  1.00  0.00     0.116 C 
BRANCH   3   4
ATOM      4  N   UNL A   1      32.107  22.052  26.377  1.00  0.00    -0.352 N 
ATOM      5  C   UNL A   1      31.574  23.282  26.560  1.00  0.00     0.251 C 
ATOM      6  O   UNL A   1      30.689  23.354  27.418  1.00  0.00    -0.270 OA
ATOM      7  H   UNL A   1      31.696  21.388  26.977  1.00  0.00     0.163 HD
BRANCH   5   8
ATOM      8  C   UNL A   1      31.971  24.516  25.816  1.00  0.00     0.067 C 
ATOM      9  C   UNL A   1      33.868  28.059  22.612  1.00  0.00     0.048 C 
ATOM     10  C   UNL A   1      33.204  28.088  23.959  1.00  0.00    -0.007 A 
ATOM     11  C   UNL A   1      32.904  29.311  24.574  1.00  0.00     0.023 A 
ATOM     12  C   UNL A   1      32.835  26.899  24.605  1.00  0.00     0.130 A 
ATOM     13  C   UNL A   1      32.272  29.334  25.817  1.00  0.00     0.019 A 
ATOM     14  C   UNL A   1      32.204  26.923  25.852  1.00  0.00     0.019 A 
ATOM     15  O   UNL A   1      33.164  25.724  23.987  1.00  0.00    -0.475 OA
ATOM     16  Br  UNL A   1      31.887  30.994  26.637  1.00  0.00    -0.051 Br
ATOM     17  C   UNL A   1      31.924  28.148  26.461  1.00  0.00     0.027 A 
ATOM     18  C   UNL A   1      31.876  25.665  26.512  1.00  0.00     0.025 C 
ATOM     19  C   UNL A   1      32.407  24.545  24.380  1.00  0.00     0.314 C 
BRANCH  19  20
ATOM     20  C   UNL A   1      31.237  24.351  23.397  1.00  0.00     0.429 C 
ATOM     21  F   UNL A   1      31.527  24.921  22.200  1.00  0.00    -0.167 F 
ATOM     22  F   UNL A   1      30.974  23.047  23.147  1.00  0.00    -0.167 F 
ATOM     23  F   UNL A   1      30.088  24.909  23.840  1.00  0.00    -0.167 F 
ENDBRANCH  19  20
ENDBRANCH   5   8
ENDBRANCH   3   4
ENDBRANCH   2   3
ENDBRANCH   1   2
BRANCH   1  24
ATOM     24  C   UNL A   1      37.049  21.659  25.403  1.00  0.00     0.116 C 
BRANCH  24  25
ATOM     25  N   UNL A   1      38.081  20.642  25.559  1.00  0.00    -0.352 N 
ATOM     26  C   UNL A   1      39.339  20.794  26.092  1.00  0.00     0.251 C 
ATOM     27  H   UNL A   1      37.848  19.738  25.248  1.00  0.00     0.163 HD
ATOM     28  O   UNL A   1      40.135  19.859  26.093  1.00  0.00    -0.269 OA
BRANCH  26  29
ATOM     29  C   UNL A   1      39.731  22.115  26.618  1.00  0.00     0.039 A 
ATOM     30  C   UNL A   1      40.743  22.185  27.577  1.00  0.00     0.014 A 
ATOM     31  C   UNL A   1      39.154  23.277  26.098  1.00  0.00     0.014 A 
ATOM     32  C   UNL A   1      41.235  23.434  27.962  1.00  0.00     0.010 A 
ATOM     33  C   UNL A   1      39.685  24.516  26.441  1.00  0.00     0.010 A 
ATOM     34  C   UNL A   1      40.735  24.604  27.367  1.00  0.00    -0.014 A 
BRANCH  34  35
ATOM     35  C   UNL A   1      41.317  25.932  27.678  1.00  0.00     0.031 A 
ATOM     36  C   UNL A   1      42.722  26.255  27.259  1.00  0.00     0.074 A 
ATOM     37  C   UNL A   1      40.606  26.812  28.410  1.00  0.00     0.049 A 
ATOM     38  N   UNL A   1      43.421  27.335  27.487  1.00  0.00    -0.248 NA
ATOM     39  C   UNL A   1      43.448  25.218  26.505  1.00  0.00     0.031 C 
ATOM     40  C   UNL A   1      39.258  26.580  28.934  1.00  0.00     0.029 A 
ATOM     41  N   UNL A   1      40.925  28.069  28.859  1.00  0.00    -0.354 N 
ATOM     42  C   UNL A   1      44.671  27.103  26.930  1.00  0.00     0.074 A 
ATOM     43  C   UNL A   1      44.650  25.763  26.385  1.00  0.00     0.031 C 
ATOM     44  C   UNL A   1      38.860  27.663  29.619  1.00  0.00     0.029 A 
ATOM     45  C   UNL A   1      39.930  28.658  29.605  1.00  0.00     0.049 A 
ATOM     46  H   UNL A   1      41.784  28.508  28.666  1.00  0.00     0.167 HD
ATOM     47  C   UNL A   1      45.728  27.943  26.845  1.00  0.00     0.034 A 
ATOM     48  C   UNL A   1      39.882  29.866  30.202  1.00  0.00     0.034 A 
ATOM     49  C   UNL A   1      45.726  29.291  27.345  1.00  0.00     0.049 A 
ATOM     50  C   UNL A   1      41.057  30.795  30.059  1.00  0.00     0.074 A 
ATOM     51  C   UNL A   1      46.725  30.242  27.250  1.00  0.00     0.029 A 
ATOM     52  N   UNL A   1      44.671  29.880  28.025  1.00  0.00    -0.354 N 
ATOM     53  N   UNL A   1      42.180  30.608  29.407  1.00  0.00    -0.248 NA
ATOM     54  C   UNL A   1      40.949  32.113  30.701  1.00  0.00     0.031 C 
ATOM     55  C   UNL A   1      46.274  31.409  27.876  1.00  0.00     0.029 A 
ATOM     56  C   UNL A   1      44.992  31.185  28.353  1.00  0.00     0.049 A 
ATOM     57  H   UNL A   1      43.820  29.436  28.242  1.00  0.00     0.167 HD
ATOM     58  C   UNL A   1      42.898  31.792  29.535  1.00  0.00     0.074 A 
ATOM     59  C   UNL A   1      42.074  32.699  30.308  1.00  0.00     0.031 C 
ATOM     60  C   UNL A   1      44.136  32.094  29.071  1.00  0.00     0.034 A 
BRANCH  47  61
ATOM     61  C   UNL A   1      46.948  27.458  26.110  1.00  0.00     0.023 A 
ATOM     62  C   UNL A   1      47.846  26.595  26.772  1.00  0.00     0.012 A 
ATOM     63  C   UNL A   1      47.176  27.792  24.761  1.00  0.00     0.148 A 
ATOM     64  C   UNL A   1      48.966  26.092  26.112  1.00  0.00     0.002 A 
ATOM     65  C   UNL A   1      48.273  27.255  24.098  1.00  0.00     0.091 A 
ATOM     66  F   UNL A   1      46.324  28.632  24.158  1.00  0.00    -0.205 F 
ATOM     67  C   UNL A   1      49.173  26.412  24.774  1.00  0.00     0.022 A 
BRANCH  65  68
ATOM     68  S   UNL A   1      48.590  27.548  22.354  1.00  0.00     0.127 S 
ATOM     69  O   UNL A   1      49.862  28.268  22.403  1.00  0.00    -0.237 OA
ATOM     70  O   UNL A   1      48.681  26.186  21.824  1.00  0.00    -0.237 OA
ATOM     71  O   UNL A   1      47.453  28.314  21.864  1.00  0.00    -0.744 OA
ENDBRANCH  65  68
ENDBRANCH  47  61
BRANCH  48  72
ATOM     72  C   UNL A   1      38.636  30.298  30.895  1.00  0.00     0.023 A 
ATOM     73  C   UNL A   1      38.501  30.044  32.274  1.00  0.00     0.012 A 
ATOM     74  C   UNL A   1      37.620  31.006  30.226  1.00  0.00     0.148 A 
ATOM     75  C   UNL A   1      37.370  30.470  32.971  1.00  0.00     0.002 A 
ATOM     76  C   UNL A   1      36.519  31.474  30.936  1.00  0.00     0.091 A 
ATOM     77  F   UNL A   1      37.758  31.225  28.910  1.00  0.00    -0.205 F 
ATOM     78  C   UNL A   1      36.386  31.196  32.306  1.00  0.00     0.022 A 
BRANCH  76  79
ATOM     79  S   UNL A   1      35.274  32.536  30.192  1.00  0.00     0.127 S 
ATOM     80  O   UNL A   1      34.826  31.725  29.063  1.00  0.00    -0.237 OA
ATOM     81  O   UNL A   1      34.303  32.673  31.278  1.00  0.00    -0.237 OA
ATOM     82  O   UNL A   1      35.969  33.770  29.853  1.00  0.00    -0.744 OA
ENDBRANCH  76  79
ENDBRANCH  48  72
BRANCH  60  83
ATOM     83  C   UNL A   1      44.685  33.464  29.368  1.00  0.00     0.023 A 
ATOM     84  C   UNL A   1      45.395  33.678  30.565  1.00  0.00     0.012 A 
ATOM     85  C   UNL A   1      44.604  34.496  28.414  1.00  0.00     0.148 A 
ATOM     86  C   UNL A   1      46.003  34.907  30.815  1.00  0.00     0.002 A 
ATOM     87  C   UNL A   1      45.250  35.705  28.652  1.00  0.00     0.091 A 
ATOM     88  F   UNL A   1      43.906  34.278  27.289  1.00  0.00    -0.205 F 
ATOM     89  C   UNL A   1      45.944  35.914  29.855  1.00  0.00     0.022 A 
BRANCH  87  90
ATOM     90  S   UNL A   1      45.307  37.018  27.427  1.00  0.00     0.127 S 
ATOM     91  O   UNL A   1      46.036  36.377  26.335  1.00  0.00    -0.237 OA
ATOM     92  O   UNL A   1      43.888  37.256  27.156  1.00  0.00    -0.237 OA
ATOM     93  O   UNL A   1      45.990  38.133  28.071  1.00  0.00    -0.744 OA
ENDBRANCH  87  90
ENDBRANCH  60  83
ENDBRANCH  34  35
ENDBRANCH  26  29
ENDBRANCH  24  25
ENDBRANCH   1  24
TORSDOF 15
ENDMDL
MODEL 2
REMARK VINA RESULT:     -13.1      5.435     10.090
REMARK SMILES Cc1cc(Br)cc2c1O[C@H](C(F)(F)F)C(C(=O)NCCCCNC(=O)c1ccc(-c3c4nc(c(-c5cccc(S(=O)(=O)[O-])c5F)c5ccc([nH]5)c(-c5cccc(S(=O)(=O)[O-])c5F)c5nc(c(-c6cccc(S(=O)(=O)[O-])c6F)c6ccc3[nH]6)C=C5)C=C4)cc1)=C2
REMARK SMILES IDX 21 1 20 2 19 3 18 4 16 5 17 6 15 8 1 9 2 10 3 11 8 12 4 13
REMARK SMILES IDX 7 14 9 15 5 16 6 17 89 18 10 19 11 20 12 21 13 22 14 23
REMARK SMILES IDX 22 24 23 25 24 26 25 28 26 29 27 30 88 31 28 32 87 33 29 34
REMARK SMILES IDX 30 35 31 36 81 37 32 38 86 39 80 40 82 41 33 42 85 43 79 44
REMARK SMILES IDX 78 45 34 47 66 48 46 49 65 50 47 51 50 52 64 53 83 54 48 55
REMARK SMILES IDX 49 56 63 58 84 59 51 60 35 61 36 62 44 63 37 64 39 65 45 66
REMARK SMILES IDX 38 67 40 68 41 69 42 70 43 71 67 72 68 73 76 74 69 75 71 76
REMARK SMILES IDX 77 77 70 78 72 79 73 80 74 81 75 82 52 83 53 84 61 85 54 86
REMARK SMILES IDX 56 87 62 88 55 89 57 90 58 91 59 92 60 93
REMARK H PARENT 18 7 23 27 82 46 50 57
REMARK Flexibility Score: inf
ROOT
ATOM      1  C   UNL A   1      33.109  29.399  25.083  1.00  0.00     0.023 C 
ENDROOT
BRANCH   1   2
ATOM      2  C   UNL A   1      33.664  27.982  24.910  1.00  0.00     0.023 C 
BRANCH   2   3
ATOM      3  C   UNL A   1      34.132  27.663  23.493  1.00  0.00     0.116 C 
BRANCH   3   4
ATOM      4  N   UNL A   1      33.626  26.385  23.027  1.00  0.00    -0.352 N 
ATOM      5  C   UNL A   1      32.416  25.827  22.788  1.00  0.00     0.251 C 
ATOM      6  O   UNL A   1      32.441  24.664  22.375  1.00  0.00    -0.270 OA
ATOM      7  H   UNL A   1      34.357  25.756  22.831  1.00  0.00     0.163 HD
BRANCH   5   8
ATOM      8  C   UNL A   1      31.098  26.505  22.984  1.00  0.00     0.067 C 
ATOM      9  C   UNL A   1      26.213  27.828  23.876  1.00  0.00     0.048 C 
ATOM     10  C   UNL A   1      27.407  28.509  23.271  1.00  0.00    -0.007 A 
ATOM     11  C   UNL A   1      27.331  29.852  22.877  1.00  0.00     0.023 A 
ATOM     12  C   UNL A   1      28.625  27.831  23.128  1.00  0.00     0.130 A 
ATOM     13  C   UNL A   1      28.447  30.486  22.332  1.00  0.00     0.019 A 
ATOM     14  C   UNL A   1      29.743  28.466  22.578  1.00  0.00     0.019 A 
ATOM     15  O   UNL A   1      28.657  26.515  23.501  1.00  0.00    -0.475 OA
ATOM     16  Br  UNL A   1      28.323  32.295  21.794  1.00  0.00    -0.051 Br
ATOM     17  C   UNL A   1      29.651  29.801  22.176  1.00  0.00     0.027 A 
ATOM     18  C   UNL A   1      30.980  27.714  22.405  1.00  0.00     0.025 C 
ATOM     19  C   UNL A   1      29.965  25.951  23.798  1.00  0.00     0.314 C 
BRANCH  19  20
ATOM     20  C   UNL A   1      30.217  26.044  25.315  1.00  0.00     0.429 C 
ATOM     21  F   UNL A   1      30.569  27.309  25.658  1.00  0.00    -0.167 F 
ATOM     22  F   UNL A   1      29.122  25.738  26.047  1.00  0.00    -0.167 F 
ATOM     23  F   UNL A   1      31.212  25.225  25.727  1.00  0.00    -0.167 F 
ENDBRANCH  19  20
ENDBRANCH   5   8
ENDBRANCH   3   4
ENDBRANCH   2   3
ENDBRANCH   1   2
BRANCH   1  24
ATOM     24  C   UNL A   1      32.644  29.758  26.495  1.00  0.00     0.116 C 
BRANCH  24  25
ATOM     25  N   UNL A   1      32.504  31.191  26.723  1.00  0.00    -0.352 N 
ATOM     26  C   UNL A   1      33.380  32.031  27.368  1.00  0.00     0.251 C 
ATOM     27  H   UNL A   1      31.683  31.606  26.372  1.00  0.00     0.163 HD
ATOM     28  O   UNL A   1      33.095  33.210  27.552  1.00  0.00    -0.269 OA
BRANCH  26  29
ATOM     29  C   UNL A   1      34.649  31.476  27.876  1.00  0.00     0.039 A 
ATOM     30  C   UNL A   1      35.752  32.322  28.001  1.00  0.00     0.014 A 
ATOM     31  C   UNL A   1      34.713  30.147  28.302  1.00  0.00     0.014 A 
ATOM     32  C   UNL A   1      36.906  31.853  28.631  1.00  0.00     0.010 A 
ATOM     33  C   UNL A   1      35.842  29.700  28.980  1.00  0.00     0.010 A 
ATOM     34  C   UNL A   1      36.943  30.551  29.158  1.00  0.00    -0.014 A 
BRANCH  34  35
ATOM     35  C   UNL A   1      38.115  30.068  29.928  1.00  0.00     0.031 A 
ATOM     36  C   UNL A   1      38.373  30.587  31.312  1.00  0.00     0.074 A 
ATOM     37  C   UNL A   1      38.990  29.225  29.343  1.00  0.00     0.049 A 
ATOM     38  N   UNL A   1      39.371  30.328  32.115  1.00  0.00    -0.248 NA
ATOM     39  C   UNL A   1      37.395  31.544  31.858  1.00  0.00     0.031 C 
ATOM     40  C   UNL A   1      38.880  28.710  27.976  1.00  0.00     0.029 A 
ATOM     41  N   UNL A   1      40.153  28.671  29.814  1.00  0.00    -0.354 N 
ATOM     42  C   UNL A   1      39.157  31.102  33.248  1.00  0.00     0.074 A 
ATOM     43  C   UNL A   1      37.955  31.872  33.014  1.00  0.00     0.031 C 
ATOM     44  C   UNL A   1      39.925  27.904  27.726  1.00  0.00     0.029 A 
ATOM     45  C   UNL A   1      40.790  27.862  28.902  1.00  0.00     0.049 A 
ATOM     46  H   UNL A   1      40.499  28.836  30.721  1.00  0.00     0.167 HD
ATOM     47  C   UNL A   1      39.874  31.140  34.394  1.00  0.00     0.034 A 
ATOM     48  C   UNL A   1      41.935  27.159  29.005  1.00  0.00     0.034 A 
ATOM     49  C   UNL A   1      41.040  30.335  34.639  1.00  0.00     0.049 A 
ATOM     50  C   UNL A   1      42.693  27.189  30.305  1.00  0.00     0.074 A 
ATOM     51  C   UNL A   1      41.799  30.254  35.793  1.00  0.00     0.029 A 
ATOM     52  N   UNL A   1      41.610  29.468  33.721  1.00  0.00    -0.354 N 
ATOM     53  N   UNL A   1      42.398  27.822  31.415  1.00  0.00    -0.248 NA
ATOM     54  C   UNL A   1      43.921  26.383  30.381  1.00  0.00     0.031 C 
ATOM     55  C   UNL A   1      42.830  29.337  35.570  1.00  0.00     0.029 A 
ATOM     56  C   UNL A   1      42.709  28.842  34.281  1.00  0.00     0.049 A 
ATOM     57  H   UNL A   1      41.281  29.319  32.805  1.00  0.00     0.167 HD
ATOM     58  C   UNL A   1      43.384  27.469  32.330  1.00  0.00     0.074 A 
ATOM     59  C   UNL A   1      44.274  26.548  31.650  1.00  0.00     0.031 C 
ATOM     60  C   UNL A   1      43.549  27.884  33.610  1.00  0.00     0.034 A 
BRANCH  47  61
ATOM     61  C   UNL A   1      39.369  32.019  35.505  1.00  0.00     0.023 A 
ATOM     62  C   UNL A   1      38.447  31.489  36.431  1.00  0.00     0.012 A 
ATOM     63  C   UNL A   1      39.845  33.333  35.678  1.00  0.00     0.148 A 
ATOM     64  C   UNL A   1      37.987  32.260  37.497  1.00  0.00     0.002 A 
ATOM     65  C   UNL A   1      39.412  34.082  36.766  1.00  0.00     0.091 A 
ATOM     66  F   UNL A   1      40.702  33.827  34.773  1.00  0.00    -0.205 F 
ATOM     67  C   UNL A   1      38.477  33.550  37.671  1.00  0.00     0.022 A 
BRANCH  65  68
ATOM     68  S   UNL A   1      40.038  35.729  37.119  1.00  0.00     0.127 S 
ATOM     69  O   UNL A   1      39.654  36.456  35.910  1.00  0.00    -0.237 OA
ATOM     70  O   UNL A   1      39.281  36.096  38.317  1.00  0.00    -0.237 OA
ATOM     71  O   UNL A   1      41.470  35.575  37.330  1.00  0.00    -0.744 OA
ENDBRANCH  65  68
ENDBRANCH  47  61
BRANCH  48  72
ATOM     72  C   UNL A   1      42.370  26.287  27.877  1.00  0.00     0.023 A 
ATOM     73  C   UNL A   1      43.337  26.774  26.975  1.00  0.00     0.012 A 
ATOM     74  C   UNL A   1      41.890  24.973  27.725  1.00  0.00     0.148 A 
ATOM     75  C   UNL A   1      43.804  25.975  25.932  1.00  0.00     0.002 A 
ATOM     76  C   UNL A   1      42.398  24.163  26.714  1.00  0.00     0.091 A 
ATOM     77  F   UNL A   1      40.959  24.533  28.583  1.00  0.00    -0.205 F 
ATOM     78  C   UNL A   1      43.346  24.666  25.808  1.00  0.00     0.022 A 
BRANCH  76  79
ATOM     79  S   UNL A   1      41.969  22.424  26.567  1.00  0.00     0.127 S 
ATOM     80  O   UNL A   1      42.599  21.859  27.757  1.00  0.00    -0.237 OA
ATOM     81  O   UNL A   1      40.507  22.467  26.604  1.00  0.00    -0.237 OA
ATOM     82  O   UNL A   1      42.522  21.994  25.289  1.00  0.00    -0.744 OA
ENDBRANCH  76  79
ENDBRANCH  48  72
BRANCH  60  83
ATOM     83  C   UNL A   1      44.725  27.345  34.380  1.00  0.00     0.023 A 
ATOM     84  C   UNL A   1      45.935  28.066  34.383  1.00  0.00     0.012 A 
ATOM     85  C   UNL A   1      44.596  26.201  35.190  1.00  0.00     0.148 A 
ATOM     86  C   UNL A   1      47.006  27.645  35.171  1.00  0.00     0.002 A 
ATOM     87  C   UNL A   1      45.653  25.813  36.006  1.00  0.00     0.091 A 
ATOM     88  F   UNL A   1      43.442  25.518  35.156  1.00  0.00    -0.205 F 
ATOM     89  C   UNL A   1      46.861  26.529  35.992  1.00  0.00     0.022 A 
BRANCH  87  90
ATOM     90  S   UNL A   1      45.516  24.447  37.166  1.00  0.00     0.127 S 
ATOM     91  O   UNL A   1      45.231  23.326  36.275  1.00  0.00    -0.237 OA
ATOM     92  O   UNL A   1      46.846  24.419  37.777  1.00  0.00    -0.237 OA
ATOM     93  O   UNL A   1      44.443  24.811  38.083  1.00  0.00    -0.744 OA
ENDBRANCH  87  90
ENDBRANCH  60  83
ENDBRANCH  34  35
ENDBRANCH  26  29
ENDBRANCH  24  25
ENDBRANCH   1  24
TORSDOF 15
ENDMDL
MODEL 3
REMARK VINA RESULT:     -13.0      5.232     10.177
REMARK SMILES Cc1cc(Br)cc2c1O[C@H](C(F)(F)F)C(C(=O)NCCCCNC(=O)c1ccc(-c3c4nc(c(-c5cccc(S(=O)(=O)[O-])c5F)c5ccc([nH]5)c(-c5cccc(S(=O)(=O)[O-])c5F)c5nc(c(-c6cccc(S(=O)(=O)[O-])c6F)c6ccc3[nH]6)C=C5)C=C4)cc1)=C2
REMARK SMILES IDX 21 1 20 2 19 3 18 4 16 5 17 6 15 8 1 9 2 10 3 11 8 12 4 13
REMARK SMILES IDX 7 14 9 15 5 16 6 17 89 18 10 19 11 20 12 21 13 22 14 23
REMARK SMILES IDX 22 24 23 25 24 26 25 28 26 29 27 30 88 31 28 32 87 33 29 34
REMARK SMILES IDX 30 35 31 36 81 37 32 38 86 39 80 40 82 41 33 42 85 43 79 44
REMARK SMILES IDX 78 45 34 47 66 48 46 49 65 50 47 51 50 52 64 53 83 54 48 55
REMARK SMILES IDX 49 56 63 58 84 59 51 60 35 61 36 62 44 63 37 64 39 65 45 66
REMARK SMILES IDX 38 67 40 68 41 69 42 70 43 71 67 72 68 73 76 74 69 75 71 76
REMARK SMILES IDX 77 77 70 78 72 79 73 80 74 81 75 82 52 83 53 84 61 85 54 86
REMARK SMILES IDX 56 87 62 88 55 89 57 90 58 91 59 92 60 93
REMARK H PARENT 18 7 23 27 82 46 50 57
REMARK Flexibility Score: inf
ROOT
ATOM      1  C   UNL A   1      31.402  29.310  25.347  1.00  0.00     0.023 C 
ENDROOT
BRANCH   1   2
ATOM      2  C   UNL A   1      31.715  28.176  24.366  1.00  0.00     0.023 C 
BRANCH   2   3
ATOM      3  C   UNL A   1      33.006  28.373  23.575  1.00  0.00     0.116 C 
BRANCH   3   4
ATOM      4  N   UNL A   1      33.092  27.470  22.441  1.00  0.00    -0.352 N 
ATOM      5  C   UNL A   1      33.264  26.142  22.244  1.00  0.00     0.251 C 
ATOM      6  O   UNL A   1      33.270  25.778  21.064  1.00  0.00    -0.270 OA
ATOM      7  H   UNL A   1      33.000  27.952  21.588  1.00  0.00     0.163 HD
BRANCH   5   8
ATOM      8  C   UNL A   1      33.437  25.123  23.323  1.00  0.00     0.067 C 
ATOM      9  C   UNL A   1      33.258  22.193  27.542  1.00  0.00     0.048 C 
ATOM     10  C   UNL A   1      34.197  22.326  26.377  1.00  0.00    -0.007 A 
ATOM     11  C   UNL A   1      35.289  21.459  26.247  1.00  0.00     0.023 A 
ATOM     12  C   UNL A   1      33.976  23.290  25.382  1.00  0.00     0.130 A 
ATOM     13  C   UNL A   1      36.149  21.575  25.155  1.00  0.00     0.019 A 
ATOM     14  C   UNL A   1      34.840  23.407  24.289  1.00  0.00     0.019 A 
ATOM     15  O   UNL A   1      32.914  24.134  25.554  1.00  0.00    -0.475 OA
ATOM     16  Br  UNL A   1      37.626  20.404  25.001  1.00  0.00    -0.051 Br
ATOM     17  C   UNL A   1      35.934  22.546  24.178  1.00  0.00     0.027 A 
ATOM     18  C   UNL A   1      34.602  24.449  23.298  1.00  0.00     0.025 C 
ATOM     19  C   UNL A   1      32.404  24.793  24.361  1.00  0.00     0.314 C 
BRANCH  19  20
ATOM     20  C   UNL A   1      31.232  23.969  23.796  1.00  0.00     0.429 C 
ATOM     21  F   UNL A   1      30.256  24.792  23.333  1.00  0.00    -0.167 F 
ATOM     22  F   UNL A   1      31.597  23.183  22.757  1.00  0.00    -0.167 F 
ATOM     23  F   UNL A   1      30.669  23.162  24.725  1.00  0.00    -0.167 F 
ENDBRANCH  19  20
ENDBRANCH   5   8
ENDBRANCH   3   4
ENDBRANCH   2   3
ENDBRANCH   1   2
BRANCH   1  24
ATOM     24  C   UNL A   1      32.617  29.988  25.982  1.00  0.00     0.116 C 
BRANCH  24  25
ATOM     25  N   UNL A   1      32.363  31.348  26.437  1.00  0.00    -0.352 N 
ATOM     26  C   UNL A   1      33.147  32.121  27.260  1.00  0.00     0.251 C 
ATOM     27  H   UNL A   1      31.531  31.764  26.115  1.00  0.00     0.163 HD
ATOM     28  O   UNL A   1      32.770  33.232  27.622  1.00  0.00    -0.269 OA
BRANCH  26  29
ATOM     29  C   UNL A   1      34.429  31.570  27.738  1.00  0.00     0.039 A 
ATOM     30  C   UNL A   1      35.502  32.440  27.944  1.00  0.00     0.014 A 
ATOM     31  C   UNL A   1      34.535  30.214  28.059  1.00  0.00     0.014 A 
ATOM     32  C   UNL A   1      36.665  31.961  28.549  1.00  0.00     0.010 A 
ATOM     33  C   UNL A   1      35.672  29.753  28.713  1.00  0.00     0.010 A 
ATOM     34  C   UNL A   1      36.741  30.623  28.972  1.00  0.00    -0.014 A 
BRANCH  34  35
ATOM     35  C   UNL A   1      37.922  30.119  29.715  1.00  0.00     0.031 A 
ATOM     36  C   UNL A   1      38.198  30.605  31.108  1.00  0.00     0.074 A 
ATOM     37  C   UNL A   1      38.787  29.290  29.100  1.00  0.00     0.049 A 
ATOM     38  N   UNL A   1      39.204  30.325  31.893  1.00  0.00    -0.248 NA
ATOM     39  C   UNL A   1      37.228  31.551  31.689  1.00  0.00     0.031 C 
ATOM     40  C   UNL A   1      38.660  28.807  27.723  1.00  0.00     0.029 A 
ATOM     41  N   UNL A   1      39.955  28.722  29.544  1.00  0.00    -0.354 N 
ATOM     42  C   UNL A   1      39.006  31.072  33.046  1.00  0.00     0.074 A 
ATOM     43  C   UNL A   1      37.803  31.850  32.846  1.00  0.00     0.031 C 
ATOM     44  C   UNL A   1      39.699  28.006  27.440  1.00  0.00     0.029 A 
ATOM     45  C   UNL A   1      40.579  27.934  28.604  1.00  0.00     0.049 A 
ATOM     46  H   UNL A   1      40.312  28.865  30.449  1.00  0.00     0.167 HD
ATOM     47  C   UNL A   1      39.737  31.081  34.184  1.00  0.00     0.034 A 
ATOM     48  C   UNL A   1      41.724  27.227  28.676  1.00  0.00     0.034 A 
ATOM     49  C   UNL A   1      40.904  30.269  34.396  1.00  0.00     0.049 A 
ATOM     50  C   UNL A   1      42.498  27.224  29.967  1.00  0.00     0.074 A 
ATOM     51  C   UNL A   1      41.677  30.158  35.537  1.00  0.00     0.029 A 
ATOM     52  N   UNL A   1      41.461  29.422  33.449  1.00  0.00    -0.354 N 
ATOM     53  N   UNL A   1      42.218  27.831  31.096  1.00  0.00    -0.248 NA
ATOM     54  C   UNL A   1      43.725  26.415  30.009  1.00  0.00     0.031 C 
ATOM     55  C   UNL A   1      42.704  29.245  35.280  1.00  0.00     0.029 A 
ATOM     56  C   UNL A   1      42.566  28.782  33.981  1.00  0.00     0.049 A 
ATOM     57  H   UNL A   1      41.120  29.296  32.535  1.00  0.00     0.167 HD
ATOM     58  C   UNL A   1      43.214  27.454  31.989  1.00  0.00     0.074 A 
ATOM     59  C   UNL A   1      44.093  26.549  31.277  1.00  0.00     0.031 C 
ATOM     60  C   UNL A   1      43.395  27.838  33.277  1.00  0.00     0.034 A 
BRANCH  47  61
ATOM     61  C   UNL A   1      39.248  31.935  35.322  1.00  0.00     0.023 A 
ATOM     62  C   UNL A   1      38.331  31.386  36.243  1.00  0.00     0.012 A 
ATOM     63  C   UNL A   1      39.733  33.241  35.523  1.00  0.00     0.148 A 
ATOM     64  C   UNL A   1      37.886  32.132  37.332  1.00  0.00     0.002 A 
ATOM     65  C   UNL A   1      39.314  33.965  36.634  1.00  0.00     0.091 A 
ATOM     66  F   UNL A   1      40.584  33.754  34.623  1.00  0.00    -0.205 F 
ATOM     67  C   UNL A   1      38.385  33.415  37.534  1.00  0.00     0.022 A 
BRANCH  65  68
ATOM     68  S   UNL A   1      39.953  35.598  37.023  1.00  0.00     0.127 S 
ATOM     69  O   UNL A   1      39.228  35.912  38.254  1.00  0.00    -0.237 OA
ATOM     70  O   UNL A   1      41.381  35.336  37.208  1.00  0.00    -0.237 OA
ATOM     71  O   UNL A   1      39.634  36.437  35.876  1.00  0.00    -0.744 OA
ENDBRANCH  65  68
ENDBRANCH  47  61
BRANCH  48  72
ATOM     72  C   UNL A   1      42.143  26.381  27.523  1.00  0.00     0.023 A 
ATOM     73  C   UNL A   1      42.971  26.945  26.532  1.00  0.00     0.012 A 
ATOM     74  C   UNL A   1      41.788  25.022  27.428  1.00  0.00     0.148 A 
ATOM     75  C   UNL A   1      43.423  26.177  25.459  1.00  0.00     0.002 A 
ATOM     76  C   UNL A   1      42.284  24.248  26.384  1.00  0.00     0.091 A 
ATOM     77  F   UNL A   1      40.987  24.508  28.371  1.00  0.00    -0.205 F 
ATOM     78  C   UNL A   1      43.090  24.826  25.391  1.00  0.00     0.022 A 
BRANCH  76  79
ATOM     79  S   UNL A   1      42.022  22.472  26.294  1.00  0.00     0.127 S 
ATOM     80  O   UNL A   1      42.645  22.016  27.534  1.00  0.00    -0.237 OA
ATOM     81  O   UNL A   1      40.562  22.380  26.266  1.00  0.00    -0.237 OA
ATOM     82  O   UNL A   1      42.671  22.046  25.062  1.00  0.00    -0.744 OA
ENDBRANCH  76  79
ENDBRANCH  48  72
BRANCH  60  83
ATOM     83  C   UNL A   1      44.580  27.279  34.019  1.00  0.00     0.023 A 
ATOM     84  C   UNL A   1      45.794  27.993  34.018  1.00  0.00     0.012 A 
ATOM     85  C   UNL A   1      44.456  26.121  34.810  1.00  0.00     0.148 A 
ATOM     86  C   UNL A   1      46.874  27.552  34.782  1.00  0.00     0.002 A 
ATOM     87  C   UNL A   1      45.523  25.712  35.603  1.00  0.00     0.091 A 
ATOM     88  F   UNL A   1      43.298  25.445  34.781  1.00  0.00    -0.205 F 
ATOM     89  C   UNL A   1      46.734  26.422  35.585  1.00  0.00     0.022 A 
BRANCH  87  90
ATOM     90  S   UNL A   1      45.395  24.326  36.740  1.00  0.00     0.127 S 
ATOM     91  O   UNL A   1      46.664  24.413  37.460  1.00  0.00    -0.237 OA
ATOM     92  O   UNL A   1      44.217  24.679  37.535  1.00  0.00    -0.237 OA
ATOM     93  O   UNL A   1      45.224  23.143  35.907  1.00  0.00    -0.744 OA
ENDBRANCH  87  90
ENDBRANCH  60  83
ENDBRANCH  34  35
ENDBRANCH  26  29
ENDBRANCH  24  25
ENDBRANCH   1  24
TORSDOF 15
ENDMDL
