MODEL 1
REMARK VINA RESULT:     -12.4      0.000      0.000
REMARK SMILES O=C(NCCCCNC(=O)c1ccc2c(=O)n(CCC[NH+]3CCOCC3)c(=O)[nH]c2c1)c1ccc(-c2c3nc(c(-c4cccc(S(=O)(=O)[O-])c4F)c4ccc([nH]4)c(-c4cccc(S(=O)(=O)[O-])c4F)c4nc(c(-c5cccc(S(=O)(=O)[O-])c5F)c5ccc2[nH]5)C=C4)C=C3)cc1
REMARK SMILES IDX 6 1 5 2 4 3 3 4 1 5 2 6 32 8 33 9 94 10 34 11 93 12 35 13
REMARK SMILES IDX 36 14 37 15 87 16 38 17 92 18 86 19 88 20 39 21 91 22 85 23
REMARK SMILES IDX 84 24 40 26 72 27 52 28 71 29 53 30 56 31 70 32 89 33 54 34
REMARK SMILES IDX 55 35 69 37 90 38 57 39 41 40 42 41 50 42 43 43 45 44 51 45
REMARK SMILES IDX 44 46 46 47 47 48 48 49 49 50 73 51 74 52 82 53 75 54 77 55
REMARK SMILES IDX 83 56 76 57 78 58 79 59 80 60 81 61 58 62 59 63 67 64 60 65
REMARK SMILES IDX 62 66 68 67 61 68 63 69 64 70 65 71 66 72 7 73 8 74 9 75
REMARK SMILES IDX 10 77 11 78 12 79 31 80 13 81 30 82 14 83 29 84 15 85 27 86
REMARK SMILES IDX 16 88 17 89 28 90 18 91 19 92 20 93 21 94 22 95 26 96 23 98
REMARK SMILES IDX 25 99 24 100
REMARK H PARENT 3 7 88 25 56 36 8 76 29 87 21 97
REMARK Flexibility Score: inf
ROOT
ATOM      1  C   UNL A   1      32.886  29.671  24.950  1.00  0.00     0.023 C 
ENDROOT
BRANCH   1   2
ATOM      2  C   UNL A   1      33.572  28.544  25.723  1.00  0.00     0.023 C 
BRANCH   2   3
ATOM      3  C   UNL A   1      33.701  28.781  27.224  1.00  0.00     0.116 C 
BRANCH   3   4
ATOM      4  N   UNL A   1      33.770  30.197  27.544  1.00  0.00    -0.352 N 
ATOM      5  O   UNL A   1      34.533  32.036  28.588  1.00  0.00    -0.269 OA
ATOM      6  C   UNL A   1      34.749  30.885  28.216  1.00  0.00     0.251 C 
ATOM      7  H   UNL A   1      33.008  30.739  27.236  1.00  0.00     0.163 HD
BRANCH   6   8
ATOM      8  C   UNL A   1      36.055  30.247  28.489  1.00  0.00     0.039 A 
ATOM      9  C   UNL A   1      36.244  29.588  29.708  1.00  0.00     0.014 A 
ATOM     10  C   UNL A   1      37.111  30.356  27.578  1.00  0.00     0.014 A 
ATOM     11  C   UNL A   1      37.489  29.028  30.009  1.00  0.00     0.010 A 
ATOM     12  C   UNL A   1      38.328  29.740  27.850  1.00  0.00     0.010 A 
ATOM     13  C   UNL A   1      38.539  29.104  29.082  1.00  0.00    -0.014 A 
BRANCH  13  14
ATOM     14  C   UNL A   1      39.901  28.623  29.414  1.00  0.00     0.031 A 
ATOM     15  C   UNL A   1      40.694  29.339  30.473  1.00  0.00     0.074 A 
ATOM     16  C   UNL A   1      40.446  27.590  28.747  1.00  0.00     0.049 A 
ATOM     17  N   UNL A   1      41.941  29.173  30.826  1.00  0.00    -0.248 NA
ATOM     18  C   UNL A   1      39.994  30.399  31.220  1.00  0.00     0.031 C 
ATOM     19  C   UNL A   1      39.788  26.823  27.691  1.00  0.00     0.029 A 
ATOM     20  N   UNL A   1      41.691  27.022  28.851  1.00  0.00    -0.354 N 
ATOM     21  C   UNL A   1      42.185  30.125  31.807  1.00  0.00     0.074 A 
ATOM     22  C   UNL A   1      40.968  30.889  31.972  1.00  0.00     0.031 C 
ATOM     23  C   UNL A   1      40.633  25.876  27.248  1.00  0.00     0.029 A 
ATOM     24  C   UNL A   1      41.901  25.994  27.966  1.00  0.00     0.049 A 
ATOM     25  H   UNL A   1      42.368  27.322  29.500  1.00  0.00     0.167 HD
ATOM     26  C   UNL A   1      43.308  30.326  32.535  1.00  0.00     0.034 A 
ATOM     27  C   UNL A   1      42.995  25.237  27.748  1.00  0.00     0.034 A 
ATOM     28  C   UNL A   1      44.501  29.538  32.412  1.00  0.00     0.049 A 
ATOM     29  C   UNL A   1      44.234  25.477  28.563  1.00  0.00     0.074 A 
ATOM     30  C   UNL A   1      45.681  29.646  33.125  1.00  0.00     0.029 A 
ATOM     31  N   UNL A   1      44.662  28.484  31.526  1.00  0.00    -0.354 N 
ATOM     32  N   UNL A   1      44.434  26.353  29.518  1.00  0.00    -0.248 NA
ATOM     33  C   UNL A   1      45.392  24.615  28.283  1.00  0.00     0.031 C 
ATOM     34  C   UNL A   1      46.556  28.654  32.671  1.00  0.00     0.029 A 
ATOM     35  C   UNL A   1      45.918  27.925  31.679  1.00  0.00     0.049 A 
ATOM     36  H   UNL A   1      43.982  28.179  30.881  1.00  0.00     0.167 HD
ATOM     37  C   UNL A   1      45.732  26.142  29.965  1.00  0.00     0.074 A 
ATOM     38  C   UNL A   1      46.267  25.041  29.187  1.00  0.00     0.031 C 
ATOM     39  C   UNL A   1      46.424  26.811  30.920  1.00  0.00     0.034 A 
BRANCH  26  40
ATOM     40  C   UNL A   1      43.265  31.405  33.582  1.00  0.00     0.023 A 
ATOM     41  C   UNL A   1      43.769  32.683  33.269  1.00  0.00     0.012 A 
ATOM     42  C   UNL A   1      42.707  31.170  34.853  1.00  0.00     0.148 A 
ATOM     43  C   UNL A   1      43.742  33.708  34.213  1.00  0.00     0.002 A 
ATOM     44  C   UNL A   1      42.653  32.207  35.778  1.00  0.00     0.091 A 
ATOM     45  F   UNL A   1      42.256  29.941  35.137  1.00  0.00    -0.205 F 
ATOM     46  C   UNL A   1      43.177  33.473  35.462  1.00  0.00     0.022 A 
BRANCH  44  47
ATOM     47  S   UNL A   1      41.905  32.023  37.401  1.00  0.00     0.127 S 
ATOM     48  O   UNL A   1      42.028  33.378  37.937  1.00  0.00    -0.237 OA
ATOM     49  O   UNL A   1      40.538  31.622  37.065  1.00  0.00    -0.237 OA
ATOM     50  O   UNL A   1      42.686  31.007  38.092  1.00  0.00    -0.744 OA
ENDBRANCH  44  47
ENDBRANCH  26  40
BRANCH  27  51
ATOM     51  C   UNL A   1      42.918  24.136  26.752  1.00  0.00     0.023 A 
ATOM     52  C   UNL A   1      43.598  24.279  25.528  1.00  0.00     0.012 A 
ATOM     53  C   UNL A   1      42.275  22.920  27.051  1.00  0.00     0.148 A 
ATOM     54  C   UNL A   1      43.642  23.223  24.617  1.00  0.00     0.002 A 
ATOM     55  C   UNL A   1      42.355  21.861  26.156  1.00  0.00     0.091 A 
ATOM     56  F   UNL A   1      41.643  22.812  28.229  1.00  0.00    -0.205 F 
ATOM     57  C   UNL A   1      43.031  22.013  24.934  1.00  0.00     0.022 A 
BRANCH  55  58
ATOM     58  S   UNL A   1      41.693  20.230  26.515  1.00  0.00     0.127 S 
ATOM     59  O   UNL A   1      40.254  20.488  26.535  1.00  0.00    -0.237 OA
ATOM     60  O   UNL A   1      42.165  19.461  25.364  1.00  0.00    -0.237 OA
ATOM     61  O   UNL A   1      42.268  19.840  27.794  1.00  0.00    -0.744 OA
ENDBRANCH  55  58
ENDBRANCH  27  51
BRANCH  39  62
ATOM     62  C   UNL A   1      47.842  26.383  31.189  1.00  0.00     0.023 A 
ATOM     63  C   UNL A   1      48.877  26.891  30.381  1.00  0.00     0.012 A 
ATOM     64  C   UNL A   1      48.157  25.571  32.295  1.00  0.00     0.148 A 
ATOM     65  C   UNL A   1      50.208  26.584  30.661  1.00  0.00     0.002 A 
ATOM     66  C   UNL A   1      49.487  25.296  32.588  1.00  0.00     0.091 A 
ATOM     67  F   UNL A   1      47.151  25.091  33.042  1.00  0.00    -0.205 F 
ATOM     68  C   UNL A   1      50.513  25.797  31.769  1.00  0.00     0.022 A 
BRANCH  66  69
ATOM     69  S   UNL A   1      49.984  24.351  34.034  1.00  0.00     0.127 S 
ATOM     70  O   UNL A   1      51.438  24.334  33.891  1.00  0.00    -0.237 OA
ATOM     71  O   UNL A   1      49.488  25.182  35.132  1.00  0.00    -0.237 OA
ATOM     72  O   UNL A   1      49.330  23.055  33.912  1.00  0.00    -0.744 OA
ENDBRANCH  66  69
ENDBRANCH  39  62
ENDBRANCH  13  14
ENDBRANCH   6   8
ENDBRANCH   3   4
ENDBRANCH   2   3
ENDBRANCH   1   2
BRANCH   1  73
ATOM     73  C   UNL A   1      31.381  29.779  25.175  1.00  0.00     0.116 C 
BRANCH  73  74
ATOM     74  N   UNL A   1      30.650  29.875  23.921  1.00  0.00    -0.352 N 
ATOM     75  C   UNL A   1      30.395  28.893  23.003  1.00  0.00     0.251 C 
ATOM     76  H   UNL A   1      30.291  30.767  23.703  1.00  0.00     0.163 HD
ATOM     77  O   UNL A   1      29.929  29.146  21.898  1.00  0.00    -0.269 OA
BRANCH  75  78
ATOM     78  C   UNL A   1      30.703  27.500  23.354  1.00  0.00     0.041 A 
ATOM     79  C   UNL A   1      29.970  26.861  24.362  1.00  0.00     0.015 A 
ATOM     80  C   UNL A   1      31.736  26.849  22.671  1.00  0.00     0.040 A 
ATOM     81  C   UNL A   1      30.288  25.553  24.708  1.00  0.00     0.017 A 
ATOM     82  C   UNL A   1      32.072  25.558  23.055  1.00  0.00     0.056 A 
ATOM     83  C   UNL A   1      31.341  24.916  24.046  1.00  0.00     0.064 A 
ATOM     84  N   UNL A   1      33.144  24.889  22.472  1.00  0.00    -0.307 N 
ATOM     85  C   UNL A   1      31.685  23.526  24.346  1.00  0.00     0.264 A 
ATOM     86  C   UNL A   1      33.629  23.691  22.930  1.00  0.00     0.328 A 
ATOM     87  H   UNL A   1      33.580  25.298  21.690  1.00  0.00     0.171 HD
ATOM     88  O   UNL A   1      30.806  22.813  24.813  1.00  0.00    -0.268 OA
ATOM     89  N   UNL A   1      32.965  23.119  24.010  1.00  0.00    -0.260 N 
ATOM     90  O   UNL A   1      34.589  23.181  22.355  1.00  0.00    -0.248 OA
BRANCH  89  91
ATOM     91  C   UNL A   1      33.464  21.844  24.525  1.00  0.00     0.137 C 
BRANCH  91  92
ATOM     92  C   UNL A   1      32.935  20.562  23.855  1.00  0.00     0.083 C 
BRANCH  92  93
ATOM     93  C   UNL A   1      32.525  19.318  24.670  1.00  0.00     0.264 C 
BRANCH  93  94
ATOM     94  N   UNL A   1      33.467  18.356  25.251  1.00  0.00    -0.331 N 
ATOM     95  C   UNL A   1      34.578  17.968  24.370  1.00  0.00     0.291 C 
ATOM     96  C   UNL A   1      32.975  17.164  25.941  1.00  0.00     0.291 C 
ATOM     97  H   UNL A   1      33.788  18.965  26.004  1.00  0.00     0.348 HD
ATOM     98  C   UNL A   1      34.199  16.819  23.425  1.00  0.00     0.221 C 
ATOM     99  C   UNL A   1      32.610  16.021  24.983  1.00  0.00     0.221 C 
ATOM    100  O   UNL A   1      33.720  15.671  24.143  1.00  0.00    -0.370 OA
ENDBRANCH  93  94
ENDBRANCH  92  93
ENDBRANCH  91  92
ENDBRANCH  89  91
ENDBRANCH  75  78
ENDBRANCH  73  74
ENDBRANCH   1  73
TORSDOF 18
ENDMDL
MODEL 2
REMARK VINA RESULT:     -12.4      4.015      9.680
REMARK SMILES O=C(NCCCCNC(=O)c1ccc2c(=O)n(CCC[NH+]3CCOCC3)c(=O)[nH]c2c1)c1ccc(-c2c3nc(c(-c4cccc(S(=O)(=O)[O-])c4F)c4ccc([nH]4)c(-c4cccc(S(=O)(=O)[O-])c4F)c4nc(c(-c5cccc(S(=O)(=O)[O-])c5F)c5ccc2[nH]5)C=C4)C=C3)cc1
REMARK SMILES IDX 6 1 5 2 4 3 3 4 1 5 2 6 32 8 33 9 94 10 34 11 93 12 35 13
REMARK SMILES IDX 36 14 37 15 87 16 38 17 92 18 86 19 88 20 39 21 91 22 85 23
REMARK SMILES IDX 84 24 40 26 72 27 52 28 71 29 53 30 56 31 70 32 89 33 54 34
REMARK SMILES IDX 55 35 69 37 90 38 57 39 41 40 42 41 50 42 43 43 45 44 51 45
REMARK SMILES IDX 44 46 46 47 47 48 48 49 49 50 73 51 74 52 82 53 75 54 77 55
REMARK SMILES IDX 83 56 76 57 78 58 79 59 80 60 81 61 58 62 59 63 67 64 60 65
REMARK SMILES IDX 62 66 68 67 61 68 63 69 64 70 65 71 66 72 7 73 8 74 9 75
REMARK SMILES IDX 10 77 11 78 12 79 31 80 13 81 30 82 14 83 29 84 15 85 27 86
REMARK SMILES IDX 16 88 17 89 28 90 18 91 19 92 20 93 21 94 22 95 26 96 23 98
REMARK SMILES IDX 25 99 24 100
REMARK H PARENT 3 7 88 25 56 36 8 76 29 87 21 97
REMARK Flexibility Score: inf
ROOT
ATOM      1  C   UNL A   1      35.474  21.825  26.669  1.00  0.00     0.023 C 
ENDROOT
BRANCH   1   2
ATOM      2  C   UNL A   1      35.759  23.148  25.955  1.00  0.00     0.023 C 
BRANCH   2   3
ATOM      3  C   UNL A   1      37.108  23.217  25.248  1.00  0.00     0.116 C 
BRANCH   3   4
ATOM      4  N   UNL A   1      38.085  22.329  25.855  1.00  0.00    -0.352 N 
ATOM      5  O   UNL A   1      40.052  21.757  26.781  1.00  0.00    -0.269 OA
ATOM      6  C   UNL A   1      39.237  22.642  26.531  1.00  0.00     0.251 C 
ATOM      7  H   UNL A   1      37.892  21.367  25.770  1.00  0.00     0.163 HD
BRANCH   6   8
ATOM      8  C   UNL A   1      39.496  24.034  26.959  1.00  0.00     0.039 A 
ATOM      9  C   UNL A   1      40.064  24.927  26.045  1.00  0.00     0.014 A 
ATOM     10  C   UNL A   1      39.243  24.439  28.273  1.00  0.00     0.014 A 
ATOM     11  C   UNL A   1      40.369  26.230  26.445  1.00  0.00     0.010 A 
ATOM     12  C   UNL A   1      39.484  25.756  28.651  1.00  0.00     0.010 A 
ATOM     13  C   UNL A   1      40.084  26.651  27.752  1.00  0.00    -0.014 A 
BRANCH  13  14
ATOM     14  C   UNL A   1      40.496  27.987  28.244  1.00  0.00     0.031 A 
ATOM     15  C   UNL A   1      41.959  28.342  28.262  1.00  0.00     0.074 A 
ATOM     16  C   UNL A   1      39.586  28.858  28.715  1.00  0.00     0.049 A 
ATOM     17  N   UNL A   1      42.548  29.393  28.768  1.00  0.00    -0.248 NA
ATOM     18  C   UNL A   1      42.882  27.374  27.645  1.00  0.00     0.031 C 
ATOM     19  C   UNL A   1      38.143  28.629  28.765  1.00  0.00     0.029 A 
ATOM     20  N   UNL A   1      39.749  30.107  29.258  1.00  0.00    -0.354 N 
ATOM     21  C   UNL A   1      43.907  29.196  28.564  1.00  0.00     0.074 A 
ATOM     22  C   UNL A   1      44.061  27.912  27.917  1.00  0.00     0.031 C 
ATOM     23  C   UNL A   1      37.548  29.708  29.302  1.00  0.00     0.029 A 
ATOM     24  C   UNL A   1      38.572  30.686  29.665  1.00  0.00     0.049 A 
ATOM     25  H   UNL A   1      40.625  30.547  29.347  1.00  0.00     0.167 HD
ATOM     26  C   UNL A   1      44.938  30.024  28.853  1.00  0.00     0.034 A 
ATOM     27  C   UNL A   1      38.343  31.868  30.270  1.00  0.00     0.034 A 
ATOM     28  C   UNL A   1      44.787  31.322  29.447  1.00  0.00     0.049 A 
ATOM     29  C   UNL A   1      39.499  32.773  30.588  1.00  0.00     0.074 A 
ATOM     30  C   UNL A   1      45.769  32.248  29.753  1.00  0.00     0.029 A 
ATOM     31  N   UNL A   1      43.575  31.886  29.814  1.00  0.00    -0.354 N 
ATOM     32  N   UNL A   1      40.775  32.592  30.347  1.00  0.00    -0.248 NA
ATOM     33  C   UNL A   1      39.184  34.051  31.242  1.00  0.00     0.031 C 
ATOM     34  C   UNL A   1      45.149  33.374  30.303  1.00  0.00     0.029 A 
ATOM     35  C   UNL A   1      43.780  33.152  30.334  1.00  0.00     0.049 A 
ATOM     36  H   UNL A   1      42.697  31.450  29.719  1.00  0.00     0.167 HD
ATOM     37  C   UNL A   1      41.416  33.736  30.807  1.00  0.00     0.074 A 
ATOM     38  C   UNL A   1      40.384  34.613  31.325  1.00  0.00     0.031 C 
ATOM     39  C   UNL A   1      42.741  34.024  30.816  1.00  0.00     0.034 A 
BRANCH  26  40
ATOM     40  C   UNL A   1      46.317  29.571  28.459  1.00  0.00     0.023 A 
ATOM     41  C   UNL A   1      46.839  29.973  27.213  1.00  0.00     0.012 A 
ATOM     42  C   UNL A   1      47.102  28.782  29.320  1.00  0.00     0.148 A 
ATOM     43  C   UNL A   1      48.115  29.575  26.816  1.00  0.00     0.002 A 
ATOM     44  C   UNL A   1      48.387  28.417  28.932  1.00  0.00     0.091 A 
ATOM     45  F   UNL A   1      46.576  28.392  30.489  1.00  0.00    -0.205 F 
ATOM     46  C   UNL A   1      48.890  28.806  27.678  1.00  0.00     0.022 A 
BRANCH  44  47
ATOM     47  S   UNL A   1      49.487  27.465  29.985  1.00  0.00     0.127 S 
ATOM     48  O   UNL A   1      48.774  26.192  30.081  1.00  0.00    -0.237 OA
ATOM     49  O   UNL A   1      50.712  27.419  29.185  1.00  0.00    -0.237 OA
ATOM     50  O   UNL A   1      49.601  28.212  31.229  1.00  0.00    -0.744 OA
ENDBRANCH  44  47
ENDBRANCH  26  40
BRANCH  27  51
ATOM     51  C   UNL A   1      36.938  32.273  30.544  1.00  0.00     0.023 A 
ATOM     52  C   UNL A   1      36.432  32.130  31.850  1.00  0.00     0.012 A 
ATOM     53  C   UNL A   1      36.148  32.892  29.556  1.00  0.00     0.148 A 
ATOM     54  C   UNL A   1      35.159  32.602  32.169  1.00  0.00     0.002 A 
ATOM     55  C   UNL A   1      34.896  33.393  29.892  1.00  0.00     0.091 A 
ATOM     56  F   UNL A   1      36.661  33.020  28.324  1.00  0.00    -0.205 F 
ATOM     57  C   UNL A   1      34.396  33.241  31.196  1.00  0.00     0.022 A 
BRANCH  55  58
ATOM     58  S   UNL A   1      33.880  34.324  28.740  1.00  0.00     0.127 S 
ATOM     59  O   UNL A   1      32.767  34.741  29.592  1.00  0.00    -0.237 OA
ATOM     60  O   UNL A   1      34.791  35.398  28.345  1.00  0.00    -0.237 OA
ATOM     61  O   UNL A   1      33.529  33.394  27.677  1.00  0.00    -0.744 OA
ENDBRANCH  55  58
ENDBRANCH  27  51
BRANCH  39  62
ATOM     62  C   UNL A   1      43.168  35.342  31.404  1.00  0.00     0.023 A 
ATOM     63  C   UNL A   1      43.411  35.430  32.789  1.00  0.00     0.012 A 
ATOM     64  C   UNL A   1      43.428  36.454  30.580  1.00  0.00     0.148 A 
ATOM     65  C   UNL A   1      43.894  36.612  33.348  1.00  0.00     0.002 A 
ATOM     66  C   UNL A   1      43.941  37.619  31.140  1.00  0.00     0.091 A 
ATOM     67  F   UNL A   1      43.178  36.348  29.266  1.00  0.00    -0.205 F 
ATOM     68  C   UNL A   1      44.168  37.701  32.523  1.00  0.00     0.022 A 
BRANCH  66  69
ATOM     69  S   UNL A   1      44.393  39.049  30.150  1.00  0.00     0.127 S 
ATOM     70  O   UNL A   1      45.365  38.472  29.223  1.00  0.00    -0.237 OA
ATOM     71  O   UNL A   1      43.116  39.421  29.542  1.00  0.00    -0.237 OA
ATOM     72  O   UNL A   1      44.928  40.031  31.084  1.00  0.00    -0.744 OA
ENDBRANCH  66  69
ENDBRANCH  39  62
ENDBRANCH  13  14
ENDBRANCH   6   8
ENDBRANCH   3   4
ENDBRANCH   2   3
ENDBRANCH   1   2
BRANCH   1  73
ATOM     73  C   UNL A   1      34.011  21.600  27.040  1.00  0.00     0.116 C 
BRANCH  73  74
ATOM     74  N   UNL A   1      33.442  20.460  26.338  1.00  0.00    -0.352 N 
ATOM     75  C   UNL A   1      32.629  20.454  25.238  1.00  0.00     0.251 C 
ATOM     76  H   UNL A   1      33.673  19.575  26.703  1.00  0.00     0.163 HD
ATOM     77  O   UNL A   1      32.066  19.434  24.855  1.00  0.00    -0.269 OA
BRANCH  75  78
ATOM     78  C   UNL A   1      32.417  21.711  24.507  1.00  0.00     0.041 A 
ATOM     79  C   UNL A   1      33.343  22.111  23.534  1.00  0.00     0.015 A 
ATOM     80  C   UNL A   1      31.292  22.484  24.813  1.00  0.00     0.040 A 
ATOM     81  C   UNL A   1      33.152  23.316  22.869  1.00  0.00     0.017 A 
ATOM     82  C   UNL A   1      31.135  23.706  24.172  1.00  0.00     0.056 A 
ATOM     83  C   UNL A   1      32.044  24.101  23.199  1.00  0.00     0.064 A 
ATOM     84  N   UNL A   1      30.083  24.558  24.495  1.00  0.00    -0.307 N 
ATOM     85  C   UNL A   1      31.777  25.356  22.496  1.00  0.00     0.264 A 
ATOM     86  C   UNL A   1      29.978  25.842  24.026  1.00  0.00     0.328 A 
ATOM     87  H   UNL A   1      29.377  24.222  25.093  1.00  0.00     0.171 HD
ATOM     88  O   UNL A   1      32.234  25.482  21.368  1.00  0.00    -0.268 OA
ATOM     89  N   UNL A   1      30.969  26.272  23.150  1.00  0.00    -0.260 N 
ATOM     90  O   UNL A   1      29.016  26.524  24.375  1.00  0.00    -0.248 OA
BRANCH  89  91
ATOM     91  C   UNL A   1      30.887  27.640  22.638  1.00  0.00     0.137 C 
BRANCH  91  92
ATOM     92  C   UNL A   1      31.698  28.717  23.385  1.00  0.00     0.083 C 
BRANCH  92  93
ATOM     93  C   UNL A   1      31.193  29.366  24.691  1.00  0.00     0.264 C 
BRANCH  93  94
ATOM     94  N   UNL A   1      31.553  28.912  26.038  1.00  0.00    -0.331 N 
ATOM     95  C   UNL A   1      32.218  29.921  26.874  1.00  0.00     0.291 C 
ATOM     96  C   UNL A   1      32.222  27.625  26.231  1.00  0.00     0.291 C 
ATOM     97  H   UNL A   1      30.597  28.745  26.352  1.00  0.00     0.348 HD
ATOM     98  C   UNL A   1      33.735  29.970  26.634  1.00  0.00     0.221 C 
ATOM     99  C   UNL A   1      33.738  27.693  25.997  1.00  0.00     0.221 C 
ATOM    100  O   UNL A   1      34.349  28.687  26.832  1.00  0.00    -0.370 OA
ENDBRANCH  93  94
ENDBRANCH  92  93
ENDBRANCH  91  92
ENDBRANCH  89  91
ENDBRANCH  75  78
ENDBRANCH  73  74
ENDBRANCH   1  73
TORSDOF 18
ENDMDL
MODEL 3
REMARK VINA RESULT:     -12.2      5.010      8.660
REMARK SMILES O=C(NCCCCNC(=O)c1ccc2c(=O)n(CCC[NH+]3CCOCC3)c(=O)[nH]c2c1)c1ccc(-c2c3nc(c(-c4cccc(S(=O)(=O)[O-])c4F)c4ccc([nH]4)c(-c4cccc(S(=O)(=O)[O-])c4F)c4nc(c(-c5cccc(S(=O)(=O)[O-])c5F)c5ccc2[nH]5)C=C4)C=C3)cc1
REMARK SMILES IDX 6 1 5 2 4 3 3 4 1 5 2 6 32 8 33 9 94 10 34 11 93 12 35 13
REMARK SMILES IDX 36 14 37 15 87 16 38 17 92 18 86 19 88 20 39 21 91 22 85 23
REMARK SMILES IDX 84 24 40 26 72 27 52 28 71 29 53 30 56 31 70 32 89 33 54 34
REMARK SMILES IDX 55 35 69 37 90 38 57 39 41 40 42 41 50 42 43 43 45 44 51 45
REMARK SMILES IDX 44 46 46 47 47 48 48 49 49 50 73 51 74 52 82 53 75 54 77 55
REMARK SMILES IDX 83 56 76 57 78 58 79 59 80 60 81 61 58 62 59 63 67 64 60 65
REMARK SMILES IDX 62 66 68 67 61 68 63 69 64 70 65 71 66 72 7 73 8 74 9 75
REMARK SMILES IDX 10 77 11 78 12 79 31 80 13 81 30 82 14 83 29 84 15 85 27 86
REMARK SMILES IDX 16 88 17 89 28 90 18 91 19 92 20 93 21 94 22 95 26 96 23 98
REMARK SMILES IDX 25 99 24 100
REMARK H PARENT 3 7 88 25 56 36 8 76 29 87 21 97
REMARK Flexibility Score: inf
ROOT
ATOM      1  C   UNL A   1      37.302  21.321  24.756  1.00  0.00     0.023 C 
ENDROOT
BRANCH   1   2
ATOM      2  C   UNL A   1      38.220  20.126  25.017  1.00  0.00     0.023 C 
BRANCH   2   3
ATOM      3  C   UNL A   1      39.355  20.390  25.999  1.00  0.00     0.116 C 
BRANCH   3   4
ATOM      4  N   UNL A   1      40.339  19.321  25.991  1.00  0.00    -0.352 N 
ATOM      5  O   UNL A   1      42.380  18.404  25.774  1.00  0.00    -0.269 OA
ATOM      6  C   UNL A   1      41.708  19.406  26.010  1.00  0.00     0.251 C 
ATOM      7  H   UNL A   1      39.972  18.408  25.967  1.00  0.00     0.163 HD
BRANCH   6   8
ATOM      8  C   UNL A   1      42.372  20.692  26.316  1.00  0.00     0.039 A 
ATOM      9  C   UNL A   1      42.538  21.065  27.654  1.00  0.00     0.014 A 
ATOM     10  C   UNL A   1      42.769  21.556  25.291  1.00  0.00     0.014 A 
ATOM     11  C   UNL A   1      43.111  22.300  27.964  1.00  0.00     0.010 A 
ATOM     12  C   UNL A   1      43.401  22.756  25.602  1.00  0.00     0.010 A 
ATOM     13  C   UNL A   1      43.543  23.155  26.939  1.00  0.00    -0.014 A 
BRANCH  13  14
ATOM     14  C   UNL A   1      44.049  24.518  27.228  1.00  0.00     0.031 A 
ATOM     15  C   UNL A   1      43.093  25.563  27.734  1.00  0.00     0.074 A 
ATOM     16  C   UNL A   1      45.335  24.836  26.997  1.00  0.00     0.049 A 
ATOM     17  N   UNL A   1      43.290  26.841  27.923  1.00  0.00    -0.248 NA
ATOM     18  C   UNL A   1      41.726  25.113  28.048  1.00  0.00     0.031 C 
ATOM     19  C   UNL A   1      46.357  23.919  26.495  1.00  0.00     0.029 A 
ATOM     20  N   UNL A   1      45.995  26.031  27.140  1.00  0.00    -0.354 N 
ATOM     21  C   UNL A   1      42.068  27.351  28.344  1.00  0.00     0.074 A 
ATOM     22  C   UNL A   1      41.127  26.254  28.351  1.00  0.00     0.031 C 
ATOM     23  C   UNL A   1      47.520  24.583  26.379  1.00  0.00     0.029 A 
ATOM     24  C   UNL A   1      47.314  25.978  26.766  1.00  0.00     0.049 A 
ATOM     25  H   UNL A   1      45.563  26.848  27.480  1.00  0.00     0.167 HD
ATOM     26  C   UNL A   1      41.762  28.613  28.727  1.00  0.00     0.034 A 
ATOM     27  C   UNL A   1      48.253  26.944  26.728  1.00  0.00     0.034 A 
ATOM     28  C   UNL A   1      42.705  29.694  28.772  1.00  0.00     0.049 A 
ATOM     29  C   UNL A   1      47.894  28.340  27.153  1.00  0.00     0.074 A 
ATOM     30  C   UNL A   1      42.497  31.001  29.173  1.00  0.00     0.029 A 
ATOM     31  N   UNL A   1      44.041  29.591  28.416  1.00  0.00    -0.354 N 
ATOM     32  N   UNL A   1      46.745  28.796  27.591  1.00  0.00    -0.248 NA
ATOM     33  C   UNL A   1      48.962  29.348  27.096  1.00  0.00     0.031 C 
ATOM     34  C   UNL A   1      43.710  31.689  29.061  1.00  0.00     0.029 A 
ATOM     35  C   UNL A   1      44.674  30.807  28.596  1.00  0.00     0.049 A 
ATOM     36  H   UNL A   1      44.475  28.772  28.082  1.00  0.00     0.167 HD
ATOM     37  C   UNL A   1      46.952  30.140  27.875  1.00  0.00     0.074 A 
ATOM     38  C   UNL A   1      48.343  30.421  27.577  1.00  0.00     0.031 C 
ATOM     39  C   UNL A   1      46.065  31.062  28.326  1.00  0.00     0.034 A 
BRANCH  26  40
ATOM     40  C   UNL A   1      40.356  28.867  29.197  1.00  0.00     0.023 A 
ATOM     41  C   UNL A   1      39.378  29.247  28.255  1.00  0.00     0.012 A 
ATOM     42  C   UNL A   1      39.995  28.704  30.547  1.00  0.00     0.148 A 
ATOM     43  C   UNL A   1      38.065  29.487  28.654  1.00  0.00     0.002 A 
ATOM     44  C   UNL A   1      38.674  28.912  30.932  1.00  0.00     0.091 A 
ATOM     45  F   UNL A   1      40.946  28.365  31.428  1.00  0.00    -0.205 F 
ATOM     46  C   UNL A   1      37.711  29.311  29.988  1.00  0.00     0.022 A 
BRANCH  44  47
ATOM     47  S   UNL A   1      38.103  28.669  32.617  1.00  0.00     0.127 S 
ATOM     48  O   UNL A   1      39.021  29.526  33.366  1.00  0.00    -0.237 OA
ATOM     49  O   UNL A   1      36.727  29.164  32.548  1.00  0.00    -0.237 OA
ATOM     50  O   UNL A   1      38.224  27.243  32.882  1.00  0.00    -0.744 OA
ENDBRANCH  44  47
ENDBRANCH  26  40
BRANCH  27  51
ATOM     51  C   UNL A   1      49.640  26.583  26.333  1.00  0.00     0.023 A 
ATOM     52  C   UNL A   1      50.373  25.705  27.154  1.00  0.00     0.012 A 
ATOM     53  C   UNL A   1      50.189  27.010  25.109  1.00  0.00     0.148 A 
ATOM     54  C   UNL A   1      51.633  25.255  26.760  1.00  0.00     0.002 A 
ATOM     55  C   UNL A   1      51.428  26.529  24.706  1.00  0.00     0.091 A 
ATOM     56  F   UNL A   1      49.463  27.840  24.346  1.00  0.00    -0.205 F 
ATOM     57  C   UNL A   1      52.156  25.658  25.534  1.00  0.00     0.022 A 
BRANCH  55  58
ATOM     58  S   UNL A   1      52.142  26.902  23.101  1.00  0.00     0.127 S 
ATOM     59  O   UNL A   1      52.629  28.267  23.299  1.00  0.00    -0.237 OA
ATOM     60  O   UNL A   1      53.186  25.883  22.998  1.00  0.00    -0.237 OA
ATOM     61  O   UNL A   1      51.055  26.768  22.141  1.00  0.00    -0.744 OA
ENDBRANCH  55  58
ENDBRANCH  27  51
BRANCH  39  62
ATOM     62  C   UNL A   1      46.558  32.470  28.527  1.00  0.00     0.023 A 
ATOM     63  C   UNL A   1      47.017  32.862  29.800  1.00  0.00     0.012 A 
ATOM     64  C   UNL A   1      46.664  33.363  27.443  1.00  0.00     0.148 A 
ATOM     65  C   UNL A   1      47.561  34.130  29.994  1.00  0.00     0.002 A 
ATOM     66  C   UNL A   1      47.238  34.614  27.638  1.00  0.00     0.091 A 
ATOM     67  F   UNL A   1      46.210  32.969  26.244  1.00  0.00    -0.205 F 
ATOM     68  C   UNL A   1      47.682  35.001  28.913  1.00  0.00     0.022 A 
BRANCH  66  69
ATOM     69  S   UNL A   1      47.502  35.776  26.293  1.00  0.00     0.127 S 
ATOM     70  O   UNL A   1      48.489  36.683  26.876  1.00  0.00    -0.237 OA
ATOM     71  O   UNL A   1      48.020  34.911  25.233  1.00  0.00    -0.237 OA
ATOM     72  O   UNL A   1      46.202  36.368  26.011  1.00  0.00    -0.744 OA
ENDBRANCH  66  69
ENDBRANCH  39  62
ENDBRANCH  13  14
ENDBRANCH   6   8
ENDBRANCH   3   4
ENDBRANCH   2   3
ENDBRANCH   1   2
BRANCH   1  73
ATOM     73  C   UNL A   1      35.979  21.291  25.516  1.00  0.00     0.116 C 
BRANCH  73  74
ATOM     74  N   UNL A   1      35.128  20.194  25.081  1.00  0.00    -0.352 N 
ATOM     75  C   UNL A   1      33.810  20.228  24.716  1.00  0.00     0.251 C 
ATOM     76  H   UNL A   1      35.558  19.308  25.045  1.00  0.00     0.163 HD
ATOM     77  O   UNL A   1      33.159  19.203  24.549  1.00  0.00    -0.269 OA
BRANCH  75  78
ATOM     78  C   UNL A   1      33.160  21.533  24.533  1.00  0.00     0.041 A 
ATOM     79  C   UNL A   1      31.971  21.817  25.218  1.00  0.00     0.015 A 
ATOM     80  C   UNL A   1      33.747  22.460  23.664  1.00  0.00     0.040 A 
ATOM     81  C   UNL A   1      31.346  23.041  25.015  1.00  0.00     0.017 A 
ATOM     82  C   UNL A   1      33.090  23.662  23.438  1.00  0.00     0.056 A 
ATOM     83  C   UNL A   1      31.918  23.952  24.123  1.00  0.00     0.064 A 
ATOM     84  N   UNL A   1      33.580  24.588  22.521  1.00  0.00    -0.307 N 
ATOM     85  C   UNL A   1      31.320  25.270  23.910  1.00  0.00     0.264 A 
ATOM     86  C   UNL A   1      32.887  25.704  22.129  1.00  0.00     0.328 A 
ATOM     87  H   UNL A   1      34.470  24.433  22.131  1.00  0.00     0.171 HD
ATOM     88  O   UNL A   1      30.625  25.729  24.807  1.00  0.00    -0.268 OA
ATOM     89  N   UNL A   1      31.650  25.916  22.730  1.00  0.00    -0.260 N 
ATOM     90  O   UNL A   1      33.397  26.460  21.304  1.00  0.00    -0.248 OA
BRANCH  89  91
ATOM     91  C   UNL A   1      30.884  27.096  22.327  1.00  0.00     0.137 C 
BRANCH  91  92
ATOM     92  C   UNL A   1      31.494  28.473  22.651  1.00  0.00     0.083 C 
BRANCH  92  93
ATOM     93  C   UNL A   1      31.232  29.191  23.991  1.00  0.00     0.264 C 
BRANCH  93  94
ATOM     94  N   UNL A   1      32.280  29.663  24.901  1.00  0.00    -0.331 N 
ATOM     95  C   UNL A   1      33.487  28.824  24.945  1.00  0.00     0.291 C 
ATOM     96  C   UNL A   1      31.945  30.077  26.264  1.00  0.00     0.291 C 
ATOM     97  H   UNL A   1      32.459  30.540  24.411  1.00  0.00     0.348 HD
ATOM     98  C   UNL A   1      33.348  27.654  25.931  1.00  0.00     0.221 C 
ATOM     99  C   UNL A   1      31.820  28.897  27.238  1.00  0.00     0.221 C 
ATOM    100  O   UNL A   1      33.017  28.105  27.253  1.00  0.00    -0.370 OA
ENDBRANCH  93  94
ENDBRANCH  92  93
ENDBRANCH  91  92
ENDBRANCH  89  91
ENDBRANCH  75  78
ENDBRANCH  73  74
ENDBRANCH   1  73
TORSDOF 18
ENDMDL
