MODEL 1
REMARK VINA RESULT:     -11.5      0.000      0.000
REMARK SMILES CCC(CC)(NC(=O)NCc1ccccc1F)C(=O)NCCCCNC(=O)c1ccc(-c2c3nc(c(-c4cccc(S(=O)(=O)[O-])c4F)c4ccc([nH]4)c(-c4cccc(S(=O)(=O)[O-])c4F)c4nc(c(-c5cccc(S(=O)(=O)[O-])c5F)c5ccc2[nH]5)C=C4)C=C3)cc1
REMARK SMILES IDX 22 1 21 2 20 3 18 4 19 5 3 7 2 8 1 9 4 10 5 11 6 12 7 13
REMARK SMILES IDX 8 15 9 16 10 18 11 19 12 20 16 21 13 22 15 23 17 24 14 25
REMARK SMILES IDX 23 26 24 27 25 28 26 29 27 31 28 32 29 33 90 34 30 35 89 36
REMARK SMILES IDX 31 37 32 38 33 39 83 40 34 41 88 42 82 43 84 44 35 45 87 46
REMARK SMILES IDX 81 47 80 48 36 50 68 51 48 52 67 53 49 54 52 55 66 56 85 57
REMARK SMILES IDX 50 58 51 59 65 61 86 62 53 63 37 64 38 65 46 66 39 67 41 68
REMARK SMILES IDX 47 69 40 70 42 71 43 72 44 73 45 74 69 75 70 76 78 77 71 78
REMARK SMILES IDX 73 79 79 80 72 81 74 82 75 83 76 84 77 85 54 86 55 87 63 88
REMARK SMILES IDX 56 89 58 90 64 91 57 92 59 93 60 94 61 95 62 96
REMARK H PARENT 20 6 6 14 9 17 25 30 84 49 52 60
REMARK Flexibility Score: inf
ROOT
ATOM      1  C   UNL A   1      37.232  20.757  24.596  1.00  0.00     0.023 C 
ENDROOT
BRANCH   1   2
ATOM      2  C   UNL A   1      35.809  20.759  25.173  1.00  0.00     0.116 C 
BRANCH   2   3
ATOM      3  N   UNL A   1      35.481  21.479  26.405  1.00  0.00    -0.354 N 
ATOM      4  C   UNL A   1      34.284  22.011  26.863  1.00  0.00     0.245 C 
ATOM      5  O   UNL A   1      34.055  21.951  28.076  1.00  0.00    -0.272 OA
ATOM      6  H   UNL A   1      36.242  21.607  27.015  1.00  0.00     0.163 HD
BRANCH   4   7
ATOM      7  C   UNL A   1      33.163  22.469  25.896  1.00  0.00     0.120 C 
BRANCH   7   8
ATOM      8  C   UNL A   1      32.892  21.651  24.599  1.00  0.00     0.035 C 
ATOM      9  C   UNL A   1      33.098  22.314  23.247  1.00  0.00     0.007 C 
ENDBRANCH   7   8
BRANCH   7  10
ATOM     10  C   UNL A   1      33.670  23.903  25.500  1.00  0.00     0.035 C 
ATOM     11  C   UNL A   1      35.107  24.282  25.805  1.00  0.00     0.007 C 
ENDBRANCH   7  10
BRANCH   7  12
ATOM     12  N   UNL A   1      31.902  22.439  26.649  1.00  0.00    -0.324 N 
ATOM     13  C   UNL A   1      30.783  23.184  26.609  1.00  0.00     0.315 C 
ATOM     14  H   UNL A   1      31.869  21.723  27.324  1.00  0.00     0.166 HD
ATOM     15  O   UNL A   1      29.981  22.995  27.531  1.00  0.00    -0.249 OA
ATOM     16  N   UNL A   1      30.404  24.019  25.632  1.00  0.00    -0.334 N 
ATOM     17  H   UNL A   1      29.422  24.059  25.575  1.00  0.00     0.165 HD
BRANCH  16  18
ATOM     18  C   UNL A   1      31.009  24.892  24.619  1.00  0.00     0.156 C 
BRANCH  18  19
ATOM     19  C   UNL A   1      31.073  26.373  24.913  1.00  0.00     0.007 A 
ATOM     20  C   UNL A   1      31.543  26.807  26.167  1.00  0.00     0.008 A 
ATOM     21  C   UNL A   1      30.680  27.358  24.011  1.00  0.00     0.128 A 
ATOM     22  C   UNL A   1      31.793  28.159  26.424  1.00  0.00     0.001 A 
ATOM     23  C   UNL A   1      30.916  28.715  24.261  1.00  0.00     0.039 A 
ATOM     24  F   UNL A   1      30.079  27.016  22.865  1.00  0.00    -0.207 F 
ATOM     25  C   UNL A   1      31.514  29.114  25.453  1.00  0.00     0.003 A 
ENDBRANCH  18  19
ENDBRANCH  16  18
ENDBRANCH   7  12
ENDBRANCH   4   7
ENDBRANCH   2   3
ENDBRANCH   1   2
BRANCH   1  26
ATOM     26  C   UNL A   1      38.213  19.624  24.884  1.00  0.00     0.023 C 
BRANCH  26  27
ATOM     27  C   UNL A   1      39.134  19.764  26.084  1.00  0.00     0.116 C 
BRANCH  27  28
ATOM     28  N   UNL A   1      40.304  18.908  26.010  1.00  0.00    -0.352 N 
ATOM     29  C   UNL A   1      41.627  19.273  26.098  1.00  0.00     0.251 C 
ATOM     30  H   UNL A   1      40.129  17.948  25.879  1.00  0.00     0.163 HD
ATOM     31  O   UNL A   1      42.506  18.431  25.894  1.00  0.00    -0.269 OA
BRANCH  29  32
ATOM     32  C   UNL A   1      42.010  20.673  26.405  1.00  0.00     0.039 A 
ATOM     33  C   UNL A   1      42.198  21.562  25.343  1.00  0.00     0.014 A 
ATOM     34  C   UNL A   1      42.221  21.109  27.717  1.00  0.00     0.014 A 
ATOM     35  C   UNL A   1      42.563  22.889  25.595  1.00  0.00     0.010 A 
ATOM     36  C   UNL A   1      42.539  22.451  27.970  1.00  0.00     0.010 A 
ATOM     37  C   UNL A   1      42.723  23.356  26.912  1.00  0.00    -0.014 A 
BRANCH  37  38
ATOM     38  C   UNL A   1      43.073  24.784  27.168  1.00  0.00     0.031 A 
ATOM     39  C   UNL A   1      42.077  25.732  27.787  1.00  0.00     0.074 A 
ATOM     40  C   UNL A   1      44.296  25.246  26.834  1.00  0.00     0.049 A 
ATOM     41  N   UNL A   1      42.232  26.990  28.116  1.00  0.00    -0.248 NA
ATOM     42  C   UNL A   1      40.730  25.208  28.064  1.00  0.00     0.031 C 
ATOM     43  C   UNL A   1      45.341  24.459  26.177  1.00  0.00     0.029 A 
ATOM     44  N   UNL A   1      44.866  26.488  26.991  1.00  0.00    -0.354 N 
ATOM     45  C   UNL A   1      41.006  27.413  28.616  1.00  0.00     0.074 A 
ATOM     46  C   UNL A   1      40.105  26.286  28.520  1.00  0.00     0.031 C 
ATOM     47  C   UNL A   1      46.428  25.228  26.005  1.00  0.00     0.029 A 
ATOM     48  C   UNL A   1      46.153  26.572  26.509  1.00  0.00     0.049 A 
ATOM     49  H   UNL A   1      44.398  27.246  27.410  1.00  0.00     0.167 HD
ATOM     50  C   UNL A   1      40.668  28.618  29.135  1.00  0.00     0.034 A 
ATOM     51  C   UNL A   1      47.019  27.606  26.471  1.00  0.00     0.034 A 
ATOM     52  C   UNL A   1      41.571  29.731  29.270  1.00  0.00     0.049 A 
ATOM     53  C   UNL A   1      46.622  28.930  27.069  1.00  0.00     0.074 A 
ATOM     54  C   UNL A   1      41.328  30.961  29.859  1.00  0.00     0.029 A 
ATOM     55  N   UNL A   1      42.876  29.761  28.808  1.00  0.00    -0.354 N 
ATOM     56  N   UNL A   1      45.505  29.261  27.669  1.00  0.00    -0.248 NA
ATOM     57  C   UNL A   1      47.616  30.015  27.016  1.00  0.00     0.031 C 
ATOM     58  C   UNL A   1      42.475  31.747  29.721  1.00  0.00     0.029 A 
ATOM     59  C   UNL A   1      43.447  30.993  29.083  1.00  0.00     0.049 A 
ATOM     60  H   UNL A   1      43.331  29.017  28.352  1.00  0.00     0.167 HD
ATOM     61  C   UNL A   1      45.672  30.576  28.092  1.00  0.00     0.074 A 
ATOM     62  C   UNL A   1      47.006  30.977  27.698  1.00  0.00     0.031 C 
ATOM     63  C   UNL A   1      44.791  31.377  28.738  1.00  0.00     0.034 A 
BRANCH  50  64
ATOM     64  C   UNL A   1      39.266  28.801  29.661  1.00  0.00     0.023 A 
ATOM     65  C   UNL A   1      38.972  28.435  30.991  1.00  0.00     0.012 A 
ATOM     66  C   UNL A   1      38.281  29.449  28.889  1.00  0.00     0.148 A 
ATOM     67  C   UNL A   1      37.716  28.695  31.538  1.00  0.00     0.002 A 
ATOM     68  C   UNL A   1      37.047  29.746  29.456  1.00  0.00     0.091 A 
ATOM     69  F   UNL A   1      38.576  29.777  27.623  1.00  0.00    -0.205 F 
ATOM     70  C   UNL A   1      36.760  29.361  30.776  1.00  0.00     0.022 A 
BRANCH  68  71
ATOM     71  S   UNL A   1      35.779  30.681  28.591  1.00  0.00     0.127 S 
ATOM     72  O   UNL A   1      34.921  29.611  28.082  1.00  0.00    -0.237 OA
ATOM     73  O   UNL A   1      35.190  31.471  29.673  1.00  0.00    -0.237 OA
ATOM     74  O   UNL A   1      36.471  31.457  27.574  1.00  0.00    -0.744 OA
ENDBRANCH  68  71
ENDBRANCH  50  64
BRANCH  51  75
ATOM     75  C   UNL A   1      48.380  27.408  25.894  1.00  0.00     0.023 A 
ATOM     76  C   UNL A   1      49.431  26.974  26.725  1.00  0.00     0.012 A 
ATOM     77  C   UNL A   1      48.625  27.600  24.521  1.00  0.00     0.148 A 
ATOM     78  C   UNL A   1      50.707  26.755  26.202  1.00  0.00     0.002 A 
ATOM     79  C   UNL A   1      49.881  27.323  23.995  1.00  0.00     0.091 A 
ATOM     80  F   UNL A   1      47.614  28.029  23.750  1.00  0.00    -0.205 F 
ATOM     81  C   UNL A   1      50.928  26.917  24.837  1.00  0.00     0.022 A 
BRANCH  79  82
ATOM     82  S   UNL A   1      50.220  27.366  22.232  1.00  0.00     0.127 S 
ATOM     83  O   UNL A   1      50.053  28.787  21.931  1.00  0.00    -0.237 OA
ATOM     84  O   UNL A   1      51.601  26.884  22.182  1.00  0.00    -0.237 OA
ATOM     85  O   UNL A   1      49.247  26.474  21.621  1.00  0.00    -0.744 OA
ENDBRANCH  79  82
ENDBRANCH  51  75
BRANCH  63  86
ATOM     86  C   UNL A   1      45.224  32.776  29.100  1.00  0.00     0.023 A 
ATOM     87  C   UNL A   1      45.884  33.011  30.322  1.00  0.00     0.012 A 
ATOM     88  C   UNL A   1      45.087  33.832  28.175  1.00  0.00     0.148 A 
ATOM     89  C   UNL A   1      46.385  34.278  30.625  1.00  0.00     0.002 A 
ATOM     90  C   UNL A   1      45.633  35.078  28.462  1.00  0.00     0.091 A 
ATOM     91  F   UNL A   1      44.442  33.592  27.024  1.00  0.00    -0.205 F 
ATOM     92  C   UNL A   1      46.272  35.306  29.691  1.00  0.00     0.022 A 
BRANCH  90  93
ATOM     93  S   UNL A   1      45.633  36.432  27.281  1.00  0.00     0.127 S 
ATOM     94  O   UNL A   1      44.202  36.697  27.131  1.00  0.00    -0.237 OA
ATOM     95  O   UNL A   1      46.373  37.469  27.999  1.00  0.00    -0.237 OA
ATOM     96  O   UNL A   1      46.299  35.927  26.087  1.00  0.00    -0.744 OA
ENDBRANCH  90  93
ENDBRANCH  63  86
ENDBRANCH  37  38
ENDBRANCH  29  32
ENDBRANCH  27  28
ENDBRANCH  26  27
ENDBRANCH   1  26
TORSDOF 19
ENDMDL
MODEL 2
REMARK VINA RESULT:     -11.3      6.562     11.443
REMARK SMILES CCC(CC)(NC(=O)NCc1ccccc1F)C(=O)NCCCCNC(=O)c1ccc(-c2c3nc(c(-c4cccc(S(=O)(=O)[O-])c4F)c4ccc([nH]4)c(-c4cccc(S(=O)(=O)[O-])c4F)c4nc(c(-c5cccc(S(=O)(=O)[O-])c5F)c5ccc2[nH]5)C=C4)C=C3)cc1
REMARK SMILES IDX 22 1 21 2 20 3 18 4 19 5 3 7 2 8 1 9 4 10 5 11 6 12 7 13
REMARK SMILES IDX 8 15 9 16 10 18 11 19 12 20 16 21 13 22 15 23 17 24 14 25
REMARK SMILES IDX 23 26 24 27 25 28 26 29 27 31 28 32 29 33 90 34 30 35 89 36
REMARK SMILES IDX 31 37 32 38 33 39 83 40 34 41 88 42 82 43 84 44 35 45 87 46
REMARK SMILES IDX 81 47 80 48 36 50 68 51 48 52 67 53 49 54 52 55 66 56 85 57
REMARK SMILES IDX 50 58 51 59 65 61 86 62 53 63 37 64 38 65 46 66 39 67 41 68
REMARK SMILES IDX 47 69 40 70 42 71 43 72 44 73 45 74 69 75 70 76 78 77 71 78
REMARK SMILES IDX 73 79 79 80 72 81 74 82 75 83 76 84 77 85 54 86 55 87 63 88
REMARK SMILES IDX 56 89 58 90 64 91 57 92 59 93 60 94 61 95 62 96
REMARK H PARENT 20 6 6 14 9 17 25 30 84 49 52 60
REMARK Flexibility Score: inf
ROOT
ATOM      1  C   UNL A   1      31.781  30.492  25.846  1.00  0.00     0.023 C 
ENDROOT
BRANCH   1   2
ATOM      2  C   UNL A   1      32.855  29.457  26.208  1.00  0.00     0.116 C 
BRANCH   2   3
ATOM      3  N   UNL A   1      33.888  29.055  25.250  1.00  0.00    -0.354 N 
ATOM      4  C   UNL A   1      33.943  27.998  24.353  1.00  0.00     0.245 C 
ATOM      5  O   UNL A   1      34.488  28.198  23.262  1.00  0.00    -0.272 OA
ATOM      6  H   UNL A   1      34.681  29.637  25.242  1.00  0.00     0.163 HD
BRANCH   4   7
ATOM      7  C   UNL A   1      33.171  26.675  24.591  1.00  0.00     0.120 C 
BRANCH   7   8
ATOM      8  C   UNL A   1      31.748  26.724  25.221  1.00  0.00     0.035 C 
ATOM      9  C   UNL A   1      30.957  25.435  25.371  1.00  0.00     0.007 C 
ENDBRANCH   7   8
BRANCH   7  10
ATOM     10  C   UNL A   1      34.141  25.930  25.577  1.00  0.00     0.035 C 
ATOM     11  C   UNL A   1      35.008  24.806  25.043  1.00  0.00     0.007 C 
ENDBRANCH   7  10
BRANCH   7  12
ATOM     12  N   UNL A   1      32.998  26.033  23.281  1.00  0.00    -0.324 N 
ATOM     13  C   UNL A   1      32.275  26.339  22.189  1.00  0.00     0.315 C 
ATOM     14  H   UNL A   1      33.520  25.204  23.183  1.00  0.00     0.166 HD
ATOM     15  O   UNL A   1      32.218  25.459  21.322  1.00  0.00    -0.249 OA
ATOM     16  N   UNL A   1      31.709  27.518  21.901  1.00  0.00    -0.334 N 
ATOM     17  H   UNL A   1      31.674  27.654  20.926  1.00  0.00     0.165 HD
BRANCH  16  18
ATOM     18  C   UNL A   1      31.125  28.671  22.597  1.00  0.00     0.156 C 
BRANCH  18  19
ATOM     19  C   UNL A   1      29.619  28.744  22.697  1.00  0.00     0.007 A 
ATOM     20  C   UNL A   1      28.918  27.697  23.325  1.00  0.00     0.008 A 
ATOM     21  C   UNL A   1      28.861  29.796  22.190  1.00  0.00     0.128 A 
ATOM     22  C   UNL A   1      27.551  27.799  23.604  1.00  0.00     0.001 A 
ATOM     23  C   UNL A   1      27.491  29.904  22.454  1.00  0.00     0.039 A 
ATOM     24  F   UNL A   1      29.444  30.744  21.446  1.00  0.00    -0.207 F 
ATOM     25  C   UNL A   1      26.842  28.925  23.201  1.00  0.00     0.003 A 
ENDBRANCH  18  19
ENDBRANCH  16  18
ENDBRANCH   7  12
ENDBRANCH   4   7
ENDBRANCH   2   3
ENDBRANCH   1   2
BRANCH   1  26
ATOM     26  C   UNL A   1      31.562  31.748  26.684  1.00  0.00     0.023 C 
BRANCH  26  27
ATOM     27  C   UNL A   1      32.783  32.441  27.265  1.00  0.00     0.116 C 
BRANCH  27  28
ATOM     28  N   UNL A   1      32.526  33.814  27.661  1.00  0.00    -0.352 N 
ATOM     29  C   UNL A   1      33.159  34.545  28.639  1.00  0.00     0.251 C 
ATOM     30  H   UNL A   1      31.811  34.278  27.170  1.00  0.00     0.163 HD
ATOM     31  O   UNL A   1      32.737  35.667  28.930  1.00  0.00    -0.269 OA
BRANCH  29  32
ATOM     32  C   UNL A   1      34.325  33.989  29.370  1.00  0.00     0.039 A 
ATOM     33  C   UNL A   1      34.092  33.088  30.412  1.00  0.00     0.014 A 
ATOM     34  C   UNL A   1      35.636  34.369  29.065  1.00  0.00     0.014 A 
ATOM     35  C   UNL A   1      35.168  32.546  31.125  1.00  0.00     0.010 A 
ATOM     36  C   UNL A   1      36.714  33.788  29.747  1.00  0.00     0.010 A 
ATOM     37  C   UNL A   1      36.494  32.876  30.792  1.00  0.00    -0.014 A 
BRANCH  37  38
ATOM     38  C   UNL A   1      37.633  32.260  31.534  1.00  0.00     0.031 A 
ATOM     39  C   UNL A   1      38.423  31.120  30.942  1.00  0.00     0.074 A 
ATOM     40  C   UNL A   1      37.961  32.718  32.760  1.00  0.00     0.049 A 
ATOM     41  N   UNL A   1      39.467  30.500  31.433  1.00  0.00    -0.248 NA
ATOM     42  C   UNL A   1      37.982  30.600  29.638  1.00  0.00     0.031 C 
ATOM     43  C   UNL A   1      37.251  33.775  33.481  1.00  0.00     0.029 A 
ATOM     44  N   UNL A   1      38.968  32.349  33.622  1.00  0.00    -0.354 N 
ATOM     45  C   UNL A   1      39.794  29.508  30.515  1.00  0.00     0.074 A 
ATOM     46  C   UNL A   1      38.819  29.588  29.449  1.00  0.00     0.031 C 
ATOM     47  C   UNL A   1      37.853  33.983  34.663  1.00  0.00     0.029 A 
ATOM     48  C   UNL A   1      38.973  33.056  34.803  1.00  0.00     0.049 A 
ATOM     49  H   UNL A   1      39.624  31.645  33.413  1.00  0.00     0.167 HD
ATOM     50  C   UNL A   1      40.827  28.632  30.540  1.00  0.00     0.034 A 
ATOM     51  C   UNL A   1      39.782  32.974  35.880  1.00  0.00     0.034 A 
ATOM     52  C   UNL A   1      41.823  28.575  31.578  1.00  0.00     0.049 A 
ATOM     53  C   UNL A   1      40.932  32.001  35.875  1.00  0.00     0.074 A 
ATOM     54  C   UNL A   1      42.948  27.768  31.638  1.00  0.00     0.029 A 
ATOM     55  N   UNL A   1      41.816  29.335  32.735  1.00  0.00    -0.354 N 
ATOM     56  N   UNL A   1      41.307  31.175  34.930  1.00  0.00    -0.248 NA
ATOM     57  C   UNL A   1      41.791  31.971  37.070  1.00  0.00     0.031 C 
ATOM     58  C   UNL A   1      43.601  28.017  32.848  1.00  0.00     0.029 A 
ATOM     59  C   UNL A   1      42.907  29.007  33.523  1.00  0.00     0.049 A 
ATOM     60  H   UNL A   1      41.137  30.010  32.963  1.00  0.00     0.167 HD
ATOM     61  C   UNL A   1      42.460  30.553  35.399  1.00  0.00     0.074 A 
ATOM     62  C   UNL A   1      42.734  31.111  36.707  1.00  0.00     0.031 C 
ATOM     63  C   UNL A   1      43.211  29.597  34.801  1.00  0.00     0.034 A 
BRANCH  50  64
ATOM     64  C   UNL A   1      40.986  27.683  29.379  1.00  0.00     0.023 A 
ATOM     65  C   UNL A   1      40.172  26.534  29.308  1.00  0.00     0.012 A 
ATOM     66  C   UNL A   1      41.841  27.993  28.302  1.00  0.00     0.148 A 
ATOM     67  C   UNL A   1      40.219  25.698  28.192  1.00  0.00     0.002 A 
ATOM     68  C   UNL A   1      41.848  27.181  27.173  1.00  0.00     0.091 A 
ATOM     69  F   UNL A   1      42.616  29.083  28.395  1.00  0.00    -0.205 F 
ATOM     70  C   UNL A   1      41.045  26.029  27.121  1.00  0.00     0.022 A 
BRANCH  68  71
ATOM     71  S   UNL A   1      42.807  27.566  25.703  1.00  0.00     0.127 S 
ATOM     72  O   UNL A   1      42.202  26.672  24.716  1.00  0.00    -0.237 OA
ATOM     73  O   UNL A   1      42.507  28.985  25.505  1.00  0.00    -0.237 OA
ATOM     74  O   UNL A   1      44.193  27.275  26.037  1.00  0.00    -0.744 OA
ENDBRANCH  68  71
ENDBRANCH  50  64
BRANCH  51  75
ATOM     75  C   UNL A   1      39.565  33.891  37.037  1.00  0.00     0.023 A 
ATOM     76  C   UNL A   1      39.907  35.251  36.919  1.00  0.00     0.012 A 
ATOM     77  C   UNL A   1      38.978  33.431  38.232  1.00  0.00     0.148 A 
ATOM     78  C   UNL A   1      39.687  36.134  37.978  1.00  0.00     0.002 A 
ATOM     79  C   UNL A   1      38.707  34.325  39.259  1.00  0.00     0.091 A 
ATOM     80  F   UNL A   1      38.675  32.128  38.329  1.00  0.00    -0.205 F 
ATOM     81  C   UNL A   1      39.076  35.674  39.142  1.00  0.00     0.022 A 
BRANCH  79  82
ATOM     82  S   UNL A   1      37.796  33.853  40.733  1.00  0.00     0.127 S 
ATOM     83  O   UNL A   1      38.750  32.971  41.404  1.00  0.00    -0.237 OA
ATOM     84  O   UNL A   1      37.592  35.147  41.386  1.00  0.00    -0.237 OA
ATOM     85  O   UNL A   1      36.577  33.218  40.259  1.00  0.00    -0.744 OA
ENDBRANCH  79  82
ENDBRANCH  51  75
BRANCH  63  86
ATOM     86  C   UNL A   1      44.434  29.088  35.524  1.00  0.00     0.023 A 
ATOM     87  C   UNL A   1      45.695  29.652  35.249  1.00  0.00     0.012 A 
ATOM     88  C   UNL A   1      44.312  28.141  36.561  1.00  0.00     0.148 A 
ATOM     89  C   UNL A   1      46.818  29.267  35.981  1.00  0.00     0.002 A 
ATOM     90  C   UNL A   1      45.426  27.802  37.321  1.00  0.00     0.091 A 
ATOM     91  F   UNL A   1      43.106  27.605  36.798  1.00  0.00    -0.205 F 
ATOM     92  C   UNL A   1      46.682  28.355  37.025  1.00  0.00     0.022 A 
BRANCH  90  93
ATOM     93  S   UNL A   1      45.329  26.718  38.751  1.00  0.00     0.127 S 
ATOM     94  O   UNL A   1      46.697  26.207  38.831  1.00  0.00    -0.237 OA
ATOM     95  O   UNL A   1      44.963  27.649  39.819  1.00  0.00    -0.237 OA
ATOM     96  O   UNL A   1      44.312  25.723  38.438  1.00  0.00    -0.744 OA
ENDBRANCH  90  93
ENDBRANCH  63  86
ENDBRANCH  37  38
ENDBRANCH  29  32
ENDBRANCH  27  28
ENDBRANCH  26  27
ENDBRANCH   1  26
TORSDOF 19
ENDMDL
MODEL 3
REMARK VINA RESULT:     -11.3      2.907      8.092
REMARK SMILES CCC(CC)(NC(=O)NCc1ccccc1F)C(=O)NCCCCNC(=O)c1ccc(-c2c3nc(c(-c4cccc(S(=O)(=O)[O-])c4F)c4ccc([nH]4)c(-c4cccc(S(=O)(=O)[O-])c4F)c4nc(c(-c5cccc(S(=O)(=O)[O-])c5F)c5ccc2[nH]5)C=C4)C=C3)cc1
REMARK SMILES IDX 22 1 21 2 20 3 18 4 19 5 3 7 2 8 1 9 4 10 5 11 6 12 7 13
REMARK SMILES IDX 8 15 9 16 10 18 11 19 12 20 16 21 13 22 15 23 17 24 14 25
REMARK SMILES IDX 23 26 24 27 25 28 26 29 27 31 28 32 29 33 90 34 30 35 89 36
REMARK SMILES IDX 31 37 32 38 33 39 83 40 34 41 88 42 82 43 84 44 35 45 87 46
REMARK SMILES IDX 81 47 80 48 36 50 68 51 48 52 67 53 49 54 52 55 66 56 85 57
REMARK SMILES IDX 50 58 51 59 65 61 86 62 53 63 37 64 38 65 46 66 39 67 41 68
REMARK SMILES IDX 47 69 40 70 42 71 43 72 44 73 45 74 69 75 70 76 78 77 71 78
REMARK SMILES IDX 73 79 79 80 72 81 74 82 75 83 76 84 77 85 54 86 55 87 63 88
REMARK SMILES IDX 56 89 58 90 64 91 57 92 59 93 60 94 61 95 62 96
REMARK H PARENT 20 6 6 14 9 17 25 30 84 49 52 60
REMARK Flexibility Score: inf
ROOT
ATOM      1  C   UNL A   1      36.984  21.884  24.413  1.00  0.00     0.023 C 
ENDROOT
BRANCH   1   2
ATOM      2  C   UNL A   1      35.734  21.209  24.994  1.00  0.00     0.116 C 
BRANCH   2   3
ATOM      3  N   UNL A   1      35.307  21.444  26.375  1.00  0.00    -0.354 N 
ATOM      4  C   UNL A   1      34.089  21.851  26.901  1.00  0.00     0.245 C 
ATOM      5  O   UNL A   1      33.736  21.364  27.980  1.00  0.00    -0.272 OA
ATOM      6  H   UNL A   1      36.006  21.284  27.049  1.00  0.00     0.163 HD
BRANCH   4   7
ATOM      7  C   UNL A   1      33.089  22.712  26.088  1.00  0.00     0.120 C 
BRANCH   7   8
ATOM      8  C   UNL A   1      32.813  22.359  24.597  1.00  0.00     0.035 C 
ATOM      9  C   UNL A   1      32.218  21.004  24.252  1.00  0.00     0.007 C 
ENDBRANCH   7   8
BRANCH   7  10
ATOM     10  C   UNL A   1      33.774  24.125  26.161  1.00  0.00     0.035 C 
ATOM     11  C   UNL A   1      34.437  24.682  24.915  1.00  0.00     0.007 C 
ENDBRANCH   7  10
BRANCH   7  12
ATOM     12  N   UNL A   1      31.786  22.615  26.761  1.00  0.00    -0.324 N 
ATOM     13  C   UNL A   1      30.659  23.347  26.705  1.00  0.00     0.315 C 
ATOM     14  H   UNL A   1      31.726  21.855  27.384  1.00  0.00     0.166 HD
ATOM     15  O   UNL A   1      29.808  23.086  27.563  1.00  0.00    -0.249 OA
ATOM     16  N   UNL A   1      30.324  24.241  25.765  1.00  0.00    -0.334 N 
ATOM     17  H   UNL A   1      29.346  24.272  25.653  1.00  0.00     0.165 HD
BRANCH  16  18
ATOM     18  C   UNL A   1      30.972  25.188  24.850  1.00  0.00     0.156 C 
BRANCH  18  19
ATOM     19  C   UNL A   1      31.142  26.614  25.318  1.00  0.00     0.007 A 
ATOM     20  C   UNL A   1      31.401  26.867  26.678  1.00  0.00     0.008 A 
ATOM     21  C   UNL A   1      31.048  27.721  24.477  1.00  0.00     0.128 A 
ATOM     22  C   UNL A   1      31.745  28.146  27.129  1.00  0.00     0.001 A 
ATOM     23  C   UNL A   1      31.381  29.006  24.920  1.00  0.00     0.039 A 
ATOM     24  F   UNL A   1      30.651  27.565  23.208  1.00  0.00    -0.207 F 
ATOM     25  C   UNL A   1      31.772  29.214  26.239  1.00  0.00     0.003 A 
ENDBRANCH  18  19
ENDBRANCH  16  18
ENDBRANCH   7  12
ENDBRANCH   4   7
ENDBRANCH   2   3
ENDBRANCH   1   2
BRANCH   1  26
ATOM     26  C   UNL A   1      37.743  22.964  25.178  1.00  0.00     0.023 C 
BRANCH  26  27
ATOM     27  C   UNL A   1      38.575  22.539  26.377  1.00  0.00     0.116 C 
BRANCH  27  28
ATOM     28  N   UNL A   1      39.832  21.915  26.007  1.00  0.00    -0.352 N 
ATOM     29  C   UNL A   1      41.089  22.471  26.019  1.00  0.00     0.251 C 
ATOM     30  H   UNL A   1      39.778  20.978  25.711  1.00  0.00     0.163 HD
ATOM     31  O   UNL A   1      42.041  21.835  25.559  1.00  0.00    -0.269 OA
BRANCH  29  32
ATOM     32  C   UNL A   1      41.310  23.839  26.551  1.00  0.00     0.039 A 
ATOM     33  C   UNL A   1      41.631  23.987  27.903  1.00  0.00     0.014 A 
ATOM     34  C   UNL A   1      41.171  24.974  25.744  1.00  0.00     0.014 A 
ATOM     35  C   UNL A   1      41.843  25.263  28.438  1.00  0.00     0.010 A 
ATOM     36  C   UNL A   1      41.432  26.247  26.271  1.00  0.00     0.010 A 
ATOM     37  C   UNL A   1      41.762  26.409  27.627  1.00  0.00    -0.014 A 
BRANCH  37  38
ATOM     38  C   UNL A   1      42.030  27.759  28.201  1.00  0.00     0.031 A 
ATOM     39  C   UNL A   1      43.433  28.307  28.283  1.00  0.00     0.074 A 
ATOM     40  C   UNL A   1      41.007  28.506  28.668  1.00  0.00     0.049 A 
ATOM     41  N   UNL A   1      43.836  29.477  28.713  1.00  0.00    -0.248 NA
ATOM     42  C   UNL A   1      44.526  27.430  27.836  1.00  0.00     0.031 C 
ATOM     43  C   UNL A   1      39.607  28.082  28.705  1.00  0.00     0.029 A 
ATOM     44  N   UNL A   1      40.985  29.771  29.207  1.00  0.00    -0.354 N 
ATOM     45  C   UNL A   1      45.222  29.470  28.610  1.00  0.00     0.074 A 
ATOM     46  C   UNL A   1      45.597  28.167  28.104  1.00  0.00     0.031 C 
ATOM     47  C   UNL A   1      38.861  29.073  29.220  1.00  0.00     0.029 A 
ATOM     48  C   UNL A   1      39.729  30.193  29.578  1.00  0.00     0.049 A 
ATOM     49  H   UNL A   1      41.793  30.323  29.316  1.00  0.00     0.167 HD
ATOM     50  C   UNL A   1      46.101  30.465  28.881  1.00  0.00     0.034 A 
ATOM     51  C   UNL A   1      39.313  31.346  30.144  1.00  0.00     0.034 A 
ATOM     52  C   UNL A   1      45.732  31.776  29.346  1.00  0.00     0.049 A 
ATOM     53  C   UNL A   1      40.309  32.440  30.421  1.00  0.00     0.074 A 
ATOM     54  C   UNL A   1      46.556  32.867  29.569  1.00  0.00     0.029 A 
ATOM     55  N   UNL A   1      44.447  32.176  29.669  1.00  0.00    -0.354 N 
ATOM     56  N   UNL A   1      41.596  32.462  30.177  1.00  0.00    -0.248 NA
ATOM     57  C   UNL A   1      39.793  33.682  31.019  1.00  0.00     0.031 C 
ATOM     58  C   UNL A   1      45.774  33.914  30.061  1.00  0.00     0.029 A 
ATOM     59  C   UNL A   1      44.456  33.490  30.105  1.00  0.00     0.049 A 
ATOM     60  H   UNL A   1      43.644  31.610  29.599  1.00  0.00     0.167 HD
ATOM     61  C   UNL A   1      42.037  33.725  30.560  1.00  0.00     0.074 A 
ATOM     62  C   UNL A   1      40.877  34.448  31.035  1.00  0.00     0.031 C 
ATOM     63  C   UNL A   1      43.295  34.229  30.530  1.00  0.00     0.034 A 
BRANCH  50  64
ATOM     64  C   UNL A   1      47.567  30.210  28.630  1.00  0.00     0.023 A 
ATOM     65  C   UNL A   1      48.135  30.592  27.398  1.00  0.00     0.012 A 
ATOM     66  C   UNL A   1      48.401  29.717  29.653  1.00  0.00     0.148 A 
ATOM     67  C   UNL A   1      49.507  30.470  27.180  1.00  0.00     0.002 A 
ATOM     68  C   UNL A   1      49.774  29.642  29.445  1.00  0.00     0.091 A 
ATOM     69  F   UNL A   1      47.840  29.347  30.813  1.00  0.00    -0.205 F 
ATOM     70  C   UNL A   1      50.326  30.009  28.207  1.00  0.00     0.022 A 
BRANCH  68  71
ATOM     71  S   UNL A   1      50.927  29.148  30.732  1.00  0.00     0.127 S 
ATOM     72  O   UNL A   1      50.559  27.747  30.934  1.00  0.00    -0.237 OA
ATOM     73  O   UNL A   1      52.221  29.350  30.078  1.00  0.00    -0.237 OA
ATOM     74  O   UNL A   1      50.671  30.026  31.864  1.00  0.00    -0.744 OA
ENDBRANCH  68  71
ENDBRANCH  50  64
BRANCH  51  75
ATOM     75  C   UNL A   1      37.862  31.545  30.429  1.00  0.00     0.023 A 
ATOM     76  C   UNL A   1      37.378  31.353  31.738  1.00  0.00     0.012 A 
ATOM     77  C   UNL A   1      36.973  31.970  29.423  1.00  0.00     0.148 A 
ATOM     78  C   UNL A   1      36.030  31.560  32.035  1.00  0.00     0.002 A 
ATOM     79  C   UNL A   1      35.645  32.232  29.738  1.00  0.00     0.091 A 
ATOM     80  F   UNL A   1      37.451  32.131  28.181  1.00  0.00    -0.205 F 
ATOM     81  C   UNL A   1      35.167  32.011  31.039  1.00  0.00     0.022 A 
BRANCH  79  82
ATOM     82  S   UNL A   1      34.498  32.951  28.558  1.00  0.00     0.127 S 
ATOM     83  O   UNL A   1      35.403  33.682  27.670  1.00  0.00    -0.237 OA
ATOM     84  O   UNL A   1      33.889  31.758  27.968  1.00  0.00    -0.237 OA
ATOM     85  O   UNL A   1      33.586  33.769  29.340  1.00  0.00    -0.744 OA
ENDBRANCH  79  82
ENDBRANCH  51  75
BRANCH  63  86
ATOM     86  C   UNL A   1      43.511  35.648  30.997  1.00  0.00     0.023 A 
ATOM     87  C   UNL A   1      43.846  35.899  32.342  1.00  0.00     0.012 A 
ATOM     88  C   UNL A   1      43.504  36.715  30.076  1.00  0.00     0.148 A 
ATOM     89  C   UNL A   1      44.151  37.193  32.766  1.00  0.00     0.002 A 
ATOM     90  C   UNL A   1      43.860  37.992  30.495  1.00  0.00     0.091 A 
ATOM     91  F   UNL A   1      43.167  36.458  28.803  1.00  0.00    -0.205 F 
ATOM     92  C   UNL A   1      44.173  38.235  31.842  1.00  0.00     0.022 A 
BRANCH  90  93
ATOM     93  S   UNL A   1      44.019  39.375  29.359  1.00  0.00     0.127 S 
ATOM     94  O   UNL A   1      42.641  39.544  28.899  1.00  0.00    -0.237 OA
ATOM     95  O   UNL A   1      44.504  40.441  30.237  1.00  0.00    -0.237 OA
ATOM     96  O   UNL A   1      44.967  38.953  28.337  1.00  0.00    -0.744 OA
ENDBRANCH  90  93
ENDBRANCH  63  86
ENDBRANCH  37  38
ENDBRANCH  29  32
ENDBRANCH  27  28
ENDBRANCH  26  27
ENDBRANCH   1  26
TORSDOF 19
ENDMDL
