MODEL 1
REMARK VINA RESULT:     -12.3      0.000      0.000
REMARK SMILES C[C@@H](c1cccc(O)c1)[N@H+]1[C@@H]2CC[C@H]1C[C@H](CC(=O)NCCCCNC(=O)c1ccc(-c3c4nc(c(-c5cccc(S(=O)(=O)[O-])c5F)c5ccc([nH]5)c(-c5cccc(S(=O)(=O)[O-])c5F)c5nc(c(-c6cccc(S(=O)(=O)[O-])c6F)c6ccc3[nH]6)C=C5)C=C4)cc1)C2
REMARK SMILES IDX 22 1 21 2 20 3 18 4 19 5 17 7 16 8 10 9 11 10 14 11 12 13
REMARK SMILES IDX 91 14 13 15 15 16 2 17 1 18 3 19 4 20 9 21 5 22 7 23 6 24
REMARK SMILES IDX 8 25 23 27 24 28 25 29 26 30 27 32 28 33 29 34 90 35 30 36
REMARK SMILES IDX 89 37 31 38 32 39 33 40 83 41 34 42 88 43 82 44 84 45 35 46
REMARK SMILES IDX 87 47 81 48 80 49 36 51 68 52 48 53 67 54 49 55 52 56 66 57
REMARK SMILES IDX 85 58 50 59 51 60 65 62 86 63 53 64 37 65 38 66 46 67 39 68
REMARK SMILES IDX 41 69 47 70 40 71 42 72 43 73 44 74 45 75 69 76 70 77 78 78
REMARK SMILES IDX 71 79 73 80 79 81 72 82 74 83 75 84 76 85 77 86 54 87 55 88
REMARK SMILES IDX 63 89 56 90 58 91 64 92 57 93 59 94 60 95 61 96 62 97
REMARK H PARENT 20 6 10 12 8 26 25 31 84 50 52 61
REMARK Flexibility Score: inf
ROOT
ATOM      1  C   UNL A   1      32.492  29.274  24.293  1.00  0.00     0.023 C 
ENDROOT
BRANCH   1   2
ATOM      2  C   UNL A   1      31.717  29.100  22.987  1.00  0.00     0.116 C 
BRANCH   2   3
ATOM      3  N   UNL A   1      30.322  28.794  23.253  1.00  0.00    -0.356 N 
ATOM      4  C   UNL A   1      29.640  27.619  23.139  1.00  0.00     0.220 C 
ATOM      5  O   UNL A   1      28.421  27.625  23.318  1.00  0.00    -0.275 OA
ATOM      6  H   UNL A   1      29.784  29.556  23.566  1.00  0.00     0.163 HD
BRANCH   4   7
ATOM      7  C   UNL A   1      30.362  26.320  22.829  1.00  0.00     0.104 C 
BRANCH   7   8
ATOM      8  C   UNL A   1      30.296  25.257  23.950  1.00  0.00     0.010 C 
ATOM      9  N   UNL A   1      32.503  24.254  25.721  1.00  0.00    -0.324 N 
ATOM     10  C   UNL A   1      31.360  24.975  26.302  1.00  0.00     0.185 C 
ATOM     11  C   UNL A   1      31.832  23.316  24.809  1.00  0.00     0.185 C 
ATOM     12  H   UNL A   1      33.066  23.808  26.445  1.00  0.00     0.349 HD
ATOM     13  C   UNL A   1      30.439  23.810  26.701  1.00  0.00     0.071 C 
ATOM     14  C   UNL A   1      30.661  25.909  25.297  1.00  0.00     0.069 C 
ATOM     15  C   UNL A   1      30.764  22.700  25.709  1.00  0.00     0.071 C 
ATOM     16  C   UNL A   1      31.175  24.036  23.626  1.00  0.00     0.069 C 
BRANCH   9  17
ATOM     17  C   UNL A   1      33.620  25.034  25.144  1.00  0.00     0.212 C 
ATOM     18  C   UNL A   1      34.067  26.213  26.038  1.00  0.00     0.081 C 
BRANCH  17  19
ATOM     19  C   UNL A   1      34.831  24.140  24.812  1.00  0.00     0.013 A 
ATOM     20  C   UNL A   1      35.072  23.725  23.489  1.00  0.00     0.010 A 
ATOM     21  C   UNL A   1      35.764  23.751  25.792  1.00  0.00     0.056 A 
ATOM     22  C   UNL A   1      36.202  22.965  23.161  1.00  0.00     0.004 A 
ATOM     23  C   UNL A   1      36.907  23.033  25.450  1.00  0.00     0.116 A 
ATOM     24  C   UNL A   1      37.132  22.629  24.141  1.00  0.00     0.046 A 
BRANCH  23  25
ATOM     25  O   UNL A   1      37.806  22.762  26.442  1.00  0.00    -0.508 OA
ATOM     26  H   UNL A   1      37.551  22.845  27.340  1.00  0.00     0.293 HD
ENDBRANCH  23  25
ENDBRANCH  17  19
ENDBRANCH   9  17
ENDBRANCH   7   8
ENDBRANCH   4   7
ENDBRANCH   2   3
ENDBRANCH   1   2
BRANCH   1  27
ATOM     27  C   UNL A   1      31.652  29.534  25.529  1.00  0.00     0.023 C 
BRANCH  27  28
ATOM     28  C   UNL A   1      32.443  30.044  26.715  1.00  0.00     0.116 C 
BRANCH  28  29
ATOM     29  N   UNL A   1      32.334  31.485  26.924  1.00  0.00    -0.352 N 
ATOM     30  C   UNL A   1      33.294  32.333  27.439  1.00  0.00     0.251 C 
ATOM     31  H   UNL A   1      31.478  31.899  26.669  1.00  0.00     0.163 HD
ATOM     32  O   UNL A   1      33.061  33.515  27.632  1.00  0.00    -0.269 OA
BRANCH  30  33
ATOM     33  C   UNL A   1      34.600  31.741  27.796  1.00  0.00     0.039 A 
ATOM     34  C   UNL A   1      35.679  32.583  28.070  1.00  0.00     0.014 A 
ATOM     35  C   UNL A   1      34.683  30.368  28.033  1.00  0.00     0.014 A 
ATOM     36  C   UNL A   1      36.818  32.055  28.683  1.00  0.00     0.010 A 
ATOM     37  C   UNL A   1      35.765  29.872  28.742  1.00  0.00     0.010 A 
ATOM     38  C   UNL A   1      36.845  30.706  29.072  1.00  0.00    -0.014 A 
BRANCH  38  39
ATOM     39  C   UNL A   1      37.984  30.115  29.819  1.00  0.00     0.031 A 
ATOM     40  C   UNL A   1      38.250  30.576  31.226  1.00  0.00     0.074 A 
ATOM     41  C   UNL A   1      38.852  29.290  29.198  1.00  0.00     0.049 A 
ATOM     42  N   UNL A   1      39.284  30.349  31.990  1.00  0.00    -0.248 NA
ATOM     43  C   UNL A   1      37.239  31.460  31.835  1.00  0.00     0.031 C 
ATOM     44  C   UNL A   1      38.756  28.839  27.808  1.00  0.00     0.029 A 
ATOM     45  N   UNL A   1      40.013  28.713  29.651  1.00  0.00    -0.354 N 
ATOM     46  C   UNL A   1      39.082  31.111  33.133  1.00  0.00     0.074 A 
ATOM     47  C   UNL A   1      37.845  31.838  32.949  1.00  0.00     0.031 C 
ATOM     48  C   UNL A   1      39.809  28.054  27.524  1.00  0.00     0.029 A 
ATOM     49  C   UNL A   1      40.673  27.971  28.697  1.00  0.00     0.049 A 
ATOM     50  H   UNL A   1      40.345  28.820  30.572  1.00  0.00     0.167 HD
ATOM     51  C   UNL A   1      39.836  31.174  34.254  1.00  0.00     0.034 A 
ATOM     52  C   UNL A   1      41.843  27.304  28.763  1.00  0.00     0.034 A 
ATOM     53  C   UNL A   1      41.008  30.375  34.471  1.00  0.00     0.049 A 
ATOM     54  C   UNL A   1      42.611  27.308  30.057  1.00  0.00     0.074 A 
ATOM     55  C   UNL A   1      41.783  30.277  35.612  1.00  0.00     0.029 A 
ATOM     56  N   UNL A   1      41.564  29.522  33.531  1.00  0.00    -0.354 N 
ATOM     57  N   UNL A   1      42.326  27.920  31.182  1.00  0.00    -0.248 NA
ATOM     58  C   UNL A   1      43.841  26.504  30.109  1.00  0.00     0.031 C 
ATOM     59  C   UNL A   1      42.807  29.358  35.362  1.00  0.00     0.029 A 
ATOM     60  C   UNL A   1      42.664  28.882  34.068  1.00  0.00     0.049 A 
ATOM     61  H   UNL A   1      41.224  29.391  32.617  1.00  0.00     0.167 HD
ATOM     62  C   UNL A   1      43.315  27.543  32.083  1.00  0.00     0.074 A 
ATOM     63  C   UNL A   1      44.200  26.640  31.378  1.00  0.00     0.031 C 
ATOM     64  C   UNL A   1      43.485  27.924  33.373  1.00  0.00     0.034 A 
BRANCH  51  65
ATOM     65  C   UNL A   1      39.367  32.082  35.360  1.00  0.00     0.023 A 
ATOM     66  C   UNL A   1      38.416  31.608  36.287  1.00  0.00     0.012 A 
ATOM     67  C   UNL A   1      39.888  33.382  35.506  1.00  0.00     0.148 A 
ATOM     68  C   UNL A   1      37.961  32.426  37.319  1.00  0.00     0.002 A 
ATOM     69  C   UNL A   1      39.462  34.176  36.565  1.00  0.00     0.091 A 
ATOM     70  F   UNL A   1      40.770  33.824  34.599  1.00  0.00    -0.205 F 
ATOM     71  C   UNL A   1      38.492  33.705  37.463  1.00  0.00     0.022 A 
BRANCH  69  72
ATOM     72  S   UNL A   1      40.143  35.808  36.880  1.00  0.00     0.127 S 
ATOM     73  O   UNL A   1      39.654  36.560  35.725  1.00  0.00    -0.237 OA
ATOM     74  O   UNL A   1      39.514  36.167  38.151  1.00  0.00    -0.237 OA
ATOM     75  O   UNL A   1      41.587  35.630  36.949  1.00  0.00    -0.744 OA
ENDBRANCH  69  72
ENDBRANCH  51  65
BRANCH  52  76
ATOM     76  C   UNL A   1      42.313  26.504  27.594  1.00  0.00     0.023 A 
ATOM     77  C   UNL A   1      43.167  27.110  26.651  1.00  0.00     0.012 A 
ATOM     78  C   UNL A   1      41.955  25.154  27.425  1.00  0.00     0.148 A 
ATOM     79  C   UNL A   1      43.633  26.397  25.547  1.00  0.00     0.002 A 
ATOM     80  C   UNL A   1      42.462  24.432  26.348  1.00  0.00     0.091 A 
ATOM     81  F   UNL A   1      41.130  24.597  28.323  1.00  0.00    -0.205 F 
ATOM     82  C   UNL A   1      43.289  25.056  25.400  1.00  0.00     0.022 A 
BRANCH  80  83
ATOM     83  S   UNL A   1      42.175  22.669  26.155  1.00  0.00     0.127 S 
ATOM     84  O   UNL A   1      42.892  22.383  24.915  1.00  0.00    -0.237 OA
ATOM     85  O   UNL A   1      42.795  22.125  27.365  1.00  0.00    -0.237 OA
ATOM     86  O   UNL A   1      40.727  22.516  26.107  1.00  0.00    -0.744 OA
ENDBRANCH  80  83
ENDBRANCH  52  76
BRANCH  64  87
ATOM     87  C   UNL A   1      44.639  27.334  34.135  1.00  0.00     0.023 A 
ATOM     88  C   UNL A   1      45.863  28.026  34.192  1.00  0.00     0.012 A 
ATOM     89  C   UNL A   1      44.468  26.156  34.889  1.00  0.00     0.148 A 
ATOM     90  C   UNL A   1      46.910  27.544  34.976  1.00  0.00     0.002 A 
ATOM     91  C   UNL A   1      45.501  25.705  35.702  1.00  0.00     0.091 A 
ATOM     92  F   UNL A   1      43.300  25.505  34.803  1.00  0.00    -0.205 F 
ATOM     93  C   UNL A   1      46.724  26.393  35.741  1.00  0.00     0.022 A 
BRANCH  91  94
ATOM     94  S   UNL A   1      45.315  24.289  36.792  1.00  0.00     0.127 S 
ATOM     95  O   UNL A   1      44.930  23.238  35.851  1.00  0.00    -0.237 OA
ATOM     96  O   UNL A   1      46.661  24.146  37.349  1.00  0.00    -0.237 OA
ATOM     97  O   UNL A   1      44.298  24.664  37.764  1.00  0.00    -0.744 OA
ENDBRANCH  91  94
ENDBRANCH  64  87
ENDBRANCH  38  39
ENDBRANCH  30  33
ENDBRANCH  28  29
ENDBRANCH  27  28
ENDBRANCH   1  27
TORSDOF 18
ENDMDL
MODEL 2
REMARK VINA RESULT:     -12.2      1.713      2.169
REMARK SMILES C[C@@H](c1cccc(O)c1)[N@H+]1[C@@H]2CC[C@H]1C[C@H](CC(=O)NCCCCNC(=O)c1ccc(-c3c4nc(c(-c5cccc(S(=O)(=O)[O-])c5F)c5ccc([nH]5)c(-c5cccc(S(=O)(=O)[O-])c5F)c5nc(c(-c6cccc(S(=O)(=O)[O-])c6F)c6ccc3[nH]6)C=C5)C=C4)cc1)C2
REMARK SMILES IDX 22 1 21 2 20 3 18 4 19 5 17 7 16 8 10 9 11 10 14 11 12 13
REMARK SMILES IDX 91 14 13 15 15 16 2 17 1 18 3 19 4 20 9 21 5 22 7 23 6 24
REMARK SMILES IDX 8 25 23 27 24 28 25 29 26 30 27 32 28 33 29 34 90 35 30 36
REMARK SMILES IDX 89 37 31 38 32 39 33 40 83 41 34 42 88 43 82 44 84 45 35 46
REMARK SMILES IDX 87 47 81 48 80 49 36 51 68 52 48 53 67 54 49 55 52 56 66 57
REMARK SMILES IDX 85 58 50 59 51 60 65 62 86 63 53 64 37 65 38 66 46 67 39 68
REMARK SMILES IDX 41 69 47 70 40 71 42 72 43 73 44 74 45 75 69 76 70 77 78 78
REMARK SMILES IDX 71 79 73 80 79 81 72 82 74 83 75 84 76 85 77 86 54 87 55 88
REMARK SMILES IDX 63 89 56 90 58 91 64 92 57 93 59 94 60 95 61 96 62 97
REMARK H PARENT 20 6 10 12 8 26 25 31 84 50 52 61
REMARK Flexibility Score: inf
ROOT
ATOM      1  C   UNL A   1      33.961  28.612  24.150  1.00  0.00     0.023 C 
ENDROOT
BRANCH   1   2
ATOM      2  C   UNL A   1      33.896  28.203  22.678  1.00  0.00     0.116 C 
BRANCH   2   3
ATOM      3  N   UNL A   1      32.519  28.029  22.253  1.00  0.00    -0.356 N 
ATOM      4  C   UNL A   1      31.783  26.893  22.089  1.00  0.00     0.220 C 
ATOM      5  O   UNL A   1      30.653  26.986  21.608  1.00  0.00    -0.275 OA
ATOM      6  H   UNL A   1      32.039  28.864  22.051  1.00  0.00     0.163 HD
BRANCH   4   7
ATOM      7  C   UNL A   1      32.325  25.540  22.514  1.00  0.00     0.104 C 
BRANCH   7   8
ATOM      8  C   UNL A   1      31.896  25.085  23.929  1.00  0.00     0.010 C 
ATOM      9  N   UNL A   1      32.508  22.506  25.339  1.00  0.00    -0.324 N 
ATOM     10  C   UNL A   1      33.015  23.779  25.874  1.00  0.00     0.185 C 
ATOM     11  C   UNL A   1      31.109  22.845  25.038  1.00  0.00     0.185 C 
ATOM     12  H   UNL A   1      32.623  21.749  26.013  1.00  0.00     0.349 HD
ATOM     13  C   UNL A   1      31.920  24.137  26.892  1.00  0.00     0.071 C 
ATOM     14  C   UNL A   1      33.148  24.875  24.801  1.00  0.00     0.069 C 
ATOM     15  C   UNL A   1      30.651  23.502  26.337  1.00  0.00     0.071 C 
ATOM     16  C   UNL A   1      30.996  23.838  23.874  1.00  0.00     0.069 C 
BRANCH   9  17
ATOM     17  C   UNL A   1      33.261  21.836  24.256  1.00  0.00     0.212 C 
ATOM     18  C   UNL A   1      34.779  22.126  24.299  1.00  0.00     0.081 C 
BRANCH  17  19
ATOM     19  C   UNL A   1      33.019  20.314  24.247  1.00  0.00     0.013 A 
ATOM     20  C   UNL A   1      33.179  19.558  25.423  1.00  0.00     0.010 A 
ATOM     21  C   UNL A   1      32.585  19.632  23.095  1.00  0.00     0.056 A 
ATOM     22  C   UNL A   1      32.903  18.185  25.448  1.00  0.00     0.004 A 
ATOM     23  C   UNL A   1      32.271  18.276  23.138  1.00  0.00     0.116 A 
ATOM     24  C   UNL A   1      32.433  17.542  24.305  1.00  0.00     0.046 A 
BRANCH  23  25
ATOM     25  O   UNL A   1      31.778  17.703  22.001  1.00  0.00    -0.508 OA
ATOM     26  H   UNL A   1      32.000  18.059  21.163  1.00  0.00     0.293 HD
ENDBRANCH  23  25
ENDBRANCH  17  19
ENDBRANCH   9  17
ENDBRANCH   7   8
ENDBRANCH   4   7
ENDBRANCH   2   3
ENDBRANCH   1   2
BRANCH   1  27
ATOM     27  C   UNL A   1      32.746  29.344  24.685  1.00  0.00     0.023 C 
BRANCH  27  28
ATOM     28  C   UNL A   1      32.772  29.570  26.182  1.00  0.00     0.116 C 
BRANCH  28  29
ATOM     29  N   UNL A   1      32.519  30.952  26.577  1.00  0.00    -0.352 N 
ATOM     30  C   UNL A   1      33.354  31.786  27.295  1.00  0.00     0.251 C 
ATOM     31  H   UNL A   1      31.654  31.333  26.300  1.00  0.00     0.163 HD
ATOM     32  O   UNL A   1      33.001  32.906  27.626  1.00  0.00    -0.269 OA
BRANCH  30  33
ATOM     33  C   UNL A   1      34.672  31.248  27.691  1.00  0.00     0.039 A 
ATOM     34  C   UNL A   1      35.705  32.134  28.001  1.00  0.00     0.014 A 
ATOM     35  C   UNL A   1      34.806  29.879  27.924  1.00  0.00     0.014 A 
ATOM     36  C   UNL A   1      36.845  31.653  28.647  1.00  0.00     0.010 A 
ATOM     37  C   UNL A   1      35.886  29.426  28.665  1.00  0.00     0.010 A 
ATOM     38  C   UNL A   1      36.919  30.304  29.032  1.00  0.00    -0.014 A 
BRANCH  38  39
ATOM     39  C   UNL A   1      38.058  29.758  29.811  1.00  0.00     0.031 A 
ATOM     40  C   UNL A   1      38.284  30.253  31.215  1.00  0.00     0.074 A 
ATOM     41  C   UNL A   1      38.960  28.945  29.224  1.00  0.00     0.049 A 
ATOM     42  N   UNL A   1      39.308  30.067  32.002  1.00  0.00    -0.248 NA
ATOM     43  C   UNL A   1      37.237  31.120  31.787  1.00  0.00     0.031 C 
ATOM     44  C   UNL A   1      38.903  28.466  27.841  1.00  0.00     0.029 A 
ATOM     45  N   UNL A   1      40.127  28.409  29.710  1.00  0.00    -0.354 N 
ATOM     46  C   UNL A   1      39.063  30.845  33.127  1.00  0.00     0.074 A 
ATOM     47  C   UNL A   1      37.812  31.535  32.905  1.00  0.00     0.031 C 
ATOM     48  C   UNL A   1      39.982  27.704  27.593  1.00  0.00     0.029 A 
ATOM     49  C   UNL A   1      40.825  27.667  28.783  1.00  0.00     0.049 A 
ATOM     50  H   UNL A   1      40.437  28.542  30.635  1.00  0.00     0.167 HD
ATOM     51  C   UNL A   1      39.793  30.950  34.261  1.00  0.00     0.034 A 
ATOM     52  C   UNL A   1      42.011  27.034  28.884  1.00  0.00     0.034 A 
ATOM     53  C   UNL A   1      40.981  30.187  34.515  1.00  0.00     0.049 A 
ATOM     54  C   UNL A   1      42.753  27.083  30.193  1.00  0.00     0.074 A 
ATOM     55  C   UNL A   1      41.736  30.131  35.673  1.00  0.00     0.029 A 
ATOM     56  N   UNL A   1      41.578  29.332  33.603  1.00  0.00    -0.354 N 
ATOM     57  N   UNL A   1      42.429  27.707  31.300  1.00  0.00    -0.248 NA
ATOM     58  C   UNL A   1      44.003  26.313  30.284  1.00  0.00     0.031 C 
ATOM     59  C   UNL A   1      42.789  29.236  35.460  1.00  0.00     0.029 A 
ATOM     60  C   UNL A   1      42.685  28.733  34.173  1.00  0.00     0.049 A 
ATOM     61  H   UNL A   1      41.260  29.175  32.685  1.00  0.00     0.167 HD
ATOM     62  C   UNL A   1      43.410  27.375  32.227  1.00  0.00     0.074 A 
ATOM     63  C   UNL A   1      44.333  26.482  31.557  1.00  0.00     0.031 C 
ATOM     64  C   UNL A   1      43.544  27.784  33.512  1.00  0.00     0.034 A 
BRANCH  51  65
ATOM     65  C   UNL A   1      39.278  31.865  35.340  1.00  0.00     0.023 A 
ATOM     66  C   UNL A   1      38.294  31.395  36.233  1.00  0.00     0.012 A 
ATOM     67  C   UNL A   1      39.787  33.168  35.494  1.00  0.00     0.148 A 
ATOM     68  C   UNL A   1      37.796  32.220  37.240  1.00  0.00     0.002 A 
ATOM     69  C   UNL A   1      39.318  33.970  36.529  1.00  0.00     0.091 A 
ATOM     70  F   UNL A   1      40.702  33.607  34.618  1.00  0.00    -0.205 F 
ATOM     71  C   UNL A   1      38.316  33.502  37.393  1.00  0.00     0.022 A 
BRANCH  69  72
ATOM     72  S   UNL A   1      39.980  35.607  36.855  1.00  0.00     0.127 S 
ATOM     73  O   UNL A   1      39.277  35.971  38.084  1.00  0.00    -0.237 OA
ATOM     74  O   UNL A   1      41.408  35.337  37.027  1.00  0.00    -0.237 OA
ATOM     75  O   UNL A   1      39.654  36.409  35.683  1.00  0.00    -0.744 OA
ENDBRANCH  69  72
ENDBRANCH  51  65
BRANCH  52  76
ATOM     76  C   UNL A   1      42.526  26.225  27.741  1.00  0.00     0.023 A 
ATOM     77  C   UNL A   1      43.482  26.795  26.877  1.00  0.00     0.012 A 
ATOM     78  C   UNL A   1      42.107  24.900  27.519  1.00  0.00     0.148 A 
ATOM     79  C   UNL A   1      43.992  26.072  25.799  1.00  0.00     0.002 A 
ATOM     80  C   UNL A   1      42.655  24.166  26.472  1.00  0.00     0.091 A 
ATOM     81  F   UNL A   1      41.186  24.378  28.341  1.00  0.00    -0.205 F 
ATOM     82  C   UNL A   1      43.586  24.755  25.601  1.00  0.00     0.022 A 
BRANCH  80  83
ATOM     83  S   UNL A   1      42.287  22.425  26.224  1.00  0.00     0.127 S 
ATOM     84  O   UNL A   1      43.029  22.133  25.001  1.00  0.00    -0.237 OA
ATOM     85  O   UNL A   1      42.839  21.821  27.439  1.00  0.00    -0.237 OA
ATOM     86  O   UNL A   1      40.836  22.346  26.126  1.00  0.00    -0.744 OA
ENDBRANCH  80  83
ENDBRANCH  52  76
BRANCH  64  87
ATOM     87  C   UNL A   1      44.698  27.240  34.308  1.00  0.00     0.023 A 
ATOM     88  C   UNL A   1      45.918  27.942  34.336  1.00  0.00     0.012 A 
ATOM     89  C   UNL A   1      44.532  26.099  35.118  1.00  0.00     0.148 A 
ATOM     90  C   UNL A   1      46.964  27.506  35.147  1.00  0.00     0.002 A 
ATOM     91  C   UNL A   1      45.564  25.696  35.957  1.00  0.00     0.091 A 
ATOM     92  F   UNL A   1      43.368  25.438  35.059  1.00  0.00    -0.205 F 
ATOM     93  C   UNL A   1      46.782  26.393  35.967  1.00  0.00     0.022 A 
BRANCH  91  94
ATOM     94  S   UNL A   1      45.381  24.334  37.114  1.00  0.00     0.127 S 
ATOM     95  O   UNL A   1      46.717  24.264  37.703  1.00  0.00    -0.237 OA
ATOM     96  O   UNL A   1      44.342  24.831  38.017  1.00  0.00    -0.237 OA
ATOM     97  O   UNL A   1      44.985  23.182  36.317  1.00  0.00    -0.744 OA
ENDBRANCH  91  94
ENDBRANCH  64  87
ENDBRANCH  38  39
ENDBRANCH  30  33
ENDBRANCH  28  29
ENDBRANCH  27  28
ENDBRANCH   1  27
TORSDOF 18
ENDMDL
MODEL 3
REMARK VINA RESULT:     -12.0      1.753      7.970
REMARK SMILES C[C@@H](c1cccc(O)c1)[N@H+]1[C@@H]2CC[C@H]1C[C@H](CC(=O)NCCCCNC(=O)c1ccc(-c3c4nc(c(-c5cccc(S(=O)(=O)[O-])c5F)c5ccc([nH]5)c(-c5cccc(S(=O)(=O)[O-])c5F)c5nc(c(-c6cccc(S(=O)(=O)[O-])c6F)c6ccc3[nH]6)C=C5)C=C4)cc1)C2
REMARK SMILES IDX 22 1 21 2 20 3 18 4 19 5 17 7 16 8 10 9 11 10 14 11 12 13
REMARK SMILES IDX 91 14 13 15 15 16 2 17 1 18 3 19 4 20 9 21 5 22 7 23 6 24
REMARK SMILES IDX 8 25 23 27 24 28 25 29 26 30 27 32 28 33 29 34 90 35 30 36
REMARK SMILES IDX 89 37 31 38 32 39 33 40 83 41 34 42 88 43 82 44 84 45 35 46
REMARK SMILES IDX 87 47 81 48 80 49 36 51 68 52 48 53 67 54 49 55 52 56 66 57
REMARK SMILES IDX 85 58 50 59 51 60 65 62 86 63 53 64 37 65 38 66 46 67 39 68
REMARK SMILES IDX 41 69 47 70 40 71 42 72 43 73 44 74 45 75 69 76 70 77 78 78
REMARK SMILES IDX 71 79 73 80 79 81 72 82 74 83 75 84 76 85 77 86 54 87 55 88
REMARK SMILES IDX 63 89 56 90 58 91 64 92 57 93 59 94 60 95 61 96 62 97
REMARK H PARENT 20 6 10 12 8 26 25 31 84 50 52 61
REMARK Flexibility Score: inf
ROOT
ATOM      1  C   UNL A   1      33.971  28.852  24.159  1.00  0.00     0.023 C 
ENDROOT
BRANCH   1   2
ATOM      2  C   UNL A   1      33.916  28.529  22.666  1.00  0.00     0.116 C 
BRANCH   2   3
ATOM      3  N   UNL A   1      32.553  28.251  22.249  1.00  0.00    -0.356 N 
ATOM      4  C   UNL A   1      31.891  27.065  22.134  1.00  0.00     0.220 C 
ATOM      5  O   UNL A   1      30.758  27.067  21.650  1.00  0.00    -0.275 OA
ATOM      6  H   UNL A   1      32.022  29.045  22.013  1.00  0.00     0.163 HD
BRANCH   4   7
ATOM      7  C   UNL A   1      32.515  25.768  22.616  1.00  0.00     0.104 C 
BRANCH   7   8
ATOM      8  C   UNL A   1      32.007  25.275  23.991  1.00  0.00     0.010 C 
ATOM      9  N   UNL A   1      32.396  22.594  25.286  1.00  0.00    -0.324 N 
ATOM     10  C   UNL A   1      32.968  23.802  25.902  1.00  0.00     0.185 C 
ATOM     11  C   UNL A   1      31.034  23.042  24.959  1.00  0.00     0.185 C 
ATOM     12  H   UNL A   1      32.436  21.800  25.925  1.00  0.00     0.349 HD
ATOM     13  C   UNL A   1      31.863  24.184  26.902  1.00  0.00     0.071 C 
ATOM     14  C   UNL A   1      33.211  24.938  24.892  1.00  0.00     0.069 C 
ATOM     15  C   UNL A   1      30.575  23.665  26.274  1.00  0.00     0.071 C 
ATOM     16  C   UNL A   1      31.029  24.096  23.844  1.00  0.00     0.069 C 
BRANCH   9  17
ATOM     17  C   UNL A   1      33.141  21.928  24.196  1.00  0.00     0.212 C 
ATOM     18  C   UNL A   1      34.651  22.260  24.197  1.00  0.00     0.081 C 
BRANCH  17  19
ATOM     19  C   UNL A   1      32.941  20.400  24.215  1.00  0.00     0.013 A 
ATOM     20  C   UNL A   1      33.125  19.671  25.405  1.00  0.00     0.010 A 
ATOM     21  C   UNL A   1      32.521  19.686  23.078  1.00  0.00     0.056 A 
ATOM     22  C   UNL A   1      32.888  18.292  25.455  1.00  0.00     0.004 A 
ATOM     23  C   UNL A   1      32.244  18.322  23.147  1.00  0.00     0.116 A 
ATOM     24  C   UNL A   1      32.431  17.615  24.327  1.00  0.00     0.046 A 
BRANCH  23  25
ATOM     25  O   UNL A   1      31.762  17.716  22.023  1.00  0.00    -0.508 OA
ATOM     26  H   UNL A   1      32.101  16.883  21.758  1.00  0.00     0.293 HD
ENDBRANCH  23  25
ENDBRANCH  17  19
ENDBRANCH   9  17
ENDBRANCH   7   8
ENDBRANCH   4   7
ENDBRANCH   2   3
ENDBRANCH   1   2
BRANCH   1  27
ATOM     27  C   UNL A   1      32.633  29.085  24.833  1.00  0.00     0.023 C 
BRANCH  27  28
ATOM     28  C   UNL A   1      32.736  29.440  26.301  1.00  0.00     0.116 C 
BRANCH  28  29
ATOM     29  N   UNL A   1      32.335  30.810  26.608  1.00  0.00    -0.352 N 
ATOM     30  C   UNL A   1      33.085  31.783  27.240  1.00  0.00     0.251 C 
ATOM     31  H   UNL A   1      31.426  31.070  26.334  1.00  0.00     0.163 HD
ATOM     32  O   UNL A   1      32.615  32.877  27.504  1.00  0.00    -0.269 OA
BRANCH  30  33
ATOM     33  C   UNL A   1      34.466  31.427  27.629  1.00  0.00     0.039 A 
ATOM     34  C   UNL A   1      35.422  32.437  27.750  1.00  0.00     0.014 A 
ATOM     35  C   UNL A   1      34.741  30.124  28.045  1.00  0.00     0.014 A 
ATOM     36  C   UNL A   1      36.632  32.157  28.389  1.00  0.00     0.010 A 
ATOM     37  C   UNL A   1      35.892  29.881  28.777  1.00  0.00     0.010 A 
ATOM     38  C   UNL A   1      36.852  30.891  28.956  1.00  0.00    -0.014 A 
BRANCH  38  39
ATOM     39  C   UNL A   1      38.072  30.568  29.736  1.00  0.00     0.031 A 
ATOM     40  C   UNL A   1      39.075  29.608  29.155  1.00  0.00     0.074 A 
ATOM     41  C   UNL A   1      38.210  31.011  31.003  1.00  0.00     0.049 A 
ATOM     42  N   UNL A   1      40.101  29.037  29.726  1.00  0.00    -0.248 NA
ATOM     43  C   UNL A   1      38.860  29.193  27.756  1.00  0.00     0.031 C 
ATOM     44  C   UNL A   1      37.263  31.874  31.712  1.00  0.00     0.029 A 
ATOM     45  N   UNL A   1      39.189  30.761  31.933  1.00  0.00    -0.354 N 
ATOM     46  C   UNL A   1      40.608  28.149  28.786  1.00  0.00     0.074 A 
ATOM     47  C   UNL A   1      39.756  28.228  27.620  1.00  0.00     0.031 C 
ATOM     48  C   UNL A   1      37.709  32.084  32.963  1.00  0.00     0.029 A 
ATOM     49  C   UNL A   1      38.953  31.347  33.157  1.00  0.00     0.049 A 
ATOM     50  H   UNL A   1      39.984  30.213  31.745  1.00  0.00     0.167 HD
ATOM     51  C   UNL A   1      41.707  27.364  28.867  1.00  0.00     0.034 A 
ATOM     52  C   UNL A   1      39.659  31.290  34.304  1.00  0.00     0.034 A 
ATOM     53  C   UNL A   1      42.603  27.365  29.987  1.00  0.00     0.049 A 
ATOM     54  C   UNL A   1      40.934  30.490  34.335  1.00  0.00     0.074 A 
ATOM     55  C   UNL A   1      43.805  26.694  30.127  1.00  0.00     0.029 A 
ATOM     56  N   UNL A   1      42.407  28.087  31.153  1.00  0.00    -0.354 N 
ATOM     57  N   UNL A   1      41.478  29.771  33.382  1.00  0.00    -0.248 NA
ATOM     58  C   UNL A   1      41.714  30.520  35.581  1.00  0.00     0.031 C 
ATOM     59  C   UNL A   1      44.337  27.015  31.380  1.00  0.00     0.029 A 
ATOM     60  C   UNL A   1      43.468  27.890  32.015  1.00  0.00     0.049 A 
ATOM     61  H   UNL A   1      41.625  28.657  31.339  1.00  0.00     0.167 HD
ATOM     62  C   UNL A   1      42.679  29.297  33.899  1.00  0.00     0.074 A 
ATOM     63  C   UNL A   1      42.790  29.823  35.244  1.00  0.00     0.031 C 
ATOM     64  C   UNL A   1      43.597  28.488  33.319  1.00  0.00     0.034 A 
BRANCH  51  65
ATOM     65  C   UNL A   1      42.038  26.502  27.678  1.00  0.00     0.023 A 
ATOM     66  C   UNL A   1      42.776  27.051  26.610  1.00  0.00     0.012 A 
ATOM     67  C   UNL A   1      41.654  25.148  27.631  1.00  0.00     0.148 A 
ATOM     68  C   UNL A   1      43.094  26.278  25.495  1.00  0.00     0.002 A 
ATOM     69  C   UNL A   1      42.014  24.371  26.536  1.00  0.00     0.091 A 
ATOM     70  F   UNL A   1      40.929  24.652  28.643  1.00  0.00    -0.205 F 
ATOM     71  C   UNL A   1      42.722  24.937  25.464  1.00  0.00     0.022 A 
BRANCH  69  72
ATOM     72  S   UNL A   1      41.649  22.615  26.438  1.00  0.00     0.127 S 
ATOM     73  O   UNL A   1      42.210  22.126  27.696  1.00  0.00    -0.237 OA
ATOM     74  O   UNL A   1      40.187  22.605  26.377  1.00  0.00    -0.237 OA
ATOM     75  O   UNL A   1      42.307  22.140  25.228  1.00  0.00    -0.744 OA
ENDBRANCH  69  72
ENDBRANCH  51  65
BRANCH  52  76
ATOM     76  C   UNL A   1      39.224  32.085  35.489  1.00  0.00     0.023 A 
ATOM     77  C   UNL A   1      38.341  31.499  36.418  1.00  0.00     0.012 A 
ATOM     78  C   UNL A   1      39.695  33.391  35.722  1.00  0.00     0.148 A 
ATOM     79  C   UNL A   1      37.912  32.207  37.541  1.00  0.00     0.002 A 
ATOM     80  C   UNL A   1      39.304  34.074  36.870  1.00  0.00     0.091 A 
ATOM     81  F   UNL A   1      40.523  33.939  34.822  1.00  0.00    -0.205 F 
ATOM     82  C   UNL A   1      38.401  33.489  37.773  1.00  0.00     0.022 A 
BRANCH  80  83
ATOM     83  S   UNL A   1      39.986  35.676  37.312  1.00  0.00     0.127 S 
ATOM     84  O   UNL A   1      39.288  35.964  38.562  1.00  0.00    -0.237 OA
ATOM     85  O   UNL A   1      41.411  35.372  37.458  1.00  0.00    -0.237 OA
ATOM     86  O   UNL A   1      39.675  36.552  36.190  1.00  0.00    -0.744 OA
ENDBRANCH  80  83
ENDBRANCH  52  76
BRANCH  64  87
ATOM     87  C   UNL A   1      44.835  28.151  34.103  1.00  0.00     0.023 A 
ATOM     88  C   UNL A   1      45.963  28.989  34.018  1.00  0.00     0.012 A 
ATOM     89  C   UNL A   1      44.835  27.074  35.011  1.00  0.00     0.148 A 
ATOM     90  C   UNL A   1      47.081  28.749  34.814  1.00  0.00     0.002 A 
ATOM     91  C   UNL A   1      45.936  26.866  35.832  1.00  0.00     0.091 A 
ATOM     92  F   UNL A   1      43.756  26.279  35.060  1.00  0.00    -0.205 F 
ATOM     93  C   UNL A   1      47.063  27.698  35.730  1.00  0.00     0.022 A 
BRANCH  91  94
ATOM     94  S   UNL A   1      45.959  25.598  37.104  1.00  0.00     0.127 S 
ATOM     95  O   UNL A   1      44.776  25.945  37.890  1.00  0.00    -0.237 OA
ATOM     96  O   UNL A   1      45.832  24.369  36.321  1.00  0.00    -0.237 OA
ATOM     97  O   UNL A   1      47.234  25.744  37.792  1.00  0.00    -0.744 OA
ENDBRANCH  91  94
ENDBRANCH  64  87
ENDBRANCH  38  39
ENDBRANCH  30  33
ENDBRANCH  28  29
ENDBRANCH  27  28
ENDBRANCH   1  27
TORSDOF 18
ENDMDL
