MODEL 1
REMARK VINA RESULT:     -10.9      0.000      0.000
REMARK SMILES CCN(CCC#N)C(=O)c1ccncc1/C=C/C(=O)NCCCCNC(=O)c1ccc(-c2c3nc(c(-c4cccc(S(=O)(=O)[O-])c4F)c4ccc([nH]4)c(-c4cccc(S(=O)(=O)[O-])c4F)c4nc(c(-c5cccc(S(=O)(=O)[O-])c5F)c5ccc2[nH]5)C=C4)C=C3)cc1
REMARK SMILES IDX 21 1 20 2 18 3 19 4 17 6 16 7 15 8 10 9 11 10 12 11 14 12
REMARK SMILES IDX 13 13 8 14 9 15 3 16 2 17 1 18 4 19 5 20 6 21 7 22 22 23
REMARK SMILES IDX 23 24 24 25 25 26 26 27 27 29 28 30 29 31 90 32 30 33 89 34
REMARK SMILES IDX 31 35 32 36 33 37 83 38 34 39 88 40 82 41 84 42 35 43 87 44
REMARK SMILES IDX 81 45 80 46 36 48 68 49 48 50 67 51 49 52 52 53 66 54 85 55
REMARK SMILES IDX 50 56 51 57 65 59 86 60 53 61 37 62 38 63 46 64 39 65 41 66
REMARK SMILES IDX 47 67 40 68 42 69 43 70 44 71 45 72 69 73 70 74 78 75 71 76
REMARK SMILES IDX 73 77 79 78 72 79 74 80 75 81 76 82 77 83 54 84 55 85 63 86
REMARK SMILES IDX 56 87 58 88 64 89 57 90 59 91 60 92 61 93 62 94
REMARK H PARENT 20 5 25 28 84 47 52 58
REMARK Flexibility Score: inf
ROOT
ATOM      1  C   UNL A   1      31.004  28.826  22.789  1.00  0.00     0.116 C 
ENDROOT
BRANCH   1   2
ATOM      2  N   UNL A   1      32.219  28.248  22.249  1.00  0.00    -0.353 N 
ATOM      3  C   UNL A   1      32.759  27.017  22.448  1.00  0.00     0.244 C 
ATOM      4  O   UNL A   1      33.803  26.698  21.883  1.00  0.00    -0.270 OA
ATOM      5  H   UNL A   1      32.730  28.837  21.647  1.00  0.00     0.163 HD
BRANCH   3   6
ATOM      6  C   UNL A   1      32.180  26.098  23.453  1.00  0.00     0.072 C 
ATOM      7  C   UNL A   1      32.643  25.868  24.694  1.00  0.00     0.016 C 
BRANCH   7   8
ATOM      8  C   UNL A   1      31.979  24.853  25.530  1.00  0.00     0.006 A 
ATOM      9  C   UNL A   1      32.511  23.575  25.857  1.00  0.00     0.050 A 
ATOM     10  C   UNL A   1      31.619  22.641  26.388  1.00  0.00     0.034 A 
ATOM     11  C   UNL A   1      30.345  23.046  26.768  1.00  0.00     0.112 A 
ATOM     12  C   UNL A   1      30.680  25.151  25.957  1.00  0.00     0.119 A 
ATOM     13  N   UNL A   1      29.862  24.286  26.591  1.00  0.00    -0.264 NA
BRANCH   9  14
ATOM     14  C   UNL A   1      33.994  23.296  25.684  1.00  0.00     0.254 C 
ATOM     15  O   UNL A   1      34.719  23.703  26.589  1.00  0.00    -0.269 OA
BRANCH  14  16
ATOM     16  N   UNL A   1      34.597  22.528  24.643  1.00  0.00    -0.338 N 
BRANCH  16  17
ATOM     17  C   UNL A   1      34.712  23.171  23.310  1.00  0.00     0.116 C 
ATOM     18  C   UNL A   1      33.558  22.993  22.335  1.00  0.00     0.027 C 
ENDBRANCH  16  17
BRANCH  16  19
ATOM     19  C   UNL A   1      35.459  21.343  24.790  1.00  0.00     0.135 C 
BRANCH  19  20
ATOM     20  C   UNL A   1      36.895  21.560  24.314  1.00  0.00     0.141 C 
BRANCH  20  21
ATOM     21  C   UNL A   1      37.749  20.404  24.807  1.00  0.00     0.064 C 
ATOM     22  N   UNL A   1      38.459  19.445  25.216  1.00  0.00    -0.198 NA
ENDBRANCH  20  21
ENDBRANCH  19  20
ENDBRANCH  16  19
ENDBRANCH  14  16
ENDBRANCH   9  14
ENDBRANCH   7   8
ENDBRANCH   3   6
ENDBRANCH   1   2
BRANCH   1  23
ATOM     23  C   UNL A   1      31.097  29.171  24.275  1.00  0.00     0.023 C 
BRANCH  23  24
ATOM     24  C   UNL A   1      32.475  29.617  24.760  1.00  0.00     0.023 C 
BRANCH  24  25
ATOM     25  C   UNL A   1      32.582  29.910  26.254  1.00  0.00     0.116 C 
BRANCH  25  26
ATOM     26  N   UNL A   1      32.425  31.317  26.606  1.00  0.00    -0.352 N 
ATOM     27  C   UNL A   1      33.292  32.119  27.312  1.00  0.00     0.251 C 
ATOM     28  H   UNL A   1      31.594  31.746  26.300  1.00  0.00     0.163 HD
ATOM     29  O   UNL A   1      32.980  33.273  27.598  1.00  0.00    -0.269 OA
BRANCH  27  30
ATOM     30  C   UNL A   1      34.585  31.560  27.762  1.00  0.00     0.039 A 
ATOM     31  C   UNL A   1      35.672  32.420  27.930  1.00  0.00     0.014 A 
ATOM     32  C   UNL A   1      34.704  30.205  28.084  1.00  0.00     0.014 A 
ATOM     33  C   UNL A   1      36.850  31.937  28.504  1.00  0.00     0.010 A 
ATOM     34  C   UNL A   1      35.847  29.746  28.730  1.00  0.00     0.010 A 
ATOM     35  C   UNL A   1      36.931  30.607  28.953  1.00  0.00    -0.014 A 
BRANCH  35  36
ATOM     36  C   UNL A   1      38.117  30.130  29.711  1.00  0.00     0.031 A 
ATOM     37  C   UNL A   1      38.383  30.597  31.115  1.00  0.00     0.074 A 
ATOM     38  C   UNL A   1      39.014  29.334  29.092  1.00  0.00     0.049 A 
ATOM     39  N   UNL A   1      39.354  30.260  31.923  1.00  0.00    -0.248 NA
ATOM     40  C   UNL A   1      37.456  31.593  31.675  1.00  0.00     0.031 C 
ATOM     41  C   UNL A   1      38.939  28.910  27.692  1.00  0.00     0.029 A 
ATOM     42  N   UNL A   1      40.173  28.762  29.550  1.00  0.00    -0.354 N 
ATOM     43  C   UNL A   1      39.179  31.025  33.071  1.00  0.00     0.074 A 
ATOM     44  C   UNL A   1      38.028  31.871  32.837  1.00  0.00     0.031 C 
ATOM     45  C   UNL A   1      39.998  28.134  27.411  1.00  0.00     0.029 A 
ATOM     46  C   UNL A   1      40.837  28.022  28.599  1.00  0.00     0.049 A 
ATOM     47  H   UNL A   1      40.500  28.870  30.473  1.00  0.00     0.167 HD
ATOM     48  C   UNL A   1      39.889  31.004  34.224  1.00  0.00     0.034 A 
ATOM     49  C   UNL A   1      41.989  27.328  28.674  1.00  0.00     0.034 A 
ATOM     50  C   UNL A   1      41.013  30.138  34.463  1.00  0.00     0.049 A 
ATOM     51  C   UNL A   1      42.717  27.255  29.987  1.00  0.00     0.074 A 
ATOM     52  C   UNL A   1      41.726  29.954  35.635  1.00  0.00     0.029 A 
ATOM     53  N   UNL A   1      41.602  29.322  33.509  1.00  0.00    -0.354 N 
ATOM     54  N   UNL A   1      42.415  27.825  31.129  1.00  0.00    -0.248 NA
ATOM     55  C   UNL A   1      43.916  26.407  30.035  1.00  0.00     0.031 C 
ATOM     56  C   UNL A   1      42.764  29.051  35.380  1.00  0.00     0.029 A 
ATOM     57  C   UNL A   1      42.679  28.647  34.058  1.00  0.00     0.049 A 
ATOM     58  H   UNL A   1      41.298  29.236  32.576  1.00  0.00     0.167 HD
ATOM     59  C   UNL A   1      43.373  27.389  32.037  1.00  0.00     0.074 A 
ATOM     60  C   UNL A   1      44.244  26.481  31.319  1.00  0.00     0.031 C 
ATOM     61  C   UNL A   1      43.525  27.723  33.344  1.00  0.00     0.034 A 
BRANCH  48  62
ATOM     62  C   UNL A   1      39.435  31.917  35.336  1.00  0.00     0.023 A 
ATOM     63  C   UNL A   1      38.519  31.443  36.297  1.00  0.00     0.012 A 
ATOM     64  C   UNL A   1      39.941  33.227  35.452  1.00  0.00     0.148 A 
ATOM     65  C   UNL A   1      38.075  32.271  37.328  1.00  0.00     0.002 A 
ATOM     66  C   UNL A   1      39.531  34.030  36.512  1.00  0.00     0.091 A 
ATOM     67  F   UNL A   1      40.794  33.671  34.519  1.00  0.00    -0.205 F 
ATOM     68  C   UNL A   1      38.588  33.560  37.440  1.00  0.00     0.022 A 
BRANCH  66  69
ATOM     69  S   UNL A   1      40.198  35.675  36.790  1.00  0.00     0.127 S 
ATOM     70  O   UNL A   1      41.634  35.438  36.654  1.00  0.00    -0.237 OA
ATOM     71  O   UNL A   1      39.600  36.441  35.696  1.00  0.00    -0.237 OA
ATOM     72  O   UNL A   1      39.747  36.068  38.118  1.00  0.00    -0.744 OA
ENDBRANCH  66  69
ENDBRANCH  48  62
BRANCH  49  73
ATOM     73  C   UNL A   1      42.472  26.580  27.479  1.00  0.00     0.023 A 
ATOM     74  C   UNL A   1      43.310  27.224  26.548  1.00  0.00     0.012 A 
ATOM     75  C   UNL A   1      42.158  25.219  27.295  1.00  0.00     0.148 A 
ATOM     76  C   UNL A   1      43.809  26.533  25.444  1.00  0.00     0.002 A 
ATOM     77  C   UNL A   1      42.705  24.521  26.226  1.00  0.00     0.091 A 
ATOM     78  F   UNL A   1      41.353  24.629  28.190  1.00  0.00    -0.205 F 
ATOM     79  C   UNL A   1      43.517  25.181  25.289  1.00  0.00     0.022 A 
BRANCH  77  80
ATOM     80  S   UNL A   1      42.503  22.748  26.024  1.00  0.00     0.127 S 
ATOM     81  O   UNL A   1      43.095  22.528  24.707  1.00  0.00    -0.237 OA
ATOM     82  O   UNL A   1      43.284  22.229  27.147  1.00  0.00    -0.237 OA
ATOM     83  O   UNL A   1      41.071  22.500  26.121  1.00  0.00    -0.744 OA
ENDBRANCH  77  80
ENDBRANCH  49  73
BRANCH  61  84
ATOM     84  C   UNL A   1      44.674  27.093  34.090  1.00  0.00     0.023 A 
ATOM     85  C   UNL A   1      45.939  27.714  34.082  1.00  0.00     0.012 A 
ATOM     86  C   UNL A   1      44.490  25.914  34.838  1.00  0.00     0.148 A 
ATOM     87  C   UNL A   1      47.014  27.148  34.768  1.00  0.00     0.002 A 
ATOM     88  C   UNL A   1      45.552  25.382  35.562  1.00  0.00     0.091 A 
ATOM     89  F   UNL A   1      43.286  25.324  34.820  1.00  0.00    -0.205 F 
ATOM     90  C   UNL A   1      46.818  25.989  35.516  1.00  0.00     0.022 A 
BRANCH  88  91
ATOM     91  S   UNL A   1      45.364  23.948  36.626  1.00  0.00     0.127 S 
ATOM     92  O   UNL A   1      44.579  24.496  37.730  1.00  0.00    -0.237 OA
ATOM     93  O   UNL A   1      44.636  23.013  35.766  1.00  0.00    -0.237 OA
ATOM     94  O   UNL A   1      46.716  23.524  36.965  1.00  0.00    -0.744 OA
ENDBRANCH  88  91
ENDBRANCH  61  84
ENDBRANCH  35  36
ENDBRANCH  27  30
ENDBRANCH  25  26
ENDBRANCH  24  25
ENDBRANCH  23  24
ENDBRANCH   1  23
TORSDOF 21
ENDMDL
MODEL 2
REMARK VINA RESULT:     -10.4      2.780      3.390
REMARK SMILES CCN(CCC#N)C(=O)c1ccncc1/C=C/C(=O)NCCCCNC(=O)c1ccc(-c2c3nc(c(-c4cccc(S(=O)(=O)[O-])c4F)c4ccc([nH]4)c(-c4cccc(S(=O)(=O)[O-])c4F)c4nc(c(-c5cccc(S(=O)(=O)[O-])c5F)c5ccc2[nH]5)C=C4)C=C3)cc1
REMARK SMILES IDX 21 1 20 2 18 3 19 4 17 6 16 7 15 8 10 9 11 10 12 11 14 12
REMARK SMILES IDX 13 13 8 14 9 15 3 16 2 17 1 18 4 19 5 20 6 21 7 22 22 23
REMARK SMILES IDX 23 24 24 25 25 26 26 27 27 29 28 30 29 31 90 32 30 33 89 34
REMARK SMILES IDX 31 35 32 36 33 37 83 38 34 39 88 40 82 41 84 42 35 43 87 44
REMARK SMILES IDX 81 45 80 46 36 48 68 49 48 50 67 51 49 52 52 53 66 54 85 55
REMARK SMILES IDX 50 56 51 57 65 59 86 60 53 61 37 62 38 63 46 64 39 65 41 66
REMARK SMILES IDX 47 67 40 68 42 69 43 70 44 71 45 72 69 73 70 74 78 75 71 76
REMARK SMILES IDX 73 77 79 78 72 79 74 80 75 81 76 82 77 83 54 84 55 85 63 86
REMARK SMILES IDX 56 87 58 88 64 89 57 90 59 91 60 92 61 93 62 94
REMARK H PARENT 20 5 25 28 84 47 52 58
REMARK Flexibility Score: inf
ROOT
ATOM      1  C   UNL A   1      32.157  28.968  23.386  1.00  0.00     0.116 C 
ENDROOT
BRANCH   1   2
ATOM      2  N   UNL A   1      32.924  28.161  22.458  1.00  0.00    -0.353 N 
ATOM      3  C   UNL A   1      33.034  26.809  22.366  1.00  0.00     0.244 C 
ATOM      4  O   UNL A   1      33.731  26.300  21.491  1.00  0.00    -0.270 OA
ATOM      5  H   UNL A   1      33.445  28.669  21.794  1.00  0.00     0.163 HD
BRANCH   3   6
ATOM      6  C   UNL A   1      32.435  25.937  23.402  1.00  0.00     0.072 C 
ATOM      7  C   UNL A   1      33.067  24.996  24.124  1.00  0.00     0.016 C 
BRANCH   7   8
ATOM      8  C   UNL A   1      32.287  24.165  25.058  1.00  0.00     0.006 A 
ATOM      9  C   UNL A   1      31.934  22.802  24.853  1.00  0.00     0.050 A 
ATOM     10  C   UNL A   1      30.940  22.279  25.683  1.00  0.00     0.034 A 
ATOM     11  C   UNL A   1      30.504  23.015  26.780  1.00  0.00     0.112 A 
ATOM     12  C   UNL A   1      31.783  24.809  26.193  1.00  0.00     0.119 A 
ATOM     13  N   UNL A   1      30.922  24.256  27.073  1.00  0.00    -0.264 NA
BRANCH   9  14
ATOM     14  C   UNL A   1      32.667  21.969  23.817  1.00  0.00     0.254 C 
ATOM     15  O   UNL A   1      32.904  22.536  22.752  1.00  0.00    -0.269 OA
BRANCH  14  16
ATOM     16  N   UNL A   1      33.191  20.654  24.000  1.00  0.00    -0.338 N 
BRANCH  16  17
ATOM     17  C   UNL A   1      34.345  20.510  24.924  1.00  0.00     0.116 C 
ATOM     18  C   UNL A   1      35.414  21.592  24.897  1.00  0.00     0.027 C 
ENDBRANCH  16  17
BRANCH  16  19
ATOM     19  C   UNL A   1      32.522  19.375  23.706  1.00  0.00     0.135 C 
BRANCH  19  20
ATOM     20  C   UNL A   1      33.052  18.199  24.525  1.00  0.00     0.141 C 
BRANCH  20  21
ATOM     21  C   UNL A   1      33.682  17.192  23.576  1.00  0.00     0.064 C 
ATOM     22  N   UNL A   1      34.205  16.357  22.790  1.00  0.00    -0.198 NA
ENDBRANCH  20  21
ENDBRANCH  19  20
ENDBRANCH  16  19
ENDBRANCH  14  16
ENDBRANCH   9  14
ENDBRANCH   7   8
ENDBRANCH   3   6
ENDBRANCH   1   2
BRANCH   1  23
ATOM     23  C   UNL A   1      32.314  28.540  24.845  1.00  0.00     0.023 C 
BRANCH  23  24
ATOM     24  C   UNL A   1      33.566  29.058  25.550  1.00  0.00     0.023 C 
BRANCH  24  25
ATOM     25  C   UNL A   1      33.438  29.252  27.058  1.00  0.00     0.116 C 
BRANCH  25  26
ATOM     26  N   UNL A   1      33.537  30.639  27.498  1.00  0.00    -0.352 N 
ATOM     27  C   UNL A   1      34.564  31.242  28.186  1.00  0.00     0.251 C 
ATOM     28  H   UNL A   1      32.771  31.216  27.275  1.00  0.00     0.163 HD
ATOM     29  O   UNL A   1      34.465  32.409  28.558  1.00  0.00    -0.269 OA
BRANCH  27  30
ATOM     30  C   UNL A   1      35.771  30.453  28.514  1.00  0.00     0.039 A 
ATOM     31  C   UNL A   1      36.870  30.510  27.654  1.00  0.00     0.014 A 
ATOM     32  C   UNL A   1      35.843  29.718  29.701  1.00  0.00     0.014 A 
ATOM     33  C   UNL A   1      38.070  29.900  28.029  1.00  0.00     0.010 A 
ATOM     34  C   UNL A   1      37.061  29.182  30.108  1.00  0.00     0.010 A 
ATOM     35  C   UNL A   1      38.190  29.273  29.282  1.00  0.00    -0.014 A 
BRANCH  35  36
ATOM     36  C   UNL A   1      39.503  28.766  29.757  1.00  0.00     0.031 A 
ATOM     37  C   UNL A   1      40.255  29.465  30.855  1.00  0.00     0.074 A 
ATOM     38  C   UNL A   1      40.067  27.713  29.128  1.00  0.00     0.049 A 
ATOM     39  N   UNL A   1      41.398  29.142  31.404  1.00  0.00    -0.248 NA
ATOM     40  C   UNL A   1      39.665  30.704  31.386  1.00  0.00     0.031 C 
ATOM     41  C   UNL A   1      39.500  27.022  27.968  1.00  0.00     0.029 A 
ATOM     42  N   UNL A   1      41.248  27.056  29.360  1.00  0.00    -0.354 N 
ATOM     43  C   UNL A   1      41.682  30.150  32.317  1.00  0.00     0.074 A 
ATOM     44  C   UNL A   1      40.608  31.116  32.220  1.00  0.00     0.031 C 
ATOM     45  C   UNL A   1      40.326  26.031  27.599  1.00  0.00     0.029 A 
ATOM     46  C   UNL A   1      41.491  26.028  28.479  1.00  0.00     0.049 A 
ATOM     47  H   UNL A   1      41.866  27.298  30.088  1.00  0.00     0.167 HD
ATOM     48  C   UNL A   1      42.722  30.249  33.179  1.00  0.00     0.034 A 
ATOM     49  C   UNL A   1      42.528  25.174  28.390  1.00  0.00     0.034 A 
ATOM     50  C   UNL A   1      43.770  29.270  33.294  1.00  0.00     0.049 A 
ATOM     51  C   UNL A   1      43.632  25.254  29.408  1.00  0.00     0.074 A 
ATOM     52  C   UNL A   1      44.803  29.216  34.214  1.00  0.00     0.029 A 
ATOM     53  N   UNL A   1      43.933  28.181  32.451  1.00  0.00    -0.354 N 
ATOM     54  N   UNL A   1      43.776  26.096  30.403  1.00  0.00    -0.248 NA
ATOM     55  C   UNL A   1      44.691  24.239  29.320  1.00  0.00     0.031 C 
ATOM     56  C   UNL A   1      45.606  28.112  33.908  1.00  0.00     0.029 A 
ATOM     57  C   UNL A   1      45.057  27.459  32.816  1.00  0.00     0.049 A 
ATOM     58  H   UNL A   1      43.336  27.954  31.702  1.00  0.00     0.167 HD
ATOM     59  C   UNL A   1      44.928  25.701  31.073  1.00  0.00     0.074 A 
ATOM     60  C   UNL A   1      45.423  24.524  30.389  1.00  0.00     0.031 C 
ATOM     61  C   UNL A   1      45.528  26.271  32.148  1.00  0.00     0.034 A 
BRANCH  48  62
ATOM     62  C   UNL A   1      42.747  31.441  34.103  1.00  0.00     0.023 A 
ATOM     63  C   UNL A   1      43.383  32.631  33.690  1.00  0.00     0.012 A 
ATOM     64  C   UNL A   1      42.113  31.400  35.360  1.00  0.00     0.148 A 
ATOM     65  C   UNL A   1      43.429  33.743  34.530  1.00  0.00     0.002 A 
ATOM     66  C   UNL A   1      42.122  32.529  36.172  1.00  0.00     0.091 A 
ATOM     67  F   UNL A   1      41.533  30.255  35.749  1.00  0.00    -0.205 F 
ATOM     68  C   UNL A   1      42.791  33.695  35.766  1.00  0.00     0.022 A 
BRANCH  66  69
ATOM     69  S   UNL A   1      41.256  32.594  37.746  1.00  0.00     0.127 S 
ATOM     70  O   UNL A   1      42.056  31.682  38.560  1.00  0.00    -0.237 OA
ATOM     71  O   UNL A   1      41.380  34.006  38.109  1.00  0.00    -0.237 OA
ATOM     72  O   UNL A   1      39.893  32.160  37.468  1.00  0.00    -0.744 OA
ENDBRANCH  66  69
ENDBRANCH  48  62
BRANCH  49  73
ATOM     73  C   UNL A   1      42.520  24.118  27.339  1.00  0.00     0.023 A 
ATOM     74  C   UNL A   1      43.190  24.344  26.121  1.00  0.00     0.012 A 
ATOM     75  C   UNL A   1      41.908  22.870  27.566  1.00  0.00     0.148 A 
ATOM     76  C   UNL A   1      43.232  23.356  25.138  1.00  0.00     0.002 A 
ATOM     77  C   UNL A   1      42.003  21.869  26.607  1.00  0.00     0.091 A 
ATOM     78  F   UNL A   1      41.270  22.679  28.729  1.00  0.00    -0.205 F 
ATOM     79  C   UNL A   1      42.650  22.115  25.386  1.00  0.00     0.022 A 
BRANCH  77  80
ATOM     80  S   UNL A   1      41.411  20.197  26.893  1.00  0.00     0.127 S 
ATOM     81  O   UNL A   1      40.369  20.071  25.877  1.00  0.00    -0.237 OA
ATOM     82  O   UNL A   1      42.616  19.407  26.643  1.00  0.00    -0.237 OA
ATOM     83  O   UNL A   1      40.950  20.172  28.275  1.00  0.00    -0.744 OA
ENDBRANCH  77  80
ENDBRANCH  49  73
BRANCH  61  84
ATOM     84  C   UNL A   1      46.787  25.622  32.663  1.00  0.00     0.023 A 
ATOM     85  C   UNL A   1      46.726  24.761  33.778  1.00  0.00     0.012 A 
ATOM     86  C   UNL A   1      48.022  25.824  32.017  1.00  0.00     0.148 A 
ATOM     87  C   UNL A   1      47.879  24.148  34.268  1.00  0.00     0.002 A 
ATOM     88  C   UNL A   1      49.159  25.170  32.479  1.00  0.00     0.091 A 
ATOM     89  F   UNL A   1      48.068  26.661  30.970  1.00  0.00    -0.205 F 
ATOM     90  C   UNL A   1      49.092  24.344  33.613  1.00  0.00     0.022 A 
BRANCH  88  91
ATOM     91  S   UNL A   1      50.741  25.290  31.638  1.00  0.00     0.127 S 
ATOM     92  O   UNL A   1      51.201  26.614  32.054  1.00  0.00    -0.237 OA
ATOM     93  O   UNL A   1      51.490  24.174  32.219  1.00  0.00    -0.237 OA
ATOM     94  O   UNL A   1      50.449  25.143  30.218  1.00  0.00    -0.744 OA
ENDBRANCH  88  91
ENDBRANCH  61  84
ENDBRANCH  35  36
ENDBRANCH  27  30
ENDBRANCH  25  26
ENDBRANCH  24  25
ENDBRANCH  23  24
ENDBRANCH   1  23
TORSDOF 21
ENDMDL
MODEL 3
REMARK VINA RESULT:     -10.1      2.261      3.840
REMARK SMILES CCN(CCC#N)C(=O)c1ccncc1/C=C/C(=O)NCCCCNC(=O)c1ccc(-c2c3nc(c(-c4cccc(S(=O)(=O)[O-])c4F)c4ccc([nH]4)c(-c4cccc(S(=O)(=O)[O-])c4F)c4nc(c(-c5cccc(S(=O)(=O)[O-])c5F)c5ccc2[nH]5)C=C4)C=C3)cc1
REMARK SMILES IDX 21 1 20 2 18 3 19 4 17 6 16 7 15 8 10 9 11 10 12 11 14 12
REMARK SMILES IDX 13 13 8 14 9 15 3 16 2 17 1 18 4 19 5 20 6 21 7 22 22 23
REMARK SMILES IDX 23 24 24 25 25 26 26 27 27 29 28 30 29 31 90 32 30 33 89 34
REMARK SMILES IDX 31 35 32 36 33 37 83 38 34 39 88 40 82 41 84 42 35 43 87 44
REMARK SMILES IDX 81 45 80 46 36 48 68 49 48 50 67 51 49 52 52 53 66 54 85 55
REMARK SMILES IDX 50 56 51 57 65 59 86 60 53 61 37 62 38 63 46 64 39 65 41 66
REMARK SMILES IDX 47 67 40 68 42 69 43 70 44 71 45 72 69 73 70 74 78 75 71 76
REMARK SMILES IDX 73 77 79 78 72 79 74 80 75 81 76 82 77 83 54 84 55 85 63 86
REMARK SMILES IDX 56 87 58 88 64 89 57 90 59 91 60 92 61 93 62 94
REMARK H PARENT 20 5 25 28 84 47 52 58
REMARK Flexibility Score: inf
ROOT
ATOM      1  C   UNL A   1      32.206  28.944  26.103  1.00  0.00     0.116 C 
ENDROOT
BRANCH   1   2
ATOM      2  N   UNL A   1      32.881  29.217  24.849  1.00  0.00    -0.353 N 
ATOM      3  C   UNL A   1      33.573  28.378  24.034  1.00  0.00     0.244 C 
ATOM      4  O   UNL A   1      34.068  28.795  22.989  1.00  0.00    -0.270 OA
ATOM      5  H   UNL A   1      32.829  30.151  24.542  1.00  0.00     0.163 HD
BRANCH   3   6
ATOM      6  C   UNL A   1      33.863  26.990  24.459  1.00  0.00     0.072 C 
ATOM      7  C   UNL A   1      33.730  25.877  23.717  1.00  0.00     0.016 C 
BRANCH   7   8
ATOM      8  C   UNL A   1      33.990  24.567  24.337  1.00  0.00     0.006 A 
ATOM      9  C   UNL A   1      33.008  23.720  24.923  1.00  0.00     0.050 A 
ATOM     10  C   UNL A   1      33.476  22.681  25.730  1.00  0.00     0.034 A 
ATOM     11  C   UNL A   1      34.835  22.388  25.755  1.00  0.00     0.112 A 
ATOM     12  C   UNL A   1      35.331  24.176  24.429  1.00  0.00     0.119 A 
ATOM     13  N   UNL A   1      35.772  23.093  25.102  1.00  0.00    -0.264 NA
BRANCH   9  14
ATOM     14  C   UNL A   1      31.537  23.928  24.612  1.00  0.00     0.254 C 
ATOM     15  O   UNL A   1      31.111  23.322  23.631  1.00  0.00    -0.269 OA
BRANCH  14  16
ATOM     16  N   UNL A   1      30.598  24.659  25.400  1.00  0.00    -0.338 N 
BRANCH  16  17
ATOM     17  C   UNL A   1      30.131  24.022  26.658  1.00  0.00     0.116 C 
ATOM     18  C   UNL A   1      30.036  22.504  26.692  1.00  0.00     0.027 C 
ENDBRANCH  16  17
BRANCH  16  19
ATOM     19  C   UNL A   1      30.314  26.103  25.343  1.00  0.00     0.135 C 
BRANCH  19  20
ATOM     20  C   UNL A   1      29.294  26.490  24.273  1.00  0.00     0.141 C 
BRANCH  20  21
ATOM     21  C   UNL A   1      30.031  27.138  23.111  1.00  0.00     0.064 C 
ATOM     22  N   UNL A   1      30.641  27.675  22.149  1.00  0.00    -0.198 NA
ENDBRANCH  20  21
ENDBRANCH  19  20
ENDBRANCH  16  19
ENDBRANCH  14  16
ENDBRANCH   9  14
ENDBRANCH   7   8
ENDBRANCH   3   6
ENDBRANCH   1   2
BRANCH   1  23
ATOM     23  C   UNL A   1      32.571  29.922  27.220  1.00  0.00     0.023 C 
BRANCH  23  24
ATOM     24  C   UNL A   1      32.228  31.386  26.949  1.00  0.00     0.023 C 
BRANCH  24  25
ATOM     25  C   UNL A   1      33.306  32.395  27.334  1.00  0.00     0.116 C 
BRANCH  25  26
ATOM     26  N   UNL A   1      32.796  33.710  27.706  1.00  0.00    -0.352 N 
ATOM     27  C   UNL A   1      33.263  34.557  28.684  1.00  0.00     0.251 C 
ATOM     28  H   UNL A   1      32.020  34.031  27.192  1.00  0.00     0.163 HD
ATOM     29  O   UNL A   1      32.673  35.606  28.933  1.00  0.00    -0.269 OA
BRANCH  27  30
ATOM     30  C   UNL A   1      34.456  34.167  29.465  1.00  0.00     0.039 A 
ATOM     31  C   UNL A   1      34.285  33.440  30.645  1.00  0.00     0.014 A 
ATOM     32  C   UNL A   1      35.741  34.457  28.998  1.00  0.00     0.014 A 
ATOM     33  C   UNL A   1      35.403  32.928  31.307  1.00  0.00     0.010 A 
ATOM     34  C   UNL A   1      36.847  33.878  29.613  1.00  0.00     0.010 A 
ATOM     35  C   UNL A   1      36.691  33.102  30.770  1.00  0.00    -0.014 A 
BRANCH  35  36
ATOM     36  C   UNL A   1      37.867  32.425  31.377  1.00  0.00     0.031 A 
ATOM     37  C   UNL A   1      38.493  32.940  32.642  1.00  0.00     0.074 A 
ATOM     38  C   UNL A   1      38.433  31.386  30.728  1.00  0.00     0.049 A 
ATOM     39  N   UNL A   1      39.505  32.455  33.316  1.00  0.00    -0.248 NA
ATOM     40  C   UNL A   1      37.932  34.175  33.212  1.00  0.00     0.031 C 
ATOM     41  C   UNL A   1      38.000  30.868  29.428  1.00  0.00     0.029 A 
ATOM     42  N   UNL A   1      39.505  30.597  31.059  1.00  0.00    -0.354 N 
ATOM     43  C   UNL A   1      39.724  33.339  34.365  1.00  0.00     0.074 A 
ATOM     44  C   UNL A   1      38.763  34.412  34.217  1.00  0.00     0.031 C 
ATOM     45  C   UNL A   1      38.789  29.840  29.080  1.00  0.00     0.029 A 
ATOM     46  C   UNL A   1      39.796  29.638  30.117  1.00  0.00     0.049 A 
ATOM     47  H   UNL A   1      40.018  30.707  31.892  1.00  0.00     0.167 HD
ATOM     48  C   UNL A   1      40.621  33.254  35.377  1.00  0.00     0.034 A 
ATOM     49  C   UNL A   1      40.761  28.698  30.090  1.00  0.00     0.034 A 
ATOM     50  C   UNL A   1      41.552  32.169  35.539  1.00  0.00     0.049 A 
ATOM     51  C   UNL A   1      41.693  28.572  31.262  1.00  0.00     0.074 A 
ATOM     52  C   UNL A   1      42.419  31.927  36.590  1.00  0.00     0.029 A 
ATOM     53  N   UNL A   1      41.754  31.154  34.616  1.00  0.00    -0.354 N 
ATOM     54  N   UNL A   1      41.748  29.298  32.353  1.00  0.00    -0.248 NA
ATOM     55  C   UNL A   1      42.665  27.470  31.222  1.00  0.00     0.031 C 
ATOM     56  C   UNL A   1      43.166  30.783  36.288  1.00  0.00     0.029 A 
ATOM     57  C   UNL A   1      42.743  30.293  35.063  1.00  0.00     0.049 A 
ATOM     58  H   UNL A   1      41.266  31.060  33.767  1.00  0.00     0.167 HD
ATOM     59  C   UNL A   1      42.744  28.730  33.139  1.00  0.00     0.074 A 
ATOM     60  C   UNL A   1      43.241  27.579  32.412  1.00  0.00     0.031 C 
ATOM     61  C   UNL A   1      43.213  29.133  34.347  1.00  0.00     0.034 A 
BRANCH  48  62
ATOM     62  C   UNL A   1      40.599  34.345  36.419  1.00  0.00     0.023 A 
ATOM     63  C   UNL A   1      41.093  35.626  36.097  1.00  0.00     0.012 A 
ATOM     64  C   UNL A   1      40.059  34.116  37.700  1.00  0.00     0.148 A 
ATOM     65  C   UNL A   1      41.094  36.648  37.046  1.00  0.00     0.002 A 
ATOM     66  C   UNL A   1      40.019  35.155  38.624  1.00  0.00     0.091 A 
ATOM     67  F   UNL A   1      39.614  32.887  37.999  1.00  0.00    -0.205 F 
ATOM     68  C   UNL A   1      40.549  36.415  38.305  1.00  0.00     0.022 A 
BRANCH  66  69
ATOM     69  S   UNL A   1      39.260  34.977  40.244  1.00  0.00     0.127 S 
ATOM     70  O   UNL A   1      38.039  34.243  39.918  1.00  0.00    -0.237 OA
ATOM     71  O   UNL A   1      40.264  34.199  40.971  1.00  0.00    -0.237 OA
ATOM     72  O   UNL A   1      39.067  36.331  40.744  1.00  0.00    -0.744 OA
ENDBRANCH  66  69
ENDBRANCH  48  62
BRANCH  49  73
ATOM     73  C   UNL A   1      40.829  27.752  28.941  1.00  0.00     0.023 A 
ATOM     74  C   UNL A   1      39.890  26.707  28.844  1.00  0.00     0.012 A 
ATOM     75  C   UNL A   1      41.778  27.922  27.913  1.00  0.00     0.148 A 
ATOM     76  C   UNL A   1      39.907  25.834  27.757  1.00  0.00     0.002 A 
ATOM     77  C   UNL A   1      41.753  27.085  26.805  1.00  0.00     0.091 A 
ATOM     78  F   UNL A   1      42.666  28.918  28.030  1.00  0.00    -0.205 F 
ATOM     79  C   UNL A   1      40.829  26.030  26.732  1.00  0.00     0.022 A 
BRANCH  77  80
ATOM     80  S   UNL A   1      42.804  27.347  25.372  1.00  0.00     0.127 S 
ATOM     81  O   UNL A   1      42.612  26.104  24.629  1.00  0.00    -0.237 OA
ATOM     82  O   UNL A   1      42.193  28.530  24.766  1.00  0.00    -0.237 OA
ATOM     83  O   UNL A   1      44.144  27.565  25.900  1.00  0.00    -0.744 OA
ENDBRANCH  77  80
ENDBRANCH  49  73
BRANCH  61  84
ATOM     84  C   UNL A   1      44.317  28.317  34.969  1.00  0.00     0.023 A 
ATOM     85  C   UNL A   1      45.663  28.624  34.680  1.00  0.00     0.012 A 
ATOM     86  C   UNL A   1      44.027  27.278  35.874  1.00  0.00     0.148 A 
ATOM     87  C   UNL A   1      46.699  27.882  35.247  1.00  0.00     0.002 A 
ATOM     88  C   UNL A   1      45.065  26.576  36.476  1.00  0.00     0.091 A 
ATOM     89  F   UNL A   1      42.742  26.985  36.123  1.00  0.00    -0.205 F 
ATOM     90  C   UNL A   1      46.401  26.866  36.152  1.00  0.00     0.022 A 
BRANCH  88  91
ATOM     91  S   UNL A   1      44.774  25.317  37.723  1.00  0.00     0.127 S 
ATOM     92  O   UNL A   1      43.744  24.498  37.087  1.00  0.00    -0.237 OA
ATOM     93  O   UNL A   1      46.084  24.673  37.830  1.00  0.00    -0.237 OA
ATOM     94  O   UNL A   1      44.357  26.034  38.921  1.00  0.00    -0.744 OA
ENDBRANCH  88  91
ENDBRANCH  61  84
ENDBRANCH  35  36
ENDBRANCH  27  30
ENDBRANCH  25  26
ENDBRANCH  24  25
ENDBRANCH  23  24
ENDBRANCH   1  23
TORSDOF 21
ENDMDL
