MODEL 1
REMARK VINA RESULT:     -12.3      0.000      0.000
REMARK SMILES C[C@@H]1[C@@H](C(=O)NCCCCNC(=O)c2ccc(-c3c4nc(c(-c5cccc(S(=O)(=O)[O-])c5F)c5ccc([nH]5)c(-c5cccc(S(=O)(=O)[O-])c5F)c5nc(c(-c6cccc(S(=O)(=O)[O-])c6F)c6ccc3[nH]6)C=C5)C=C4)cc2)CCN1C(=O)[C@@H]1CCCN(C(N)=O)C1
REMARK SMILES IDX 8 1 7 2 6 3 4 4 5 5 3 7 1 8 2 9 79 10 77 11 78 12 80 13
REMARK SMILES IDX 81 14 82 15 83 16 90 17 84 18 86 19 85 20 87 21 88 22 89 23
REMARK SMILES IDX 9 26 10 27 11 28 12 29 13 31 14 32 15 33 76 34 16 35 75 36
REMARK SMILES IDX 17 37 18 38 19 39 69 40 20 41 74 42 68 43 70 44 21 45 73 46
REMARK SMILES IDX 67 47 66 48 22 50 54 51 34 52 53 53 35 54 38 55 52 56 71 57
REMARK SMILES IDX 36 58 37 59 51 61 72 62 39 63 23 64 24 65 32 66 25 67 27 68
REMARK SMILES IDX 33 69 26 70 28 71 29 72 30 73 31 74 55 75 56 76 64 77 57 78
REMARK SMILES IDX 59 79 65 80 58 81 60 82 61 83 62 84 63 85 40 86 41 87 49 88
REMARK SMILES IDX 42 89 44 90 50 91 43 92 45 93 46 94 47 95 48 96
REMARK H PARENT 6 6 88 24 88 25 11 30 70 49 38 60
REMARK Flexibility Score: inf
ROOT
ATOM      1  C   UNL A   1      33.786  28.251  23.702  1.00  0.00     0.023 C 
ENDROOT
BRANCH   1   2
ATOM      2  C   UNL A   1      33.301  27.612  22.407  1.00  0.00     0.116 C 
BRANCH   2   3
ATOM      3  N   UNL A   1      33.607  26.195  22.311  1.00  0.00    -0.356 N 
ATOM      4  C   UNL A   1      32.811  25.131  22.631  1.00  0.00     0.225 C 
ATOM      5  O   UNL A   1      33.155  24.008  22.270  1.00  0.00    -0.275 OA
ATOM      6  H   UNL A   1      34.504  25.973  21.972  1.00  0.00     0.163 HD
BRANCH   4   7
ATOM      7  C   UNL A   1      31.521  25.400  23.389  1.00  0.00     0.102 C 
ATOM      8  C   UNL A   1      30.549  26.402  25.463  1.00  0.00     0.032 C 
ATOM      9  C   UNL A   1      31.716  25.564  24.911  1.00  0.00     0.094 C 
ATOM     10  N   UNL A   1      31.672  24.193  25.432  1.00  0.00    -0.339 N 
ATOM     11  C   UNL A   1      30.594  24.185  23.308  1.00  0.00     0.037 C 
ATOM     12  C   UNL A   1      31.091  23.298  24.438  1.00  0.00     0.120 C 
BRANCH  10  13
ATOM     13  C   UNL A   1      32.218  23.627  26.559  1.00  0.00     0.227 C 
ATOM     14  O   UNL A   1      31.526  23.569  27.589  1.00  0.00    -0.275 OA
BRANCH  13  15
ATOM     15  C   UNL A   1      33.623  23.011  26.640  1.00  0.00     0.098 C 
ATOM     16  C   UNL A   1      34.692  23.494  25.663  1.00  0.00     0.017 C 
ATOM     17  C   UNL A   1      33.628  21.508  26.896  1.00  0.00     0.134 C 
ATOM     18  C   UNL A   1      35.031  22.541  24.521  1.00  0.00     0.022 C 
ATOM     19  N   UNL A   1      33.847  20.708  25.695  1.00  0.00    -0.324 N 
ATOM     20  C   UNL A   1      35.008  21.067  24.896  1.00  0.00     0.121 C 
BRANCH  19  21
ATOM     21  C   UNL A   1      33.245  19.490  25.452  1.00  0.00     0.314 C 
ATOM     22  N   UNL A   1      32.837  18.791  26.534  1.00  0.00    -0.351 N 
ATOM     23  O   UNL A   1      33.081  19.018  24.332  1.00  0.00    -0.249 OA
ATOM     24  H   UNL A   1      32.965  19.163  27.436  1.00  0.00     0.161 HD
ATOM     25  H   UNL A   1      32.412  17.911  26.418  1.00  0.00     0.161 HD
ENDBRANCH  19  21
ENDBRANCH  13  15
ENDBRANCH  10  13
ENDBRANCH   4   7
ENDBRANCH   2   3
ENDBRANCH   1   2
BRANCH   1  26
ATOM     26  C   UNL A   1      32.868  29.317  24.297  1.00  0.00     0.023 C 
BRANCH  26  27
ATOM     27  C   UNL A   1      32.944  29.491  25.809  1.00  0.00     0.116 C 
BRANCH  27  28
ATOM     28  N   UNL A   1      32.662  30.851  26.245  1.00  0.00    -0.352 N 
ATOM     29  C   UNL A   1      33.349  31.635  27.139  1.00  0.00     0.251 C 
ATOM     30  H   UNL A   1      31.867  31.267  25.841  1.00  0.00     0.163 HD
ATOM     31  O   UNL A   1      32.899  32.731  27.466  1.00  0.00    -0.269 OA
BRANCH  29  32
ATOM     32  C   UNL A   1      34.608  31.139  27.728  1.00  0.00     0.039 A 
ATOM     33  C   UNL A   1      35.670  32.029  27.898  1.00  0.00     0.014 A 
ATOM     34  C   UNL A   1      34.725  29.810  28.146  1.00  0.00     0.014 A 
ATOM     35  C   UNL A   1      36.831  31.602  28.547  1.00  0.00     0.010 A 
ATOM     36  C   UNL A   1      35.846  29.411  28.864  1.00  0.00     0.010 A 
ATOM     37  C   UNL A   1      36.915  30.299  29.065  1.00  0.00    -0.014 A 
BRANCH  37  38
ATOM     38  C   UNL A   1      38.113  29.840  29.809  1.00  0.00     0.031 A 
ATOM     39  C   UNL A   1      38.377  30.356  31.198  1.00  0.00     0.074 A 
ATOM     40  C   UNL A   1      39.008  29.032  29.206  1.00  0.00     0.049 A 
ATOM     41  N   UNL A   1      39.395  30.125  31.984  1.00  0.00    -0.248 NA
ATOM     42  C   UNL A   1      37.378  31.278  31.767  1.00  0.00     0.031 C 
ATOM     43  C   UNL A   1      38.908  28.532  27.833  1.00  0.00     0.029 A 
ATOM     44  N   UNL A   1      40.193  28.511  29.662  1.00  0.00    -0.354 N 
ATOM     45  C   UNL A   1      39.183  30.902  33.117  1.00  0.00     0.074 A 
ATOM     46  C   UNL A   1      37.959  31.640  32.900  1.00  0.00     0.031 C 
ATOM     47  C   UNL A   1      39.981  27.771  27.562  1.00  0.00     0.029 A 
ATOM     48  C   UNL A   1      40.857  27.749  28.729  1.00  0.00     0.049 A 
ATOM     49  H   UNL A   1      40.535  28.668  30.571  1.00  0.00     0.167 HD
ATOM     50  C   UNL A   1      39.920  30.970  34.251  1.00  0.00     0.034 A 
ATOM     51  C   UNL A   1      42.039  27.104  28.807  1.00  0.00     0.034 A 
ATOM     52  C   UNL A   1      41.106  30.192  34.484  1.00  0.00     0.049 A 
ATOM     53  C   UNL A   1      42.807  27.147  30.100  1.00  0.00     0.074 A 
ATOM     54  C   UNL A   1      41.876  30.120  35.630  1.00  0.00     0.029 A 
ATOM     55  N   UNL A   1      41.692  29.349  33.552  1.00  0.00    -0.354 N 
ATOM     56  N   UNL A   1      42.509  27.763  31.218  1.00  0.00    -0.248 NA
ATOM     57  C   UNL A   1      44.056  26.372  30.157  1.00  0.00     0.031 C 
ATOM     58  C   UNL A   1      42.938  29.241  35.387  1.00  0.00     0.029 A 
ATOM     59  C   UNL A   1      42.816  28.752  34.096  1.00  0.00     0.049 A 
ATOM     60  H   UNL A   1      41.358  29.198  32.638  1.00  0.00     0.167 HD
ATOM     61  C   UNL A   1      43.506  27.418  32.122  1.00  0.00     0.074 A 
ATOM     62  C   UNL A   1      44.409  26.524  31.426  1.00  0.00     0.031 C 
ATOM     63  C   UNL A   1      43.667  27.815  33.409  1.00  0.00     0.034 A 
BRANCH  50  64
ATOM     64  C   UNL A   1      39.425  31.874  35.350  1.00  0.00     0.023 A 
ATOM     65  C   UNL A   1      38.491  31.382  36.285  1.00  0.00     0.012 A 
ATOM     66  C   UNL A   1      39.910  33.190  35.485  1.00  0.00     0.148 A 
ATOM     67  C   UNL A   1      38.015  32.197  37.312  1.00  0.00     0.002 A 
ATOM     68  C   UNL A   1      39.466  33.981  36.539  1.00  0.00     0.091 A 
ATOM     69  F   UNL A   1      40.780  33.649  34.575  1.00  0.00    -0.205 F 
ATOM     70  C   UNL A   1      38.510  33.490  37.444  1.00  0.00     0.022 A 
BRANCH  68  71
ATOM     71  S   UNL A   1      40.103  35.632  36.844  1.00  0.00     0.127 S 
ATOM     72  O   UNL A   1      39.534  35.929  38.158  1.00  0.00    -0.237 OA
ATOM     73  O   UNL A   1      41.549  35.412  36.841  1.00  0.00    -0.237 OA
ATOM     74  O   UNL A   1      39.614  36.457  35.748  1.00  0.00    -0.744 OA
ENDBRANCH  68  71
ENDBRANCH  50  64
BRANCH  51  75
ATOM     75  C   UNL A   1      42.522  26.293  27.654  1.00  0.00     0.023 A 
ATOM     76  C   UNL A   1      43.410  26.875  26.728  1.00  0.00     0.012 A 
ATOM     77  C   UNL A   1      42.138  24.949  27.484  1.00  0.00     0.148 A 
ATOM     78  C   UNL A   1      43.883  26.145  25.637  1.00  0.00     0.002 A 
ATOM     79  C   UNL A   1      42.654  24.211  26.425  1.00  0.00     0.091 A 
ATOM     80  F   UNL A   1      41.284  24.416  28.370  1.00  0.00    -0.205 F 
ATOM     81  C   UNL A   1      43.512  24.811  25.491  1.00  0.00     0.022 A 
BRANCH  79  82
ATOM     82  S   UNL A   1      42.336  22.453  26.231  1.00  0.00     0.127 S 
ATOM     83  O   UNL A   1      40.890  22.431  26.027  1.00  0.00    -0.237 OA
ATOM     84  O   UNL A   1      43.131  22.133  25.043  1.00  0.00    -0.237 OA
ATOM     85  O   UNL A   1      42.814  21.830  27.457  1.00  0.00    -0.744 OA
ENDBRANCH  79  82
ENDBRANCH  51  75
BRANCH  63  86
ATOM     86  C   UNL A   1      44.836  27.252  34.173  1.00  0.00     0.023 A 
ATOM     87  C   UNL A   1      46.077  27.919  34.149  1.00  0.00     0.012 A 
ATOM     88  C   UNL A   1      44.681  26.109  34.982  1.00  0.00     0.148 A 
ATOM     89  C   UNL A   1      47.154  27.437  34.892  1.00  0.00     0.002 A 
ATOM     90  C   UNL A   1      45.744  25.663  35.758  1.00  0.00     0.091 A 
ATOM     91  F   UNL A   1      43.498  25.477  34.975  1.00  0.00    -0.205 F 
ATOM     92  C   UNL A   1      46.984  26.319  35.706  1.00  0.00     0.022 A 
BRANCH  90  93
ATOM     93  S   UNL A   1      45.582  24.292  36.907  1.00  0.00     0.127 S 
ATOM     94  O   UNL A   1      44.489  24.750  37.764  1.00  0.00    -0.237 OA
ATOM     95  O   UNL A   1      45.238  23.180  36.021  1.00  0.00    -0.237 OA
ATOM     96  O   UNL A   1      46.879  24.164  37.559  1.00  0.00    -0.744 OA
ENDBRANCH  90  93
ENDBRANCH  63  86
ENDBRANCH  37  38
ENDBRANCH  29  32
ENDBRANCH  27  28
ENDBRANCH  26  27
ENDBRANCH   1  26
TORSDOF 17
ENDMDL
MODEL 2
REMARK VINA RESULT:     -11.9      1.798      2.742
REMARK SMILES C[C@@H]1[C@@H](C(=O)NCCCCNC(=O)c2ccc(-c3c4nc(c(-c5cccc(S(=O)(=O)[O-])c5F)c5ccc([nH]5)c(-c5cccc(S(=O)(=O)[O-])c5F)c5nc(c(-c6cccc(S(=O)(=O)[O-])c6F)c6ccc3[nH]6)C=C5)C=C4)cc2)CCN1C(=O)[C@@H]1CCCN(C(N)=O)C1
REMARK SMILES IDX 8 1 7 2 6 3 4 4 5 5 3 7 1 8 2 9 79 10 77 11 78 12 80 13
REMARK SMILES IDX 81 14 82 15 83 16 90 17 84 18 86 19 85 20 87 21 88 22 89 23
REMARK SMILES IDX 9 26 10 27 11 28 12 29 13 31 14 32 15 33 76 34 16 35 75 36
REMARK SMILES IDX 17 37 18 38 19 39 69 40 20 41 74 42 68 43 70 44 21 45 73 46
REMARK SMILES IDX 67 47 66 48 22 50 54 51 34 52 53 53 35 54 38 55 52 56 71 57
REMARK SMILES IDX 36 58 37 59 51 61 72 62 39 63 23 64 24 65 32 66 25 67 27 68
REMARK SMILES IDX 33 69 26 70 28 71 29 72 30 73 31 74 55 75 56 76 64 77 57 78
REMARK SMILES IDX 59 79 65 80 58 81 60 82 61 83 62 84 63 85 40 86 41 87 49 88
REMARK SMILES IDX 42 89 44 90 50 91 43 92 45 93 46 94 47 95 48 96
REMARK H PARENT 6 6 88 24 88 25 11 30 70 49 38 60
REMARK Flexibility Score: inf
ROOT
ATOM      1  C   UNL A   1      32.011  27.218  26.879  1.00  0.00     0.023 C 
ENDROOT
BRANCH   1   2
ATOM      2  C   UNL A   1      31.471  26.177  25.906  1.00  0.00     0.116 C 
BRANCH   2   3
ATOM      3  N   UNL A   1      31.039  24.950  26.552  1.00  0.00    -0.356 N 
ATOM      4  C   UNL A   1      31.782  23.842  26.852  1.00  0.00     0.225 C 
ATOM      5  O   UNL A   1      31.301  22.996  27.601  1.00  0.00    -0.275 OA
ATOM      6  H   UNL A   1      30.089  24.911  26.806  1.00  0.00     0.163 HD
BRANCH   4   7
ATOM      7  C   UNL A   1      33.182  23.736  26.269  1.00  0.00     0.102 C 
ATOM      8  C   UNL A   1      34.503  23.062  24.257  1.00  0.00     0.032 C 
ATOM      9  C   UNL A   1      33.311  22.678  25.151  1.00  0.00     0.094 C 
ATOM     10  N   UNL A   1      33.573  21.425  25.867  1.00  0.00    -0.339 N 
ATOM     11  C   UNL A   1      34.159  23.215  27.325  1.00  0.00     0.037 C 
ATOM     12  C   UNL A   1      33.990  21.706  27.236  1.00  0.00     0.120 C 
BRANCH  10  13
ATOM     13  C   UNL A   1      33.331  20.114  25.531  1.00  0.00     0.227 C 
ATOM     14  O   UNL A   1      32.653  19.418  26.305  1.00  0.00    -0.275 OA
BRANCH  13  15
ATOM     15  C   UNL A   1      33.802  19.439  24.234  1.00  0.00     0.098 C 
ATOM     16  C   UNL A   1      32.764  19.088  23.171  1.00  0.00     0.017 C 
ATOM     17  C   UNL A   1      34.881  18.382  24.442  1.00  0.00     0.134 C 
ATOM     18  C   UNL A   1      32.397  17.612  23.059  1.00  0.00     0.022 C 
ATOM     19  N   UNL A   1      34.374  17.014  24.428  1.00  0.00    -0.324 N 
ATOM     20  C   UNL A   1      33.555  16.651  23.282  1.00  0.00     0.121 C 
BRANCH  19  21
ATOM     21  C   UNL A   1      34.861  15.996  25.224  1.00  0.00     0.314 C 
ATOM     22  N   UNL A   1      36.043  16.223  25.838  1.00  0.00    -0.351 N 
ATOM     23  O   UNL A   1      34.294  14.920  25.384  1.00  0.00    -0.249 OA
ATOM     24  H   UNL A   1      36.504  17.083  25.715  1.00  0.00     0.161 HD
ATOM     25  H   UNL A   1      36.441  15.526  26.408  1.00  0.00     0.161 HD
ENDBRANCH  19  21
ENDBRANCH  13  15
ENDBRANCH  10  13
ENDBRANCH   4   7
ENDBRANCH   2   3
ENDBRANCH   1   2
BRANCH   1  26
ATOM     26  C   UNL A   1      31.591  28.661  26.603  1.00  0.00     0.023 C 
BRANCH  26  27
ATOM     27  C   UNL A   1      32.694  29.591  26.113  1.00  0.00     0.116 C 
BRANCH  27  28
ATOM     28  N   UNL A   1      32.469  30.984  26.470  1.00  0.00    -0.352 N 
ATOM     29  C   UNL A   1      33.226  31.809  27.266  1.00  0.00     0.251 C 
ATOM     30  H   UNL A   1      31.661  31.394  26.086  1.00  0.00     0.163 HD
ATOM     31  O   UNL A   1      32.821  32.936  27.543  1.00  0.00    -0.269 OA
BRANCH  29  32
ATOM     32  C   UNL A   1      34.507  31.321  27.813  1.00  0.00     0.039 A 
ATOM     33  C   UNL A   1      35.552  32.229  27.994  1.00  0.00     0.014 A 
ATOM     34  C   UNL A   1      34.661  29.981  28.180  1.00  0.00     0.014 A 
ATOM     35  C   UNL A   1      36.735  31.805  28.606  1.00  0.00     0.010 A 
ATOM     36  C   UNL A   1      35.806  29.583  28.862  1.00  0.00     0.010 A 
ATOM     37  C   UNL A   1      36.858  30.487  29.074  1.00  0.00    -0.014 A 
BRANCH  37  38
ATOM     38  C   UNL A   1      38.081  30.029  29.779  1.00  0.00     0.031 A 
ATOM     39  C   UNL A   1      38.382  30.535  31.164  1.00  0.00     0.074 A 
ATOM     40  C   UNL A   1      38.962  29.232  29.143  1.00  0.00     0.049 A 
ATOM     41  N   UNL A   1      39.425  30.304  31.918  1.00  0.00    -0.248 NA
ATOM     42  C   UNL A   1      37.395  31.445  31.770  1.00  0.00     0.031 C 
ATOM     43  C   UNL A   1      38.824  28.743  27.769  1.00  0.00     0.029 A 
ATOM     44  N   UNL A   1      40.164  28.714  29.559  1.00  0.00    -0.354 N 
ATOM     45  C   UNL A   1      39.242  31.070  33.063  1.00  0.00     0.074 A 
ATOM     46  C   UNL A   1      38.007  31.802  32.889  1.00  0.00     0.031 C 
ATOM     47  C   UNL A   1      39.893  27.991  27.460  1.00  0.00     0.029 A 
ATOM     48  C   UNL A   1      40.804  27.965  28.600  1.00  0.00     0.049 A 
ATOM     49  H   UNL A   1      40.531  28.866  30.459  1.00  0.00     0.167 HD
ATOM     50  C   UNL A   1      40.011  31.133  34.175  1.00  0.00     0.034 A 
ATOM     51  C   UNL A   1      41.991  27.327  28.637  1.00  0.00     0.034 A 
ATOM     52  C   UNL A   1      41.209  30.360  34.366  1.00  0.00     0.049 A 
ATOM     53  C   UNL A   1      42.797  27.363  29.907  1.00  0.00     0.074 A 
ATOM     54  C   UNL A   1      42.013  30.283  35.488  1.00  0.00     0.029 A 
ATOM     55  N   UNL A   1      41.772  29.529  33.410  1.00  0.00    -0.354 N 
ATOM     56  N   UNL A   1      42.529  27.968  31.039  1.00  0.00    -0.248 NA
ATOM     57  C   UNL A   1      44.052  26.596  29.921  1.00  0.00     0.031 C 
ATOM     58  C   UNL A   1      43.073  29.414  35.205  1.00  0.00     0.029 A 
ATOM     59  C   UNL A   1      42.915  28.934  33.915  1.00  0.00     0.049 A 
ATOM     60  H   UNL A   1      41.412  29.384  32.505  1.00  0.00     0.167 HD
ATOM     61  C   UNL A   1      43.554  27.622  31.910  1.00  0.00     0.074 A 
ATOM     62  C   UNL A   1      44.442  26.740  31.180  1.00  0.00     0.031 C 
ATOM     63  C   UNL A   1      43.752  28.008  33.195  1.00  0.00     0.034 A 
BRANCH  50  64
ATOM     64  C   UNL A   1      39.544  32.025  35.296  1.00  0.00     0.023 A 
ATOM     65  C   UNL A   1      39.855  33.400  35.264  1.00  0.00     0.012 A 
ATOM     66  C   UNL A   1      38.768  31.517  36.356  1.00  0.00     0.148 A 
ATOM     67  C   UNL A   1      39.437  34.248  36.288  1.00  0.00     0.002 A 
ATOM     68  C   UNL A   1      38.315  32.378  37.350  1.00  0.00     0.091 A 
ATOM     69  F   UNL A   1      38.501  30.204  36.383  1.00  0.00    -0.205 F 
ATOM     70  C   UNL A   1      38.660  33.739  37.324  1.00  0.00     0.022 A 
BRANCH  68  71
ATOM     71  S   UNL A   1      37.240  31.836  38.683  1.00  0.00     0.127 S 
ATOM     72  O   UNL A   1      36.961  30.455  38.291  1.00  0.00    -0.237 OA
ATOM     73  O   UNL A   1      38.106  31.974  39.854  1.00  0.00    -0.237 OA
ATOM     74  O   UNL A   1      36.097  32.737  38.665  1.00  0.00    -0.744 OA
ENDBRANCH  68  71
ENDBRANCH  50  64
BRANCH  51  75
ATOM     75  C   UNL A   1      42.444  26.528  27.463  1.00  0.00     0.023 A 
ATOM     76  C   UNL A   1      43.221  27.152  26.466  1.00  0.00     0.012 A 
ATOM     77  C   UNL A   1      42.143  25.159  27.341  1.00  0.00     0.148 A 
ATOM     78  C   UNL A   1      43.663  26.435  25.354  1.00  0.00     0.002 A 
ATOM     79  C   UNL A   1      42.632  24.438  26.257  1.00  0.00     0.091 A 
ATOM     80  F   UNL A   1      41.395  24.586  28.294  1.00  0.00    -0.205 F 
ATOM     81  C   UNL A   1      43.376  25.076  25.254  1.00  0.00     0.022 A 
BRANCH  79  82
ATOM     82  S   UNL A   1      42.423  22.659  26.111  1.00  0.00     0.127 S 
ATOM     83  O   UNL A   1      43.129  22.176  27.294  1.00  0.00    -0.237 OA
ATOM     84  O   UNL A   1      40.966  22.521  26.164  1.00  0.00    -0.237 OA
ATOM     85  O   UNL A   1      43.012  22.299  24.829  1.00  0.00    -0.744 OA
ENDBRANCH  79  82
ENDBRANCH  51  75
BRANCH  63  86
ATOM     86  C   UNL A   1      44.946  27.447  33.919  1.00  0.00     0.023 A 
ATOM     87  C   UNL A   1      46.141  28.190  33.982  1.00  0.00     0.012 A 
ATOM     88  C   UNL A   1      44.856  26.220  34.607  1.00  0.00     0.148 A 
ATOM     89  C   UNL A   1      47.239  27.704  34.692  1.00  0.00     0.002 A 
ATOM     90  C   UNL A   1      45.937  25.767  35.353  1.00  0.00     0.091 A 
ATOM     91  F   UNL A   1      43.716  25.519  34.517  1.00  0.00    -0.205 F 
ATOM     92  C   UNL A   1      47.132  26.502  35.388  1.00  0.00     0.022 A 
BRANCH  90  93
ATOM     93  S   UNL A   1      45.852  24.280  36.357  1.00  0.00     0.127 S 
ATOM     94  O   UNL A   1      45.848  23.232  35.337  1.00  0.00    -0.237 OA
ATOM     95  O   UNL A   1      47.083  24.363  37.142  1.00  0.00    -0.237 OA
ATOM     96  O   UNL A   1      44.629  24.397  37.140  1.00  0.00    -0.744 OA
ENDBRANCH  90  93
ENDBRANCH  63  86
ENDBRANCH  37  38
ENDBRANCH  29  32
ENDBRANCH  27  28
ENDBRANCH  26  27
ENDBRANCH   1  26
TORSDOF 17
ENDMDL
MODEL 3
REMARK VINA RESULT:     -11.9      4.767      9.723
REMARK SMILES C[C@@H]1[C@@H](C(=O)NCCCCNC(=O)c2ccc(-c3c4nc(c(-c5cccc(S(=O)(=O)[O-])c5F)c5ccc([nH]5)c(-c5cccc(S(=O)(=O)[O-])c5F)c5nc(c(-c6cccc(S(=O)(=O)[O-])c6F)c6ccc3[nH]6)C=C5)C=C4)cc2)CCN1C(=O)[C@@H]1CCCN(C(N)=O)C1
REMARK SMILES IDX 8 1 7 2 6 3 4 4 5 5 3 7 1 8 2 9 79 10 77 11 78 12 80 13
REMARK SMILES IDX 81 14 82 15 83 16 90 17 84 18 86 19 85 20 87 21 88 22 89 23
REMARK SMILES IDX 9 26 10 27 11 28 12 29 13 31 14 32 15 33 76 34 16 35 75 36
REMARK SMILES IDX 17 37 18 38 19 39 69 40 20 41 74 42 68 43 70 44 21 45 73 46
REMARK SMILES IDX 67 47 66 48 22 50 54 51 34 52 53 53 35 54 38 55 52 56 71 57
REMARK SMILES IDX 36 58 37 59 51 61 72 62 39 63 23 64 24 65 32 66 25 67 27 68
REMARK SMILES IDX 33 69 26 70 28 71 29 72 30 73 31 74 55 75 56 76 64 77 57 78
REMARK SMILES IDX 59 79 65 80 58 81 60 82 61 83 62 84 63 85 40 86 41 87 49 88
REMARK SMILES IDX 42 89 44 90 50 91 43 92 45 93 46 94 47 95 48 96
REMARK H PARENT 6 6 88 24 88 25 11 30 70 49 38 60
REMARK Flexibility Score: inf
ROOT
ATOM      1  C   UNL A   1      34.567  22.626  27.057  1.00  0.00     0.023 C 
ENDROOT
BRANCH   1   2
ATOM      2  C   UNL A   1      33.086  22.339  26.843  1.00  0.00     0.116 C 
BRANCH   2   3
ATOM      3  N   UNL A   1      32.259  23.533  26.843  1.00  0.00    -0.356 N 
ATOM      4  C   UNL A   1      31.490  24.034  25.829  1.00  0.00     0.225 C 
ATOM      5  O   UNL A   1      30.685  24.925  26.086  1.00  0.00    -0.275 OA
ATOM      6  H   UNL A   1      32.251  24.049  27.682  1.00  0.00     0.163 HD
BRANCH   4   7
ATOM      7  C   UNL A   1      31.651  23.433  24.442  1.00  0.00     0.102 C 
ATOM      8  C   UNL A   1      33.302  22.812  22.672  1.00  0.00     0.032 C 
ATOM      9  C   UNL A   1      32.937  23.882  23.715  1.00  0.00     0.094 C 
ATOM     10  N   UNL A   1      32.565  25.144  23.067  1.00  0.00    -0.339 N 
ATOM     11  C   UNL A   1      30.553  23.951  23.510  1.00  0.00     0.037 C 
ATOM     12  C   UNL A   1      31.114  25.275  23.018  1.00  0.00     0.120 C 
BRANCH  10  13
ATOM     13  C   UNL A   1      33.317  26.230  22.686  1.00  0.00     0.227 C 
ATOM     14  O   UNL A   1      33.941  26.173  21.613  1.00  0.00    -0.275 OA
BRANCH  13  15
ATOM     15  C   UNL A   1      33.418  27.547  23.470  1.00  0.00     0.098 C 
ATOM     16  C   UNL A   1      33.302  27.504  24.992  1.00  0.00     0.017 C 
ATOM     17  C   UNL A   1      32.699  28.718  22.811  1.00  0.00     0.134 C 
ATOM     18  C   UNL A   1      31.981  27.995  25.574  1.00  0.00     0.022 C 
ATOM     19  N   UNL A   1      31.391  29.007  23.390  1.00  0.00    -0.324 N 
ATOM     20  C   UNL A   1      31.359  29.170  24.835  1.00  0.00     0.121 C 
BRANCH  19  21
ATOM     21  C   UNL A   1      30.297  29.435  22.666  1.00  0.00     0.314 C 
ATOM     22  N   UNL A   1      30.555  30.124  21.533  1.00  0.00    -0.351 N 
ATOM     23  O   UNL A   1      29.133  29.237  23.001  1.00  0.00    -0.249 OA
ATOM     24  H   UNL A   1      31.485  30.287  21.258  1.00  0.00     0.161 HD
ATOM     25  H   UNL A   1      29.811  30.463  20.984  1.00  0.00     0.161 HD
ENDBRANCH  19  21
ENDBRANCH  13  15
ENDBRANCH  10  13
ENDBRANCH   4   7
ENDBRANCH   2   3
ENDBRANCH   1   2
BRANCH   1  26
ATOM     26  C   UNL A   1      35.474  22.339  25.862  1.00  0.00     0.023 C 
BRANCH  26  27
ATOM     27  C   UNL A   1      36.781  23.122  25.817  1.00  0.00     0.116 C 
BRANCH  27  28
ATOM     28  N   UNL A   1      37.959  22.279  25.961  1.00  0.00    -0.352 N 
ATOM     29  C   UNL A   1      39.221  22.617  26.384  1.00  0.00     0.251 C 
ATOM     30  H   UNL A   1      37.833  21.333  25.722  1.00  0.00     0.163 HD
ATOM     31  O   UNL A   1      40.126  21.787  26.341  1.00  0.00    -0.269 OA
BRANCH  29  32
ATOM     32  C   UNL A   1      39.490  23.991  26.856  1.00  0.00     0.039 A 
ATOM     33  C   UNL A   1      39.287  24.291  28.204  1.00  0.00     0.014 A 
ATOM     34  C   UNL A   1      39.975  24.964  25.978  1.00  0.00     0.014 A 
ATOM     35  C   UNL A   1      39.634  25.555  28.687  1.00  0.00     0.010 A 
ATOM     36  C   UNL A   1      40.395  26.191  26.477  1.00  0.00     0.010 A 
ATOM     37  C   UNL A   1      40.222  26.504  27.834  1.00  0.00    -0.014 A 
BRANCH  37  38
ATOM     38  C   UNL A   1      40.652  27.832  28.337  1.00  0.00     0.031 A 
ATOM     39  C   UNL A   1      42.117  28.130  28.512  1.00  0.00     0.074 A 
ATOM     40  C   UNL A   1      39.728  28.736  28.718  1.00  0.00     0.049 A 
ATOM     41  N   UNL A   1      42.689  29.201  28.993  1.00  0.00    -0.248 NA
ATOM     42  C   UNL A   1      43.063  27.069  28.122  1.00  0.00     0.031 C 
ATOM     43  C   UNL A   1      38.277  28.534  28.676  1.00  0.00     0.029 A 
ATOM     44  N   UNL A   1      39.871  29.997  29.242  1.00  0.00    -0.354 N 
ATOM     45  C   UNL A   1      44.053  28.930  29.006  1.00  0.00     0.074 A 
ATOM     46  C   UNL A   1      44.219  27.579  28.519  1.00  0.00     0.031 C 
ATOM     47  C   UNL A   1      37.666  29.634  29.145  1.00  0.00     0.029 A 
ATOM     48  C   UNL A   1      38.677  30.608  29.546  1.00  0.00     0.049 A 
ATOM     49  H   UNL A   1      40.746  30.423  29.386  1.00  0.00     0.167 HD
ATOM     50  C   UNL A   1      45.077  29.743  29.356  1.00  0.00     0.034 A 
ATOM     51  C   UNL A   1      38.426  31.817  30.085  1.00  0.00     0.034 A 
ATOM     52  C   UNL A   1      44.910  31.104  29.786  1.00  0.00     0.049 A 
ATOM     53  C   UNL A   1      39.583  32.725  30.408  1.00  0.00     0.074 A 
ATOM     54  C   UNL A   1      45.884  32.040  30.079  1.00  0.00     0.029 A 
ATOM     55  N   UNL A   1      43.685  31.725  29.982  1.00  0.00    -0.354 N 
ATOM     56  N   UNL A   1      40.868  32.507  30.264  1.00  0.00    -0.248 NA
ATOM     57  C   UNL A   1      39.255  34.060  30.930  1.00  0.00     0.031 C 
ATOM     58  C   UNL A   1      45.249  33.225  30.466  1.00  0.00     0.029 A 
ATOM     59  C   UNL A   1      43.878  33.032  30.393  1.00  0.00     0.049 A 
ATOM     60  H   UNL A   1      42.808  31.297  29.849  1.00  0.00     0.167 HD
ATOM     61  C   UNL A   1      41.499  33.688  30.635  1.00  0.00     0.074 A 
ATOM     62  C   UNL A   1      40.454  34.624  30.996  1.00  0.00     0.031 C 
ATOM     63  C   UNL A   1      42.825  33.969  30.687  1.00  0.00     0.034 A 
BRANCH  50  64
ATOM     64  C   UNL A   1      46.475  29.196  29.227  1.00  0.00     0.023 A 
ATOM     65  C   UNL A   1      47.083  28.578  30.339  1.00  0.00     0.012 A 
ATOM     66  C   UNL A   1      47.171  29.255  28.003  1.00  0.00     0.148 A 
ATOM     67  C   UNL A   1      48.376  28.064  30.249  1.00  0.00     0.002 A 
ATOM     68  C   UNL A   1      48.442  28.698  27.909  1.00  0.00     0.091 A 
ATOM     69  F   UNL A   1      46.588  29.866  26.963  1.00  0.00    -0.205 F 
ATOM     70  C   UNL A   1      49.050  28.116  29.033  1.00  0.00     0.022 A 
BRANCH  68  71
ATOM     71  S   UNL A   1      49.360  28.641  26.366  1.00  0.00     0.127 S 
ATOM     72  O   UNL A   1      49.882  30.005  26.284  1.00  0.00    -0.237 OA
ATOM     73  O   UNL A   1      50.369  27.618  26.644  1.00  0.00    -0.237 OA
ATOM     74  O   UNL A   1      48.394  28.276  25.340  1.00  0.00    -0.744 OA
ENDBRANCH  68  71
ENDBRANCH  50  64
BRANCH  51  75
ATOM     75  C   UNL A   1      37.019  32.273  30.271  1.00  0.00     0.023 A 
ATOM     76  C   UNL A   1      36.384  32.055  31.510  1.00  0.00     0.012 A 
ATOM     77  C   UNL A   1      36.320  32.944  29.250  1.00  0.00     0.148 A 
ATOM     78  C   UNL A   1      35.068  32.469  31.719  1.00  0.00     0.002 A 
ATOM     79  C   UNL A   1      35.027  33.401  29.483  1.00  0.00     0.091 A 
ATOM     80  F   UNL A   1      36.938  33.133  28.076  1.00  0.00    -0.205 F 
ATOM     81  C   UNL A   1      34.393  33.149  30.709  1.00  0.00     0.022 A 
BRANCH  79  82
ATOM     82  S   UNL A   1      34.129  34.399  28.289  1.00  0.00     0.127 S 
ATOM     83  O   UNL A   1      33.035  33.507  27.915  1.00  0.00    -0.237 OA
ATOM     84  O   UNL A   1      33.733  35.553  29.099  1.00  0.00    -0.237 OA
ATOM     85  O   UNL A   1      35.086  34.707  27.235  1.00  0.00    -0.744 OA
ENDBRANCH  79  82
ENDBRANCH  51  75
BRANCH  63  86
ATOM     86  C   UNL A   1      43.229  35.359  31.102  1.00  0.00     0.023 A 
ATOM     87  C   UNL A   1      43.494  35.637  32.457  1.00  0.00     0.012 A 
ATOM     88  C   UNL A   1      43.429  36.366  30.136  1.00  0.00     0.148 A 
ATOM     89  C   UNL A   1      43.919  36.906  32.849  1.00  0.00     0.002 A 
ATOM     90  C   UNL A   1      43.899  37.613  30.528  1.00  0.00     0.091 A 
ATOM     91  F   UNL A   1      43.152  36.086  28.854  1.00  0.00    -0.205 F 
ATOM     92  C   UNL A   1      44.134  37.889  31.884  1.00  0.00     0.022 A 
BRANCH  90  93
ATOM     93  S   UNL A   1      44.298  38.903  29.342  1.00  0.00     0.127 S 
ATOM     94  O   UNL A   1      45.272  38.228  28.486  1.00  0.00    -0.237 OA
ATOM     95  O   UNL A   1      43.003  39.156  28.710  1.00  0.00    -0.237 OA
ATOM     96  O   UNL A   1      44.815  40.017  30.125  1.00  0.00    -0.744 OA
ENDBRANCH  90  93
ENDBRANCH  63  86
ENDBRANCH  37  38
ENDBRANCH  29  32
ENDBRANCH  27  28
ENDBRANCH  26  27
ENDBRANCH   1  26
TORSDOF 17
ENDMDL
