MODEL 1
REMARK VINA RESULT:     -12.1      0.000      0.000
REMARK SMILES CN(CC(=O)NCCCCNC(=O)c1ccc(-c2c3nc(c(-c4cccc(S(=O)(=O)[O-])c4F)c4ccc([nH]4)c(-c4cccc(S(=O)(=O)[O-])c4F)c4nc(c(-c5cccc(S(=O)(=O)[O-])c5F)c5ccc2[nH]5)C=C4)C=C3)cc1)c1nc2cc(N)ccc2[nH]1
REMARK SMILES IDX 8 1 7 2 6 3 4 4 5 5 3 7 2 8 1 9 77 10 78 11 86 12 79 13
REMARK SMILES IDX 85 14 80 16 84 17 81 18 83 19 82 20 9 23 10 24 11 25 12 26
REMARK SMILES IDX 13 28 14 29 15 30 76 31 16 32 75 33 17 34 18 35 19 36 69 37
REMARK SMILES IDX 20 38 74 39 68 40 70 41 21 42 73 43 67 44 66 45 22 47 54 48
REMARK SMILES IDX 34 49 53 50 35 51 38 52 52 53 71 54 36 55 37 56 51 58 72 59
REMARK SMILES IDX 39 60 23 61 24 62 32 63 25 64 27 65 33 66 26 67 28 68 29 69
REMARK SMILES IDX 30 70 31 71 55 72 56 73 64 74 57 75 59 76 65 77 58 78 60 79
REMARK SMILES IDX 61 80 62 81 63 82 40 83 41 84 49 85 42 86 44 87 50 88 43 89
REMARK SMILES IDX 45 90 46 91 47 92 48 93
REMARK H PARENT 6 6 86 15 82 21 82 22 11 27 70 46 38 57
REMARK Flexibility Score: inf
ROOT
ATOM      1  C   UNL A   1      31.615  30.572  26.849  1.00  0.00     0.023 C 
ENDROOT
BRANCH   1   2
ATOM      2  C   UNL A   1      32.930  29.801  26.800  1.00  0.00     0.116 C 
BRANCH   2   3
ATOM      3  N   UNL A   1      33.511  29.743  25.480  1.00  0.00    -0.355 N 
ATOM      4  C   UNL A   1      33.090  29.016  24.399  1.00  0.00     0.239 C 
ATOM      5  O   UNL A   1      33.582  29.278  23.297  1.00  0.00    -0.273 OA
ATOM      6  H   UNL A   1      34.312  30.297  25.339  1.00  0.00     0.163 HD
BRANCH   4   7
ATOM      7  C   UNL A   1      31.935  28.012  24.547  1.00  0.00     0.219 C 
BRANCH   7   8
ATOM      8  N   UNL A   1      31.085  27.855  23.347  1.00  0.00    -0.336 N 
ATOM      9  C   UNL A   1      30.943  26.544  22.754  1.00  0.00     0.147 C 
BRANCH   8  10
ATOM     10  C   UNL A   1      30.348  28.926  22.962  1.00  0.00     0.204 A 
ATOM     11  N   UNL A   1      29.923  29.190  21.750  1.00  0.00    -0.213 NA
ATOM     12  N   UNL A   1      29.973  29.928  23.824  1.00  0.00    -0.324 N 
ATOM     13  C   UNL A   1      29.258  30.384  21.823  1.00  0.00     0.093 A 
ATOM     14  C   UNL A   1      29.313  30.897  23.111  1.00  0.00     0.067 A 
ATOM     15  H   UNL A   1      30.150  29.949  24.792  1.00  0.00     0.170 HD
ATOM     16  C   UNL A   1      28.601  31.105  20.817  1.00  0.00     0.056 A 
ATOM     17  C   UNL A   1      28.784  32.141  23.454  1.00  0.00     0.030 A 
ATOM     18  C   UNL A   1      28.005  32.331  21.132  1.00  0.00     0.034 A 
ATOM     19  C   UNL A   1      28.146  32.853  22.424  1.00  0.00     0.028 A 
BRANCH  18  20
ATOM     20  N   UNL A   1      27.414  33.092  20.128  1.00  0.00    -0.399 N 
ATOM     21  H   UNL A   1      27.243  32.693  19.245  1.00  0.00     0.156 HD
ATOM     22  H   UNL A   1      27.169  34.030  20.301  1.00  0.00     0.156 HD
ENDBRANCH  18  20
ENDBRANCH   8  10
ENDBRANCH   7   8
ENDBRANCH   4   7
ENDBRANCH   2   3
ENDBRANCH   1   2
BRANCH   1  23
ATOM     23  C   UNL A   1      31.731  32.077  26.597  1.00  0.00     0.023 C 
BRANCH  23  24
ATOM     24  C   UNL A   1      32.840  32.797  27.358  1.00  0.00     0.116 C 
BRANCH  24  25
ATOM     25  N   UNL A   1      32.494  34.161  27.730  1.00  0.00    -0.352 N 
ATOM     26  C   UNL A   1      33.062  34.970  28.688  1.00  0.00     0.251 C 
ATOM     27  H   UNL A   1      31.751  34.561  27.225  1.00  0.00     0.163 HD
ATOM     28  O   UNL A   1      32.570  36.066  28.931  1.00  0.00    -0.269 OA
BRANCH  26  29
ATOM     29  C   UNL A   1      34.243  34.499  29.447  1.00  0.00     0.039 A 
ATOM     30  C   UNL A   1      34.048  33.934  30.711  1.00  0.00     0.014 A 
ATOM     31  C   UNL A   1      35.530  34.598  28.914  1.00  0.00     0.014 A 
ATOM     32  C   UNL A   1      35.137  33.401  31.408  1.00  0.00     0.010 A 
ATOM     33  C   UNL A   1      36.602  34.005  29.579  1.00  0.00     0.010 A 
ATOM     34  C   UNL A   1      36.417  33.398  30.831  1.00  0.00    -0.014 A 
BRANCH  34  35
ATOM     35  C   UNL A   1      37.569  32.743  31.505  1.00  0.00     0.031 A 
ATOM     36  C   UNL A   1      38.280  31.589  30.852  1.00  0.00     0.074 A 
ATOM     37  C   UNL A   1      37.913  33.125  32.751  1.00  0.00     0.049 A 
ATOM     38  N   UNL A   1      39.259  30.856  31.316  1.00  0.00    -0.248 NA
ATOM     39  C   UNL A   1      37.812  31.187  29.515  1.00  0.00     0.031 C 
ATOM     40  C   UNL A   1      37.248  34.173  33.529  1.00  0.00     0.029 A 
ATOM     41  N   UNL A   1      38.887  32.654  33.597  1.00  0.00    -0.354 N 
ATOM     42  C   UNL A   1      39.498  29.886  30.350  1.00  0.00     0.074 A 
ATOM     43  C   UNL A   1      38.542  30.105  29.286  1.00  0.00     0.031 C 
ATOM     44  C   UNL A   1      37.830  34.265  34.735  1.00  0.00     0.029 A 
ATOM     45  C   UNL A   1      38.892  33.267  34.830  1.00  0.00     0.049 A 
ATOM     46  H   UNL A   1      39.521  31.945  33.347  1.00  0.00     0.167 HD
ATOM     47  C   UNL A   1      40.446  28.918  30.334  1.00  0.00     0.034 A 
ATOM     48  C   UNL A   1      39.659  33.048  35.916  1.00  0.00     0.034 A 
ATOM     49  C   UNL A   1      41.426  28.732  31.369  1.00  0.00     0.049 A 
ATOM     50  C   UNL A   1      40.738  32.000  35.852  1.00  0.00     0.074 A 
ATOM     51  C   UNL A   1      42.488  27.845  31.399  1.00  0.00     0.029 A 
ATOM     52  N   UNL A   1      41.464  29.439  32.560  1.00  0.00    -0.354 N 
ATOM     53  N   UNL A   1      41.060  31.208  34.857  1.00  0.00    -0.248 NA
ATOM     54  C   UNL A   1      41.584  31.842  37.043  1.00  0.00     0.031 C 
ATOM     55  C   UNL A   1      43.157  28.003  32.617  1.00  0.00     0.029 A 
ATOM     56  C   UNL A   1      42.525  29.003  33.337  1.00  0.00     0.049 A 
ATOM     57  H   UNL A   1      40.829  30.146  32.817  1.00  0.00     0.167 HD
ATOM     58  C   UNL A   1      42.165  30.484  35.290  1.00  0.00     0.074 A 
ATOM     59  C   UNL A   1      42.471  30.947  36.629  1.00  0.00     0.031 C 
ATOM     60  C   UNL A   1      42.854  29.510  34.644  1.00  0.00     0.034 A 
BRANCH  47  61
ATOM     61  C   UNL A   1      40.508  28.018  29.127  1.00  0.00     0.023 A 
ATOM     62  C   UNL A   1      39.574  26.969  28.998  1.00  0.00     0.012 A 
ATOM     63  C   UNL A   1      41.442  28.242  28.097  1.00  0.00     0.148 A 
ATOM     64  C   UNL A   1      39.589  26.137  27.878  1.00  0.00     0.002 A 
ATOM     65  C   UNL A   1      41.422  27.436  26.965  1.00  0.00     0.091 A 
ATOM     66  F   UNL A   1      42.335  29.231  28.247  1.00  0.00    -0.205 F 
ATOM     67  C   UNL A   1      40.506  26.377  26.859  1.00  0.00     0.022 A 
BRANCH  65  68
ATOM     68  S   UNL A   1      42.509  27.712  25.560  1.00  0.00     0.127 S 
ATOM     69  O   UNL A   1      41.919  28.908  24.961  1.00  0.00    -0.237 OA
ATOM     70  O   UNL A   1      43.803  27.931  26.210  1.00  0.00    -0.237 OA
ATOM     71  O   UNL A   1      42.434  26.503  24.752  1.00  0.00    -0.744 OA
ENDBRANCH  65  68
ENDBRANCH  47  61
BRANCH  48  72
ATOM     72  C   UNL A   1      39.482  33.888  37.134  1.00  0.00     0.023 A 
ATOM     73  C   UNL A   1      39.958  35.214  37.131  1.00  0.00     0.012 A 
ATOM     74  C   UNL A   1      38.823  33.399  38.278  1.00  0.00     0.148 A 
ATOM     75  C   UNL A   1      39.810  36.027  38.255  1.00  0.00     0.002 A 
ATOM     76  C   UNL A   1      38.630  34.231  39.375  1.00  0.00     0.091 A 
ATOM     77  F   UNL A   1      38.388  32.131  38.266  1.00  0.00    -0.205 F 
ATOM     78  C   UNL A   1      39.138  35.540  39.372  1.00  0.00     0.022 A 
BRANCH  76  79
ATOM     79  S   UNL A   1      37.665  33.731  40.805  1.00  0.00     0.127 S 
ATOM     80  O   UNL A   1      38.550  32.760  41.441  1.00  0.00    -0.237 OA
ATOM     81  O   UNL A   1      37.517  34.996  41.527  1.00  0.00    -0.237 OA
ATOM     82  O   UNL A   1      36.419  33.200  40.269  1.00  0.00    -0.744 OA
ENDBRANCH  76  79
ENDBRANCH  48  72
BRANCH  60  83
ATOM     83  C   UNL A   1      44.032  28.897  35.354  1.00  0.00     0.023 A 
ATOM     84  C   UNL A   1      45.321  29.432  35.162  1.00  0.00     0.012 A 
ATOM     85  C   UNL A   1      43.851  27.842  36.270  1.00  0.00     0.148 A 
ATOM     86  C   UNL A   1      46.416  28.907  35.849  1.00  0.00     0.002 A 
ATOM     87  C   UNL A   1      44.938  27.356  36.986  1.00  0.00     0.091 A 
ATOM     88  F   UNL A   1      42.620  27.332  36.424  1.00  0.00    -0.205 F 
ATOM     89  C   UNL A   1      46.223  27.880  36.768  1.00  0.00     0.022 A 
BRANCH  87  90
ATOM     90  S   UNL A   1      44.767  26.099  38.259  1.00  0.00     0.127 S 
ATOM     91  O   UNL A   1      46.149  25.940  38.709  1.00  0.00    -0.237 OA
ATOM     92  O   UNL A   1      43.883  26.753  39.225  1.00  0.00    -0.237 OA
ATOM     93  O   UNL A   1      44.184  24.938  37.600  1.00  0.00    -0.744 OA
ENDBRANCH  87  90
ENDBRANCH  60  83
ENDBRANCH  34  35
ENDBRANCH  26  29
ENDBRANCH  24  25
ENDBRANCH  23  24
ENDBRANCH   1  23
TORSDOF 17
ENDMDL
MODEL 2
REMARK VINA RESULT:     -12.0      7.325     12.574
REMARK SMILES CN(CC(=O)NCCCCNC(=O)c1ccc(-c2c3nc(c(-c4cccc(S(=O)(=O)[O-])c4F)c4ccc([nH]4)c(-c4cccc(S(=O)(=O)[O-])c4F)c4nc(c(-c5cccc(S(=O)(=O)[O-])c5F)c5ccc2[nH]5)C=C4)C=C3)cc1)c1nc2cc(N)ccc2[nH]1
REMARK SMILES IDX 8 1 7 2 6 3 4 4 5 5 3 7 2 8 1 9 77 10 78 11 86 12 79 13
REMARK SMILES IDX 85 14 80 16 84 17 81 18 83 19 82 20 9 23 10 24 11 25 12 26
REMARK SMILES IDX 13 28 14 29 15 30 76 31 16 32 75 33 17 34 18 35 19 36 69 37
REMARK SMILES IDX 20 38 74 39 68 40 70 41 21 42 73 43 67 44 66 45 22 47 54 48
REMARK SMILES IDX 34 49 53 50 35 51 38 52 52 53 71 54 36 55 37 56 51 58 72 59
REMARK SMILES IDX 39 60 23 61 24 62 32 63 25 64 27 65 33 66 26 67 28 68 29 69
REMARK SMILES IDX 30 70 31 71 55 72 56 73 64 74 57 75 59 76 65 77 58 78 60 79
REMARK SMILES IDX 61 80 62 81 63 82 40 83 41 84 49 85 42 86 44 87 50 88 43 89
REMARK SMILES IDX 45 90 46 91 47 92 48 93
REMARK H PARENT 6 6 86 15 82 21 82 22 11 27 70 46 38 57
REMARK Flexibility Score: inf
ROOT
ATOM      1  C   UNL A   1      36.310  19.902  24.996  1.00  0.00     0.023 C 
ENDROOT
BRANCH   1   2
ATOM      2  C   UNL A   1      36.157  21.404  25.211  1.00  0.00     0.116 C 
BRANCH   2   3
ATOM      3  N   UNL A   1      35.573  21.743  26.487  1.00  0.00    -0.355 N 
ATOM      4  C   UNL A   1      34.374  22.357  26.734  1.00  0.00     0.239 C 
ATOM      5  O   UNL A   1      33.948  22.352  27.893  1.00  0.00    -0.273 OA
ATOM      6  H   UNL A   1      36.104  21.503  27.279  1.00  0.00     0.163 HD
BRANCH   4   7
ATOM      7  C   UNL A   1      33.530  22.899  25.569  1.00  0.00     0.219 C 
BRANCH   7   8
ATOM      8  N   UNL A   1      32.312  22.119  25.262  1.00  0.00    -0.336 N 
ATOM      9  C   UNL A   1      31.065  22.819  25.048  1.00  0.00     0.147 C 
BRANCH   8  10
ATOM     10  C   UNL A   1      32.465  20.790  25.035  1.00  0.00     0.204 A 
ATOM     11  N   UNL A   1      32.445  19.834  25.932  1.00  0.00    -0.213 NA
ATOM     12  N   UNL A   1      32.707  20.266  23.788  1.00  0.00    -0.324 N 
ATOM     13  C   UNL A   1      32.678  18.666  25.258  1.00  0.00     0.093 A 
ATOM     14  C   UNL A   1      32.893  18.912  23.910  1.00  0.00     0.067 A 
ATOM     15  H   UNL A   1      32.743  20.777  22.947  1.00  0.00     0.170 HD
ATOM     16  C   UNL A   1      32.744  17.353  25.743  1.00  0.00     0.056 A 
ATOM     17  C   UNL A   1      33.230  17.909  23.002  1.00  0.00     0.030 A 
ATOM     18  C   UNL A   1      33.021  16.308  24.853  1.00  0.00     0.034 A 
ATOM     19  C   UNL A   1      33.308  16.604  23.514  1.00  0.00     0.028 A 
BRANCH  18  20
ATOM     20  N   UNL A   1      33.163  15.010  25.333  1.00  0.00    -0.399 N 
ATOM     21  H   UNL A   1      34.052  14.672  25.581  1.00  0.00     0.156 HD
ATOM     22  H   UNL A   1      32.372  14.429  25.422  1.00  0.00     0.156 HD
ENDBRANCH  18  20
ENDBRANCH   8  10
ENDBRANCH   7   8
ENDBRANCH   4   7
ENDBRANCH   2   3
ENDBRANCH   1   2
BRANCH   1  23
ATOM     23  C   UNL A   1      37.748  19.410  24.820  1.00  0.00     0.023 C 
BRANCH  23  24
ATOM     24  C   UNL A   1      38.791  20.067  25.718  1.00  0.00     0.116 C 
BRANCH  24  25
ATOM     25  N   UNL A   1      39.968  19.239  25.940  1.00  0.00    -0.352 N 
ATOM     26  C   UNL A   1      41.234  19.615  26.330  1.00  0.00     0.251 C 
ATOM     27  H   UNL A   1      39.841  18.275  25.789  1.00  0.00     0.163 HD
ATOM     28  O   UNL A   1      42.132  18.782  26.369  1.00  0.00    -0.269 OA
BRANCH  26  29
ATOM     29  C   UNL A   1      41.513  21.029  26.666  1.00  0.00     0.039 A 
ATOM     30  C   UNL A   1      41.990  21.335  27.944  1.00  0.00     0.014 A 
ATOM     31  C   UNL A   1      41.324  22.045  25.727  1.00  0.00     0.014 A 
ATOM     32  C   UNL A   1      42.346  22.651  28.255  1.00  0.00     0.010 A 
ATOM     33  C   UNL A   1      41.743  23.343  26.016  1.00  0.00     0.010 A 
ATOM     34  C   UNL A   1      42.261  23.659  27.281  1.00  0.00    -0.014 A 
BRANCH  34  35
ATOM     35  C   UNL A   1      42.733  25.042  27.555  1.00  0.00     0.031 A 
ATOM     36  C   UNL A   1      41.812  26.052  28.183  1.00  0.00     0.074 A 
ATOM     37  C   UNL A   1      43.962  25.417  27.147  1.00  0.00     0.049 A 
ATOM     38  N   UNL A   1      42.026  27.317  28.437  1.00  0.00    -0.248 NA
ATOM     39  C   UNL A   1      40.463  25.588  28.549  1.00  0.00     0.031 C 
ATOM     40  C   UNL A   1      44.921  24.558  26.449  1.00  0.00     0.029 A 
ATOM     41  N   UNL A   1      44.605  26.628  27.232  1.00  0.00    -0.354 N 
ATOM     42  C   UNL A   1      40.833  27.809  28.953  1.00  0.00     0.074 A 
ATOM     43  C   UNL A   1      39.889  26.713  28.951  1.00  0.00     0.031 C 
ATOM     44  C   UNL A   1      46.026  25.266  26.168  1.00  0.00     0.029 A 
ATOM     45  C   UNL A   1      45.847  26.636  26.640  1.00  0.00     0.049 A 
ATOM     46  H   UNL A   1      44.213  27.416  27.672  1.00  0.00     0.167 HD
ATOM     47  C   UNL A   1      40.555  29.051  29.417  1.00  0.00     0.034 A 
ATOM     48  C   UNL A   1      46.741  27.634  26.489  1.00  0.00     0.034 A 
ATOM     49  C   UNL A   1      41.510  30.126  29.464  1.00  0.00     0.049 A 
ATOM     50  C   UNL A   1      46.426  28.991  27.058  1.00  0.00     0.074 A 
ATOM     51  C   UNL A   1      41.355  31.390  30.006  1.00  0.00     0.029 A 
ATOM     52  N   UNL A   1      42.794  30.068  28.947  1.00  0.00    -0.354 N 
ATOM     53  N   UNL A   1      45.354  29.389  27.701  1.00  0.00    -0.248 NA
ATOM     54  C   UNL A   1      47.459  30.028  26.917  1.00  0.00     0.031 C 
ATOM     55  C   UNL A   1      42.540  32.103  29.799  1.00  0.00     0.029 A 
ATOM     56  C   UNL A   1      43.441  31.276  29.148  1.00  0.00     0.049 A 
ATOM     57  H   UNL A   1      43.188  29.284  28.501  1.00  0.00     0.167 HD
ATOM     58  C   UNL A   1      45.598  30.707  28.070  1.00  0.00     0.074 A 
ATOM     59  C   UNL A   1      46.927  31.035  27.598  1.00  0.00     0.031 C 
ATOM     60  C   UNL A   1      44.785  31.573  28.725  1.00  0.00     0.034 A 
BRANCH  47  61
ATOM     61  C   UNL A   1      39.176  29.302  29.967  1.00  0.00     0.023 A 
ATOM     62  C   UNL A   1      38.860  28.861  31.269  1.00  0.00     0.012 A 
ATOM     63  C   UNL A   1      38.216  30.023  29.231  1.00  0.00     0.148 A 
ATOM     64  C   UNL A   1      37.600  29.104  31.816  1.00  0.00     0.002 A 
ATOM     65  C   UNL A   1      36.978  30.299  29.800  1.00  0.00     0.091 A 
ATOM     66  F   UNL A   1      38.527  30.417  27.987  1.00  0.00    -0.205 F 
ATOM     67  C   UNL A   1      36.665  29.830  31.086  1.00  0.00     0.022 A 
BRANCH  65  68
ATOM     68  S   UNL A   1      35.732  31.295  28.973  1.00  0.00     0.127 S 
ATOM     69  O   UNL A   1      34.903  31.725  30.098  1.00  0.00    -0.237 OA
ATOM     70  O   UNL A   1      36.538  32.358  28.370  1.00  0.00    -0.237 OA
ATOM     71  O   UNL A   1      35.082  30.410  28.016  1.00  0.00    -0.744 OA
ENDBRANCH  65  68
ENDBRANCH  47  61
BRANCH  48  72
ATOM     72  C   UNL A   1      48.050  27.367  25.830  1.00  0.00     0.023 A 
ATOM     73  C   UNL A   1      49.131  26.906  26.608  1.00  0.00     0.012 A 
ATOM     74  C   UNL A   1      48.226  27.535  24.443  1.00  0.00     0.148 A 
ATOM     75  C   UNL A   1      50.371  26.648  26.023  1.00  0.00     0.002 A 
ATOM     76  C   UNL A   1      49.448  27.224  23.857  1.00  0.00     0.091 A 
ATOM     77  F   UNL A   1      47.190  27.987  23.722  1.00  0.00    -0.205 F 
ATOM     78  C   UNL A   1      50.527  26.797  24.648  1.00  0.00     0.022 A 
BRANCH  76  79
ATOM     79  S   UNL A   1      49.702  27.262  22.079  1.00  0.00     0.127 S 
ATOM     80  O   UNL A   1      49.453  28.667  21.770  1.00  0.00    -0.237 OA
ATOM     81  O   UNL A   1      51.099  26.844  21.964  1.00  0.00    -0.237 OA
ATOM     82  O   UNL A   1      48.746  26.311  21.528  1.00  0.00    -0.744 OA
ENDBRANCH  76  79
ENDBRANCH  48  72
BRANCH  60  83
ATOM     83  C   UNL A   1      45.316  32.954  29.007  1.00  0.00     0.023 A 
ATOM     84  C   UNL A   1      46.033  33.199  30.195  1.00  0.00     0.012 A 
ATOM     85  C   UNL A   1      45.173  33.988  28.061  1.00  0.00     0.148 A 
ATOM     86  C   UNL A   1      46.574  34.458  30.450  1.00  0.00     0.002 A 
ATOM     87  C   UNL A   1      45.755  35.227  28.299  1.00  0.00     0.091 A 
ATOM     88  F   UNL A   1      44.470  33.742  26.945  1.00  0.00    -0.205 F 
ATOM     89  C   UNL A   1      46.446  35.467  29.499  1.00  0.00     0.022 A 
BRANCH  87  90
ATOM     90  S   UNL A   1      45.722  36.554  27.089  1.00  0.00     0.127 S 
ATOM     91  O   UNL A   1      46.618  37.535  27.698  1.00  0.00    -0.237 OA
ATOM     92  O   UNL A   1      46.256  35.899  25.894  1.00  0.00    -0.237 OA
ATOM     93  O   UNL A   1      44.328  36.962  26.979  1.00  0.00    -0.744 OA
ENDBRANCH  87  90
ENDBRANCH  60  83
ENDBRANCH  34  35
ENDBRANCH  26  29
ENDBRANCH  24  25
ENDBRANCH  23  24
ENDBRANCH   1  23
TORSDOF 17
ENDMDL
MODEL 3
REMARK VINA RESULT:     -11.7      6.080      9.320
REMARK SMILES CN(CC(=O)NCCCCNC(=O)c1ccc(-c2c3nc(c(-c4cccc(S(=O)(=O)[O-])c4F)c4ccc([nH]4)c(-c4cccc(S(=O)(=O)[O-])c4F)c4nc(c(-c5cccc(S(=O)(=O)[O-])c5F)c5ccc2[nH]5)C=C4)C=C3)cc1)c1nc2cc(N)ccc2[nH]1
REMARK SMILES IDX 8 1 7 2 6 3 4 4 5 5 3 7 2 8 1 9 77 10 78 11 86 12 79 13
REMARK SMILES IDX 85 14 80 16 84 17 81 18 83 19 82 20 9 23 10 24 11 25 12 26
REMARK SMILES IDX 13 28 14 29 15 30 76 31 16 32 75 33 17 34 18 35 19 36 69 37
REMARK SMILES IDX 20 38 74 39 68 40 70 41 21 42 73 43 67 44 66 45 22 47 54 48
REMARK SMILES IDX 34 49 53 50 35 51 38 52 52 53 71 54 36 55 37 56 51 58 72 59
REMARK SMILES IDX 39 60 23 61 24 62 32 63 25 64 27 65 33 66 26 67 28 68 29 69
REMARK SMILES IDX 30 70 31 71 55 72 56 73 64 74 57 75 59 76 65 77 58 78 60 79
REMARK SMILES IDX 61 80 62 81 63 82 40 83 41 84 49 85 42 86 44 87 50 88 43 89
REMARK SMILES IDX 45 90 46 91 47 92 48 93
REMARK H PARENT 6 6 86 15 82 21 82 22 11 27 70 46 38 57
REMARK Flexibility Score: inf
ROOT
ATOM      1  C   UNL A   1      35.419  22.820  23.551  1.00  0.00     0.023 C 
ENDROOT
BRANCH   1   2
ATOM      2  C   UNL A   1      34.467  23.050  24.720  1.00  0.00     0.116 C 
BRANCH   2   3
ATOM      3  N   UNL A   1      33.627  21.911  25.007  1.00  0.00    -0.355 N 
ATOM      4  C   UNL A   1      32.260  21.834  24.965  1.00  0.00     0.239 C 
ATOM      5  O   UNL A   1      31.741  20.715  25.019  1.00  0.00    -0.273 OA
ATOM      6  H   UNL A   1      34.096  21.087  25.266  1.00  0.00     0.163 HD
BRANCH   4   7
ATOM      7  C   UNL A   1      31.423  23.098  24.708  1.00  0.00     0.219 C 
BRANCH   7   8
ATOM      8  N   UNL A   1      30.995  23.823  25.923  1.00  0.00    -0.336 N 
ATOM      9  C   UNL A   1      30.198  23.130  26.911  1.00  0.00     0.147 C 
BRANCH   8  10
ATOM     10  C   UNL A   1      31.514  25.060  26.125  1.00  0.00     0.204 A 
ATOM     11  N   UNL A   1      32.732  25.455  25.845  1.00  0.00    -0.213 NA
ATOM     12  N   UNL A   1      30.807  26.083  26.709  1.00  0.00    -0.324 N 
ATOM     13  C   UNL A   1      32.821  26.758  26.252  1.00  0.00     0.093 A 
ATOM     14  C   UNL A   1      31.636  27.168  26.844  1.00  0.00     0.067 A 
ATOM     15  H   UNL A   1      29.863  26.044  26.987  1.00  0.00     0.170 HD
ATOM     16  C   UNL A   1      33.899  27.649  26.169  1.00  0.00     0.056 A 
ATOM     17  C   UNL A   1      31.473  28.428  27.419  1.00  0.00     0.030 A 
ATOM     18  C   UNL A   1      33.758  28.944  26.680  1.00  0.00     0.034 A 
ATOM     19  C   UNL A   1      32.573  29.297  27.339  1.00  0.00     0.028 A 
BRANCH  18  20
ATOM     20  N   UNL A   1      34.844  29.814  26.671  1.00  0.00    -0.399 N 
ATOM     21  H   UNL A   1      34.887  30.540  26.009  1.00  0.00     0.156 HD
ATOM     22  H   UNL A   1      35.570  29.701  27.327  1.00  0.00     0.156 HD
ENDBRANCH  18  20
ENDBRANCH   8  10
ENDBRANCH   7   8
ENDBRANCH   4   7
ENDBRANCH   2   3
ENDBRANCH   1   2
BRANCH   1  23
ATOM     23  C   UNL A   1      36.678  22.018  23.882  1.00  0.00     0.023 C 
BRANCH  23  24
ATOM     24  C   UNL A   1      36.948  21.782  25.366  1.00  0.00     0.116 C 
BRANCH  24  25
ATOM     25  N   UNL A   1      37.969  20.775  25.615  1.00  0.00    -0.352 N 
ATOM     26  C   UNL A   1      39.240  20.934  26.121  1.00  0.00     0.251 C 
ATOM     27  H   UNL A   1      37.716  19.851  25.391  1.00  0.00     0.163 HD
ATOM     28  O   UNL A   1      40.001  19.975  26.169  1.00  0.00    -0.269 OA
BRANCH  26  29
ATOM     29  C   UNL A   1      39.694  22.269  26.571  1.00  0.00     0.039 A 
ATOM     30  C   UNL A   1      40.721  22.347  27.517  1.00  0.00     0.014 A 
ATOM     31  C   UNL A   1      39.126  23.437  26.056  1.00  0.00     0.014 A 
ATOM     32  C   UNL A   1      41.228  23.596  27.890  1.00  0.00     0.010 A 
ATOM     33  C   UNL A   1      39.678  24.676  26.377  1.00  0.00     0.010 A 
ATOM     34  C   UNL A   1      40.736  24.769  27.295  1.00  0.00    -0.014 A 
BRANCH  34  35
ATOM     35  C   UNL A   1      41.330  26.098  27.596  1.00  0.00     0.031 A 
ATOM     36  C   UNL A   1      42.753  26.401  27.214  1.00  0.00     0.074 A 
ATOM     37  C   UNL A   1      40.618  26.998  28.303  1.00  0.00     0.049 A 
ATOM     38  N   UNL A   1      43.459  27.477  27.451  1.00  0.00    -0.248 NA
ATOM     39  C   UNL A   1      43.490  25.348  26.495  1.00  0.00     0.031 C 
ATOM     40  C   UNL A   1      39.258  26.793  28.808  1.00  0.00     0.029 A 
ATOM     41  N   UNL A   1      40.950  28.254  28.748  1.00  0.00    -0.354 N 
ATOM     42  C   UNL A   1      44.728  27.218  26.949  1.00  0.00     0.074 A 
ATOM     43  C   UNL A   1      44.706  25.872  26.419  1.00  0.00     0.031 C 
ATOM     44  C   UNL A   1      38.873  27.881  29.493  1.00  0.00     0.029 A 
ATOM     45  C   UNL A   1      39.964  28.851  29.500  1.00  0.00     0.049 A 
ATOM     46  H   UNL A   1      41.811  28.686  28.549  1.00  0.00     0.167 HD
ATOM     47  C   UNL A   1      45.808  28.036  26.905  1.00  0.00     0.034 A 
ATOM     48  C   UNL A   1      39.942  30.043  30.131  1.00  0.00     0.034 A 
ATOM     49  C   UNL A   1      45.814  29.390  27.388  1.00  0.00     0.049 A 
ATOM     50  C   UNL A   1      41.137  30.951  30.022  1.00  0.00     0.074 A 
ATOM     51  C   UNL A   1      46.825  30.330  27.299  1.00  0.00     0.029 A 
ATOM     52  N   UNL A   1      44.762  29.997  28.056  1.00  0.00    -0.354 N 
ATOM     53  N   UNL A   1      42.269  30.754  29.390  1.00  0.00    -0.248 NA
ATOM     54  C   UNL A   1      41.038  32.263  30.679  1.00  0.00     0.031 C 
ATOM     55  C   UNL A   1      46.392  31.501  27.929  1.00  0.00     0.029 A 
ATOM     56  C   UNL A   1      45.103  31.297  28.393  1.00  0.00     0.049 A 
ATOM     57  H   UNL A   1      43.901  29.568  28.261  1.00  0.00     0.167 HD
ATOM     58  C   UNL A   1      43.001  31.926  29.544  1.00  0.00     0.074 A 
ATOM     59  C   UNL A   1      42.176  32.837  30.310  1.00  0.00     0.031 C 
ATOM     60  C   UNL A   1      44.252  32.215  29.105  1.00  0.00     0.034 A 
BRANCH  47  61
ATOM     61  C   UNL A   1      47.061  27.507  26.257  1.00  0.00     0.023 A 
ATOM     62  C   UNL A   1      47.313  27.797  24.900  1.00  0.00     0.012 A 
ATOM     63  C   UNL A   1      48.015  26.782  26.997  1.00  0.00     0.148 A 
ATOM     64  C   UNL A   1      48.479  27.345  24.281  1.00  0.00     0.002 A 
ATOM     65  C   UNL A   1      49.194  26.373  26.385  1.00  0.00     0.091 A 
ATOM     66  F   UNL A   1      47.748  26.498  28.280  1.00  0.00    -0.205 F 
ATOM     67  C   UNL A   1      49.421  26.643  25.026  1.00  0.00     0.022 A 
BRANCH  65  68
ATOM     68  S   UNL A   1      50.507  25.531  27.276  1.00  0.00     0.127 S 
ATOM     69  O   UNL A   1      51.520  25.376  26.233  1.00  0.00    -0.237 OA
ATOM     70  O   UNL A   1      50.847  26.505  28.316  1.00  0.00    -0.237 OA
ATOM     71  O   UNL A   1      49.924  24.293  27.773  1.00  0.00    -0.744 OA
ENDBRANCH  65  68
ENDBRANCH  47  61
BRANCH  48  72
ATOM     72  C   UNL A   1      38.718  30.475  30.861  1.00  0.00     0.023 A 
ATOM     73  C   UNL A   1      38.624  30.241  32.247  1.00  0.00     0.012 A 
ATOM     74  C   UNL A   1      37.663  31.139  30.205  1.00  0.00     0.148 A 
ATOM     75  C   UNL A   1      37.490  30.632  32.960  1.00  0.00     0.002 A 
ATOM     76  C   UNL A   1      36.561  31.575  30.931  1.00  0.00     0.091 A 
ATOM     77  F   UNL A   1      37.765  31.341  28.883  1.00  0.00    -0.205 F 
ATOM     78  C   UNL A   1      36.464  31.307  32.306  1.00  0.00     0.022 A 
BRANCH  76  79
ATOM     79  S   UNL A   1      35.253  32.564  30.197  1.00  0.00     0.127 S 
ATOM     80  O   UNL A   1      34.795  31.700  29.112  1.00  0.00    -0.237 OA
ATOM     81  O   UNL A   1      34.316  32.702  31.312  1.00  0.00    -0.237 OA
ATOM     82  O   UNL A   1      35.887  33.811  29.791  1.00  0.00    -0.744 OA
ENDBRANCH  76  79
ENDBRANCH  48  72
BRANCH  60  83
ATOM     83  C   UNL A   1      44.801  33.584  29.408  1.00  0.00     0.023 A 
ATOM     84  C   UNL A   1      45.497  33.807  30.613  1.00  0.00     0.012 A 
ATOM     85  C   UNL A   1      44.697  34.626  28.467  1.00  0.00     0.148 A 
ATOM     86  C   UNL A   1      46.054  35.055  30.889  1.00  0.00     0.002 A 
ATOM     87  C   UNL A   1      45.296  35.853  28.727  1.00  0.00     0.091 A 
ATOM     88  F   UNL A   1      44.014  34.401  27.334  1.00  0.00    -0.205 F 
ATOM     89  C   UNL A   1      45.965  36.073  29.942  1.00  0.00     0.022 A 
BRANCH  87  90
ATOM     90  S   UNL A   1      45.313  37.189  27.525  1.00  0.00     0.127 S 
ATOM     91  O   UNL A   1      46.041  36.581  26.413  1.00  0.00    -0.237 OA
ATOM     92  O   UNL A   1      43.887  37.403  27.277  1.00  0.00    -0.237 OA
ATOM     93  O   UNL A   1      45.984  38.306  28.178  1.00  0.00    -0.744 OA
ENDBRANCH  87  90
ENDBRANCH  60  83
ENDBRANCH  34  35
ENDBRANCH  26  29
ENDBRANCH  24  25
ENDBRANCH  23  24
ENDBRANCH   1  23
TORSDOF 17
ENDMDL
