MODEL 1
REMARK VINA RESULT:     -11.5      0.000      0.000
REMARK SMILES Cc1cccc(Cl)c1Nc1ccccc1CC(=O)NCCCCNC(=O)c1ccc(-c2c3nc(c(-c4cccc(S(=O)(=O)[O-])c4F)c4ccc([nH]4)c(-c4cccc(S(=O)(=O)[O-])c4F)c4nc(c(-c5cccc(S(=O)(=O)[O-])c5F)c5ccc2[nH]5)C=C4)C=C3)cc1
REMARK SMILES IDX 21 1 20 2 19 3 17 4 18 5 16 7 15 8 10 9 11 10 12 11 14 12
REMARK SMILES IDX 13 13 9 14 8 16 1 17 2 18 3 19 4 20 6 21 5 22 7 23 22 24
REMARK SMILES IDX 23 25 24 26 25 27 26 29 27 30 28 31 89 32 29 33 88 34 30 35
REMARK SMILES IDX 31 36 32 37 82 38 33 39 87 40 81 41 83 42 34 43 86 44 80 45
REMARK SMILES IDX 79 46 35 48 67 49 47 50 66 51 48 52 51 53 65 54 84 55 49 56
REMARK SMILES IDX 50 57 64 59 85 60 52 61 36 62 37 63 45 64 38 65 40 66 46 67
REMARK SMILES IDX 39 68 41 69 42 70 43 71 44 72 68 73 69 74 77 75 70 76 72 77
REMARK SMILES IDX 78 78 71 79 73 80 74 81 75 82 76 83 53 84 54 85 62 86 55 87
REMARK SMILES IDX 57 88 63 89 56 90 58 91 59 92 60 93 61 94
REMARK H PARENT 19 6 9 15 24 28 83 47 51 58
REMARK Flexibility Score: inf
ROOT
ATOM      1  C   UNL A   1      33.249  29.038  24.037  1.00  0.00     0.023 C 
ENDROOT
BRANCH   1   2
ATOM      2  C   UNL A   1      32.731  28.382  22.758  1.00  0.00     0.116 C 
BRANCH   2   3
ATOM      3  N   UNL A   1      33.526  27.232  22.376  1.00  0.00    -0.356 N 
ATOM      4  C   UNL A   1      33.126  25.930  22.256  1.00  0.00     0.224 C 
ATOM      5  O   UNL A   1      33.969  25.073  21.982  1.00  0.00    -0.275 OA
ATOM      6  H   UNL A   1      34.473  27.410  22.179  1.00  0.00     0.163 HD
BRANCH   4   7
ATOM      7  C   UNL A   1      31.656  25.570  22.413  1.00  0.00     0.137 C 
BRANCH   7   8
ATOM      8  C   UNL A   1      31.257  25.193  23.825  1.00  0.00    -0.015 A 
ATOM      9  C   UNL A   1      31.632  23.976  24.436  1.00  0.00     0.042 A 
ATOM     10  C   UNL A   1      31.104  23.670  25.705  1.00  0.00     0.026 A 
ATOM     11  C   UNL A   1      30.252  24.549  26.374  1.00  0.00     0.002 A 
ATOM     12  C   UNL A   1      30.424  26.086  24.532  1.00  0.00     0.006 A 
ATOM     13  C   UNL A   1      29.922  25.765  25.792  1.00  0.00     0.000 A 
BRANCH   9  14
ATOM     14  N   UNL A   1      32.540  23.049  23.885  1.00  0.00    -0.354 N 
ATOM     15  H   UNL A   1      32.375  22.847  22.936  1.00  0.00     0.167 HD
BRANCH  14  16
ATOM     16  C   UNL A   1      33.644  22.352  24.431  1.00  0.00     0.060 A 
ATOM     17  C   UNL A   1      32.445  20.166  23.853  1.00  0.00     0.046 C 
ATOM     18  C   UNL A   1      33.624  20.932  24.397  1.00  0.00    -0.026 A 
ATOM     19  C   UNL A   1      34.742  20.199  24.836  1.00  0.00     0.005 A 
ATOM     20  C   UNL A   1      35.876  20.846  25.317  1.00  0.00     0.002 A 
ATOM     21  C   UNL A   1      34.797  22.984  24.952  1.00  0.00     0.064 A 
ATOM     22  C   UNL A   1      35.899  22.234  25.383  1.00  0.00     0.023 A 
ATOM     23  Cl  UNL A   1      34.906  24.694  25.210  1.00  0.00    -0.082 Cl
ENDBRANCH  14  16
ENDBRANCH   9  14
ENDBRANCH   7   8
ENDBRANCH   4   7
ENDBRANCH   2   3
ENDBRANCH   1   2
BRANCH   1  24
ATOM     24  C   UNL A   1      33.531  28.067  25.185  1.00  0.00     0.023 C 
BRANCH  24  25
ATOM     25  C   UNL A   1      34.324  28.652  26.348  1.00  0.00     0.116 C 
BRANCH  25  26
ATOM     26  N   UNL A   1      33.914  30.005  26.700  1.00  0.00    -0.352 N 
ATOM     27  C   UNL A   1      34.526  30.876  27.570  1.00  0.00     0.251 C 
ATOM     28  H   UNL A   1      33.097  30.336  26.261  1.00  0.00     0.163 HD
ATOM     29  O   UNL A   1      34.002  31.952  27.845  1.00  0.00    -0.269 OA
BRANCH  27  30
ATOM     30  C   UNL A   1      35.804  30.483  28.200  1.00  0.00     0.039 A 
ATOM     31  C   UNL A   1      35.776  29.746  29.387  1.00  0.00     0.014 A 
ATOM     32  C   UNL A   1      37.020  30.795  27.588  1.00  0.00     0.014 A 
ATOM     33  C   UNL A   1      36.970  29.258  29.923  1.00  0.00     0.010 A 
ATOM     34  C   UNL A   1      38.200  30.255  28.089  1.00  0.00     0.010 A 
ATOM     35  C   UNL A   1      38.187  29.479  29.258  1.00  0.00    -0.014 A 
BRANCH  35  36
ATOM     36  C   UNL A   1      39.460  28.894  29.747  1.00  0.00     0.031 A 
ATOM     37  C   UNL A   1      40.221  29.571  30.855  1.00  0.00     0.074 A 
ATOM     38  C   UNL A   1      39.990  27.827  29.117  1.00  0.00     0.049 A 
ATOM     39  N   UNL A   1      41.399  29.281  31.342  1.00  0.00    -0.248 NA
ATOM     40  C   UNL A   1      39.587  30.746  31.476  1.00  0.00     0.031 C 
ATOM     41  C   UNL A   1      39.387  27.133  27.976  1.00  0.00     0.029 A 
ATOM     42  N   UNL A   1      41.174  27.163  29.320  1.00  0.00    -0.354 N 
ATOM     43  C   UNL A   1      41.667  30.259  32.291  1.00  0.00     0.074 A 
ATOM     44  C   UNL A   1      40.540  31.166  32.295  1.00  0.00     0.031 C 
ATOM     45  C   UNL A   1      40.207  26.147  27.578  1.00  0.00     0.029 A 
ATOM     46  C   UNL A   1      41.404  26.154  28.413  1.00  0.00     0.049 A 
ATOM     47  H   UNL A   1      41.800  27.388  30.046  1.00  0.00     0.167 HD
ATOM     48  C   UNL A   1      42.741  30.376  33.107  1.00  0.00     0.034 A 
ATOM     49  C   UNL A   1      42.463  25.334  28.266  1.00  0.00     0.034 A 
ATOM     50  C   UNL A   1      43.831  29.440  33.143  1.00  0.00     0.049 A 
ATOM     51  C   UNL A   1      43.617  25.449  29.225  1.00  0.00     0.074 A 
ATOM     52  C   UNL A   1      44.916  29.416  34.000  1.00  0.00     0.029 A 
ATOM     53  N   UNL A   1      43.974  28.361  32.284  1.00  0.00    -0.354 N 
ATOM     54  N   UNL A   1      43.777  26.282  30.224  1.00  0.00    -0.248 NA
ATOM     55  C   UNL A   1      44.720  24.490  29.061  1.00  0.00     0.031 C 
ATOM     56  C   UNL A   1      45.722  28.326  33.654  1.00  0.00     0.029 A 
ATOM     57  C   UNL A   1      45.130  27.665  32.589  1.00  0.00     0.049 A 
ATOM     58  H   UNL A   1      43.346  28.126  31.564  1.00  0.00     0.167 HD
ATOM     59  C   UNL A   1      44.975  25.924  30.831  1.00  0.00     0.074 A 
ATOM     60  C   UNL A   1      45.493  24.788  30.097  1.00  0.00     0.031 C 
ATOM     61  C   UNL A   1      45.598  26.494  31.892  1.00  0.00     0.034 A 
BRANCH  48  62
ATOM     62  C   UNL A   1      42.759  31.525  34.080  1.00  0.00     0.023 A 
ATOM     63  C   UNL A   1      43.348  32.746  33.696  1.00  0.00     0.012 A 
ATOM     64  C   UNL A   1      42.147  31.419  35.344  1.00  0.00     0.148 A 
ATOM     65  C   UNL A   1      43.356  33.836  34.564  1.00  0.00     0.002 A 
ATOM     66  C   UNL A   1      42.123  32.524  36.189  1.00  0.00     0.091 A 
ATOM     67  F   UNL A   1      41.614  30.243  35.702  1.00  0.00    -0.205 F 
ATOM     68  C   UNL A   1      42.736  33.728  35.805  1.00  0.00     0.022 A 
BRANCH  66  69
ATOM     69  S   UNL A   1      41.282  32.507  37.777  1.00  0.00     0.127 S 
ATOM     70  O   UNL A   1      41.307  33.924  38.139  1.00  0.00    -0.237 OA
ATOM     71  O   UNL A   1      39.960  31.992  37.423  1.00  0.00    -0.237 OA
ATOM     72  O   UNL A   1      42.064  31.627  38.633  1.00  0.00    -0.744 OA
ENDBRANCH  66  69
ENDBRANCH  48  62
BRANCH  49  73
ATOM     73  C   UNL A   1      42.444  24.279  27.213  1.00  0.00     0.023 A 
ATOM     74  C   UNL A   1      43.281  24.416  26.088  1.00  0.00     0.012 A 
ATOM     75  C   UNL A   1      41.637  23.131  27.333  1.00  0.00     0.148 A 
ATOM     76  C   UNL A   1      43.293  23.445  25.087  1.00  0.00     0.002 A 
ATOM     77  C   UNL A   1      41.694  22.142  26.357  1.00  0.00     0.091 A 
ATOM     78  F   UNL A   1      40.837  23.024  28.402  1.00  0.00    -0.205 F 
ATOM     79  C   UNL A   1      42.509  22.303  25.226  1.00  0.00     0.022 A 
BRANCH  77  80
ATOM     80  S   UNL A   1      40.818  20.582  26.521  1.00  0.00     0.127 S 
ATOM     81  O   UNL A   1      40.979  20.297  27.945  1.00  0.00    -0.237 OA
ATOM     82  O   UNL A   1      39.461  20.948  26.115  1.00  0.00    -0.237 OA
ATOM     83  O   UNL A   1      41.486  19.664  25.608  1.00  0.00    -0.744 OA
ENDBRANCH  77  80
ENDBRANCH  49  73
BRANCH  61  84
ATOM     84  C   UNL A   1      46.891  25.884  32.360  1.00  0.00     0.023 A 
ATOM     85  C   UNL A   1      48.100  26.246  31.734  1.00  0.00     0.012 A 
ATOM     86  C   UNL A   1      46.918  25.029  33.480  1.00  0.00     0.148 A 
ATOM     87  C   UNL A   1      49.315  25.752  32.204  1.00  0.00     0.002 A 
ATOM     88  C   UNL A   1      48.137  24.576  33.970  1.00  0.00     0.091 A 
ATOM     89  F   UNL A   1      45.754  24.682  34.047  1.00  0.00    -0.205 F 
ATOM     90  C   UNL A   1      49.335  24.929  33.329  1.00  0.00     0.022 A 
BRANCH  88  91
ATOM     91  S   UNL A   1      48.264  23.589  35.466  1.00  0.00     0.127 S 
ATOM     92  O   UNL A   1      49.646  23.120  35.398  1.00  0.00    -0.237 OA
ATOM     93  O   UNL A   1      48.006  24.578  36.514  1.00  0.00    -0.237 OA
ATOM     94  O   UNL A   1      47.244  22.555  35.351  1.00  0.00    -0.744 OA
ENDBRANCH  88  91
ENDBRANCH  61  84
ENDBRANCH  35  36
ENDBRANCH  27  30
ENDBRANCH  25  26
ENDBRANCH  24  25
ENDBRANCH   1  24
TORSDOF 17
ENDMDL
MODEL 2
REMARK VINA RESULT:     -11.4      2.352      3.214
REMARK SMILES Cc1cccc(Cl)c1Nc1ccccc1CC(=O)NCCCCNC(=O)c1ccc(-c2c3nc(c(-c4cccc(S(=O)(=O)[O-])c4F)c4ccc([nH]4)c(-c4cccc(S(=O)(=O)[O-])c4F)c4nc(c(-c5cccc(S(=O)(=O)[O-])c5F)c5ccc2[nH]5)C=C4)C=C3)cc1
REMARK SMILES IDX 21 1 20 2 19 3 17 4 18 5 16 7 15 8 10 9 11 10 12 11 14 12
REMARK SMILES IDX 13 13 9 14 8 16 1 17 2 18 3 19 4 20 6 21 5 22 7 23 22 24
REMARK SMILES IDX 23 25 24 26 25 27 26 29 27 30 28 31 89 32 29 33 88 34 30 35
REMARK SMILES IDX 31 36 32 37 82 38 33 39 87 40 81 41 83 42 34 43 86 44 80 45
REMARK SMILES IDX 79 46 35 48 67 49 47 50 66 51 48 52 51 53 65 54 84 55 49 56
REMARK SMILES IDX 50 57 64 59 85 60 52 61 36 62 37 63 45 64 38 65 40 66 46 67
REMARK SMILES IDX 39 68 41 69 42 70 43 71 44 72 68 73 69 74 77 75 70 76 72 77
REMARK SMILES IDX 78 78 71 79 73 80 74 81 75 82 76 83 53 84 54 85 62 86 55 87
REMARK SMILES IDX 57 88 63 89 56 90 58 91 59 92 60 93 61 94
REMARK H PARENT 19 6 9 15 24 28 83 47 51 58
REMARK Flexibility Score: inf
ROOT
ATOM      1  C   UNL A   1      31.295  28.553  25.438  1.00  0.00     0.023 C 
ENDROOT
BRANCH   1   2
ATOM      2  C   UNL A   1      31.805  27.766  26.645  1.00  0.00     0.116 C 
BRANCH   2   3
ATOM      3  N   UNL A   1      31.072  26.531  26.839  1.00  0.00    -0.356 N 
ATOM      4  C   UNL A   1      31.456  25.260  26.512  1.00  0.00     0.224 C 
ATOM      5  O   UNL A   1      30.663  24.335  26.695  1.00  0.00    -0.275 OA
ATOM      6  H   UNL A   1      30.186  26.618  27.258  1.00  0.00     0.163 HD
BRANCH   4   7
ATOM      7  C   UNL A   1      32.858  25.005  25.978  1.00  0.00     0.137 C 
BRANCH   7   8
ATOM      8  C   UNL A   1      32.898  24.554  24.532  1.00  0.00    -0.015 A 
ATOM      9  C   UNL A   1      33.506  23.349  24.114  1.00  0.00     0.042 A 
ATOM     10  C   UNL A   1      33.597  23.087  22.734  1.00  0.00     0.026 A 
ATOM     11  C   UNL A   1      33.080  23.970  21.786  1.00  0.00     0.002 A 
ATOM     12  C   UNL A   1      32.348  25.417  23.561  1.00  0.00     0.006 A 
ATOM     13  C   UNL A   1      32.443  25.131  22.201  1.00  0.00     0.000 A 
BRANCH   9  14
ATOM     14  N   UNL A   1      33.996  22.355  24.984  1.00  0.00    -0.354 N 
ATOM     15  H   UNL A   1      33.365  22.106  25.698  1.00  0.00     0.167 HD
BRANCH  14  16
ATOM     16  C   UNL A   1      35.218  21.644  25.032  1.00  0.00     0.060 A 
ATOM     17  C   UNL A   1      33.880  19.483  24.728  1.00  0.00     0.046 C 
ATOM     18  C   UNL A   1      35.180  20.232  24.879  1.00  0.00    -0.026 A 
ATOM     19  C   UNL A   1      36.377  19.495  24.818  1.00  0.00     0.005 A 
ATOM     20  C   UNL A   1      37.611  20.128  24.917  1.00  0.00     0.002 A 
ATOM     21  C   UNL A   1      36.485  22.259  25.159  1.00  0.00     0.064 A 
ATOM     22  C   UNL A   1      37.664  21.506  25.095  1.00  0.00     0.023 A 
ATOM     23  Cl  UNL A   1      36.689  23.943  25.513  1.00  0.00    -0.082 Cl
ENDBRANCH  14  16
ENDBRANCH   9  14
ENDBRANCH   7   8
ENDBRANCH   4   7
ENDBRANCH   2   3
ENDBRANCH   1   2
BRANCH   1  24
ATOM     24  C   UNL A   1      31.536  30.062  25.511  1.00  0.00     0.023 C 
BRANCH  24  25
ATOM     25  C   UNL A   1      32.291  30.538  26.746  1.00  0.00     0.116 C 
BRANCH  25  26
ATOM     26  N   UNL A   1      32.313  31.989  26.883  1.00  0.00    -0.352 N 
ATOM     27  C   UNL A   1      33.278  32.769  27.473  1.00  0.00     0.251 C 
ATOM     28  H   UNL A   1      31.541  32.469  26.505  1.00  0.00     0.163 HD
ATOM     29  O   UNL A   1      33.107  33.978  27.604  1.00  0.00    -0.269 OA
BRANCH  27  30
ATOM     30  C   UNL A   1      34.507  32.127  27.984  1.00  0.00     0.039 A 
ATOM     31  C   UNL A   1      35.664  32.897  28.132  1.00  0.00     0.014 A 
ATOM     32  C   UNL A   1      34.496  30.783  28.368  1.00  0.00     0.014 A 
ATOM     33  C   UNL A   1      36.793  32.336  28.733  1.00  0.00     0.010 A 
ATOM     34  C   UNL A   1      35.600  30.247  29.023  1.00  0.00     0.010 A 
ATOM     35  C   UNL A   1      36.757  31.018  29.216  1.00  0.00    -0.014 A 
BRANCH  35  36
ATOM     36  C   UNL A   1      37.904  30.423  29.946  1.00  0.00     0.031 A 
ATOM     37  C   UNL A   1      38.210  30.862  31.352  1.00  0.00     0.074 A 
ATOM     38  C   UNL A   1      38.738  29.580  29.304  1.00  0.00     0.049 A 
ATOM     39  N   UNL A   1      39.225  30.546  32.111  1.00  0.00    -0.248 NA
ATOM     40  C   UNL A   1      37.264  31.804  31.973  1.00  0.00     0.031 C 
ATOM     41  C   UNL A   1      38.594  29.142  27.913  1.00  0.00     0.029 A 
ATOM     42  N   UNL A   1      39.894  28.970  29.724  1.00  0.00    -0.354 N 
ATOM     43  C   UNL A   1      39.068  31.282  33.279  1.00  0.00     0.074 A 
ATOM     44  C   UNL A   1      37.871  32.079  33.119  1.00  0.00     0.031 C 
ATOM     45  C   UNL A   1      39.624  28.342  27.595  1.00  0.00     0.029 A 
ATOM     46  C   UNL A   1      40.515  28.231  28.745  1.00  0.00     0.049 A 
ATOM     47  H   UNL A   1      40.245  29.056  30.640  1.00  0.00     0.167 HD
ATOM     48  C   UNL A   1      39.832  31.272  34.395  1.00  0.00     0.034 A 
ATOM     49  C   UNL A   1      41.677  27.547  28.769  1.00  0.00     0.034 A 
ATOM     50  C   UNL A   1      40.986  30.434  34.574  1.00  0.00     0.049 A 
ATOM     51  C   UNL A   1      42.476  27.506  30.043  1.00  0.00     0.074 A 
ATOM     52  C   UNL A   1      41.770  30.279  35.704  1.00  0.00     0.029 A 
ATOM     53  N   UNL A   1      41.522  29.608  33.598  1.00  0.00    -0.354 N 
ATOM     54  N   UNL A   1      42.222  28.082  31.194  1.00  0.00    -0.248 NA
ATOM     55  C   UNL A   1      43.703  26.695  30.036  1.00  0.00     0.031 C 
ATOM     56  C   UNL A   1      42.786  29.365  35.407  1.00  0.00     0.029 A 
ATOM     57  C   UNL A   1      42.627  28.941  34.097  1.00  0.00     0.049 A 
ATOM     58  H   UNL A   1      41.168  29.511  32.685  1.00  0.00     0.167 HD
ATOM     59  C   UNL A   1      43.232  27.672  32.056  1.00  0.00     0.074 A 
ATOM     60  C   UNL A   1      44.094  26.787  31.300  1.00  0.00     0.031 C 
ATOM     61  C   UNL A   1      43.435  28.010  33.353  1.00  0.00     0.034 A 
BRANCH  48  62
ATOM     62  C   UNL A   1      39.407  32.149  35.543  1.00  0.00     0.023 A 
ATOM     63  C   UNL A   1      38.577  31.614  36.550  1.00  0.00     0.012 A 
ATOM     64  C   UNL A   1      39.869  33.474  35.659  1.00  0.00     0.148 A 
ATOM     65  C   UNL A   1      38.189  32.393  37.638  1.00  0.00     0.002 A 
ATOM     66  C   UNL A   1      39.510  34.231  36.769  1.00  0.00     0.091 A 
ATOM     67  F   UNL A   1      40.636  33.973  34.681  1.00  0.00    -0.205 F 
ATOM     68  C   UNL A   1      38.663  33.696  37.753  1.00  0.00     0.022 A 
BRANCH  66  69
ATOM     69  S   UNL A   1      40.131  35.895  37.045  1.00  0.00     0.127 S 
ATOM     70  O   UNL A   1      41.568  35.655  37.174  1.00  0.00    -0.237 OA
ATOM     71  O   UNL A   1      39.736  36.582  35.816  1.00  0.00    -0.237 OA
ATOM     72  O   UNL A   1      39.465  36.375  38.247  1.00  0.00    -0.744 OA
ENDBRANCH  66  69
ENDBRANCH  48  62
BRANCH  49  73
ATOM     73  C   UNL A   1      42.111  26.779  27.568  1.00  0.00     0.023 A 
ATOM     74  C   UNL A   1      42.789  27.452  26.532  1.00  0.00     0.012 A 
ATOM     75  C   UNL A   1      41.891  25.393  27.457  1.00  0.00     0.148 A 
ATOM     76  C   UNL A   1      43.216  26.764  25.396  1.00  0.00     0.002 A 
ATOM     77  C   UNL A   1      42.365  24.704  26.346  1.00  0.00     0.091 A 
ATOM     78  F   UNL A   1      41.232  24.772  28.445  1.00  0.00    -0.205 F 
ATOM     79  C   UNL A   1      43.014  25.389  25.307  1.00  0.00     0.022 A 
BRANCH  77  80
ATOM     80  S   UNL A   1      42.266  22.915  26.213  1.00  0.00     0.127 S 
ATOM     81  O   UNL A   1      43.058  22.484  27.361  1.00  0.00    -0.237 OA
ATOM     82  O   UNL A   1      40.827  22.679  26.333  1.00  0.00    -0.237 OA
ATOM     83  O   UNL A   1      42.815  22.593  24.902  1.00  0.00    -0.744 OA
ENDBRANCH  77  80
ENDBRANCH  49  73
BRANCH  61  84
ATOM     84  C   UNL A   1      44.611  27.397  34.064  1.00  0.00     0.023 A 
ATOM     85  C   UNL A   1      45.862  28.043  34.029  1.00  0.00     0.012 A 
ATOM     86  C   UNL A   1      44.452  26.235  34.846  1.00  0.00     0.148 A 
ATOM     87  C   UNL A   1      46.942  27.532  34.746  1.00  0.00     0.002 A 
ATOM     88  C   UNL A   1      45.521  25.757  35.593  1.00  0.00     0.091 A 
ATOM     89  F   UNL A   1      43.258  25.625  34.848  1.00  0.00    -0.205 F 
ATOM     90  C   UNL A   1      46.769  26.398  35.537  1.00  0.00     0.022 A 
BRANCH  88  91
ATOM     91  S   UNL A   1      45.363  24.359  36.710  1.00  0.00     0.127 S 
ATOM     92  O   UNL A   1      44.986  23.285  35.794  1.00  0.00    -0.237 OA
ATOM     93  O   UNL A   1      46.715  24.245  37.260  1.00  0.00    -0.237 OA
ATOM     94  O   UNL A   1      44.347  24.738  37.684  1.00  0.00    -0.744 OA
ENDBRANCH  88  91
ENDBRANCH  61  84
ENDBRANCH  35  36
ENDBRANCH  27  30
ENDBRANCH  25  26
ENDBRANCH  24  25
ENDBRANCH   1  24
TORSDOF 17
ENDMDL
MODEL 3
REMARK VINA RESULT:     -11.4      2.134      2.934
REMARK SMILES Cc1cccc(Cl)c1Nc1ccccc1CC(=O)NCCCCNC(=O)c1ccc(-c2c3nc(c(-c4cccc(S(=O)(=O)[O-])c4F)c4ccc([nH]4)c(-c4cccc(S(=O)(=O)[O-])c4F)c4nc(c(-c5cccc(S(=O)(=O)[O-])c5F)c5ccc2[nH]5)C=C4)C=C3)cc1
REMARK SMILES IDX 21 1 20 2 19 3 17 4 18 5 16 7 15 8 10 9 11 10 12 11 14 12
REMARK SMILES IDX 13 13 9 14 8 16 1 17 2 18 3 19 4 20 6 21 5 22 7 23 22 24
REMARK SMILES IDX 23 25 24 26 25 27 26 29 27 30 28 31 89 32 29 33 88 34 30 35
REMARK SMILES IDX 31 36 32 37 82 38 33 39 87 40 81 41 83 42 34 43 86 44 80 45
REMARK SMILES IDX 79 46 35 48 67 49 47 50 66 51 48 52 51 53 65 54 84 55 49 56
REMARK SMILES IDX 50 57 64 59 85 60 52 61 36 62 37 63 45 64 38 65 40 66 46 67
REMARK SMILES IDX 39 68 41 69 42 70 43 71 44 72 68 73 69 74 77 75 70 76 72 77
REMARK SMILES IDX 78 78 71 79 73 80 74 81 75 82 76 83 53 84 54 85 62 86 55 87
REMARK SMILES IDX 57 88 63 89 56 90 58 91 59 92 60 93 61 94
REMARK H PARENT 19 6 9 15 24 28 83 47 51 58
REMARK Flexibility Score: inf
ROOT
ATOM      1  C   UNL A   1      32.287  28.666  24.424  1.00  0.00     0.023 C 
ENDROOT
BRANCH   1   2
ATOM      2  C   UNL A   1      32.117  28.657  22.906  1.00  0.00     0.116 C 
BRANCH   2   3
ATOM      3  N   UNL A   1      32.991  27.695  22.266  1.00  0.00    -0.356 N 
ATOM      4  C   UNL A   1      32.741  26.380  21.987  1.00  0.00     0.224 C 
ATOM      5  O   UNL A   1      33.640  25.697  21.494  1.00  0.00    -0.275 OA
ATOM      6  H   UNL A   1      33.877  28.030  21.999  1.00  0.00     0.163 HD
BRANCH   4   7
ATOM      7  C   UNL A   1      31.357  25.801  22.242  1.00  0.00     0.137 C 
BRANCH   7   8
ATOM      8  C   UNL A   1      31.121  25.368  23.674  1.00  0.00    -0.015 A 
ATOM      9  C   UNL A   1      31.823  24.307  24.288  1.00  0.00     0.042 A 
ATOM     10  C   UNL A   1      31.438  23.906  25.581  1.00  0.00     0.026 A 
ATOM     11  C   UNL A   1      30.407  24.547  26.270  1.00  0.00     0.002 A 
ATOM     12  C   UNL A   1      30.107  26.029  24.399  1.00  0.00     0.006 A 
ATOM     13  C   UNL A   1      29.750  25.619  25.683  1.00  0.00     0.000 A 
BRANCH   9  14
ATOM     14  N   UNL A   1      32.923  23.637  23.716  1.00  0.00    -0.354 N 
ATOM     15  H   UNL A   1      33.120  23.914  22.792  1.00  0.00     0.167 HD
BRANCH  14  16
ATOM     16  C   UNL A   1      33.801  22.644  24.211  1.00  0.00     0.060 A 
ATOM     17  C   UNL A   1      35.342  24.521  25.016  1.00  0.00     0.046 C 
ATOM     18  C   UNL A   1      34.982  23.063  24.878  1.00  0.00    -0.026 A 
ATOM     19  C   UNL A   1      35.832  22.114  25.475  1.00  0.00     0.005 A 
ATOM     20  C   UNL A   1      35.539  20.756  25.413  1.00  0.00     0.002 A 
ATOM     21  C   UNL A   1      33.542  21.255  24.138  1.00  0.00     0.064 A 
ATOM     22  C   UNL A   1      34.402  20.327  24.739  1.00  0.00     0.023 A 
ATOM     23  Cl  UNL A   1      32.234  20.581  23.221  1.00  0.00    -0.082 Cl
ENDBRANCH  14  16
ENDBRANCH   9  14
ENDBRANCH   7   8
ENDBRANCH   4   7
ENDBRANCH   2   3
ENDBRANCH   1   2
BRANCH   1  24
ATOM     24  C   UNL A   1      31.677  29.879  25.129  1.00  0.00     0.023 C 
BRANCH  24  25
ATOM     25  C   UNL A   1      32.355  30.279  26.434  1.00  0.00     0.116 C 
BRANCH  25  26
ATOM     26  N   UNL A   1      32.269  31.706  26.714  1.00  0.00    -0.352 N 
ATOM     27  C   UNL A   1      33.146  32.483  27.433  1.00  0.00     0.251 C 
ATOM     28  H   UNL A   1      31.486  32.172  26.341  1.00  0.00     0.163 HD
ATOM     29  O   UNL A   1      32.885  33.658  27.672  1.00  0.00    -0.269 OA
BRANCH  27  30
ATOM     30  C   UNL A   1      34.389  31.872  27.949  1.00  0.00     0.039 A 
ATOM     31  C   UNL A   1      35.522  32.674  28.111  1.00  0.00     0.014 A 
ATOM     32  C   UNL A   1      34.414  30.526  28.323  1.00  0.00     0.014 A 
ATOM     33  C   UNL A   1      36.662  32.141  28.717  1.00  0.00     0.010 A 
ATOM     34  C   UNL A   1      35.527  30.016  28.983  1.00  0.00     0.010 A 
ATOM     35  C   UNL A   1      36.660  30.819  29.190  1.00  0.00    -0.014 A 
BRANCH  35  36
ATOM     36  C   UNL A   1      37.818  30.251  29.925  1.00  0.00     0.031 A 
ATOM     37  C   UNL A   1      38.124  30.718  31.322  1.00  0.00     0.074 A 
ATOM     38  C   UNL A   1      38.661  29.410  29.294  1.00  0.00     0.049 A 
ATOM     39  N   UNL A   1      39.147  30.428  32.082  1.00  0.00    -0.248 NA
ATOM     40  C   UNL A   1      37.168  31.657  31.933  1.00  0.00     0.031 C 
ATOM     41  C   UNL A   1      38.517  28.947  27.911  1.00  0.00     0.029 A 
ATOM     42  N   UNL A   1      39.827  28.823  29.719  1.00  0.00    -0.354 N 
ATOM     43  C   UNL A   1      38.984  31.181  33.238  1.00  0.00     0.074 A 
ATOM     44  C   UNL A   1      37.776  31.959  33.070  1.00  0.00     0.031 C 
ATOM     45  C   UNL A   1      39.557  28.156  27.601  1.00  0.00     0.029 A 
ATOM     46  C   UNL A   1      40.454  28.075  28.749  1.00  0.00     0.049 A 
ATOM     47  H   UNL A   1      40.181  28.929  30.632  1.00  0.00     0.167 HD
ATOM     48  C   UNL A   1      39.753  31.200  34.352  1.00  0.00     0.034 A 
ATOM     49  C   UNL A   1      41.625  27.408  28.780  1.00  0.00     0.034 A 
ATOM     50  C   UNL A   1      40.919  30.381  34.539  1.00  0.00     0.049 A 
ATOM     51  C   UNL A   1      42.430  27.399  30.050  1.00  0.00     0.074 A 
ATOM     52  C   UNL A   1      41.710  30.255  35.668  1.00  0.00     0.029 A 
ATOM     53  N   UNL A   1      41.462  29.546  33.575  1.00  0.00    -0.354 N 
ATOM     54  N   UNL A   1      42.173  27.990  31.192  1.00  0.00    -0.248 NA
ATOM     55  C   UNL A   1      43.668  26.604  30.052  1.00  0.00     0.031 C 
ATOM     56  C   UNL A   1      42.737  29.350  35.382  1.00  0.00     0.029 A 
ATOM     57  C   UNL A   1      42.578  28.903  34.079  1.00  0.00     0.049 A 
ATOM     58  H   UNL A   1      41.105  29.429  32.665  1.00  0.00     0.167 HD
ATOM     59  C   UNL A   1      43.192  27.608  32.057  1.00  0.00     0.074 A 
ATOM     60  C   UNL A   1      44.063  26.723  31.312  1.00  0.00     0.031 C 
ATOM     61  C   UNL A   1      43.396  27.971  33.348  1.00  0.00     0.034 A 
BRANCH  48  62
ATOM     62  C   UNL A   1      39.320  32.090  35.487  1.00  0.00     0.023 A 
ATOM     63  C   UNL A   1      38.454  31.578  36.474  1.00  0.00     0.012 A 
ATOM     64  C   UNL A   1      39.810  33.404  35.611  1.00  0.00     0.148 A 
ATOM     65  C   UNL A   1      38.058  32.368  37.551  1.00  0.00     0.002 A 
ATOM     66  C   UNL A   1      39.442  34.173  36.710  1.00  0.00     0.091 A 
ATOM     67  F   UNL A   1      40.612  33.883  34.650  1.00  0.00    -0.205 F 
ATOM     68  C   UNL A   1      38.559  33.661  37.674  1.00  0.00     0.022 A 
BRANCH  66  69
ATOM     69  S   UNL A   1      40.095  35.822  36.997  1.00  0.00     0.127 S 
ATOM     70  O   UNL A   1      39.654  36.527  35.794  1.00  0.00    -0.237 OA
ATOM     71  O   UNL A   1      39.406  36.220  38.224  1.00  0.00    -0.237 OA
ATOM     72  O   UNL A   1      41.535  35.662  37.138  1.00  0.00    -0.744 OA
ENDBRANCH  66  69
ENDBRANCH  48  62
BRANCH  49  73
ATOM     73  C   UNL A   1      42.064  26.627  27.589  1.00  0.00     0.023 A 
ATOM     74  C   UNL A   1      42.793  27.276  26.573  1.00  0.00     0.012 A 
ATOM     75  C   UNL A   1      41.801  25.249  27.471  1.00  0.00     0.148 A 
ATOM     76  C   UNL A   1      43.225  26.574  25.447  1.00  0.00     0.002 A 
ATOM     77  C   UNL A   1      42.281  24.544  26.371  1.00  0.00     0.091 A 
ATOM     78  F   UNL A   1      41.095  24.650  28.440  1.00  0.00    -0.205 F 
ATOM     79  C   UNL A   1      42.980  25.208  25.351  1.00  0.00     0.022 A 
BRANCH  77  80
ATOM     80  S   UNL A   1      42.124  22.760  26.233  1.00  0.00     0.127 S 
ATOM     81  O   UNL A   1      42.746  22.504  24.937  1.00  0.00    -0.237 OA
ATOM     82  O   UNL A   1      42.892  22.295  27.388  1.00  0.00    -0.237 OA
ATOM     83  O   UNL A   1      40.695  22.488  26.319  1.00  0.00    -0.744 OA
ENDBRANCH  77  80
ENDBRANCH  49  73
BRANCH  61  84
ATOM     84  C   UNL A   1      44.583  27.386  34.064  1.00  0.00     0.023 A 
ATOM     85  C   UNL A   1      45.822  28.052  34.020  1.00  0.00     0.012 A 
ATOM     86  C   UNL A   1      44.444  26.229  34.857  1.00  0.00     0.148 A 
ATOM     87  C   UNL A   1      46.912  27.567  34.741  1.00  0.00     0.002 A 
ATOM     88  C   UNL A   1      45.523  25.777  35.608  1.00  0.00     0.091 A 
ATOM     89  F   UNL A   1      43.261  25.599  34.868  1.00  0.00    -0.205 F 
ATOM     90  C   UNL A   1      46.759  26.439  35.544  1.00  0.00     0.022 A 
BRANCH  88  91
ATOM     91  S   UNL A   1      45.390  24.388  36.740  1.00  0.00     0.127 S 
ATOM     92  O   UNL A   1      46.739  24.329  37.300  1.00  0.00    -0.237 OA
ATOM     93  O   UNL A   1      44.362  24.846  37.676  1.00  0.00    -0.237 OA
ATOM     94  O   UNL A   1      44.998  23.245  35.927  1.00  0.00    -0.744 OA
ENDBRANCH  88  91
ENDBRANCH  61  84
ENDBRANCH  35  36
ENDBRANCH  27  30
ENDBRANCH  25  26
ENDBRANCH  24  25
ENDBRANCH   1  24
TORSDOF 17
ENDMDL
