MODEL 1
REMARK VINA RESULT:     -12.2      0.000      0.000
REMARK SMILES COc1ccccc1[C@@H]1C[N@@H+](Cc2cc(C(C)=O)cn2C)C[C@H]1C(=O)NCCCCNC(=O)c1ccc(-c2c3nc(c(-c4cccc(S(=O)(=O)[O-])c4F)c4ccc([nH]4)c(-c4cccc(S(=O)(=O)[O-])c4F)c4nc(c(-c5cccc(S(=O)(=O)[O-])c5F)c5ccc2[nH]5)C=C4)C=C3)cc1
REMARK SMILES IDX 28 1 27 2 26 3 24 4 25 5 23 7 9 8 10 9 11 10 22 11 8 13 3 14
REMARK SMILES IDX 4 15 5 16 7 17 6 18 2 19 1 20 12 21 13 22 14 23 20 24 15 25
REMARK SMILES IDX 19 26 21 27 16 28 17 29 18 30 29 31 30 32 31 33 32 34 33 36
REMARK SMILES IDX 34 37 35 38 96 39 36 40 95 41 37 42 38 43 39 44 89 45 40 46
REMARK SMILES IDX 94 47 88 48 90 49 41 50 93 51 87 52 86 53 42 55 74 56 54 57
REMARK SMILES IDX 73 58 55 59 58 60 72 61 91 62 56 63 57 64 71 66 92 67 59 68
REMARK SMILES IDX 43 69 44 70 52 71 45 72 47 73 53 74 46 75 48 76 49 77 50 78
REMARK SMILES IDX 51 79 75 80 76 81 84 82 77 83 79 84 85 85 78 86 80 87 81 88
REMARK SMILES IDX 82 89 83 90 60 91 61 92 69 93 62 94 64 95 70 96 63 97 65 98
REMARK SMILES IDX 66 99 67 100 68 101
REMARK H PARENT 26 6 11 12 31 35 90 54 58 65
REMARK Flexibility Score: inf
ROOT
ATOM      1  C   UNL A   1      31.326  28.273  26.252  1.00  0.00     0.023 C 
ENDROOT
BRANCH   1   2
ATOM      2  C   UNL A   1      32.286  27.615  27.259  1.00  0.00     0.116 C 
BRANCH   2   3
ATOM      3  N   UNL A   1      32.477  26.181  27.019  1.00  0.00    -0.356 N 
ATOM      4  C   UNL A   1      32.941  25.283  26.133  1.00  0.00     0.229 C 
ATOM      5  O   UNL A   1      33.220  24.211  26.715  1.00  0.00    -0.275 OA
ATOM      6  H   UNL A   1      32.140  25.693  27.804  1.00  0.00     0.163 HD
BRANCH   4   7
ATOM      7  C   UNL A   1      33.124  25.257  24.597  1.00  0.00     0.146 C 
ATOM      8  C   UNL A   1      32.556  24.065  23.827  1.00  0.00     0.096 C 
ATOM      9  C   UNL A   1      32.724  24.466  22.350  1.00  0.00     0.272 C 
ATOM     10  N   UNL A   1      32.676  25.935  22.296  1.00  0.00    -0.329 N 
ATOM     11  C   UNL A   1      32.979  26.446  23.649  1.00  0.00     0.276 C 
ATOM     12  H   UNL A   1      33.404  26.313  21.688  1.00  0.00     0.348 HD
BRANCH   8  13
ATOM     13  C   UNL A   1      33.180  22.725  24.189  1.00  0.00     0.004 A 
ATOM     14  C   UNL A   1      34.560  22.460  24.287  1.00  0.00     0.122 A 
ATOM     15  C   UNL A   1      35.026  21.183  24.624  1.00  0.00     0.047 A 
ATOM     16  C   UNL A   1      34.127  20.152  24.885  1.00  0.00     0.004 A 
ATOM     17  C   UNL A   1      32.293  21.664  24.461  1.00  0.00     0.008 A 
ATOM     18  C   UNL A   1      32.761  20.392  24.799  1.00  0.00     0.001 A 
BRANCH  14  19
ATOM     19  O   UNL A   1      35.515  23.365  23.909  1.00  0.00    -0.496 OA
ATOM     20  C   UNL A   1      36.485  23.621  24.922  1.00  0.00     0.278 C 
ENDBRANCH  14  19
ENDBRANCH   8  13
BRANCH  10  21
ATOM     21  C   UNL A   1      31.517  26.474  21.571  1.00  0.00     0.317 C 
BRANCH  21  22
ATOM     22  C   UNL A   1      30.783  27.494  22.371  1.00  0.00     0.073 A 
ATOM     23  C   UNL A   1      30.818  28.886  22.309  1.00  0.00     0.041 A 
ATOM     24  N   UNL A   1      29.751  27.173  23.211  1.00  0.00    -0.349 N 
ATOM     25  C   UNL A   1      29.509  29.321  22.651  1.00  0.00     0.035 A 
ATOM     26  C   UNL A   1      28.878  28.213  23.161  1.00  0.00     0.097 A 
ATOM     27  C   UNL A   1      29.501  25.924  23.895  1.00  0.00     0.149 C 
BRANCH  25  28
ATOM     28  C   UNL A   1      28.825  30.581  22.405  1.00  0.00     0.161 C 
ATOM     29  C   UNL A   1      27.661  30.939  23.281  1.00  0.00     0.093 C 
ATOM     30  O   UNL A   1      29.120  31.277  21.433  1.00  0.00    -0.294 OA
ENDBRANCH  25  28
ENDBRANCH  21  22
ENDBRANCH  10  21
ENDBRANCH   4   7
ENDBRANCH   2   3
ENDBRANCH   1   2
BRANCH   1  31
ATOM     31  C   UNL A   1      31.793  29.578  25.578  1.00  0.00     0.023 C 
BRANCH  31  32
ATOM     32  C   UNL A   1      33.039  30.301  26.079  1.00  0.00     0.116 C 
BRANCH  32  33
ATOM     33  N   UNL A   1      32.835  31.457  26.946  1.00  0.00    -0.352 N 
ATOM     34  C   UNL A   1      33.715  32.069  27.827  1.00  0.00     0.251 C 
ATOM     35  H   UNL A   1      31.939  31.864  26.900  1.00  0.00     0.163 HD
ATOM     36  O   UNL A   1      33.386  33.053  28.453  1.00  0.00    -0.269 OA
BRANCH  34  37
ATOM     37  C   UNL A   1      35.042  31.446  28.030  1.00  0.00     0.039 A 
ATOM     38  C   UNL A   1      36.183  32.250  27.993  1.00  0.00     0.014 A 
ATOM     39  C   UNL A   1      35.122  30.118  28.438  1.00  0.00     0.014 A 
ATOM     40  C   UNL A   1      37.389  31.749  28.493  1.00  0.00     0.010 A 
ATOM     41  C   UNL A   1      36.278  29.681  29.071  1.00  0.00     0.010 A 
ATOM     42  C   UNL A   1      37.432  30.482  29.100  1.00  0.00    -0.014 A 
BRANCH  42  43
ATOM     43  C   UNL A   1      38.663  29.962  29.762  1.00  0.00     0.031 A 
ATOM     44  C   UNL A   1      39.016  30.423  31.157  1.00  0.00     0.074 A 
ATOM     45  C   UNL A   1      39.524  29.170  29.086  1.00  0.00     0.049 A 
ATOM     46  N   UNL A   1      40.074  30.151  31.876  1.00  0.00    -0.248 NA
ATOM     47  C   UNL A   1      38.092  31.372  31.804  1.00  0.00     0.031 C 
ATOM     48  C   UNL A   1      39.387  28.752  27.688  1.00  0.00     0.029 A 
ATOM     49  N   UNL A   1      40.701  28.582  29.487  1.00  0.00    -0.354 N 
ATOM     50  C   UNL A   1      39.974  30.948  33.011  1.00  0.00     0.074 A 
ATOM     51  C   UNL A   1      38.796  31.767  32.852  1.00  0.00     0.031 C 
ATOM     52  C   UNL A   1      40.409  27.940  27.365  1.00  0.00     0.029 A 
ATOM     53  C   UNL A   1      41.283  27.790  28.523  1.00  0.00     0.049 A 
ATOM     54  H   UNL A   1      41.092  28.716  30.380  1.00  0.00     0.167 HD
ATOM     55  C   UNL A   1      40.750  30.958  34.121  1.00  0.00     0.034 A 
ATOM     56  C   UNL A   1      42.380  27.006  28.580  1.00  0.00     0.034 A 
ATOM     57  C   UNL A   1      41.840  30.050  34.333  1.00  0.00     0.049 A 
ATOM     58  C   UNL A   1      43.138  26.912  29.880  1.00  0.00     0.074 A 
ATOM     59  C   UNL A   1      42.604  29.868  35.471  1.00  0.00     0.029 A 
ATOM     60  N   UNL A   1      42.303  29.148  33.389  1.00  0.00    -0.354 N 
ATOM     61  N   UNL A   1      42.917  27.536  31.012  1.00  0.00    -0.248 NA
ATOM     62  C   UNL A   1      44.264  25.967  29.927  1.00  0.00     0.031 C 
ATOM     63  C   UNL A   1      43.530  28.851  35.214  1.00  0.00     0.029 A 
ATOM     64  C   UNL A   1      43.333  28.395  33.919  1.00  0.00     0.049 A 
ATOM     65  H   UNL A   1      41.950  29.058  32.474  1.00  0.00     0.167 HD
ATOM     66  C   UNL A   1      43.838  27.022  31.917  1.00  0.00     0.074 A 
ATOM     67  C   UNL A   1      44.611  26.025  31.205  1.00  0.00     0.031 C 
ATOM     68  C   UNL A   1      44.036  27.353  33.217  1.00  0.00     0.034 A 
BRANCH  55  69
ATOM     69  C   UNL A   1      40.378  31.922  35.219  1.00  0.00     0.023 A 
ATOM     70  C   UNL A   1      41.077  33.142  35.340  1.00  0.00     0.012 A 
ATOM     71  C   UNL A   1      39.343  31.629  36.127  1.00  0.00     0.148 A 
ATOM     72  C   UNL A   1      40.797  34.025  36.382  1.00  0.00     0.002 A 
ATOM     73  C   UNL A   1      39.034  32.540  37.132  1.00  0.00     0.091 A 
ATOM     74  F   UNL A   1      38.701  30.458  36.013  1.00  0.00    -0.205 F 
ATOM     75  C   UNL A   1      39.770  33.727  37.272  1.00  0.00     0.022 A 
BRANCH  73  76
ATOM     76  S   UNL A   1      37.673  32.286  38.276  1.00  0.00     0.127 S 
ATOM     77  O   UNL A   1      38.233  32.809  39.522  1.00  0.00    -0.237 OA
ATOM     78  O   UNL A   1      36.617  33.112  37.690  1.00  0.00    -0.237 OA
ATOM     79  O   UNL A   1      37.399  30.856  38.259  1.00  0.00    -0.744 OA
ENDBRANCH  73  76
ENDBRANCH  55  69
BRANCH  56  80
ATOM     80  C   UNL A   1      42.739  26.128  27.426  1.00  0.00     0.023 A 
ATOM     81  C   UNL A   1      43.547  26.658  26.399  1.00  0.00     0.012 A 
ATOM     82  C   UNL A   1      42.312  24.790  27.337  1.00  0.00     0.148 A 
ATOM     83  C   UNL A   1      43.892  25.887  25.288  1.00  0.00     0.002 A 
ATOM     84  C   UNL A   1      42.699  24.011  26.250  1.00  0.00     0.091 A 
ATOM     85  F   UNL A   1      41.539  24.305  28.318  1.00  0.00    -0.205 F 
ATOM     86  C   UNL A   1      43.475  24.562  25.217  1.00  0.00     0.022 A 
BRANCH  84  87
ATOM     87  S   UNL A   1      42.309  22.261  26.126  1.00  0.00     0.127 S 
ATOM     88  O   UNL A   1      42.702  21.772  27.445  1.00  0.00    -0.237 OA
ATOM     89  O   UNL A   1      40.866  22.290  25.884  1.00  0.00    -0.237 OA
ATOM     90  O   UNL A   1      43.096  21.765  25.004  1.00  0.00    -0.744 OA
ENDBRANCH  84  87
ENDBRANCH  56  80
BRANCH  68  91
ATOM     91  C   UNL A   1      45.087  26.595  33.983  1.00  0.00     0.023 A 
ATOM     92  C   UNL A   1      46.409  27.077  34.025  1.00  0.00     0.012 A 
ATOM     93  C   UNL A   1      44.739  25.454  34.731  1.00  0.00     0.148 A 
ATOM     94  C   UNL A   1      47.378  26.414  34.778  1.00  0.00     0.002 A 
ATOM     95  C   UNL A   1      45.700  24.828  35.518  1.00  0.00     0.091 A 
ATOM     96  F   UNL A   1      43.481  24.996  34.661  1.00  0.00    -0.205 F 
ATOM     97  C   UNL A   1      47.021  25.301  35.534  1.00  0.00     0.022 A 
BRANCH  95  98
ATOM     98  S   UNL A   1      45.288  23.454  36.600  1.00  0.00     0.127 S 
ATOM     99  O   UNL A   1      46.611  22.985  37.005  1.00  0.00    -0.237 OA
ATOM    100  O   UNL A   1      44.520  24.106  37.662  1.00  0.00    -0.237 OA
ATOM    101  O   UNL A   1      44.511  22.531  35.783  1.00  0.00    -0.744 OA
ENDBRANCH  95  98
ENDBRANCH  68  91
ENDBRANCH  42  43
ENDBRANCH  34  37
ENDBRANCH  32  33
ENDBRANCH  31  32
ENDBRANCH   1  31
TORSDOF 19
ENDMDL
MODEL 2
REMARK VINA RESULT:     -12.1      2.136      4.668
REMARK SMILES COc1ccccc1[C@@H]1C[N@@H+](Cc2cc(C(C)=O)cn2C)C[C@H]1C(=O)NCCCCNC(=O)c1ccc(-c2c3nc(c(-c4cccc(S(=O)(=O)[O-])c4F)c4ccc([nH]4)c(-c4cccc(S(=O)(=O)[O-])c4F)c4nc(c(-c5cccc(S(=O)(=O)[O-])c5F)c5ccc2[nH]5)C=C4)C=C3)cc1
REMARK SMILES IDX 28 1 27 2 26 3 24 4 25 5 23 7 9 8 10 9 11 10 22 11 8 13 3 14
REMARK SMILES IDX 4 15 5 16 7 17 6 18 2 19 1 20 12 21 13 22 14 23 20 24 15 25
REMARK SMILES IDX 19 26 21 27 16 28 17 29 18 30 29 31 30 32 31 33 32 34 33 36
REMARK SMILES IDX 34 37 35 38 96 39 36 40 95 41 37 42 38 43 39 44 89 45 40 46
REMARK SMILES IDX 94 47 88 48 90 49 41 50 93 51 87 52 86 53 42 55 74 56 54 57
REMARK SMILES IDX 73 58 55 59 58 60 72 61 91 62 56 63 57 64 71 66 92 67 59 68
REMARK SMILES IDX 43 69 44 70 52 71 45 72 47 73 53 74 46 75 48 76 49 77 50 78
REMARK SMILES IDX 51 79 75 80 76 81 84 82 77 83 79 84 85 85 78 86 80 87 81 88
REMARK SMILES IDX 82 89 83 90 60 91 61 92 69 93 62 94 64 95 70 96 63 97 65 98
REMARK SMILES IDX 66 99 67 100 68 101
REMARK H PARENT 26 6 11 12 31 35 90 54 58 65
REMARK Flexibility Score: inf
ROOT
ATOM      1  C   UNL A   1      32.326  27.993  26.983  1.00  0.00     0.023 C 
ENDROOT
BRANCH   1   2
ATOM      2  C   UNL A   1      30.979  27.301  26.708  1.00  0.00     0.116 C 
BRANCH   2   3
ATOM      3  N   UNL A   1      30.996  25.866  27.013  1.00  0.00    -0.356 N 
ATOM      4  C   UNL A   1      31.237  24.650  26.492  1.00  0.00     0.229 C 
ATOM      5  O   UNL A   1      31.496  23.836  27.405  1.00  0.00    -0.275 OA
ATOM      6  H   UNL A   1      30.734  25.751  27.954  1.00  0.00     0.163 HD
BRANCH   4   7
ATOM      7  C   UNL A   1      31.188  24.042  25.071  1.00  0.00     0.146 C 
ATOM      8  C   UNL A   1      31.842  24.826  23.933  1.00  0.00     0.096 C 
ATOM      9  C   UNL A   1      31.795  23.853  22.740  1.00  0.00     0.272 C 
ATOM     10  N   UNL A   1      31.822  22.491  23.296  1.00  0.00    -0.329 N 
ATOM     11  C   UNL A   1      31.394  22.572  24.708  1.00  0.00     0.276 C 
ATOM     12  H   UNL A   1      31.143  21.884  22.836  1.00  0.00     0.348 HD
BRANCH   8  13
ATOM     13  C   UNL A   1      31.213  26.185  23.660  1.00  0.00     0.004 A 
ATOM     14  C   UNL A   1      31.915  27.375  23.384  1.00  0.00     0.122 A 
ATOM     15  C   UNL A   1      31.233  28.576  23.150  1.00  0.00     0.047 A 
ATOM     16  C   UNL A   1      29.842  28.610  23.171  1.00  0.00     0.004 A 
ATOM     17  C   UNL A   1      29.806  26.248  23.672  1.00  0.00     0.008 A 
ATOM     18  C   UNL A   1      29.129  27.447  23.437  1.00  0.00     0.001 A 
BRANCH  14  19
ATOM     19  O   UNL A   1      33.278  27.470  23.485  1.00  0.00    -0.496 OA
ATOM     20  C   UNL A   1      33.791  28.729  23.057  1.00  0.00     0.278 C 
ENDBRANCH  14  19
ENDBRANCH   8  13
BRANCH  10  21
ATOM     21  C   UNL A   1      33.030  21.726  22.958  1.00  0.00     0.317 C 
BRANCH  21  22
ATOM     22  C   UNL A   1      33.129  20.464  23.743  1.00  0.00     0.073 A 
ATOM     23  C   UNL A   1      32.514  19.229  23.548  1.00  0.00     0.041 A 
ATOM     24  N   UNL A   1      34.059  20.278  24.730  1.00  0.00    -0.349 N 
ATOM     25  C   UNL A   1      33.445  18.257  24.006  1.00  0.00     0.035 A 
ATOM     26  C   UNL A   1      34.402  18.964  24.691  1.00  0.00     0.097 A 
ATOM     27  C   UNL A   1      34.711  21.272  25.553  1.00  0.00     0.149 C 
BRANCH  25  28
ATOM     28  C   UNL A   1      33.555  16.833  23.729  1.00  0.00     0.161 C 
ATOM     29  C   UNL A   1      33.146  15.868  24.803  1.00  0.00     0.093 C 
ATOM     30  O   UNL A   1      34.079  16.434  22.689  1.00  0.00    -0.294 OA
ENDBRANCH  25  28
ENDBRANCH  21  22
ENDBRANCH  10  21
ENDBRANCH   4   7
ENDBRANCH   2   3
ENDBRANCH   1   2
BRANCH   1  31
ATOM     31  C   UNL A   1      32.356  29.532  26.923  1.00  0.00     0.023 C 
BRANCH  31  32
ATOM     32  C   UNL A   1      33.665  30.287  27.132  1.00  0.00     0.116 C 
BRANCH  32  33
ATOM     33  N   UNL A   1      33.681  31.323  28.159  1.00  0.00    -0.352 N 
ATOM     34  C   UNL A   1      34.700  31.699  29.022  1.00  0.00     0.251 C 
ATOM     35  H   UNL A   1      32.842  31.831  28.255  1.00  0.00     0.163 HD
ATOM     36  O   UNL A   1      34.551  32.616  29.800  1.00  0.00    -0.269 OA
BRANCH  34  37
ATOM     37  C   UNL A   1      35.951  30.907  29.008  1.00  0.00     0.039 A 
ATOM     38  C   UNL A   1      37.083  31.437  28.386  1.00  0.00     0.014 A 
ATOM     39  C   UNL A   1      36.036  29.746  29.770  1.00  0.00     0.014 A 
ATOM     40  C   UNL A   1      38.333  30.862  28.639  1.00  0.00     0.010 A 
ATOM     41  C   UNL A   1      37.290  29.277  30.136  1.00  0.00     0.010 A 
ATOM     42  C   UNL A   1      38.457  29.818  29.571  1.00  0.00    -0.014 A 
BRANCH  42  43
ATOM     43  C   UNL A   1      39.784  29.264  29.968  1.00  0.00     0.031 A 
ATOM     44  C   UNL A   1      40.526  29.865  31.139  1.00  0.00     0.074 A 
ATOM     45  C   UNL A   1      40.378  28.305  29.225  1.00  0.00     0.049 A 
ATOM     46  N   UNL A   1      41.718  29.580  31.597  1.00  0.00    -0.248 NA
ATOM     47  C   UNL A   1      39.875  30.981  31.847  1.00  0.00     0.031 C 
ATOM     48  C   UNL A   1      39.844  27.724  27.990  1.00  0.00     0.029 A 
ATOM     49  N   UNL A   1      41.577  27.655  29.397  1.00  0.00    -0.354 N 
ATOM     50  C   UNL A   1      41.979  30.525  32.583  1.00  0.00     0.074 A 
ATOM     51  C   UNL A   1      40.858  31.434  32.606  1.00  0.00     0.031 C 
ATOM     52  C   UNL A   1      40.686  26.775  27.545  1.00  0.00     0.029 A 
ATOM     53  C   UNL A   1      41.827  26.687  28.450  1.00  0.00     0.049 A 
ATOM     54  H   UNL A   1      42.201  27.863  30.129  1.00  0.00     0.167 HD
ATOM     55  C   UNL A   1      43.023  30.599  33.443  1.00  0.00     0.034 A 
ATOM     56  C   UNL A   1      42.845  25.808  28.344  1.00  0.00     0.034 A 
ATOM     57  C   UNL A   1      44.068  29.618  33.506  1.00  0.00     0.049 A 
ATOM     58  C   UNL A   1      43.916  25.806  29.406  1.00  0.00     0.074 A 
ATOM     59  C   UNL A   1      45.095  29.508  34.426  1.00  0.00     0.029 A 
ATOM     60  N   UNL A   1      44.200  28.557  32.625  1.00  0.00    -0.354 N 
ATOM     61  N   UNL A   1      44.047  26.593  30.447  1.00  0.00    -0.248 NA
ATOM     62  C   UNL A   1      44.948  24.764  29.309  1.00  0.00     0.031 C 
ATOM     63  C   UNL A   1      45.849  28.376  34.099  1.00  0.00     0.029 A 
ATOM     64  C   UNL A   1      45.282  27.777  32.984  1.00  0.00     0.049 A 
ATOM     65  H   UNL A   1      43.610  28.386  31.856  1.00  0.00     0.167 HD
ATOM     66  C   UNL A   1      45.141  26.109  31.155  1.00  0.00     0.074 A 
ATOM     67  C   UNL A   1      45.628  24.952  30.431  1.00  0.00     0.031 C 
ATOM     68  C   UNL A   1      45.702  26.584  32.295  1.00  0.00     0.034 A 
BRANCH  55  69
ATOM     69  C   UNL A   1      43.023  31.733  34.438  1.00  0.00     0.023 A 
ATOM     70  C   UNL A   1      43.636  32.957  34.098  1.00  0.00     0.012 A 
ATOM     71  C   UNL A   1      42.419  31.593  35.701  1.00  0.00     0.148 A 
ATOM     72  C   UNL A   1      43.706  34.000  35.019  1.00  0.00     0.002 A 
ATOM     73  C   UNL A   1      42.447  32.658  36.596  1.00  0.00     0.091 A 
ATOM     74  F   UNL A   1      41.859  30.417  36.019  1.00  0.00    -0.205 F 
ATOM     75  C   UNL A   1      43.104  33.853  36.265  1.00  0.00     0.022 A 
BRANCH  73  76
ATOM     76  S   UNL A   1      41.626  32.596  38.193  1.00  0.00     0.127 S 
ATOM     77  O   UNL A   1      40.278  32.173  37.816  1.00  0.00    -0.237 OA
ATOM     78  O   UNL A   1      42.406  31.582  38.903  1.00  0.00    -0.237 OA
ATOM     79  O   UNL A   1      41.734  33.937  38.748  1.00  0.00    -0.744 OA
ENDBRANCH  73  76
ENDBRANCH  55  69
BRANCH  56  80
ATOM     80  C   UNL A   1      42.823  24.754  27.287  1.00  0.00     0.023 A 
ATOM     81  C   UNL A   1      43.477  25.010  26.063  1.00  0.00     0.012 A 
ATOM     82  C   UNL A   1      42.187  23.513  27.474  1.00  0.00     0.148 A 
ATOM     83  C   UNL A   1      43.466  24.068  25.034  1.00  0.00     0.002 A 
ATOM     84  C   UNL A   1      42.221  22.558  26.461  1.00  0.00     0.091 A 
ATOM     85  F   UNL A   1      41.564  23.289  28.639  1.00  0.00    -0.205 F 
ATOM     86  C   UNL A   1      42.846  22.840  25.235  1.00  0.00     0.022 A 
BRANCH  84  87
ATOM     87  S   UNL A   1      41.551  20.903  26.667  1.00  0.00     0.127 S 
ATOM     88  O   UNL A   1      42.048  20.228  25.472  1.00  0.00    -0.237 OA
ATOM     89  O   UNL A   1      42.176  20.478  27.921  1.00  0.00    -0.237 OA
ATOM     90  O   UNL A   1      40.106  21.075  26.745  1.00  0.00    -0.744 OA
ENDBRANCH  84  87
ENDBRANCH  56  80
BRANCH  68  91
ATOM     91  C   UNL A   1      46.867  25.829  32.873  1.00  0.00     0.023 A 
ATOM     92  C   UNL A   1      48.182  26.205  32.543  1.00  0.00     0.012 A 
ATOM     93  C   UNL A   1      46.654  24.801  33.813  1.00  0.00     0.148 A 
ATOM     94  C   UNL A   1      49.270  25.549  33.117  1.00  0.00     0.002 A 
ATOM     95  C   UNL A   1      47.744  24.185  34.418  1.00  0.00     0.091 A 
ATOM     96  F   UNL A   1      45.395  24.440  34.098  1.00  0.00    -0.205 F 
ATOM     97  C   UNL A   1      49.052  24.550  34.063  1.00  0.00     0.022 A 
BRANCH  95  98
ATOM     98  S   UNL A   1      47.538  22.967  35.721  1.00  0.00     0.127 S 
ATOM     99  O   UNL A   1      46.649  21.996  35.087  1.00  0.00    -0.237 OA
ATOM    100  O   UNL A   1      48.907  22.493  35.931  1.00  0.00    -0.237 OA
ATOM    101  O   UNL A   1      46.978  23.694  36.853  1.00  0.00    -0.744 OA
ENDBRANCH  95  98
ENDBRANCH  68  91
ENDBRANCH  42  43
ENDBRANCH  34  37
ENDBRANCH  32  33
ENDBRANCH  31  32
ENDBRANCH   1  31
TORSDOF 19
ENDMDL
MODEL 3
REMARK VINA RESULT:     -12.1      1.512      4.252
REMARK SMILES COc1ccccc1[C@@H]1C[N@@H+](Cc2cc(C(C)=O)cn2C)C[C@H]1C(=O)NCCCCNC(=O)c1ccc(-c2c3nc(c(-c4cccc(S(=O)(=O)[O-])c4F)c4ccc([nH]4)c(-c4cccc(S(=O)(=O)[O-])c4F)c4nc(c(-c5cccc(S(=O)(=O)[O-])c5F)c5ccc2[nH]5)C=C4)C=C3)cc1
REMARK SMILES IDX 28 1 27 2 26 3 24 4 25 5 23 7 9 8 10 9 11 10 22 11 8 13 3 14
REMARK SMILES IDX 4 15 5 16 7 17 6 18 2 19 1 20 12 21 13 22 14 23 20 24 15 25
REMARK SMILES IDX 19 26 21 27 16 28 17 29 18 30 29 31 30 32 31 33 32 34 33 36
REMARK SMILES IDX 34 37 35 38 96 39 36 40 95 41 37 42 38 43 39 44 89 45 40 46
REMARK SMILES IDX 94 47 88 48 90 49 41 50 93 51 87 52 86 53 42 55 74 56 54 57
REMARK SMILES IDX 73 58 55 59 58 60 72 61 91 62 56 63 57 64 71 66 92 67 59 68
REMARK SMILES IDX 43 69 44 70 52 71 45 72 47 73 53 74 46 75 48 76 49 77 50 78
REMARK SMILES IDX 51 79 75 80 76 81 84 82 77 83 79 84 85 85 78 86 80 87 81 88
REMARK SMILES IDX 82 89 83 90 60 91 61 92 69 93 62 94 64 95 70 96 63 97 65 98
REMARK SMILES IDX 66 99 67 100 68 101
REMARK H PARENT 26 6 11 12 31 35 90 54 58 65
REMARK Flexibility Score: inf
ROOT
ATOM      1  C   UNL A   1      32.019  28.357  27.210  1.00  0.00     0.023 C 
ENDROOT
BRANCH   1   2
ATOM      2  C   UNL A   1      30.935  27.428  26.636  1.00  0.00     0.116 C 
BRANCH   2   3
ATOM      3  N   UNL A   1      31.148  26.017  26.976  1.00  0.00    -0.356 N 
ATOM      4  C   UNL A   1      31.388  24.801  26.454  1.00  0.00     0.229 C 
ATOM      5  O   UNL A   1      31.905  24.059  27.318  1.00  0.00    -0.275 OA
ATOM      6  H   UNL A   1      31.097  25.927  27.954  1.00  0.00     0.163 HD
BRANCH   4   7
ATOM      7  C   UNL A   1      31.104  24.120  25.095  1.00  0.00     0.146 C 
ATOM      8  C   UNL A   1      31.613  24.809  23.829  1.00  0.00     0.096 C 
ATOM      9  C   UNL A   1      31.351  23.776  22.717  1.00  0.00     0.272 C 
ATOM     10  N   UNL A   1      31.404  22.446  23.344  1.00  0.00    -0.329 N 
ATOM     11  C   UNL A   1      31.193  22.625  24.796  1.00  0.00     0.276 C 
ATOM     12  H   UNL A   1      30.640  21.850  23.025  1.00  0.00     0.348 HD
BRANCH   8  13
ATOM     13  C   UNL A   1      31.008  26.180  23.568  1.00  0.00     0.004 A 
ATOM     14  C   UNL A   1      31.728  27.354  23.271  1.00  0.00     0.122 A 
ATOM     15  C   UNL A   1      31.066  28.568  23.051  1.00  0.00     0.047 A 
ATOM     16  C   UNL A   1      29.677  28.633  23.108  1.00  0.00     0.004 A 
ATOM     17  C   UNL A   1      29.603  26.274  23.617  1.00  0.00     0.008 A 
ATOM     18  C   UNL A   1      28.946  27.487  23.395  1.00  0.00     0.001 A 
BRANCH  14  19
ATOM     19  O   UNL A   1      33.094  27.419  23.336  1.00  0.00    -0.496 OA
ATOM     20  C   UNL A   1      33.646  28.496  22.582  1.00  0.00     0.278 C 
ENDBRANCH  14  19
ENDBRANCH   8  13
BRANCH  10  21
ATOM     21  C   UNL A   1      32.516  21.605  22.881  1.00  0.00     0.317 C 
BRANCH  21  22
ATOM     22  C   UNL A   1      32.923  20.604  23.906  1.00  0.00     0.073 A 
ATOM     23  C   UNL A   1      32.393  19.349  24.203  1.00  0.00     0.041 A 
ATOM     24  N   UNL A   1      34.084  20.710  24.623  1.00  0.00    -0.349 N 
ATOM     25  C   UNL A   1      33.494  18.556  24.628  1.00  0.00     0.035 A 
ATOM     26  C   UNL A   1      34.524  19.442  24.830  1.00  0.00     0.097 A 
ATOM     27  C   UNL A   1      34.828  21.902  24.961  1.00  0.00     0.149 C 
BRANCH  25  28
ATOM     28  C   UNL A   1      33.660  17.113  24.704  1.00  0.00     0.161 C 
ATOM     29  C   UNL A   1      34.164  16.392  23.489  1.00  0.00     0.093 C 
ATOM     30  O   UNL A   1      33.289  16.490  25.699  1.00  0.00    -0.294 OA
ENDBRANCH  25  28
ENDBRANCH  21  22
ENDBRANCH  10  21
ENDBRANCH   4   7
ENDBRANCH   2   3
ENDBRANCH   1   2
BRANCH   1  31
ATOM     31  C   UNL A   1      31.703  29.865  27.263  1.00  0.00     0.023 C 
BRANCH  31  32
ATOM     32  C   UNL A   1      32.702  30.881  26.720  1.00  0.00     0.116 C 
BRANCH  32  33
ATOM     33  N   UNL A   1      32.691  32.213  27.317  1.00  0.00    -0.352 N 
ATOM     34  C   UNL A   1      33.714  32.912  27.941  1.00  0.00     0.251 C 
ATOM     35  H   UNL A   1      31.827  32.685  27.272  1.00  0.00     0.163 HD
ATOM     36  O   UNL A   1      33.537  34.037  28.356  1.00  0.00    -0.269 OA
BRANCH  34  37
ATOM     37  C   UNL A   1      35.008  32.221  28.142  1.00  0.00     0.039 A 
ATOM     38  C   UNL A   1      36.191  32.958  28.061  1.00  0.00     0.014 A 
ATOM     39  C   UNL A   1      35.020  30.904  28.591  1.00  0.00     0.014 A 
ATOM     40  C   UNL A   1      37.375  32.404  28.558  1.00  0.00     0.010 A 
ATOM     41  C   UNL A   1      36.160  30.422  29.218  1.00  0.00     0.010 A 
ATOM     42  C   UNL A   1      37.358  31.156  29.204  1.00  0.00    -0.014 A 
BRANCH  42  43
ATOM     43  C   UNL A   1      38.569  30.588  29.862  1.00  0.00     0.031 A 
ATOM     44  C   UNL A   1      38.905  30.981  31.281  1.00  0.00     0.074 A 
ATOM     45  C   UNL A   1      39.430  29.812  29.166  1.00  0.00     0.049 A 
ATOM     46  N   UNL A   1      39.946  30.660  32.005  1.00  0.00    -0.248 NA
ATOM     47  C   UNL A   1      37.986  31.915  31.955  1.00  0.00     0.031 C 
ATOM     48  C   UNL A   1      39.310  29.458  27.749  1.00  0.00     0.029 A 
ATOM     49  N   UNL A   1      40.589  29.188  29.559  1.00  0.00    -0.354 N 
ATOM     50  C   UNL A   1      39.840  31.408  33.172  1.00  0.00     0.074 A 
ATOM     51  C   UNL A   1      38.677  32.252  33.030  1.00  0.00     0.031 C 
ATOM     52  C   UNL A   1      40.324  28.644  27.407  1.00  0.00     0.029 A 
ATOM     53  C   UNL A   1      41.176  28.429  28.571  1.00  0.00     0.049 A 
ATOM     54  H   UNL A   1      40.967  29.276  30.464  1.00  0.00     0.167 HD
ATOM     55  C   UNL A   1      40.596  31.356  34.294  1.00  0.00     0.034 A 
ATOM     56  C   UNL A   1      42.259  27.626  28.611  1.00  0.00     0.034 A 
ATOM     57  C   UNL A   1      41.669  30.422  34.484  1.00  0.00     0.049 A 
ATOM     58  C   UNL A   1      42.994  27.463  29.918  1.00  0.00     0.074 A 
ATOM     59  C   UNL A   1      42.410  30.178  35.625  1.00  0.00     0.029 A 
ATOM     60  N   UNL A   1      42.134  29.556  33.508  1.00  0.00    -0.354 N 
ATOM     61  N   UNL A   1      42.763  28.040  31.072  1.00  0.00    -0.248 NA
ATOM     62  C   UNL A   1      44.103  26.498  29.941  1.00  0.00     0.031 C 
ATOM     63  C   UNL A   1      43.324  29.158  35.338  1.00  0.00     0.029 A 
ATOM     64  C   UNL A   1      43.142  28.763  34.022  1.00  0.00     0.049 A 
ATOM     65  H   UNL A   1      41.795  29.512  32.584  1.00  0.00     0.167 HD
ATOM     66  C   UNL A   1      43.660  27.471  31.969  1.00  0.00     0.074 A 
ATOM     67  C   UNL A   1      44.430  26.494  31.226  1.00  0.00     0.031 C 
ATOM     68  C   UNL A   1      43.841  27.741  33.286  1.00  0.00     0.034 A 
BRANCH  55  69
ATOM     69  C   UNL A   1      40.221  32.278  35.428  1.00  0.00     0.023 A 
ATOM     70  C   UNL A   1      40.949  33.470  35.626  1.00  0.00     0.012 A 
ATOM     71  C   UNL A   1      39.154  31.971  36.293  1.00  0.00     0.148 A 
ATOM     72  C   UNL A   1      40.665  34.310  36.702  1.00  0.00     0.002 A 
ATOM     73  C   UNL A   1      38.842  32.841  37.333  1.00  0.00     0.091 A 
ATOM     74  F   UNL A   1      38.485  30.824  36.106  1.00  0.00    -0.205 F 
ATOM     75  C   UNL A   1      39.606  33.999  37.549  1.00  0.00     0.022 A 
BRANCH  73  76
ATOM     76  S   UNL A   1      37.444  32.571  38.428  1.00  0.00     0.127 S 
ATOM     77  O   UNL A   1      37.870  33.286  39.631  1.00  0.00    -0.237 OA
ATOM     78  O   UNL A   1      36.350  33.209  37.695  1.00  0.00    -0.237 OA
ATOM     79  O   UNL A   1      37.318  31.127  38.564  1.00  0.00    -0.744 OA
ENDBRANCH  73  76
ENDBRANCH  55  69
BRANCH  56  80
ATOM     80  C   UNL A   1      42.624  26.794  27.426  1.00  0.00     0.023 A 
ATOM     81  C   UNL A   1      43.351  27.394  26.376  1.00  0.00     0.012 A 
ATOM     82  C   UNL A   1      42.282  25.433  27.327  1.00  0.00     0.148 A 
ATOM     83  C   UNL A   1      43.697  26.667  25.237  1.00  0.00     0.002 A 
ATOM     84  C   UNL A   1      42.671  24.700  26.210  1.00  0.00     0.091 A 
ATOM     85  F   UNL A   1      41.584  24.880  28.330  1.00  0.00    -0.205 F 
ATOM     86  C   UNL A   1      43.364  25.319  25.156  1.00  0.00     0.022 A 
BRANCH  84  87
ATOM     87  S   UNL A   1      42.390  22.931  26.066  1.00  0.00     0.127 S 
ATOM     88  O   UNL A   1      40.934  22.851  26.149  1.00  0.00    -0.237 OA
ATOM     89  O   UNL A   1      42.948  22.643  24.743  1.00  0.00    -0.237 OA
ATOM     90  O   UNL A   1      43.123  22.328  27.171  1.00  0.00    -0.744 OA
ENDBRANCH  84  87
ENDBRANCH  56  80
BRANCH  68  91
ATOM     91  C   UNL A   1      44.867  26.934  34.034  1.00  0.00     0.023 A 
ATOM     92  C   UNL A   1      46.217  27.333  34.027  1.00  0.00     0.012 A 
ATOM     93  C   UNL A   1      44.473  25.830  34.815  1.00  0.00     0.148 A 
ATOM     94  C   UNL A   1      47.166  26.626  34.763  1.00  0.00     0.002 A 
ATOM     95  C   UNL A   1      45.417  25.159  35.584  1.00  0.00     0.091 A 
ATOM     96  F   UNL A   1      43.188  25.450  34.791  1.00  0.00    -0.205 F 
ATOM     97  C   UNL A   1      46.765  25.550  35.551  1.00  0.00     0.022 A 
BRANCH  95  98
ATOM     98  S   UNL A   1      44.956  23.833  36.705  1.00  0.00     0.127 S 
ATOM     99  O   UNL A   1      44.561  22.778  35.774  1.00  0.00    -0.237 OA
ATOM    100  O   UNL A   1      46.205  23.576  37.422  1.00  0.00    -0.237 OA
ATOM    101  O   UNL A   1      43.890  24.376  37.537  1.00  0.00    -0.744 OA
ENDBRANCH  95  98
ENDBRANCH  68  91
ENDBRANCH  42  43
ENDBRANCH  34  37
ENDBRANCH  32  33
ENDBRANCH  31  32
ENDBRANCH   1  31
TORSDOF 19
ENDMDL
