MODEL 1
REMARK VINA RESULT:     -12.4      0.000      0.000
REMARK SMILES CCCc1cc2c(cc1Cl)C=C(C(=O)NCCCCNC(=O)c1ccc(-c3c4nc(c(-c5cccc(S(=O)(=O)[O-])c5F)c5ccc([nH]5)c(-c5cccc(S(=O)(=O)[O-])c5F)c5nc(c(-c6cccc(S(=O)(=O)[O-])c6F)c6ccc3[nH]6)C=C5)C=C4)cc1)[C@@H](C(F)(F)F)O2
REMARK SMILES IDX 18 1 17 2 16 3 15 4 13 5 14 6 12 8 4 9 5 10 9 11 6 12 8 13
REMARK SMILES IDX 10 14 7 15 91 16 11 17 86 18 3 19 2 20 1 21 87 22 88 23
REMARK SMILES IDX 89 24 90 25 19 26 20 27 21 28 22 30 23 31 24 32 85 33 25 34
REMARK SMILES IDX 84 35 26 36 27 37 28 38 78 39 29 40 83 41 77 42 79 43 30 44
REMARK SMILES IDX 82 45 76 46 75 47 31 49 63 50 43 51 62 52 44 53 47 54 61 55
REMARK SMILES IDX 80 56 45 57 46 58 60 60 81 61 48 62 32 63 33 64 41 65 34 66
REMARK SMILES IDX 36 67 42 68 35 69 37 70 38 71 39 72 40 73 64 74 65 75 73 76
REMARK SMILES IDX 66 77 68 78 74 79 67 80 69 81 70 82 71 83 72 84 49 85 50 86
REMARK SMILES IDX 58 87 51 88 53 89 59 90 52 91 54 92 55 93 56 94 57 95
REMARK H PARENT 15 7 20 29 79 48 47 59
REMARK Flexibility Score: inf
ROOT
ATOM      1  C   UNL A   1      31.581  29.648  25.151  1.00  0.00     0.023 C 
ENDROOT
BRANCH   1   2
ATOM      2  C   UNL A   1      32.565  29.274  24.039  1.00  0.00     0.023 C 
BRANCH   2   3
ATOM      3  C   UNL A   1      31.920  28.644  22.807  1.00  0.00     0.116 C 
BRANCH   3   4
ATOM      4  N   UNL A   1      30.780  27.813  23.155  1.00  0.00    -0.352 N 
ATOM      5  C   UNL A   1      30.580  26.565  23.637  1.00  0.00     0.251 C 
ATOM      6  O   UNL A   1      29.398  26.245  23.798  1.00  0.00    -0.270 OA
ATOM      7  H   UNL A   1      29.929  28.283  23.000  1.00  0.00     0.163 HD
BRANCH   5   8
ATOM      8  C   UNL A   1      31.655  25.584  23.971  1.00  0.00     0.067 C 
ATOM      9  C   UNL A   1      34.381  21.349  24.574  1.00  0.00    -0.026 A 
ATOM     10  C   UNL A   1      34.677  22.728  24.478  1.00  0.00     0.052 A 
ATOM     11  C   UNL A   1      33.031  20.973  24.445  1.00  0.00     0.045 A 
ATOM     12  C   UNL A   1      33.680  23.675  24.249  1.00  0.00     0.128 A 
ATOM     13  C   UNL A   1      32.042  21.928  24.149  1.00  0.00     0.032 A 
ATOM     14  Cl  UNL A   1      32.447  19.367  24.686  1.00  0.00    -0.084 Cl
ATOM     15  C   UNL A   1      32.363  23.280  24.050  1.00  0.00     0.019 A 
ATOM     16  O   UNL A   1      34.054  24.990  24.221  1.00  0.00    -0.475 OA
ATOM     17  C   UNL A   1      31.359  24.290  23.736  1.00  0.00     0.025 C 
ATOM     18  C   UNL A   1      32.992  25.935  24.560  1.00  0.00     0.314 C 
BRANCH   9  19
ATOM     19  C   UNL A   1      35.565  20.460  24.908  1.00  0.00     0.037 C 
BRANCH  19  20
ATOM     20  C   UNL A   1      37.015  20.943  24.800  1.00  0.00     0.001 C 
ATOM     21  C   UNL A   1      38.049  19.833  24.901  1.00  0.00     0.004 C 
ENDBRANCH  19  20
ENDBRANCH   9  19
BRANCH  18  22
ATOM     22  C   UNL A   1      32.926  26.125  26.091  1.00  0.00     0.429 C 
ATOM     23  F   UNL A   1      33.837  27.046  26.494  1.00  0.00    -0.167 F 
ATOM     24  F   UNL A   1      31.717  26.568  26.506  1.00  0.00    -0.167 F 
ATOM     25  F   UNL A   1      33.179  24.985  26.773  1.00  0.00    -0.167 F 
ENDBRANCH  18  22
ENDBRANCH   5   8
ENDBRANCH   3   4
ENDBRANCH   2   3
ENDBRANCH   1   2
BRANCH   1  26
ATOM     26  C   UNL A   1      32.216  30.121  26.457  1.00  0.00     0.116 C 
BRANCH  26  27
ATOM     27  N   UNL A   1      31.968  31.521  26.773  1.00  0.00    -0.352 N 
ATOM     28  C   UNL A   1      32.836  32.415  27.367  1.00  0.00     0.251 C 
ATOM     29  H   UNL A   1      31.079  31.870  26.535  1.00  0.00     0.163 HD
ATOM     30  O   UNL A   1      32.470  33.549  27.642  1.00  0.00    -0.269 OA
BRANCH  28  31
ATOM     31  C   UNL A   1      34.193  31.945  27.717  1.00  0.00     0.039 A 
ATOM     32  C   UNL A   1      34.419  30.593  27.974  1.00  0.00     0.014 A 
ATOM     33  C   UNL A   1      35.211  32.884  27.899  1.00  0.00     0.014 A 
ATOM     34  C   UNL A   1      35.603  30.205  28.587  1.00  0.00     0.010 A 
ATOM     35  C   UNL A   1      36.433  32.476  28.443  1.00  0.00     0.010 A 
ATOM     36  C   UNL A   1      36.614  31.146  28.849  1.00  0.00    -0.014 A 
BRANCH  36  37
ATOM     37  C   UNL A   1      37.834  30.708  29.574  1.00  0.00     0.031 A 
ATOM     38  C   UNL A   1      38.081  31.126  31.000  1.00  0.00     0.074 A 
ATOM     39  C   UNL A   1      38.690  29.866  28.962  1.00  0.00     0.049 A 
ATOM     40  N   UNL A   1      39.052  30.768  31.801  1.00  0.00    -0.248 NA
ATOM     41  C   UNL A   1      37.124  32.065  31.609  1.00  0.00     0.031 C 
ATOM     42  C   UNL A   1      38.566  29.405  27.578  1.00  0.00     0.029 A 
ATOM     43  N   UNL A   1      39.807  29.224  29.430  1.00  0.00    -0.354 N 
ATOM     44  C   UNL A   1      38.849  31.466  32.986  1.00  0.00     0.074 A 
ATOM     45  C   UNL A   1      37.661  32.270  32.805  1.00  0.00     0.031 C 
ATOM     46  C   UNL A   1      39.532  28.510  27.326  1.00  0.00     0.029 A 
ATOM     47  C   UNL A   1      40.369  28.365  28.514  1.00  0.00     0.049 A 
ATOM     48  H   UNL A   1      40.173  29.365  30.332  1.00  0.00     0.167 HD
ATOM     49  C   UNL A   1      39.573  31.421  34.128  1.00  0.00     0.034 A 
ATOM     50  C   UNL A   1      41.432  27.545  28.617  1.00  0.00     0.034 A 
ATOM     51  C   UNL A   1      40.712  30.570  34.334  1.00  0.00     0.049 A 
ATOM     52  C   UNL A   1      42.194  27.489  29.908  1.00  0.00     0.074 A 
ATOM     53  C   UNL A   1      41.476  30.423  35.480  1.00  0.00     0.029 A 
ATOM     54  N   UNL A   1      41.245  29.715  33.384  1.00  0.00    -0.354 N 
ATOM     55  N   UNL A   1      41.938  28.099  31.038  1.00  0.00    -0.248 NA
ATOM     56  C   UNL A   1      43.385  26.627  29.943  1.00  0.00     0.031 C 
ATOM     57  C   UNL A   1      42.470  29.474  35.222  1.00  0.00     0.029 A 
ATOM     58  C   UNL A   1      42.327  29.036  33.916  1.00  0.00     0.049 A 
ATOM     59  H   UNL A   1      40.905  29.607  32.467  1.00  0.00     0.167 HD
ATOM     60  C   UNL A   1      42.932  27.696  31.921  1.00  0.00     0.074 A 
ATOM     61  C   UNL A   1      43.780  26.767  31.203  1.00  0.00     0.031 C 
ATOM     62  C   UNL A   1      43.134  28.083  33.203  1.00  0.00     0.034 A 
BRANCH  49  63
ATOM     63  C   UNL A   1      39.125  32.272  35.284  1.00  0.00     0.023 A 
ATOM     64  C   UNL A   1      38.238  31.728  36.232  1.00  0.00     0.012 A 
ATOM     65  C   UNL A   1      39.662  33.558  35.490  1.00  0.00     0.148 A 
ATOM     66  C   UNL A   1      37.884  32.453  37.368  1.00  0.00     0.002 A 
ATOM     67  C   UNL A   1      39.323  34.266  36.637  1.00  0.00     0.091 A 
ATOM     68  F   UNL A   1      40.493  34.059  34.565  1.00  0.00    -0.205 F 
ATOM     69  C   UNL A   1      38.434  33.716  37.576  1.00  0.00     0.022 A 
BRANCH  67  70
ATOM     70  S   UNL A   1      40.013  35.879  37.027  1.00  0.00     0.127 S 
ATOM     71  O   UNL A   1      39.303  36.211  38.262  1.00  0.00    -0.237 OA
ATOM     72  O   UNL A   1      41.432  35.572  37.203  1.00  0.00    -0.237 OA
ATOM     73  O   UNL A   1      39.709  36.733  35.887  1.00  0.00    -0.744 OA
ENDBRANCH  67  70
ENDBRANCH  49  63
BRANCH  50  74
ATOM     74  C   UNL A   1      41.780  26.667  27.469  1.00  0.00     0.023 A 
ATOM     75  C   UNL A   1      42.581  27.180  26.432  1.00  0.00     0.012 A 
ATOM     76  C   UNL A   1      41.408  25.309  27.449  1.00  0.00     0.148 A 
ATOM     77  C   UNL A   1      43.009  26.353  25.393  1.00  0.00     0.002 A 
ATOM     78  C   UNL A   1      41.875  24.481  26.437  1.00  0.00     0.091 A 
ATOM     79  F   UNL A   1      40.635  24.851  28.444  1.00  0.00    -0.205 F 
ATOM     80  C   UNL A   1      42.667  25.003  25.402  1.00  0.00     0.022 A 
BRANCH  78  81
ATOM     81  S   UNL A   1      41.595  22.706  26.438  1.00  0.00     0.127 S 
ATOM     82  O   UNL A   1      42.117  22.323  27.747  1.00  0.00    -0.237 OA
ATOM     83  O   UNL A   1      40.140  22.631  26.306  1.00  0.00    -0.237 OA
ATOM     84  O   UNL A   1      42.331  22.192  25.291  1.00  0.00    -0.744 OA
ENDBRANCH  78  81
ENDBRANCH  50  74
BRANCH  62  85
ATOM     85  C   UNL A   1      44.325  27.523  33.926  1.00  0.00     0.023 A 
ATOM     86  C   UNL A   1      45.534  28.242  33.905  1.00  0.00     0.012 A 
ATOM     87  C   UNL A   1      44.213  26.368  34.724  1.00  0.00     0.148 A 
ATOM     88  C   UNL A   1      46.621  27.818  34.665  1.00  0.00     0.002 A 
ATOM     89  C   UNL A   1      45.291  25.966  35.502  1.00  0.00     0.091 A 
ATOM     90  F   UNL A   1      43.050  25.699  34.718  1.00  0.00    -0.205 F 
ATOM     91  C   UNL A   1      46.497  26.689  35.472  1.00  0.00     0.022 A 
BRANCH  89  92
ATOM     92  S   UNL A   1      45.210  24.568  36.626  1.00  0.00     0.127 S 
ATOM     93  O   UNL A   1      44.981  23.458  35.702  1.00  0.00    -0.237 OA
ATOM     94  O   UNL A   1      46.537  24.588  37.241  1.00  0.00    -0.237 OA
ATOM     95  O   UNL A   1      44.111  24.848  37.540  1.00  0.00    -0.744 OA
ENDBRANCH  89  92
ENDBRANCH  62  85
ENDBRANCH  36  37
ENDBRANCH  28  31
ENDBRANCH  26  27
ENDBRANCH   1  26
TORSDOF 17
ENDMDL
MODEL 2
REMARK VINA RESULT:     -12.3      5.125     10.201
REMARK SMILES CCCc1cc2c(cc1Cl)C=C(C(=O)NCCCCNC(=O)c1ccc(-c3c4nc(c(-c5cccc(S(=O)(=O)[O-])c5F)c5ccc([nH]5)c(-c5cccc(S(=O)(=O)[O-])c5F)c5nc(c(-c6cccc(S(=O)(=O)[O-])c6F)c6ccc3[nH]6)C=C5)C=C4)cc1)[C@@H](C(F)(F)F)O2
REMARK SMILES IDX 18 1 17 2 16 3 15 4 13 5 14 6 12 8 4 9 5 10 9 11 6 12 8 13
REMARK SMILES IDX 10 14 7 15 91 16 11 17 86 18 3 19 2 20 1 21 87 22 88 23
REMARK SMILES IDX 89 24 90 25 19 26 20 27 21 28 22 30 23 31 24 32 85 33 25 34
REMARK SMILES IDX 84 35 26 36 27 37 28 38 78 39 29 40 83 41 77 42 79 43 30 44
REMARK SMILES IDX 82 45 76 46 75 47 31 49 63 50 43 51 62 52 44 53 47 54 61 55
REMARK SMILES IDX 80 56 45 57 46 58 60 60 81 61 48 62 32 63 33 64 41 65 34 66
REMARK SMILES IDX 36 67 42 68 35 69 37 70 38 71 39 72 40 73 64 74 65 75 73 76
REMARK SMILES IDX 66 77 68 78 74 79 67 80 69 81 70 82 71 83 72 84 49 85 50 86
REMARK SMILES IDX 58 87 51 88 53 89 59 90 52 91 54 92 55 93 56 94 57 95
REMARK H PARENT 15 7 20 29 79 48 47 59
REMARK Flexibility Score: inf
ROOT
ATOM      1  C   UNL A   1      36.205  21.477  24.576  1.00  0.00     0.023 C 
ENDROOT
BRANCH   1   2
ATOM      2  C   UNL A   1      35.254  20.343  24.970  1.00  0.00     0.023 C 
BRANCH   2   3
ATOM      3  C   UNL A   1      33.790  20.757  25.093  1.00  0.00     0.116 C 
BRANCH   3   4
ATOM      4  N   UNL A   1      33.246  21.213  23.827  1.00  0.00    -0.352 N 
ATOM      5  C   UNL A   1      32.600  22.311  23.369  1.00  0.00     0.251 C 
ATOM      6  O   UNL A   1      32.310  22.289  22.168  1.00  0.00    -0.270 OA
ATOM      7  H   UNL A   1      33.384  20.550  23.113  1.00  0.00     0.163 HD
BRANCH   5   8
ATOM      8  C   UNL A   1      32.225  23.500  24.190  1.00  0.00     0.067 C 
ATOM      9  C   UNL A   1      32.222  27.968  26.592  1.00  0.00    -0.026 A 
ATOM     10  C   UNL A   1      31.228  27.077  26.128  1.00  0.00     0.052 A 
ATOM     11  C   UNL A   1      33.562  27.623  26.333  1.00  0.00     0.045 A 
ATOM     12  C   UNL A   1      31.555  25.915  25.430  1.00  0.00     0.128 A 
ATOM     13  C   UNL A   1      33.879  26.485  25.571  1.00  0.00     0.032 A 
ATOM     14  Cl  UNL A   1      34.921  28.492  26.947  1.00  0.00    -0.084 Cl
ATOM     15  C   UNL A   1      32.877  25.628  25.117  1.00  0.00     0.019 A 
ATOM     16  O   UNL A   1      30.528  25.089  25.065  1.00  0.00    -0.475 OA
ATOM     17  C   UNL A   1      33.177  24.445  24.319  1.00  0.00     0.025 C 
ATOM     18  C   UNL A   1      30.905  23.689  24.884  1.00  0.00     0.314 C 
BRANCH   9  19
ATOM     19  C   UNL A   1      31.706  29.141  27.406  1.00  0.00     0.037 C 
BRANCH  19  20
ATOM     20  C   UNL A   1      31.772  30.585  26.903  1.00  0.00     0.001 C 
ATOM     21  C   UNL A   1      31.312  30.764  25.465  1.00  0.00     0.004 C 
ENDBRANCH  19  20
ENDBRANCH   9  19
BRANCH  18  22
ATOM     22  C   UNL A   1      30.843  22.948  26.237  1.00  0.00     0.429 C 
ATOM     23  F   UNL A   1      31.984  23.151  26.941  1.00  0.00    -0.167 F 
ATOM     24  F   UNL A   1      29.824  23.378  27.017  1.00  0.00    -0.167 F 
ATOM     25  F   UNL A   1      30.689  21.612  26.097  1.00  0.00    -0.167 F 
ENDBRANCH  18  22
ENDBRANCH   5   8
ENDBRANCH   3   4
ENDBRANCH   2   3
ENDBRANCH   1   2
BRANCH   1  26
ATOM     26  C   UNL A   1      37.309  21.789  25.585  1.00  0.00     0.116 C 
BRANCH  26  27
ATOM     27  N   UNL A   1      38.386  20.808  25.618  1.00  0.00    -0.352 N 
ATOM     28  C   UNL A   1      39.645  20.961  26.160  1.00  0.00     0.251 C 
ATOM     29  H   UNL A   1      38.191  19.935  25.207  1.00  0.00     0.163 HD
ATOM     30  O   UNL A   1      40.482  20.075  26.053  1.00  0.00    -0.269 OA
BRANCH  28  31
ATOM     31  C   UNL A   1      39.974  22.246  26.813  1.00  0.00     0.039 A 
ATOM     32  C   UNL A   1      39.429  23.435  26.330  1.00  0.00     0.014 A 
ATOM     33  C   UNL A   1      40.922  22.263  27.840  1.00  0.00     0.014 A 
ATOM     34  C   UNL A   1      39.965  24.647  26.744  1.00  0.00     0.010 A 
ATOM     35  C   UNL A   1      41.402  23.488  28.311  1.00  0.00     0.010 A 
ATOM     36  C   UNL A   1      40.974  24.687  27.722  1.00  0.00    -0.014 A 
BRANCH  36  37
ATOM     37  C   UNL A   1      41.575  25.995  28.084  1.00  0.00     0.031 A 
ATOM     38  C   UNL A   1      42.953  26.374  27.607  1.00  0.00     0.074 A 
ATOM     39  C   UNL A   1      40.840  26.879  28.787  1.00  0.00     0.049 A 
ATOM     40  N   UNL A   1      43.591  27.506  27.765  1.00  0.00    -0.248 NA
ATOM     41  C   UNL A   1      43.717  25.360  26.861  1.00  0.00     0.031 C 
ATOM     42  C   UNL A   1      39.500  26.620  29.319  1.00  0.00     0.029 A 
ATOM     43  N   UNL A   1      41.098  28.176  29.148  1.00  0.00    -0.354 N 
ATOM     44  C   UNL A   1      44.839  27.328  27.181  1.00  0.00     0.074 A 
ATOM     45  C   UNL A   1      44.874  25.979  26.661  1.00  0.00     0.031 C 
ATOM     46  C   UNL A   1      39.029  27.741  29.885  1.00  0.00     0.029 A 
ATOM     47  C   UNL A   1      40.048  28.784  29.796  1.00  0.00     0.049 A 
ATOM     48  H   UNL A   1      41.951  28.629  28.962  1.00  0.00     0.167 HD
ATOM     49  C   UNL A   1      45.854  28.215  27.066  1.00  0.00     0.034 A 
ATOM     50  C   UNL A   1      39.911  30.040  30.261  1.00  0.00     0.034 A 
ATOM     51  C   UNL A   1      45.796  29.578  27.519  1.00  0.00     0.049 A 
ATOM     52  C   UNL A   1      41.039  31.014  30.087  1.00  0.00     0.074 A 
ATOM     53  C   UNL A   1      46.761  30.562  27.399  1.00  0.00     0.029 A 
ATOM     54  N   UNL A   1      44.714  30.151  28.167  1.00  0.00    -0.354 N 
ATOM     55  N   UNL A   1      42.178  30.845  29.464  1.00  0.00    -0.248 NA
ATOM     56  C   UNL A   1      40.862  32.352  30.672  1.00  0.00     0.031 C 
ATOM     57  C   UNL A   1      46.261  31.736  27.971  1.00  0.00     0.029 A 
ATOM     58  C   UNL A   1      44.987  31.478  28.451  1.00  0.00     0.049 A 
ATOM     59  H   UNL A   1      43.878  29.685  28.391  1.00  0.00     0.167 HD
ATOM     60  C   UNL A   1      42.856  32.053  29.577  1.00  0.00     0.074 A 
ATOM     61  C   UNL A   1      41.987  32.955  30.306  1.00  0.00     0.031 C 
ATOM     62  C   UNL A   1      44.095  32.374  29.138  1.00  0.00     0.034 A 
BRANCH  49  63
ATOM     63  C   UNL A   1      47.108  27.770  26.366  1.00  0.00     0.023 A 
ATOM     64  C   UNL A   1      48.090  27.073  27.097  1.00  0.00     0.012 A 
ATOM     65  C   UNL A   1      47.266  27.945  24.977  1.00  0.00     0.148 A 
ATOM     66  C   UNL A   1      49.215  26.558  26.456  1.00  0.00     0.002 A 
ATOM     67  C   UNL A   1      48.380  27.408  24.342  1.00  0.00     0.091 A 
ATOM     68  F   UNL A   1      46.325  28.625  24.308  1.00  0.00    -0.205 F 
ATOM     69  C   UNL A   1      49.355  26.717  25.080  1.00  0.00     0.022 A 
BRANCH  67  70
ATOM     70  S   UNL A   1      48.633  27.512  22.566  1.00  0.00     0.127 S 
ATOM     71  O   UNL A   1      47.460  28.280  22.147  1.00  0.00    -0.237 OA
ATOM     72  O   UNL A   1      49.900  28.238  22.478  1.00  0.00    -0.237 OA
ATOM     73  O   UNL A   1      48.679  26.139  22.084  1.00  0.00    -0.744 OA
ENDBRANCH  67  70
ENDBRANCH  49  63
BRANCH  50  74
ATOM     74  C   UNL A   1      38.619  30.447  30.872  1.00  0.00     0.023 A 
ATOM     75  C   UNL A   1      38.441  30.297  32.260  1.00  0.00     0.012 A 
ATOM     76  C   UNL A   1      37.613  31.069  30.108  1.00  0.00     0.148 A 
ATOM     77  C   UNL A   1      37.280  30.763  32.878  1.00  0.00     0.002 A 
ATOM     78  C   UNL A   1      36.481  31.572  30.736  1.00  0.00     0.091 A 
ATOM     79  F   UNL A   1      37.805  31.187  28.787  1.00  0.00    -0.205 F 
ATOM     80  C   UNL A   1      36.308  31.411  32.120  1.00  0.00     0.022 A 
BRANCH  78  81
ATOM     81  S   UNL A   1      35.240  32.533  29.863  1.00  0.00     0.127 S 
ATOM     82  O   UNL A   1      36.028  33.664  29.377  1.00  0.00    -0.237 OA
ATOM     83  O   UNL A   1      34.805  31.595  28.829  1.00  0.00    -0.237 OA
ATOM     84  O   UNL A   1      34.222  32.854  30.853  1.00  0.00    -0.744 OA
ENDBRANCH  78  81
ENDBRANCH  50  74
BRANCH  62  85
ATOM     85  C   UNL A   1      44.613  33.752  29.437  1.00  0.00     0.023 A 
ATOM     86  C   UNL A   1      45.300  33.974  30.645  1.00  0.00     0.012 A 
ATOM     87  C   UNL A   1      44.533  34.781  28.479  1.00  0.00     0.148 A 
ATOM     88  C   UNL A   1      45.901  35.204  30.899  1.00  0.00     0.002 A 
ATOM     89  C   UNL A   1      45.159  35.996  28.727  1.00  0.00     0.091 A 
ATOM     90  F   UNL A   1      43.865  34.542  27.341  1.00  0.00    -0.205 F 
ATOM     91  C   UNL A   1      45.840  36.210  29.938  1.00  0.00     0.022 A 
BRANCH  89  92
ATOM     92  S   UNL A   1      45.198  37.330  27.525  1.00  0.00     0.127 S 
ATOM     93  O   UNL A   1      45.867  38.390  28.279  1.00  0.00    -0.237 OA
ATOM     94  O   UNL A   1      45.997  36.750  26.445  1.00  0.00    -0.237 OA
ATOM     95  O   UNL A   1      43.810  37.601  27.176  1.00  0.00    -0.744 OA
ENDBRANCH  89  92
ENDBRANCH  62  85
ENDBRANCH  36  37
ENDBRANCH  28  31
ENDBRANCH  26  27
ENDBRANCH   1  26
TORSDOF 17
ENDMDL
MODEL 3
REMARK VINA RESULT:     -12.2      4.974     10.022
REMARK SMILES CCCc1cc2c(cc1Cl)C=C(C(=O)NCCCCNC(=O)c1ccc(-c3c4nc(c(-c5cccc(S(=O)(=O)[O-])c5F)c5ccc([nH]5)c(-c5cccc(S(=O)(=O)[O-])c5F)c5nc(c(-c6cccc(S(=O)(=O)[O-])c6F)c6ccc3[nH]6)C=C5)C=C4)cc1)[C@@H](C(F)(F)F)O2
REMARK SMILES IDX 18 1 17 2 16 3 15 4 13 5 14 6 12 8 4 9 5 10 9 11 6 12 8 13
REMARK SMILES IDX 10 14 7 15 91 16 11 17 86 18 3 19 2 20 1 21 87 22 88 23
REMARK SMILES IDX 89 24 90 25 19 26 20 27 21 28 22 30 23 31 24 32 85 33 25 34
REMARK SMILES IDX 84 35 26 36 27 37 28 38 78 39 29 40 83 41 77 42 79 43 30 44
REMARK SMILES IDX 82 45 76 46 75 47 31 49 63 50 43 51 62 52 44 53 47 54 61 55
REMARK SMILES IDX 80 56 45 57 46 58 60 60 81 61 48 62 32 63 33 64 41 65 34 66
REMARK SMILES IDX 36 67 42 68 35 69 37 70 38 71 39 72 40 73 64 74 65 75 73 76
REMARK SMILES IDX 66 77 68 78 74 79 67 80 69 81 70 82 71 83 72 84 49 85 50 86
REMARK SMILES IDX 58 87 51 88 53 89 59 90 52 91 54 92 55 93 56 94 57 95
REMARK H PARENT 15 7 20 29 79 48 47 59
REMARK Flexibility Score: inf
ROOT
ATOM      1  C   UNL A   1      35.458  21.640  24.626  1.00  0.00     0.023 C 
ENDROOT
BRANCH   1   2
ATOM      2  C   UNL A   1      34.770  20.343  25.062  1.00  0.00     0.023 C 
BRANCH   2   3
ATOM      3  C   UNL A   1      33.283  20.488  25.374  1.00  0.00     0.116 C 
BRANCH   3   4
ATOM      4  N   UNL A   1      32.511  20.838  24.193  1.00  0.00    -0.352 N 
ATOM      5  C   UNL A   1      32.216  21.966  23.507  1.00  0.00     0.251 C 
ATOM      6  O   UNL A   1      31.499  21.805  22.513  1.00  0.00    -0.270 OA
ATOM      7  H   UNL A   1      32.095  20.045  23.786  1.00  0.00     0.163 HD
BRANCH   5   8
ATOM      8  C   UNL A   1      32.678  23.341  23.860  1.00  0.00     0.067 C 
ATOM      9  C   UNL A   1      33.459  27.779  26.190  1.00  0.00    -0.026 A 
ATOM     10  C   UNL A   1      34.150  27.020  25.218  1.00  0.00     0.052 A 
ATOM     11  C   UNL A   1      32.278  27.222  26.715  1.00  0.00     0.045 A 
ATOM     12  C   UNL A   1      33.694  25.767  24.808  1.00  0.00     0.128 A 
ATOM     13  C   UNL A   1      31.862  25.931  26.345  1.00  0.00     0.032 A 
ATOM     14  Cl  UNL A   1      31.212  28.052  27.790  1.00  0.00    -0.084 Cl
ATOM     15  C   UNL A   1      32.569  25.201  25.391  1.00  0.00     0.019 A 
ATOM     16  O   UNL A   1      34.401  25.130  23.827  1.00  0.00    -0.475 OA
ATOM     17  C   UNL A   1      32.165  23.857  24.995  1.00  0.00     0.025 C 
ATOM     18  C   UNL A   1      33.628  24.170  23.042  1.00  0.00     0.314 C 
BRANCH   9  19
ATOM     19  C   UNL A   1      34.039  29.155  26.463  1.00  0.00     0.037 C 
BRANCH  19  20
ATOM     20  C   UNL A   1      34.844  29.474  27.726  1.00  0.00     0.001 C 
ATOM     21  C   UNL A   1      36.350  29.364  27.547  1.00  0.00     0.004 C 
ENDBRANCH  19  20
ENDBRANCH   9  19
BRANCH  18  22
ATOM     22  C   UNL A   1      32.920  24.892  21.876  1.00  0.00     0.429 C 
ATOM     23  F   UNL A   1      33.054  24.183  20.728  1.00  0.00    -0.167 F 
ATOM     24  F   UNL A   1      31.592  25.039  22.088  1.00  0.00    -0.167 F 
ATOM     25  F   UNL A   1      33.417  26.128  21.645  1.00  0.00    -0.167 F 
ENDBRANCH  18  22
ENDBRANCH   5   8
ENDBRANCH   3   4
ENDBRANCH   2   3
ENDBRANCH   1   2
BRANCH   1  26
ATOM     26  C   UNL A   1      36.735  21.994  25.384  1.00  0.00     0.116 C 
BRANCH  26  27
ATOM     27  N   UNL A   1      37.751  20.950  25.369  1.00  0.00    -0.352 N 
ATOM     28  C   UNL A   1      39.027  21.011  25.889  1.00  0.00     0.251 C 
ATOM     29  H   UNL A   1      37.497  20.102  24.937  1.00  0.00     0.163 HD
ATOM     30  O   UNL A   1      39.807  20.080  25.740  1.00  0.00    -0.269 OA
BRANCH  28  31
ATOM     31  C   UNL A   1      39.446  22.254  26.572  1.00  0.00     0.039 A 
ATOM     32  C   UNL A   1      38.922  23.482  26.169  1.00  0.00     0.014 A 
ATOM     33  C   UNL A   1      40.451  22.192  27.540  1.00  0.00     0.014 A 
ATOM     34  C   UNL A   1      39.529  24.655  26.598  1.00  0.00     0.010 A 
ATOM     35  C   UNL A   1      41.007  23.377  28.030  1.00  0.00     0.010 A 
ATOM     36  C   UNL A   1      40.594  24.615  27.515  1.00  0.00    -0.014 A 
BRANCH  36  37
ATOM     37  C   UNL A   1      41.267  25.883  27.892  1.00  0.00     0.031 A 
ATOM     38  C   UNL A   1      42.643  26.214  27.375  1.00  0.00     0.074 A 
ATOM     39  C   UNL A   1      40.600  26.777  28.648  1.00  0.00     0.049 A 
ATOM     40  N   UNL A   1      43.338  27.311  27.542  1.00  0.00    -0.248 NA
ATOM     41  C   UNL A   1      43.332  25.191  26.571  1.00  0.00     0.031 C 
ATOM     42  C   UNL A   1      39.270  26.562  29.222  1.00  0.00     0.029 A 
ATOM     43  N   UNL A   1      40.930  28.050  29.036  1.00  0.00    -0.354 N 
ATOM     44  C   UNL A   1      44.555  27.095  26.906  1.00  0.00     0.074 A 
ATOM     45  C   UNL A   1      44.508  25.762  26.346  1.00  0.00     0.031 C 
ATOM     46  C   UNL A   1      38.872  27.685  29.838  1.00  0.00     0.029 A 
ATOM     47  C   UNL A   1      39.933  28.684  29.741  1.00  0.00     0.049 A 
ATOM     48  H   UNL A   1      41.796  28.469  28.832  1.00  0.00     0.167 HD
ATOM     49  C   UNL A   1      45.605  27.938  26.779  1.00  0.00     0.034 A 
ATOM     50  C   UNL A   1      39.872  29.930  30.247  1.00  0.00     0.034 A 
ATOM     51  C   UNL A   1      45.625  29.288  27.274  1.00  0.00     0.049 A 
ATOM     52  C   UNL A   1      41.036  30.857  30.060  1.00  0.00     0.074 A 
ATOM     53  C   UNL A   1      46.630  30.231  27.146  1.00  0.00     0.029 A 
ATOM     54  N   UNL A   1      44.596  29.889  27.978  1.00  0.00    -0.354 N 
ATOM     55  N   UNL A   1      42.143  30.657  29.389  1.00  0.00    -0.248 NA
ATOM     56  C   UNL A   1      40.942  32.183  30.689  1.00  0.00     0.031 C 
ATOM     57  C   UNL A   1      46.205  31.408  27.770  1.00  0.00     0.029 A 
ATOM     58  C   UNL A   1      44.939  31.193  28.290  1.00  0.00     0.049 A 
ATOM     59  H   UNL A   1      43.747  29.454  28.220  1.00  0.00     0.167 HD
ATOM     60  C   UNL A   1      42.879  31.829  29.512  1.00  0.00     0.074 A 
ATOM     61  C   UNL A   1      42.080  32.745  30.298  1.00  0.00     0.031 C 
ATOM     62  C   UNL A   1      44.116  32.107  29.036  1.00  0.00     0.034 A 
BRANCH  49  63
ATOM     63  C   UNL A   1      46.811  27.460  26.020  1.00  0.00     0.023 A 
ATOM     64  C   UNL A   1      46.929  27.777  24.653  1.00  0.00     0.012 A 
ATOM     65  C   UNL A   1      47.867  26.798  26.676  1.00  0.00     0.148 A 
ATOM     66  C   UNL A   1      48.081  27.437  23.945  1.00  0.00     0.002 A 
ATOM     67  C   UNL A   1      49.022  26.484  25.969  1.00  0.00     0.091 A 
ATOM     68  F   UNL A   1      47.723  26.495  27.973  1.00  0.00    -0.205 F 
ATOM     69  C   UNL A   1      49.129  26.801  24.604  1.00  0.00     0.022 A 
BRANCH  67  70
ATOM     70  S   UNL A   1      50.452  25.709  26.734  1.00  0.00     0.127 S 
ATOM     71  O   UNL A   1      51.322  25.493  25.577  1.00  0.00    -0.237 OA
ATOM     72  O   UNL A   1      50.909  26.750  27.655  1.00  0.00    -0.237 OA
ATOM     73  O   UNL A   1      49.960  24.498  27.374  1.00  0.00    -0.744 OA
ENDBRANCH  67  70
ENDBRANCH  49  63
BRANCH  50  74
ATOM     74  C   UNL A   1      38.623  30.376  30.918  1.00  0.00     0.023 A 
ATOM     75  C   UNL A   1      38.396  30.008  32.258  1.00  0.00     0.012 A 
ATOM     76  C   UNL A   1      37.714  31.237  30.273  1.00  0.00     0.148 A 
ATOM     77  C   UNL A   1      37.284  30.495  32.946  1.00  0.00     0.002 A 
ATOM     78  C   UNL A   1      36.635  31.754  30.978  1.00  0.00     0.091 A 
ATOM     79  F   UNL A   1      37.949  31.560  28.994  1.00  0.00    -0.205 F 
ATOM     80  C   UNL A   1      36.413  31.377  32.312  1.00  0.00     0.022 A 
BRANCH  78  81
ATOM     81  S   UNL A   1      35.536  32.995  30.285  1.00  0.00     0.127 S 
ATOM     82  O   UNL A   1      34.360  32.862  31.141  1.00  0.00    -0.237 OA
ATOM     83  O   UNL A   1      36.307  34.223  30.481  1.00  0.00    -0.237 OA
ATOM     84  O   UNL A   1      35.347  32.618  28.891  1.00  0.00    -0.744 OA
ENDBRANCH  78  81
ENDBRANCH  50  74
BRANCH  62  85
ATOM     85  C   UNL A   1      44.706  33.450  29.355  1.00  0.00     0.023 A 
ATOM     86  C   UNL A   1      45.512  33.584  30.501  1.00  0.00     0.012 A 
ATOM     87  C   UNL A   1      44.572  34.532  28.464  1.00  0.00     0.148 A 
ATOM     88  C   UNL A   1      46.177  34.780  30.760  1.00  0.00     0.002 A 
ATOM     89  C   UNL A   1      45.260  35.713  28.714  1.00  0.00     0.091 A 
ATOM     90  F   UNL A   1      43.792  34.377  27.385  1.00  0.00    -0.205 F 
ATOM     91  C   UNL A   1      46.060  35.840  29.862  1.00  0.00     0.022 A 
BRANCH  89  92
ATOM     92  S   UNL A   1      45.232  37.110  27.585  1.00  0.00     0.127 S 
ATOM     93  O   UNL A   1      45.864  38.155  28.389  1.00  0.00    -0.237 OA
ATOM     94  O   UNL A   1      46.043  36.622  26.469  1.00  0.00    -0.237 OA
ATOM     95  O   UNL A   1      43.830  37.340  27.262  1.00  0.00    -0.744 OA
ENDBRANCH  89  92
ENDBRANCH  62  85
ENDBRANCH  36  37
ENDBRANCH  28  31
ENDBRANCH  26  27
ENDBRANCH   1  26
TORSDOF 17
ENDMDL
