MODEL 1
REMARK VINA RESULT:     -11.1      0.000      0.000
REMARK SMILES Cc1csc(C[NH2+]C[C@H]2CCC[C@H]2C(=O)NCCCCNC(=O)c2ccc(-c3c4nc(c(-c5cccc(S(=O)(=O)[O-])c5F)c5ccc([nH]5)c(-c5cccc(S(=O)(=O)[O-])c5F)c5nc(c(-c6cccc(S(=O)(=O)[O-])c6F)c6ccc3[nH]6)C=C5)C=C4)cc2)n1
REMARK SMILES IDX 18 1 17 2 16 3 14 4 15 5 13 7 9 8 10 9 11 10 12 11 8 12 7 13
REMARK SMILES IDX 6 16 5 17 1 18 2 19 3 20 87 21 4 22 19 23 20 24 21 25 22 26
REMARK SMILES IDX 23 28 24 29 25 30 86 31 26 32 85 33 27 34 28 35 29 36 79 37
REMARK SMILES IDX 30 38 84 39 78 40 80 41 31 42 83 43 77 44 76 45 32 47 64 48
REMARK SMILES IDX 44 49 63 50 45 51 48 52 62 53 81 54 46 55 47 56 61 58 82 59
REMARK SMILES IDX 49 60 33 61 34 62 42 63 35 64 37 65 43 66 36 67 38 68 39 69
REMARK SMILES IDX 40 70 41 71 65 72 66 73 74 74 67 75 69 76 75 77 68 78 70 79
REMARK SMILES IDX 71 80 72 81 73 82 50 83 51 84 59 85 52 86 54 87 60 88 53 89
REMARK SMILES IDX 55 90 56 91 57 92 58 93
REMARK H PARENT 16 6 7 14 7 15 21 27 80 46 48 57
REMARK Flexibility Score: inf
ROOT
ATOM      1  C   UNL A   1      34.382  22.888  26.867  1.00  0.00     0.023 C 
ENDROOT
BRANCH   1   2
ATOM      2  C   UNL A   1      33.995  24.205  26.185  1.00  0.00     0.116 C 
BRANCH   2   3
ATOM      3  N   UNL A   1      32.582  24.490  26.356  1.00  0.00    -0.356 N 
ATOM      4  C   UNL A   1      31.867  25.631  26.502  1.00  0.00     0.223 C 
ATOM      5  O   UNL A   1      30.662  25.491  26.749  1.00  0.00    -0.275 OA
ATOM      6  H   UNL A   1      32.023  23.679  26.369  1.00  0.00     0.163 HD
BRANCH   4   7
ATOM      7  C   UNL A   1      32.427  27.051  26.388  1.00  0.00     0.087 C 
ATOM      8  C   UNL A   1      32.410  27.779  25.018  1.00  0.00     0.057 C 
ATOM      9  C   UNL A   1      32.691  29.224  25.445  1.00  0.00     0.010 C 
ATOM     10  C   UNL A   1      31.860  29.406  26.707  1.00  0.00     0.001 C 
ATOM     11  C   UNL A   1      31.974  28.073  27.443  1.00  0.00     0.014 C 
BRANCH   8  12
ATOM     12  C   UNL A   1      31.100  27.609  24.251  1.00  0.00     0.265 C 
BRANCH  12  13
ATOM     13  N   UNL A   1      31.094  26.796  23.054  1.00  0.00    -0.340 N 
ATOM     14  H   UNL A   1      30.593  27.310  22.328  1.00  0.00     0.346 HD
ATOM     15  H   UNL A   1      32.073  26.618  22.833  1.00  0.00     0.346 HD
BRANCH  13  16
ATOM     16  C   UNL A   1      30.471  25.484  23.186  1.00  0.00     0.329 C 
BRANCH  16  17
ATOM     17  C   UNL A   1      31.548  24.428  23.143  1.00  0.00     0.147 A 
ATOM     18  C   UNL A   1      32.462  20.975  23.563  1.00  0.00     0.067 C 
ATOM     19  C   UNL A   1      32.492  22.423  23.237  1.00  0.00     0.049 A 
ATOM     20  C   UNL A   1      33.505  23.115  22.603  1.00  0.00     0.090 A 
ATOM     21  N   UNL A   1      31.392  23.190  23.569  1.00  0.00    -0.241 NA
ATOM     22  S   UNL A   1      33.062  24.757  22.396  1.00  0.00    -0.121 S 
ENDBRANCH  16  17
ENDBRANCH  13  16
ENDBRANCH  12  13
ENDBRANCH   8  12
ENDBRANCH   4   7
ENDBRANCH   2   3
ENDBRANCH   1   2
BRANCH   1  23
ATOM     23  C   UNL A   1      35.261  21.956  26.045  1.00  0.00     0.023 C 
BRANCH  23  24
ATOM     24  C   UNL A   1      36.665  22.470  25.793  1.00  0.00     0.116 C 
BRANCH  24  25
ATOM     25  N   UNL A   1      37.681  21.428  25.824  1.00  0.00    -0.352 N 
ATOM     26  C   UNL A   1      39.005  21.532  26.189  1.00  0.00     0.251 C 
ATOM     27  H   UNL A   1      37.384  20.532  25.546  1.00  0.00     0.163 HD
ATOM     28  O   UNL A   1      39.758  20.580  26.072  1.00  0.00    -0.269 OA
BRANCH  26  29
ATOM     29  C   UNL A   1      39.501  22.831  26.694  1.00  0.00     0.039 A 
ATOM     30  C   UNL A   1      40.480  22.839  27.688  1.00  0.00     0.014 A 
ATOM     31  C   UNL A   1      39.040  24.028  26.143  1.00  0.00     0.014 A 
ATOM     32  C   UNL A   1      41.033  24.054  28.093  1.00  0.00     0.010 A 
ATOM     33  C   UNL A   1      39.667  25.221  26.468  1.00  0.00     0.010 A 
ATOM     34  C   UNL A   1      40.649  25.251  27.467  1.00  0.00    -0.014 A 
BRANCH  34  35
ATOM     35  C   UNL A   1      41.232  26.554  27.871  1.00  0.00     0.031 A 
ATOM     36  C   UNL A   1      42.674  26.854  27.556  1.00  0.00     0.074 A 
ATOM     37  C   UNL A   1      40.491  27.430  28.576  1.00  0.00     0.049 A 
ATOM     38  N   UNL A   1      43.375  27.919  27.839  1.00  0.00    -0.248 NA
ATOM     39  C   UNL A   1      43.442  25.804  26.862  1.00  0.00     0.031 C 
ATOM     40  C   UNL A   1      39.116  27.207  29.029  1.00  0.00     0.029 A 
ATOM     41  N   UNL A   1      40.799  28.679  29.054  1.00  0.00    -0.354 N 
ATOM     42  C   UNL A   1      44.665  27.653  27.398  1.00  0.00     0.074 A 
ATOM     43  C   UNL A   1      44.667  26.306  26.876  1.00  0.00     0.031 C 
ATOM     44  C   UNL A   1      38.692  28.292  29.700  1.00  0.00     0.029 A 
ATOM     45  C   UNL A   1      39.769  29.276  29.742  1.00  0.00     0.049 A 
ATOM     46  H   UNL A   1      41.674  29.107  28.916  1.00  0.00     0.167 HD
ATOM     47  C   UNL A   1      45.743  28.471  27.382  1.00  0.00     0.034 A 
ATOM     48  C   UNL A   1      39.701  30.487  30.329  1.00  0.00     0.034 A 
ATOM     49  C   UNL A   1      45.716  29.832  27.839  1.00  0.00     0.049 A 
ATOM     50  C   UNL A   1      40.890  31.405  30.232  1.00  0.00     0.074 A 
ATOM     51  C   UNL A   1      46.718  30.782  27.777  1.00  0.00     0.029 A 
ATOM     52  N   UNL A   1      44.623  30.439  28.440  1.00  0.00    -0.354 N 
ATOM     53  N   UNL A   1      42.049  31.198  29.653  1.00  0.00    -0.248 NA
ATOM     54  C   UNL A   1      40.748  32.740  30.833  1.00  0.00     0.031 C 
ATOM     55  C   UNL A   1      46.235  31.961  28.353  1.00  0.00     0.029 A 
ATOM     56  C   UNL A   1      44.927  31.750  28.757  1.00  0.00     0.049 A 
ATOM     57  H   UNL A   1      43.759  30.001  28.614  1.00  0.00     0.167 HD
ATOM     58  C   UNL A   1      42.762  32.383  29.791  1.00  0.00     0.074 A 
ATOM     59  C   UNL A   1      41.892  33.314  30.483  1.00  0.00     0.031 C 
ATOM     60  C   UNL A   1      44.027  32.674  29.399  1.00  0.00     0.034 A 
BRANCH  47  61
ATOM     61  C   UNL A   1      47.017  27.935  26.784  1.00  0.00     0.023 A 
ATOM     62  C   UNL A   1      48.002  27.385  27.631  1.00  0.00     0.012 A 
ATOM     63  C   UNL A   1      47.225  27.934  25.392  1.00  0.00     0.148 A 
ATOM     64  C   UNL A   1      49.191  26.880  27.107  1.00  0.00     0.002 A 
ATOM     65  C   UNL A   1      48.394  27.387  24.872  1.00  0.00     0.091 A 
ATOM     66  F   UNL A   1      46.290  28.481  24.604  1.00  0.00    -0.205 F 
ATOM     67  C   UNL A   1      49.382  26.871  25.729  1.00  0.00     0.022 A 
BRANCH  65  68
ATOM     68  S   UNL A   1      48.705  27.256  23.109  1.00  0.00     0.127 S 
ATOM     69  O   UNL A   1      50.155  27.434  23.051  1.00  0.00    -0.237 OA
ATOM     70  O   UNL A   1      48.245  25.899  22.814  1.00  0.00    -0.237 OA
ATOM     71  O   UNL A   1      47.920  28.311  22.484  1.00  0.00    -0.744 OA
ENDBRANCH  65  68
ENDBRANCH  47  61
BRANCH  48  72
ATOM     72  C   UNL A   1      38.435  30.935  30.975  1.00  0.00     0.023 A 
ATOM     73  C   UNL A   1      38.257  30.729  32.357  1.00  0.00     0.012 A 
ATOM     74  C   UNL A   1      37.421  31.580  30.243  1.00  0.00     0.148 A 
ATOM     75  C   UNL A   1      37.078  31.125  32.991  1.00  0.00     0.002 A 
ATOM     76  C   UNL A   1      36.271  32.020  30.891  1.00  0.00     0.091 A 
ATOM     77  F   UNL A   1      37.602  31.757  28.926  1.00  0.00    -0.205 F 
ATOM     78  C   UNL A   1      36.090  31.778  32.262  1.00  0.00     0.022 A 
BRANCH  76  79
ATOM     79  S   UNL A   1      35.005  32.982  30.055  1.00  0.00     0.127 S 
ATOM     80  O   UNL A   1      34.477  32.014  29.098  1.00  0.00    -0.237 OA
ATOM     81  O   UNL A   1      34.101  33.318  31.155  1.00  0.00    -0.237 OA
ATOM     82  O   UNL A   1      35.701  34.127  29.482  1.00  0.00    -0.744 OA
ENDBRANCH  76  79
ENDBRANCH  48  72
BRANCH  60  83
ATOM     83  C   UNL A   1      44.544  34.057  29.687  1.00  0.00     0.023 A 
ATOM     84  C   UNL A   1      45.226  34.309  30.894  1.00  0.00     0.012 A 
ATOM     85  C   UNL A   1      44.422  35.086  28.732  1.00  0.00     0.148 A 
ATOM     86  C   UNL A   1      45.750  35.572  31.161  1.00  0.00     0.002 A 
ATOM     87  C   UNL A   1      44.988  36.329  28.985  1.00  0.00     0.091 A 
ATOM     88  F   UNL A   1      43.753  34.832  27.599  1.00  0.00    -0.205 F 
ATOM     89  C   UNL A   1      45.641  36.578  30.203  1.00  0.00     0.022 A 
BRANCH  87  90
ATOM     90  S   UNL A   1      44.983  37.651  27.768  1.00  0.00     0.127 S 
ATOM     91  O   UNL A   1      45.720  37.041  26.663  1.00  0.00    -0.237 OA
ATOM     92  O   UNL A   1      43.554  37.840  27.518  1.00  0.00    -0.237 OA
ATOM     93  O   UNL A   1      45.636  38.785  28.409  1.00  0.00    -0.744 OA
ENDBRANCH  87  90
ENDBRANCH  60  83
ENDBRANCH  34  35
ENDBRANCH  26  29
ENDBRANCH  24  25
ENDBRANCH  23  24
ENDBRANCH   1  23
TORSDOF 18
ENDMDL
MODEL 2
REMARK VINA RESULT:     -11.0      5.899      8.734
REMARK SMILES Cc1csc(C[NH2+]C[C@H]2CCC[C@H]2C(=O)NCCCCNC(=O)c2ccc(-c3c4nc(c(-c5cccc(S(=O)(=O)[O-])c5F)c5ccc([nH]5)c(-c5cccc(S(=O)(=O)[O-])c5F)c5nc(c(-c6cccc(S(=O)(=O)[O-])c6F)c6ccc3[nH]6)C=C5)C=C4)cc2)n1
REMARK SMILES IDX 18 1 17 2 16 3 14 4 15 5 13 7 9 8 10 9 11 10 12 11 8 12 7 13
REMARK SMILES IDX 6 16 5 17 1 18 2 19 3 20 87 21 4 22 19 23 20 24 21 25 22 26
REMARK SMILES IDX 23 28 24 29 25 30 86 31 26 32 85 33 27 34 28 35 29 36 79 37
REMARK SMILES IDX 30 38 84 39 78 40 80 41 31 42 83 43 77 44 76 45 32 47 64 48
REMARK SMILES IDX 44 49 63 50 45 51 48 52 62 53 81 54 46 55 47 56 61 58 82 59
REMARK SMILES IDX 49 60 33 61 34 62 42 63 35 64 37 65 43 66 36 67 38 68 39 69
REMARK SMILES IDX 40 70 41 71 65 72 66 73 74 74 67 75 69 76 75 77 68 78 70 79
REMARK SMILES IDX 71 80 72 81 73 82 50 83 51 84 59 85 52 86 54 87 60 88 53 89
REMARK SMILES IDX 55 90 56 91 57 92 58 93
REMARK H PARENT 16 6 7 14 7 15 21 27 80 46 48 57
REMARK Flexibility Score: inf
ROOT
ATOM      1  C   UNL A   1      31.841  30.368  26.891  1.00  0.00     0.023 C 
ENDROOT
BRANCH   1   2
ATOM      2  C   UNL A   1      31.544  29.595  25.602  1.00  0.00     0.116 C 
BRANCH   2   3
ATOM      3  N   UNL A   1      32.760  29.338  24.852  1.00  0.00    -0.356 N 
ATOM      4  C   UNL A   1      33.346  28.215  24.372  1.00  0.00     0.223 C 
ATOM      5  O   UNL A   1      34.468  28.358  23.869  1.00  0.00    -0.275 OA
ATOM      6  H   UNL A   1      33.269  30.157  24.648  1.00  0.00     0.163 HD
BRANCH   4   7
ATOM      7  C   UNL A   1      32.737  26.811  24.407  1.00  0.00     0.087 C 
ATOM      8  C   UNL A   1      31.461  26.503  23.580  1.00  0.00     0.057 C 
ATOM      9  C   UNL A   1      31.447  24.971  23.613  1.00  0.00     0.010 C 
ATOM     10  C   UNL A   1      32.906  24.583  23.420  1.00  0.00     0.001 C 
ATOM     11  C   UNL A   1      33.693  25.624  24.211  1.00  0.00     0.014 C 
BRANCH   8  12
ATOM     12  C   UNL A   1      31.491  27.088  22.169  1.00  0.00     0.265 C 
BRANCH  12  13
ATOM     13  N   UNL A   1      30.884  28.381  21.937  1.00  0.00    -0.340 N 
ATOM     14  H   UNL A   1      31.538  29.096  22.255  1.00  0.00     0.346 HD
ATOM     15  H   UNL A   1      30.684  28.419  20.938  1.00  0.00     0.346 HD
BRANCH  13  16
ATOM     16  C   UNL A   1      29.609  28.608  22.607  1.00  0.00     0.329 C 
BRANCH  16  17
ATOM     17  C   UNL A   1      29.143  30.011  22.303  1.00  0.00     0.147 A 
ATOM     18  C   UNL A   1      27.766  32.325  19.918  1.00  0.00     0.067 C 
ATOM     19  C   UNL A   1      28.269  31.706  21.170  1.00  0.00     0.049 A 
ATOM     20  C   UNL A   1      28.232  32.246  22.441  1.00  0.00     0.090 A 
ATOM     21  N   UNL A   1      28.820  30.442  21.100  1.00  0.00    -0.241 NA
ATOM     22  S   UNL A   1      28.879  31.137  23.576  1.00  0.00    -0.121 S 
ENDBRANCH  16  17
ENDBRANCH  13  16
ENDBRANCH  12  13
ENDBRANCH   8  12
ENDBRANCH   4   7
ENDBRANCH   2   3
ENDBRANCH   1   2
BRANCH   1  23
ATOM     23  C   UNL A   1      31.562  31.863  26.840  1.00  0.00     0.023 C 
BRANCH  23  24
ATOM     24  C   UNL A   1      32.788  32.740  27.005  1.00  0.00     0.116 C 
BRANCH  24  25
ATOM     25  N   UNL A   1      32.508  34.021  27.637  1.00  0.00    -0.352 N 
ATOM     26  C   UNL A   1      33.120  34.590  28.731  1.00  0.00     0.251 C 
ATOM     27  H   UNL A   1      31.785  34.551  27.229  1.00  0.00     0.163 HD
ATOM     28  O   UNL A   1      32.707  35.637  29.200  1.00  0.00    -0.269 OA
BRANCH  26  29
ATOM     29  C   UNL A   1      34.268  33.887  29.346  1.00  0.00     0.039 A 
ATOM     30  C   UNL A   1      35.561  34.313  29.042  1.00  0.00     0.014 A 
ATOM     31  C   UNL A   1      34.058  32.852  30.259  1.00  0.00     0.014 A 
ATOM     32  C   UNL A   1      36.645  33.730  29.700  1.00  0.00     0.010 A 
ATOM     33  C   UNL A   1      35.126  32.352  30.989  1.00  0.00     0.010 A 
ATOM     34  C   UNL A   1      36.432  32.764  30.696  1.00  0.00    -0.014 A 
BRANCH  34  35
ATOM     35  C   UNL A   1      37.567  32.139  31.419  1.00  0.00     0.031 A 
ATOM     36  C   UNL A   1      38.337  31.019  30.770  1.00  0.00     0.074 A 
ATOM     37  C   UNL A   1      37.857  32.527  32.675  1.00  0.00     0.049 A 
ATOM     38  N   UNL A   1      39.343  30.330  31.240  1.00  0.00    -0.248 NA
ATOM     39  C   UNL A   1      37.897  30.590  29.430  1.00  0.00     0.031 C 
ATOM     40  C   UNL A   1      37.117  33.530  33.446  1.00  0.00     0.029 A 
ATOM     41  N   UNL A   1      38.842  32.111  33.535  1.00  0.00    -0.354 N 
ATOM     42  C   UNL A   1      39.626  29.369  30.278  1.00  0.00     0.074 A 
ATOM     43  C   UNL A   1      38.655  29.525  29.220  1.00  0.00     0.031 C 
ATOM     44  C   UNL A   1      37.688  33.665  34.656  1.00  0.00     0.029 A 
ATOM     45  C   UNL A   1      38.818  32.748  34.753  1.00  0.00     0.049 A 
ATOM     46  H   UNL A   1      39.503  31.421  33.300  1.00  0.00     0.167 HD
ATOM     47  C   UNL A   1      40.635  28.467  30.250  1.00  0.00     0.034 A 
ATOM     48  C   UNL A   1      39.627  32.612  35.822  1.00  0.00     0.034 A 
ATOM     49  C   UNL A   1      41.639  28.363  31.272  1.00  0.00     0.049 A 
ATOM     50  C   UNL A   1      40.785  31.654  35.736  1.00  0.00     0.074 A 
ATOM     51  C   UNL A   1      42.762  27.557  31.298  1.00  0.00     0.029 A 
ATOM     52  N   UNL A   1      41.641  29.097  32.448  1.00  0.00    -0.354 N 
ATOM     53  N   UNL A   1      41.142  30.877  34.742  1.00  0.00    -0.248 NA
ATOM     54  C   UNL A   1      41.677  31.586  36.903  1.00  0.00     0.031 C 
ATOM     55  C   UNL A   1      43.437  27.794  32.500  1.00  0.00     0.029 A 
ATOM     56  C   UNL A   1      42.745  28.760  33.212  1.00  0.00     0.049 A 
ATOM     57  H   UNL A   1      40.960  29.759  32.703  1.00  0.00     0.167 HD
ATOM     58  C   UNL A   1      42.314  30.250  35.149  1.00  0.00     0.074 A 
ATOM     59  C   UNL A   1      42.623  30.762  36.469  1.00  0.00     0.031 C 
ATOM     60  C   UNL A   1      43.060  29.322  34.500  1.00  0.00     0.034 A 
BRANCH  47  61
ATOM     61  C   UNL A   1      40.741  27.576  29.040  1.00  0.00     0.023 A 
ATOM     62  C   UNL A   1      39.903  26.446  28.937  1.00  0.00     0.012 A 
ATOM     63  C   UNL A   1      41.631  27.873  27.991  1.00  0.00     0.148 A 
ATOM     64  C   UNL A   1      39.977  25.602  27.829  1.00  0.00     0.002 A 
ATOM     65  C   UNL A   1      41.667  27.053  26.867  1.00  0.00     0.091 A 
ATOM     66  F   UNL A   1      42.436  28.937  28.115  1.00  0.00    -0.205 F 
ATOM     67  C   UNL A   1      40.850  25.912  26.791  1.00  0.00     0.022 A 
BRANCH  65  68
ATOM     68  S   UNL A   1      42.700  27.405  25.442  1.00  0.00     0.127 S 
ATOM     69  O   UNL A   1      44.005  27.617  26.067  1.00  0.00    -0.237 OA
ATOM     70  O   UNL A   1      42.590  26.168  24.668  1.00  0.00    -0.237 OA
ATOM     71  O   UNL A   1      42.117  28.575  24.801  1.00  0.00    -0.744 OA
ENDBRANCH  65  68
ENDBRANCH  47  61
BRANCH  48  72
ATOM     72  C   UNL A   1      39.427  33.469  37.025  1.00  0.00     0.023 A 
ATOM     73  C   UNL A   1      39.967  34.771  37.040  1.00  0.00     0.012 A 
ATOM     74  C   UNL A   1      38.692  33.020  38.138  1.00  0.00     0.148 A 
ATOM     75  C   UNL A   1      39.809  35.595  38.155  1.00  0.00     0.002 A 
ATOM     76  C   UNL A   1      38.492  33.866  39.223  1.00  0.00     0.091 A 
ATOM     77  F   UNL A   1      38.195  31.775  38.111  1.00  0.00    -0.205 F 
ATOM     78  C   UNL A   1      39.064  35.148  39.242  1.00  0.00     0.022 A 
BRANCH  76  79
ATOM     79  S   UNL A   1      37.441  33.419  40.610  1.00  0.00     0.127 S 
ATOM     80  O   UNL A   1      36.202  33.039  39.935  1.00  0.00    -0.237 OA
ATOM     81  O   UNL A   1      38.182  32.308  41.209  1.00  0.00    -0.237 OA
ATOM     82  O   UNL A   1      37.370  34.610  41.445  1.00  0.00    -0.744 OA
ENDBRANCH  76  79
ENDBRANCH  48  72
BRANCH  60  83
ATOM     83  C   UNL A   1      44.294  28.813  35.194  1.00  0.00     0.023 A 
ATOM     84  C   UNL A   1      45.539  29.423  34.939  1.00  0.00     0.012 A 
ATOM     85  C   UNL A   1      44.210  27.786  36.154  1.00  0.00     0.148 A 
ATOM     86  C   UNL A   1      46.687  28.996  35.603  1.00  0.00     0.002 A 
ATOM     87  C   UNL A   1      45.350  27.398  36.848  1.00  0.00     0.091 A 
ATOM     88  F   UNL A   1      43.021  27.206  36.370  1.00  0.00    -0.205 F 
ATOM     89  C   UNL A   1      46.591  27.993  36.565  1.00  0.00     0.022 A 
BRANCH  87  90
ATOM     90  S   UNL A   1      45.301  26.185  38.172  1.00  0.00     0.127 S 
ATOM     91  O   UNL A   1      46.696  26.162  38.606  1.00  0.00    -0.237 OA
ATOM     92  O   UNL A   1      44.376  26.800  39.124  1.00  0.00    -0.237 OA
ATOM     93  O   UNL A   1      44.810  24.954  37.567  1.00  0.00    -0.744 OA
ENDBRANCH  87  90
ENDBRANCH  60  83
ENDBRANCH  34  35
ENDBRANCH  26  29
ENDBRANCH  24  25
ENDBRANCH  23  24
ENDBRANCH   1  23
TORSDOF 18
ENDMDL
MODEL 3
REMARK VINA RESULT:     -10.9      5.257     10.383
REMARK SMILES Cc1csc(C[NH2+]C[C@H]2CCC[C@H]2C(=O)NCCCCNC(=O)c2ccc(-c3c4nc(c(-c5cccc(S(=O)(=O)[O-])c5F)c5ccc([nH]5)c(-c5cccc(S(=O)(=O)[O-])c5F)c5nc(c(-c6cccc(S(=O)(=O)[O-])c6F)c6ccc3[nH]6)C=C5)C=C4)cc2)n1
REMARK SMILES IDX 18 1 17 2 16 3 14 4 15 5 13 7 9 8 10 9 11 10 12 11 8 12 7 13
REMARK SMILES IDX 6 16 5 17 1 18 2 19 3 20 87 21 4 22 19 23 20 24 21 25 22 26
REMARK SMILES IDX 23 28 24 29 25 30 86 31 26 32 85 33 27 34 28 35 29 36 79 37
REMARK SMILES IDX 30 38 84 39 78 40 80 41 31 42 83 43 77 44 76 45 32 47 64 48
REMARK SMILES IDX 44 49 63 50 45 51 48 52 62 53 81 54 46 55 47 56 61 58 82 59
REMARK SMILES IDX 49 60 33 61 34 62 42 63 35 64 37 65 43 66 36 67 38 68 39 69
REMARK SMILES IDX 40 70 41 71 65 72 66 73 74 74 67 75 69 76 75 77 68 78 70 79
REMARK SMILES IDX 71 80 72 81 73 82 50 83 51 84 59 85 52 86 54 87 60 88 53 89
REMARK SMILES IDX 55 90 56 91 57 92 58 93
REMARK H PARENT 16 6 7 14 7 15 21 27 80 46 48 57
REMARK Flexibility Score: inf
ROOT
ATOM      1  C   UNL A   1      31.723  28.204  27.496  1.00  0.00     0.023 C 
ENDROOT
BRANCH   1   2
ATOM      2  C   UNL A   1      31.672  26.959  26.604  1.00  0.00     0.116 C 
BRANCH   2   3
ATOM      3  N   UNL A   1      33.005  26.534  26.217  1.00  0.00    -0.356 N 
ATOM      4  C   UNL A   1      33.512  25.920  25.122  1.00  0.00     0.223 C 
ATOM      5  O   UNL A   1      34.705  25.596  25.183  1.00  0.00    -0.275 OA
ATOM      6  H   UNL A   1      33.688  26.737  26.898  1.00  0.00     0.163 HD
BRANCH   4   7
ATOM      7  C   UNL A   1      32.735  25.601  23.842  1.00  0.00     0.087 C 
ATOM      8  C   UNL A   1      31.782  26.663  23.234  1.00  0.00     0.057 C 
ATOM      9  C   UNL A   1      31.541  26.083  21.836  1.00  0.00     0.010 C 
ATOM     10  C   UNL A   1      32.910  25.575  21.406  1.00  0.00     0.001 C 
ATOM     11  C   UNL A   1      33.523  24.988  22.675  1.00  0.00     0.014 C 
BRANCH   8  12
ATOM     12  C   UNL A   1      32.367  28.075  23.221  1.00  0.00     0.265 C 
BRANCH  12  13
ATOM     13  N   UNL A   1      31.490  29.190  22.938  1.00  0.00    -0.340 N 
ATOM     14  H   UNL A   1      31.891  30.023  23.371  1.00  0.00     0.346 HD
ATOM     15  H   UNL A   1      31.428  29.244  21.921  1.00  0.00     0.346 HD
BRANCH  13  16
ATOM     16  C   UNL A   1      30.119  29.052  23.415  1.00  0.00     0.329 C 
BRANCH  16  17
ATOM     17  C   UNL A   1      29.336  30.275  23.005  1.00  0.00     0.147 A 
ATOM     18  C   UNL A   1      28.879  33.835  23.246  1.00  0.00     0.067 C 
ATOM     19  C   UNL A   1      28.763  32.412  22.839  1.00  0.00     0.049 A 
ATOM     20  C   UNL A   1      28.012  31.899  21.799  1.00  0.00     0.090 A 
ATOM     21  N   UNL A   1      29.491  31.470  23.540  1.00  0.00    -0.241 NA
ATOM     22  S   UNL A   1      28.241  30.205  21.681  1.00  0.00    -0.121 S 
ENDBRANCH  16  17
ENDBRANCH  13  16
ENDBRANCH  12  13
ENDBRANCH   8  12
ENDBRANCH   4   7
ENDBRANCH   2   3
ENDBRANCH   1   2
BRANCH   1  23
ATOM     23  C   UNL A   1      31.583  29.536  26.773  1.00  0.00     0.023 C 
BRANCH  23  24
ATOM     24  C   UNL A   1      32.884  30.293  26.587  1.00  0.00     0.116 C 
BRANCH  24  25
ATOM     25  N   UNL A   1      32.781  31.713  26.890  1.00  0.00    -0.352 N 
ATOM     26  C   UNL A   1      33.638  32.497  27.630  1.00  0.00     0.251 C 
ATOM     27  H   UNL A   1      31.995  32.174  26.517  1.00  0.00     0.163 HD
ATOM     28  O   UNL A   1      33.363  33.660  27.872  1.00  0.00    -0.269 OA
BRANCH  26  29
ATOM     29  C   UNL A   1      34.881  31.889  28.153  1.00  0.00     0.039 A 
ATOM     30  C   UNL A   1      36.070  32.616  28.083  1.00  0.00     0.014 A 
ATOM     31  C   UNL A   1      34.854  30.631  28.759  1.00  0.00     0.014 A 
ATOM     32  C   UNL A   1      37.224  32.098  28.671  1.00  0.00     0.010 A 
ATOM     33  C   UNL A   1      35.973  30.170  29.436  1.00  0.00     0.010 A 
ATOM     34  C   UNL A   1      37.177  30.884  29.374  1.00  0.00    -0.014 A 
BRANCH  34  35
ATOM     35  C   UNL A   1      38.387  30.319  30.019  1.00  0.00     0.031 A 
ATOM     36  C   UNL A   1      38.762  30.757  31.410  1.00  0.00     0.074 A 
ATOM     37  C   UNL A   1      39.180  29.475  29.332  1.00  0.00     0.049 A 
ATOM     38  N   UNL A   1      39.787  30.400  32.138  1.00  0.00    -0.248 NA
ATOM     39  C   UNL A   1      37.892  31.755  32.058  1.00  0.00     0.031 C 
ATOM     40  C   UNL A   1      38.976  29.059  27.943  1.00  0.00     0.029 A 
ATOM     41  N   UNL A   1      40.332  28.828  29.705  1.00  0.00    -0.354 N 
ATOM     42  C   UNL A   1      39.706  31.154  33.302  1.00  0.00     0.074 A 
ATOM     43  C   UNL A   1      38.564  32.028  33.166  1.00  0.00     0.031 C 
ATOM     44  C   UNL A   1      39.956  28.211  27.588  1.00  0.00     0.029 A 
ATOM     45  C   UNL A   1      40.867  28.039  28.715  1.00  0.00     0.049 A 
ATOM     46  H   UNL A   1      40.736  28.921  30.597  1.00  0.00     0.167 HD
ATOM     47  C   UNL A   1      40.482  31.093  34.409  1.00  0.00     0.034 A 
ATOM     48  C   UNL A   1      41.965  27.257  28.723  1.00  0.00     0.034 A 
ATOM     49  C   UNL A   1      41.574  30.173  34.567  1.00  0.00     0.049 A 
ATOM     50  C   UNL A   1      42.768  27.151  29.991  1.00  0.00     0.074 A 
ATOM     51  C   UNL A   1      42.362  29.953  35.681  1.00  0.00     0.029 A 
ATOM     52  N   UNL A   1      42.026  29.313  33.577  1.00  0.00    -0.354 N 
ATOM     53  N   UNL A   1      42.571  27.742  31.145  1.00  0.00    -0.248 NA
ATOM     54  C   UNL A   1      43.920  26.238  29.973  1.00  0.00     0.031 C 
ATOM     55  C   UNL A   1      43.302  28.969  35.360  1.00  0.00     0.029 A 
ATOM     56  C   UNL A   1      43.087  28.564  34.052  1.00  0.00     0.049 A 
ATOM     57  H   UNL A   1      41.650  29.247  32.670  1.00  0.00     0.167 HD
ATOM     58  C   UNL A   1      43.553  27.251  31.998  1.00  0.00     0.074 A 
ATOM     59  C   UNL A   1      44.325  26.291  31.235  1.00  0.00     0.031 C 
ATOM     60  C   UNL A   1      43.807  27.576  33.290  1.00  0.00     0.034 A 
BRANCH  47  61
ATOM     61  C   UNL A   1      40.126  31.995  35.562  1.00  0.00     0.023 A 
ATOM     62  C   UNL A   1      40.854  33.188  35.757  1.00  0.00     0.012 A 
ATOM     63  C   UNL A   1      39.055  31.691  36.423  1.00  0.00     0.148 A 
ATOM     64  C   UNL A   1      40.548  34.045  36.813  1.00  0.00     0.002 A 
ATOM     65  C   UNL A   1      38.726  32.573  37.447  1.00  0.00     0.091 A 
ATOM     66  F   UNL A   1      38.390  30.543  36.238  1.00  0.00    -0.205 F 
ATOM     67  C   UNL A   1      39.478  33.742  37.651  1.00  0.00     0.022 A 
BRANCH  65  68
ATOM     68  S   UNL A   1      37.320  32.316  38.534  1.00  0.00     0.127 S 
ATOM     69  O   UNL A   1      36.272  33.067  37.843  1.00  0.00    -0.237 OA
ATOM     70  O   UNL A   1      37.157  30.863  38.489  1.00  0.00    -0.237 OA
ATOM     71  O   UNL A   1      37.714  32.843  39.832  1.00  0.00    -0.744 OA
ENDBRANCH  65  68
ENDBRANCH  47  61
BRANCH  48  72
ATOM     72  C   UNL A   1      42.311  26.443  27.524  1.00  0.00     0.023 A 
ATOM     73  C   UNL A   1      43.030  27.041  26.469  1.00  0.00     0.012 A 
ATOM     74  C   UNL A   1      41.959  25.083  27.427  1.00  0.00     0.148 A 
ATOM     75  C   UNL A   1      43.359  26.311  25.326  1.00  0.00     0.002 A 
ATOM     76  C   UNL A   1      42.337  24.348  26.309  1.00  0.00     0.091 A 
ATOM     77  F   UNL A   1      41.266  24.534  28.434  1.00  0.00    -0.205 F 
ATOM     78  C   UNL A   1      43.023  24.963  25.250  1.00  0.00     0.022 A 
BRANCH  76  79
ATOM     79  S   UNL A   1      42.057  22.577  26.184  1.00  0.00     0.127 S 
ATOM     80  O   UNL A   1      40.599  22.508  26.143  1.00  0.00    -0.237 OA
ATOM     81  O   UNL A   1      42.725  22.251  24.923  1.00  0.00    -0.237 OA
ATOM     82  O   UNL A   1      42.688  21.999  27.362  1.00  0.00    -0.744 OA
ENDBRANCH  76  79
ENDBRANCH  48  72
BRANCH  60  83
ATOM     83  C   UNL A   1      44.951  26.875  33.971  1.00  0.00     0.023 A 
ATOM     84  C   UNL A   1      46.261  27.371  33.820  1.00  0.00     0.012 A 
ATOM     85  C   UNL A   1      44.721  25.774  34.819  1.00  0.00     0.148 A 
ATOM     86  C   UNL A   1      47.330  26.763  34.476  1.00  0.00     0.002 A 
ATOM     87  C   UNL A   1      45.783  25.202  35.507  1.00  0.00     0.091 A 
ATOM     88  F   UNL A   1      43.470  25.305  34.934  1.00  0.00    -0.205 F 
ATOM     89  C   UNL A   1      47.089  25.686  35.328  1.00  0.00     0.022 A 
BRANCH  87  90
ATOM     90  S   UNL A   1      45.553  23.878  36.699  1.00  0.00     0.127 S 
ATOM     91  O   UNL A   1      45.008  22.813  35.860  1.00  0.00    -0.237 OA
ATOM     92  O   UNL A   1      46.917  23.644  37.174  1.00  0.00    -0.237 OA
ATOM     93  O   UNL A   1      44.647  24.406  37.712  1.00  0.00    -0.744 OA
ENDBRANCH  87  90
ENDBRANCH  60  83
ENDBRANCH  34  35
ENDBRANCH  26  29
ENDBRANCH  24  25
ENDBRANCH  23  24
ENDBRANCH   1  23
TORSDOF 18
ENDMDL
