MODEL 1
REMARK VINA RESULT:     -11.1      0.000      0.000
REMARK SMILES Cc1cc(N(C)[C@H](C)C(=O)NCCCCNC(=O)c2ccc(-c3c4nc(c(-c5cccc(S(=O)(=O)[O-])c5F)c5ccc([nH]5)c(-c5cccc(S(=O)(=O)[O-])c5F)c5nc(c(-c6cccc(S(=O)(=O)[O-])c6F)c6ccc3[nH]6)C=C5)C=C4)cc2)ncc1[N+](=O)[O-]
REMARK SMILES IDX 13 1 12 2 11 3 9 4 10 5 7 7 8 8 5 9 6 10 4 11 1 12 2 13 3 14
REMARK SMILES IDX 84 15 83 16 82 17 85 18 86 19 87 20 14 21 15 22 16 23 17 24
REMARK SMILES IDX 18 26 19 27 20 28 81 29 21 30 80 31 22 32 23 33 24 34 74 35
REMARK SMILES IDX 25 36 79 37 73 38 75 39 26 40 78 41 72 42 71 43 27 45 59 46
REMARK SMILES IDX 39 47 58 48 40 49 43 50 57 51 76 52 41 53 42 54 56 56 77 57
REMARK SMILES IDX 44 58 28 59 29 60 37 61 30 62 32 63 38 64 31 65 33 66 34 67
REMARK SMILES IDX 35 68 36 69 60 70 61 71 69 72 62 73 64 74 70 75 63 76 65 77
REMARK SMILES IDX 66 78 67 79 68 80 45 81 46 82 54 83 47 84 49 85 55 86 48 87
REMARK SMILES IDX 50 88 51 89 52 90 53 91
REMARK H PARENT 11 6 16 25 75 44 43 55
REMARK Flexibility Score: inf
ROOT
ATOM      1  C   UNL A   1      32.900  29.130  27.171  1.00  0.00     0.023 C 
ENDROOT
BRANCH   1   2
ATOM      2  C   UNL A   1      31.823  28.072  26.968  1.00  0.00     0.116 C 
BRANCH   2   3
ATOM      3  N   UNL A   1      32.340  26.848  26.388  1.00  0.00    -0.354 N 
ATOM      4  C   UNL A   1      32.803  26.579  25.133  1.00  0.00     0.242 C 
ATOM      5  O   UNL A   1      33.411  25.509  24.998  1.00  0.00    -0.273 OA
ATOM      6  H   UNL A   1      32.360  26.081  27.005  1.00  0.00     0.163 HD
BRANCH   4   7
ATOM      7  C   UNL A   1      32.602  27.516  23.918  1.00  0.00     0.169 C 
ATOM      8  C   UNL A   1      33.818  27.534  22.987  1.00  0.00     0.042 C 
BRANCH   7   9
ATOM      9  N   UNL A   1      31.318  27.357  23.173  1.00  0.00    -0.348 N 
ATOM     10  C   UNL A   1      30.861  26.060  22.705  1.00  0.00     0.146 C 
BRANCH   9  11
ATOM     11  C   UNL A   1      30.429  28.429  23.195  1.00  0.00     0.129 A 
ATOM     12  C   UNL A   1      30.121  31.807  24.903  1.00  0.00     0.052 C 
ATOM     13  C   UNL A   1      29.787  30.669  23.982  1.00  0.00     0.032 A 
ATOM     14  C   UNL A   1      30.596  29.518  24.061  1.00  0.00     0.057 A 
ATOM     15  C   UNL A   1      28.746  30.647  23.052  1.00  0.00     0.290 A 
ATOM     16  C   UNL A   1      28.588  29.525  22.259  1.00  0.00     0.199 A 
ATOM     17  N   UNL A   1      29.395  28.436  22.327  1.00  0.00    -0.232 NA
BRANCH  15  18
ATOM     18  N   UNL A   1      27.800  31.735  22.869  1.00  0.00     0.064 N 
ATOM     19  O   UNL A   1      26.779  31.727  23.572  1.00  0.00    -0.258 OA
ATOM     20  O   UNL A   1      28.082  32.621  22.050  1.00  0.00    -0.258 OA
ENDBRANCH  15  18
ENDBRANCH   9  11
ENDBRANCH   7   9
ENDBRANCH   4   7
ENDBRANCH   2   3
ENDBRANCH   1   2
BRANCH   1  21
ATOM     21  C   UNL A   1      32.399  30.577  27.138  1.00  0.00     0.023 C 
BRANCH  21  22
ATOM     22  C   UNL A   1      33.451  31.654  27.394  1.00  0.00     0.116 C 
BRANCH  22  23
ATOM     23  N   UNL A   1      32.887  32.990  27.552  1.00  0.00    -0.352 N 
ATOM     24  C   UNL A   1      33.242  33.989  28.432  1.00  0.00     0.251 C 
ATOM     25  H   UNL A   1      32.145  33.208  26.942  1.00  0.00     0.163 HD
ATOM     26  O   UNL A   1      32.594  35.024  28.488  1.00  0.00    -0.269 OA
BRANCH  24  27
ATOM     27  C   UNL A   1      34.390  33.774  29.336  1.00  0.00     0.039 A 
ATOM     28  C   UNL A   1      34.198  33.033  30.506  1.00  0.00     0.014 A 
ATOM     29  C   UNL A   1      35.661  34.230  28.983  1.00  0.00     0.014 A 
ATOM     30  C   UNL A   1      35.305  32.658  31.269  1.00  0.00     0.010 A 
ATOM     31  C   UNL A   1      36.767  33.798  29.708  1.00  0.00     0.010 A 
ATOM     32  C   UNL A   1      36.602  32.987  30.842  1.00  0.00    -0.014 A 
BRANCH  32  33
ATOM     33  C   UNL A   1      37.808  32.441  31.517  1.00  0.00     0.031 A 
ATOM     34  C   UNL A   1      38.578  31.311  30.895  1.00  0.00     0.074 A 
ATOM     35  C   UNL A   1      38.129  32.880  32.750  1.00  0.00     0.049 A 
ATOM     36  N   UNL A   1      39.577  30.627  31.387  1.00  0.00    -0.248 NA
ATOM     37  C   UNL A   1      38.151  30.875  29.555  1.00  0.00     0.031 C 
ATOM     38  C   UNL A   1      37.414  33.921  33.493  1.00  0.00     0.029 A 
ATOM     39  N   UNL A   1      39.119  32.481  33.614  1.00  0.00    -0.354 N 
ATOM     40  C   UNL A   1      39.876  29.658  30.438  1.00  0.00     0.074 A 
ATOM     41  C   UNL A   1      38.933  29.823  29.354  1.00  0.00     0.031 C 
ATOM     42  C   UNL A   1      37.988  34.079  34.696  1.00  0.00     0.029 A 
ATOM     43  C   UNL A   1      39.088  33.129  34.828  1.00  0.00     0.049 A 
ATOM     44  H   UNL A   1      39.789  31.795  33.387  1.00  0.00     0.167 HD
ATOM     45  C   UNL A   1      40.867  28.734  30.453  1.00  0.00     0.034 A 
ATOM     46  C   UNL A   1      39.850  32.970  35.928  1.00  0.00     0.034 A 
ATOM     47  C   UNL A   1      41.831  28.601  31.510  1.00  0.00     0.049 A 
ATOM     48  C   UNL A   1      40.953  31.946  35.911  1.00  0.00     0.074 A 
ATOM     49  C   UNL A   1      42.926  27.759  31.575  1.00  0.00     0.029 A 
ATOM     50  N   UNL A   1      41.814  29.328  32.692  1.00  0.00    -0.354 N 
ATOM     51  N   UNL A   1      41.319  31.145  34.941  1.00  0.00    -0.248 NA
ATOM     52  C   UNL A   1      41.763  31.822  37.132  1.00  0.00     0.031 C 
ATOM     53  C   UNL A   1      43.565  27.966  32.803  1.00  0.00     0.029 A 
ATOM     54  C   UNL A   1      42.873  28.946  33.497  1.00  0.00     0.049 A 
ATOM     55  H   UNL A   1      41.147  30.014  32.923  1.00  0.00     0.167 HD
ATOM     56  C   UNL A   1      42.420  30.445  35.419  1.00  0.00     0.074 A 
ATOM     57  C   UNL A   1      42.673  30.929  36.761  1.00  0.00     0.031 C 
ATOM     58  C   UNL A   1      43.145  29.475  34.809  1.00  0.00     0.034 A 
BRANCH  45  59
ATOM     59  C   UNL A   1      40.994  27.836  29.251  1.00  0.00     0.023 A 
ATOM     60  C   UNL A   1      40.297  26.609  29.232  1.00  0.00     0.012 A 
ATOM     61  C   UNL A   1      41.759  28.214  28.131  1.00  0.00     0.148 A 
ATOM     62  C   UNL A   1      40.388  25.759  28.132  1.00  0.00     0.002 A 
ATOM     63  C   UNL A   1      41.813  27.377  27.022  1.00  0.00     0.091 A 
ATOM     64  F   UNL A   1      42.436  29.371  28.177  1.00  0.00    -0.205 F 
ATOM     65  C   UNL A   1      41.137  26.146  27.025  1.00  0.00     0.022 A 
BRANCH  63  66
ATOM     66  S   UNL A   1      42.695  27.823  25.522  1.00  0.00     0.127 S 
ATOM     67  O   UNL A   1      42.510  26.626  24.704  1.00  0.00    -0.237 OA
ATOM     68  O   UNL A   1      41.952  28.997  25.061  1.00  0.00    -0.237 OA
ATOM     69  O   UNL A   1      44.063  28.100  25.935  1.00  0.00    -0.744 OA
ENDBRANCH  63  66
ENDBRANCH  45  59
BRANCH  46  70
ATOM     70  C   UNL A   1      39.642  33.853  37.110  1.00  0.00     0.023 A 
ATOM     71  C   UNL A   1      40.059  35.196  37.041  1.00  0.00     0.012 A 
ATOM     72  C   UNL A   1      39.006  33.390  38.278  1.00  0.00     0.148 A 
ATOM     73  C   UNL A   1      39.867  36.058  38.120  1.00  0.00     0.002 A 
ATOM     74  C   UNL A   1      38.770  34.268  39.332  1.00  0.00     0.091 A 
ATOM     75  F   UNL A   1      38.631  32.105  38.331  1.00  0.00    -0.205 F 
ATOM     76  C   UNL A   1      39.214  35.598  39.260  1.00  0.00     0.022 A 
BRANCH  74  77
ATOM     77  S   UNL A   1      37.820  33.798  40.781  1.00  0.00     0.127 S 
ATOM     78  O   UNL A   1      37.617  35.087  41.438  1.00  0.00    -0.237 OA
ATOM     79  O   UNL A   1      36.619  33.215  40.182  1.00  0.00    -0.237 OA
ATOM     80  O   UNL A   1      38.652  32.842  41.500  1.00  0.00    -0.744 OA
ENDBRANCH  74  77
ENDBRANCH  46  70
BRANCH  58  81
ATOM     81  C   UNL A   1      44.299  28.880  35.572  1.00  0.00     0.023 A 
ATOM     82  C   UNL A   1      45.585  29.437  35.429  1.00  0.00     0.012 A 
ATOM     83  C   UNL A   1      44.095  27.835  36.493  1.00  0.00     0.148 A 
ATOM     84  C   UNL A   1      46.655  28.948  36.176  1.00  0.00     0.002 A 
ATOM     85  C   UNL A   1      45.156  27.381  37.266  1.00  0.00     0.091 A 
ATOM     86  F   UNL A   1      42.866  27.308  36.599  1.00  0.00    -0.205 F 
ATOM     87  C   UNL A   1      46.439  27.929  37.102  1.00  0.00     0.022 A 
BRANCH  85  88
ATOM     88  S   UNL A   1      44.955  26.137  38.547  1.00  0.00     0.127 S 
ATOM     89  O   UNL A   1      44.433  25.004  37.783  1.00  0.00    -0.237 OA
ATOM     90  O   UNL A   1      46.325  25.966  39.031  1.00  0.00    -0.237 OA
ATOM     91  O   UNL A   1      44.037  26.710  39.521  1.00  0.00    -0.744 OA
ENDBRANCH  85  88
ENDBRANCH  58  81
ENDBRANCH  32  33
ENDBRANCH  24  27
ENDBRANCH  22  23
ENDBRANCH  21  22
ENDBRANCH   1  21
TORSDOF 17
ENDMDL
MODEL 2
REMARK VINA RESULT:     -10.9      3.419      5.257
REMARK SMILES Cc1cc(N(C)[C@H](C)C(=O)NCCCCNC(=O)c2ccc(-c3c4nc(c(-c5cccc(S(=O)(=O)[O-])c5F)c5ccc([nH]5)c(-c5cccc(S(=O)(=O)[O-])c5F)c5nc(c(-c6cccc(S(=O)(=O)[O-])c6F)c6ccc3[nH]6)C=C5)C=C4)cc2)ncc1[N+](=O)[O-]
REMARK SMILES IDX 13 1 12 2 11 3 9 4 10 5 7 7 8 8 5 9 6 10 4 11 1 12 2 13 3 14
REMARK SMILES IDX 84 15 83 16 82 17 85 18 86 19 87 20 14 21 15 22 16 23 17 24
REMARK SMILES IDX 18 26 19 27 20 28 81 29 21 30 80 31 22 32 23 33 24 34 74 35
REMARK SMILES IDX 25 36 79 37 73 38 75 39 26 40 78 41 72 42 71 43 27 45 59 46
REMARK SMILES IDX 39 47 58 48 40 49 43 50 57 51 76 52 41 53 42 54 56 56 77 57
REMARK SMILES IDX 44 58 28 59 29 60 37 61 30 62 32 63 38 64 31 65 33 66 34 67
REMARK SMILES IDX 35 68 36 69 60 70 61 71 69 72 62 73 64 74 70 75 63 76 65 77
REMARK SMILES IDX 66 78 67 79 68 80 45 81 46 82 54 83 47 84 49 85 55 86 48 87
REMARK SMILES IDX 50 88 51 89 52 90 53 91
REMARK H PARENT 11 6 16 25 75 44 43 55
REMARK Flexibility Score: inf
ROOT
ATOM      1  C   UNL A   1      32.870  27.728  24.952  1.00  0.00     0.023 C 
ENDROOT
BRANCH   1   2
ATOM      2  C   UNL A   1      33.144  26.760  26.096  1.00  0.00     0.116 C 
BRANCH   2   3
ATOM      3  N   UNL A   1      32.152  25.707  26.191  1.00  0.00    -0.354 N 
ATOM      4  C   UNL A   1      32.277  24.384  26.498  1.00  0.00     0.242 C 
ATOM      5  O   UNL A   1      31.224  23.783  26.745  1.00  0.00    -0.273 OA
ATOM      6  H   UNL A   1      31.230  25.998  26.001  1.00  0.00     0.163 HD
BRANCH   4   7
ATOM      7  C   UNL A   1      33.629  23.631  26.544  1.00  0.00     0.169 C 
ATOM      8  C   UNL A   1      33.645  22.524  27.601  1.00  0.00     0.042 C 
BRANCH   7   9
ATOM      9  N   UNL A   1      34.167  23.170  25.229  1.00  0.00    -0.348 N 
ATOM     10  C   UNL A   1      35.184  23.920  24.513  1.00  0.00     0.146 C 
BRANCH   9  11
ATOM     11  C   UNL A   1      33.889  21.859  24.849  1.00  0.00     0.129 A 
ATOM     12  C   UNL A   1      35.674  18.509  24.751  1.00  0.00     0.052 C 
ATOM     13  C   UNL A   1      34.556  19.503  24.621  1.00  0.00     0.032 A 
ATOM     14  C   UNL A   1      34.867  20.856  24.860  1.00  0.00     0.057 A 
ATOM     15  C   UNL A   1      33.234  19.208  24.286  1.00  0.00     0.290 A 
ATOM     16  C   UNL A   1      32.316  20.242  24.232  1.00  0.00     0.199 A 
ATOM     17  N   UNL A   1      32.626  21.537  24.495  1.00  0.00    -0.232 NA
BRANCH  15  18
ATOM     18  N   UNL A   1      32.755  17.872  23.975  1.00  0.00     0.064 N 
ATOM     19  O   UNL A   1      32.301  17.197  24.910  1.00  0.00    -0.258 OA
ATOM     20  O   UNL A   1      32.795  17.498  22.794  1.00  0.00    -0.258 OA
ENDBRANCH  15  18
ENDBRANCH   9  11
ENDBRANCH   7   9
ENDBRANCH   4   7
ENDBRANCH   2   3
ENDBRANCH   1   2
BRANCH   1  21
ATOM     21  C   UNL A   1      32.974  29.211  25.321  1.00  0.00     0.023 C 
BRANCH  21  22
ATOM     22  C   UNL A   1      32.423  29.599  26.691  1.00  0.00     0.116 C 
BRANCH  22  23
ATOM     23  N   UNL A   1      32.263  31.038  26.866  1.00  0.00    -0.352 N 
ATOM     24  C   UNL A   1      33.149  31.959  27.382  1.00  0.00     0.251 C 
ATOM     25  H   UNL A   1      31.397  31.404  26.571  1.00  0.00     0.163 HD
ATOM     26  O   UNL A   1      32.810  33.123  27.538  1.00  0.00    -0.269 OA
BRANCH  24  27
ATOM     27  C   UNL A   1      34.497  31.510  27.783  1.00  0.00     0.039 A 
ATOM     28  C   UNL A   1      35.534  32.446  27.830  1.00  0.00     0.014 A 
ATOM     29  C   UNL A   1      34.711  30.191  28.190  1.00  0.00     0.014 A 
ATOM     30  C   UNL A   1      36.761  32.084  28.389  1.00  0.00     0.010 A 
ATOM     31  C   UNL A   1      35.910  29.853  28.807  1.00  0.00     0.010 A 
ATOM     32  C   UNL A   1      36.937  30.803  28.935  1.00  0.00    -0.014 A 
BRANCH  32  33
ATOM     33  C   UNL A   1      38.154  30.446  29.711  1.00  0.00     0.031 A 
ATOM     34  C   UNL A   1      39.148  29.468  29.153  1.00  0.00     0.074 A 
ATOM     35  C   UNL A   1      38.291  30.907  30.970  1.00  0.00     0.049 A 
ATOM     36  N   UNL A   1      40.199  28.946  29.728  1.00  0.00    -0.248 NA
ATOM     37  C   UNL A   1      38.914  28.994  27.780  1.00  0.00     0.031 C 
ATOM     38  C   UNL A   1      37.355  31.805  31.652  1.00  0.00     0.029 A 
ATOM     39  N   UNL A   1      39.255  30.657  31.916  1.00  0.00    -0.354 N 
ATOM     40  C   UNL A   1      40.733  28.056  28.805  1.00  0.00     0.074 A 
ATOM     41  C   UNL A   1      39.872  28.087  27.642  1.00  0.00     0.031 C 
ATOM     42  C   UNL A   1      37.790  32.031  32.901  1.00  0.00     0.029 A 
ATOM     43  C   UNL A   1      39.014  31.268  33.125  1.00  0.00     0.049 A 
ATOM     44  H   UNL A   1      40.045  30.094  31.745  1.00  0.00     0.167 HD
ATOM     45  C   UNL A   1      41.855  27.305  28.902  1.00  0.00     0.034 A 
ATOM     46  C   UNL A   1      39.695  31.214  34.287  1.00  0.00     0.034 A 
ATOM     47  C   UNL A   1      42.734  27.310  30.039  1.00  0.00     0.049 A 
ATOM     48  C   UNL A   1      40.947  30.383  34.362  1.00  0.00     0.074 A 
ATOM     49  C   UNL A   1      43.942  26.655  30.197  1.00  0.00     0.029 A 
ATOM     50  N   UNL A   1      42.497  28.001  31.219  1.00  0.00    -0.354 N 
ATOM     51  N   UNL A   1      41.521  29.671  33.424  1.00  0.00    -0.248 NA
ATOM     52  C   UNL A   1      41.659  30.368  35.649  1.00  0.00     0.031 C 
ATOM     53  C   UNL A   1      44.431  26.940  31.477  1.00  0.00     0.029 A 
ATOM     54  C   UNL A   1      43.531  27.780  32.112  1.00  0.00     0.049 A 
ATOM     55  H   UNL A   1      41.710  28.565  31.394  1.00  0.00     0.167 HD
ATOM     56  C   UNL A   1      42.676  29.149  33.994  1.00  0.00     0.074 A 
ATOM     57  C   UNL A   1      42.730  29.642  35.355  1.00  0.00     0.031 C 
ATOM     58  C   UNL A   1      43.600  28.321  33.445  1.00  0.00     0.034 A 
BRANCH  45  59
ATOM     59  C   UNL A   1      42.230  26.462  27.712  1.00  0.00     0.023 A 
ATOM     60  C   UNL A   1      43.020  27.028  26.689  1.00  0.00     0.012 A 
ATOM     61  C   UNL A   1      41.846  25.111  27.620  1.00  0.00     0.148 A 
ATOM     62  C   UNL A   1      43.390  26.273  25.578  1.00  0.00     0.002 A 
ATOM     63  C   UNL A   1      42.253  24.353  26.527  1.00  0.00     0.091 A 
ATOM     64  F   UNL A   1      41.073  24.597  28.588  1.00  0.00    -0.205 F 
ATOM     65  C   UNL A   1      43.016  24.935  25.502  1.00  0.00     0.022 A 
BRANCH  63  66
ATOM     66  S   UNL A   1      41.877  22.603  26.376  1.00  0.00     0.127 S 
ATOM     67  O   UNL A   1      42.469  22.286  25.078  1.00  0.00    -0.237 OA
ATOM     68  O   UNL A   1      42.583  22.032  27.523  1.00  0.00    -0.237 OA
ATOM     69  O   UNL A   1      40.426  22.503  26.451  1.00  0.00    -0.744 OA
ENDBRANCH  63  66
ENDBRANCH  45  59
BRANCH  46  70
ATOM     70  C   UNL A   1      39.245  32.029  35.451  1.00  0.00     0.023 A 
ATOM     71  C   UNL A   1      38.383  31.447  36.399  1.00  0.00     0.012 A 
ATOM     72  C   UNL A   1      39.692  33.350  35.648  1.00  0.00     0.148 A 
ATOM     73  C   UNL A   1      37.953  32.172  37.511  1.00  0.00     0.002 A 
ATOM     74  C   UNL A   1      39.302  34.049  36.786  1.00  0.00     0.091 A 
ATOM     75  F   UNL A   1      40.500  33.891  34.727  1.00  0.00    -0.205 F 
ATOM     76  C   UNL A   1      38.421  33.467  37.710  1.00  0.00     0.022 A 
BRANCH  74  77
ATOM     77  S   UNL A   1      39.960  35.671  37.190  1.00  0.00     0.127 S 
ATOM     78  O   UNL A   1      39.206  36.008  38.395  1.00  0.00    -0.237 OA
ATOM     79  O   UNL A   1      41.377  35.379  37.410  1.00  0.00    -0.237 OA
ATOM     80  O   UNL A   1      39.696  36.501  36.022  1.00  0.00    -0.744 OA
ENDBRANCH  74  77
ENDBRANCH  46  70
BRANCH  58  81
ATOM     81  C   UNL A   1      44.765  27.907  34.304  1.00  0.00     0.023 A 
ATOM     82  C   UNL A   1      45.906  28.731  34.369  1.00  0.00     0.012 A 
ATOM     83  C   UNL A   1      44.695  26.755  35.111  1.00  0.00     0.148 A 
ATOM     84  C   UNL A   1      46.969  28.403  35.209  1.00  0.00     0.002 A 
ATOM     85  C   UNL A   1      45.739  26.458  35.978  1.00  0.00     0.091 A 
ATOM     86  F   UNL A   1      43.608  25.975  35.019  1.00  0.00    -0.205 F 
ATOM     87  C   UNL A   1      46.881  27.275  36.022  1.00  0.00     0.022 A 
BRANCH  85  88
ATOM     88  S   UNL A   1      45.676  25.077  37.126  1.00  0.00     0.127 S 
ATOM     89  O   UNL A   1      44.471  25.384  37.896  1.00  0.00    -0.237 OA
ATOM     90  O   UNL A   1      45.550  23.930  36.227  1.00  0.00    -0.237 OA
ATOM     91  O   UNL A   1      46.924  25.122  37.876  1.00  0.00    -0.744 OA
ENDBRANCH  85  88
ENDBRANCH  58  81
ENDBRANCH  32  33
ENDBRANCH  24  27
ENDBRANCH  22  23
ENDBRANCH  21  22
ENDBRANCH   1  21
TORSDOF 17
ENDMDL
MODEL 3
REMARK VINA RESULT:     -10.8      2.714      4.604
REMARK SMILES Cc1cc(N(C)[C@H](C)C(=O)NCCCCNC(=O)c2ccc(-c3c4nc(c(-c5cccc(S(=O)(=O)[O-])c5F)c5ccc([nH]5)c(-c5cccc(S(=O)(=O)[O-])c5F)c5nc(c(-c6cccc(S(=O)(=O)[O-])c6F)c6ccc3[nH]6)C=C5)C=C4)cc2)ncc1[N+](=O)[O-]
REMARK SMILES IDX 13 1 12 2 11 3 9 4 10 5 7 7 8 8 5 9 6 10 4 11 1 12 2 13 3 14
REMARK SMILES IDX 84 15 83 16 82 17 85 18 86 19 87 20 14 21 15 22 16 23 17 24
REMARK SMILES IDX 18 26 19 27 20 28 81 29 21 30 80 31 22 32 23 33 24 34 74 35
REMARK SMILES IDX 25 36 79 37 73 38 75 39 26 40 78 41 72 42 71 43 27 45 59 46
REMARK SMILES IDX 39 47 58 48 40 49 43 50 57 51 76 52 41 53 42 54 56 56 77 57
REMARK SMILES IDX 44 58 28 59 29 60 37 61 30 62 32 63 38 64 31 65 33 66 34 67
REMARK SMILES IDX 35 68 36 69 60 70 61 71 69 72 62 73 64 74 70 75 63 76 65 77
REMARK SMILES IDX 66 78 67 79 68 80 45 81 46 82 54 83 47 84 49 85 55 86 48 87
REMARK SMILES IDX 50 88 51 89 52 90 53 91
REMARK H PARENT 11 6 16 25 75 44 43 55
REMARK Flexibility Score: inf
ROOT
ATOM      1  C   UNL A   1      31.712  27.451  26.599  1.00  0.00     0.023 C 
ENDROOT
BRANCH   1   2
ATOM      2  C   UNL A   1      30.687  26.666  25.788  1.00  0.00     0.116 C 
BRANCH   2   3
ATOM      3  N   UNL A   1      30.405  27.273  24.502  1.00  0.00    -0.354 N 
ATOM      4  C   UNL A   1      30.912  27.017  23.261  1.00  0.00     0.242 C 
ATOM      5  O   UNL A   1      30.302  27.526  22.312  1.00  0.00    -0.273 OA
ATOM      6  H   UNL A   1      29.735  27.993  24.530  1.00  0.00     0.163 HD
BRANCH   4   7
ATOM      7  C   UNL A   1      32.170  26.155  23.002  1.00  0.00     0.169 C 
ATOM      8  C   UNL A   1      33.465  26.886  23.368  1.00  0.00     0.042 C 
BRANCH   7   9
ATOM      9  N   UNL A   1      32.132  24.762  23.540  1.00  0.00    -0.348 N 
ATOM     10  C   UNL A   1      31.028  23.862  23.255  1.00  0.00     0.146 C 
BRANCH   9  11
ATOM     11  C   UNL A   1      33.313  24.250  24.072  1.00  0.00     0.129 A 
ATOM     12  C   UNL A   1      36.676  23.016  22.812  1.00  0.00     0.052 C 
ATOM     13  C   UNL A   1      35.607  23.408  23.790  1.00  0.00     0.032 A 
ATOM     14  C   UNL A   1      34.357  23.786  23.260  1.00  0.00     0.057 A 
ATOM     15  C   UNL A   1      35.738  23.434  25.179  1.00  0.00     0.290 A 
ATOM     16  C   UNL A   1      34.658  23.845  25.941  1.00  0.00     0.199 A 
ATOM     17  N   UNL A   1      33.471  24.235  25.413  1.00  0.00    -0.232 NA
BRANCH  15  18
ATOM     18  N   UNL A   1      36.945  23.041  25.887  1.00  0.00     0.064 N 
ATOM     19  O   UNL A   1      37.126  21.829  26.076  1.00  0.00    -0.258 OA
ATOM     20  O   UNL A   1      37.736  23.931  26.229  1.00  0.00    -0.258 OA
ENDBRANCH  15  18
ENDBRANCH   9  11
ENDBRANCH   7   9
ENDBRANCH   4   7
ENDBRANCH   2   3
ENDBRANCH   1   2
BRANCH   1  21
ATOM     21  C   UNL A   1      31.433  28.952  26.713  1.00  0.00     0.023 C 
BRANCH  21  22
ATOM     22  C   UNL A   1      32.567  29.877  26.277  1.00  0.00     0.116 C 
BRANCH  22  23
ATOM     23  N   UNL A   1      32.348  31.273  26.638  1.00  0.00    -0.352 N 
ATOM     24  C   UNL A   1      33.174  32.138  27.322  1.00  0.00     0.251 C 
ATOM     25  H   UNL A   1      31.484  31.652  26.352  1.00  0.00     0.163 HD
ATOM     26  O   UNL A   1      32.787  33.260  27.618  1.00  0.00    -0.269 OA
BRANCH  24  27
ATOM     27  C   UNL A   1      34.517  31.677  27.727  1.00  0.00     0.039 A 
ATOM     28  C   UNL A   1      35.528  32.624  27.914  1.00  0.00     0.014 A 
ATOM     29  C   UNL A   1      34.747  30.327  28.002  1.00  0.00     0.014 A 
ATOM     30  C   UNL A   1      36.741  32.229  28.481  1.00  0.00     0.010 A 
ATOM     31  C   UNL A   1      35.930  29.950  28.628  1.00  0.00     0.010 A 
ATOM     32  C   UNL A   1      36.928  30.901  28.897  1.00  0.00    -0.014 A 
BRANCH  32  33
ATOM     33  C   UNL A   1      38.122  30.488  29.679  1.00  0.00     0.031 A 
ATOM     34  C   UNL A   1      39.087  29.484  29.116  1.00  0.00     0.074 A 
ATOM     35  C   UNL A   1      38.263  30.925  30.947  1.00  0.00     0.049 A 
ATOM     36  N   UNL A   1      40.112  28.916  29.693  1.00  0.00    -0.248 NA
ATOM     37  C   UNL A   1      38.851  29.041  27.733  1.00  0.00     0.031 C 
ATOM     38  C   UNL A   1      37.352  31.844  31.633  1.00  0.00     0.029 A 
ATOM     39  N   UNL A   1      39.207  30.625  31.898  1.00  0.00    -0.354 N 
ATOM     40  C   UNL A   1      40.624  28.022  28.761  1.00  0.00     0.074 A 
ATOM     41  C   UNL A   1      39.777  28.102  27.590  1.00  0.00     0.031 C 
ATOM     42  C   UNL A   1      37.781  32.035  32.890  1.00  0.00     0.029 A 
ATOM     43  C   UNL A   1      38.975  31.226  33.115  1.00  0.00     0.049 A 
ATOM     44  H   UNL A   1      39.977  30.037  31.727  1.00  0.00     0.167 HD
ATOM     45  C   UNL A   1      41.718  27.229  28.858  1.00  0.00     0.034 A 
ATOM     46  C   UNL A   1      39.640  31.129  34.283  1.00  0.00     0.034 A 
ATOM     47  C   UNL A   1      42.583  27.185  30.004  1.00  0.00     0.049 A 
ATOM     48  C   UNL A   1      40.861  30.252  34.357  1.00  0.00     0.074 A 
ATOM     49  C   UNL A   1      43.766  26.484  30.163  1.00  0.00     0.029 A 
ATOM     50  N   UNL A   1      42.359  27.866  31.192  1.00  0.00    -0.354 N 
ATOM     51  N   UNL A   1      41.420  29.535  33.414  1.00  0.00    -0.248 NA
ATOM     52  C   UNL A   1      41.558  30.192  35.651  1.00  0.00     0.031 C 
ATOM     53  C   UNL A   1      44.250  26.731  31.453  1.00  0.00     0.029 A 
ATOM     54  C   UNL A   1      43.375  27.594  32.092  1.00  0.00     0.049 A 
ATOM     55  H   UNL A   1      41.591  28.455  31.368  1.00  0.00     0.167 HD
ATOM     56  C   UNL A   1      42.549  28.962  33.987  1.00  0.00     0.074 A 
ATOM     57  C   UNL A   1      42.606  29.432  35.356  1.00  0.00     0.031 C 
ATOM     58  C   UNL A   1      43.448  28.111  33.435  1.00  0.00     0.034 A 
BRANCH  45  59
ATOM     59  C   UNL A   1      42.075  26.392  27.658  1.00  0.00     0.023 A 
ATOM     60  C   UNL A   1      42.732  26.999  26.567  1.00  0.00     0.012 A 
ATOM     61  C   UNL A   1      41.806  25.011  27.622  1.00  0.00     0.148 A 
ATOM     62  C   UNL A   1      43.083  26.251  25.445  1.00  0.00     0.002 A 
ATOM     63  C   UNL A   1      42.195  24.264  26.515  1.00  0.00     0.091 A 
ATOM     64  F   UNL A   1      41.157  24.456  28.656  1.00  0.00    -0.205 F 
ATOM     65  C   UNL A   1      42.824  24.884  25.423  1.00  0.00     0.022 A 
BRANCH  63  66
ATOM     66  S   UNL A   1      41.965  22.485  26.426  1.00  0.00     0.127 S 
ATOM     67  O   UNL A   1      42.559  22.047  27.688  1.00  0.00    -0.237 OA
ATOM     68  O   UNL A   1      40.508  22.361  26.363  1.00  0.00    -0.237 OA
ATOM     69  O   UNL A   1      42.659  22.056  25.220  1.00  0.00    -0.744 OA
ENDBRANCH  63  66
ENDBRANCH  45  59
BRANCH  46  70
ATOM     70  C   UNL A   1      39.207  31.941  35.455  1.00  0.00     0.023 A 
ATOM     71  C   UNL A   1      38.350  31.360  36.408  1.00  0.00     0.012 A 
ATOM     72  C   UNL A   1      39.665  33.258  35.653  1.00  0.00     0.148 A 
ATOM     73  C   UNL A   1      37.936  32.082  37.528  1.00  0.00     0.002 A 
ATOM     74  C   UNL A   1      39.291  33.954  36.798  1.00  0.00     0.091 A 
ATOM     75  F   UNL A   1      40.468  33.798  34.727  1.00  0.00    -0.205 F 
ATOM     76  C   UNL A   1      38.415  33.374  37.728  1.00  0.00     0.022 A 
BRANCH  74  77
ATOM     77  S   UNL A   1      39.964  35.570  37.204  1.00  0.00     0.127 S 
ATOM     78  O   UNL A   1      39.303  35.859  38.475  1.00  0.00    -0.237 OA
ATOM     79  O   UNL A   1      41.396  35.287  37.303  1.00  0.00    -0.237 OA
ATOM     80  O   UNL A   1      39.602  36.434  36.088  1.00  0.00    -0.744 OA
ENDBRANCH  74  77
ENDBRANCH  46  70
BRANCH  58  81
ATOM     81  C   UNL A   1      44.588  27.642  34.298  1.00  0.00     0.023 A 
ATOM     82  C   UNL A   1      45.731  28.454  34.439  1.00  0.00     0.012 A 
ATOM     83  C   UNL A   1      44.492  26.446  35.037  1.00  0.00     0.148 A 
ATOM     84  C   UNL A   1      46.770  28.072  35.287  1.00  0.00     0.002 A 
ATOM     85  C   UNL A   1      45.511  26.094  35.912  1.00  0.00     0.091 A 
ATOM     86  F   UNL A   1      43.404  25.680  34.872  1.00  0.00    -0.205 F 
ATOM     87  C   UNL A   1      46.655  26.900  36.032  1.00  0.00     0.022 A 
BRANCH  85  88
ATOM     88  S   UNL A   1      45.412  24.651  36.979  1.00  0.00     0.127 S 
ATOM     89  O   UNL A   1      44.709  23.696  36.123  1.00  0.00    -0.237 OA
ATOM     90  O   UNL A   1      46.822  24.339  37.211  1.00  0.00    -0.237 OA
ATOM     91  O   UNL A   1      44.684  25.079  38.165  1.00  0.00    -0.744 OA
ENDBRANCH  85  88
ENDBRANCH  58  81
ENDBRANCH  32  33
ENDBRANCH  24  27
ENDBRANCH  22  23
ENDBRANCH  21  22
ENDBRANCH   1  21
TORSDOF 17
ENDMDL
