MODEL 1
REMARK VINA RESULT:     -12.7      0.000      0.000
REMARK SMILES Cc1cc(C(=O)N[C@H](C(=O)NCCCCNC(=O)c2ccc(-c3c4nc(c(-c5cccc(S(=O)(=O)[O-])c5F)c5ccc([nH]5)c(-c5cccc(S(=O)(=O)[O-])c5F)c5nc(c(-c6cccc(S(=O)(=O)[O-])c6F)c6ccc3[nH]6)C=C5)C=C4)cc2)c2c(C)n[nH]c2C)c2ccc(C)c(C)c2n1
REMARK SMILES IDX 14 1 13 2 12 3 11 4 9 5 10 6 8 8 7 9 5 10 6 11 4 13 1 14
REMARK SMILES IDX 2 15 3 16 97 17 96 18 89 19 94 20 90 21 92 22 95 23 91 24
REMARK SMILES IDX 93 25 82 26 83 27 87 28 84 29 85 30 86 31 88 32 15 34 16 35
REMARK SMILES IDX 17 36 18 38 19 39 20 40 81 41 21 42 80 43 22 44 23 45 24 46
REMARK SMILES IDX 74 47 25 48 79 49 73 50 75 51 26 52 78 53 72 54 71 55 27 57
REMARK SMILES IDX 59 58 39 59 58 60 40 61 43 62 57 63 76 64 41 65 42 66 56 68
REMARK SMILES IDX 77 69 44 70 28 71 29 72 37 73 30 74 32 75 38 76 31 77 33 78
REMARK SMILES IDX 34 79 35 80 36 81 60 82 61 83 69 84 62 85 64 86 70 87 63 88
REMARK SMILES IDX 65 89 66 90 67 91 68 92 45 93 46 94 54 95 47 96 49 97 55 98
REMARK SMILES IDX 48 99 50 100 51 101 52 102 53 103
REMARK H PARENT 11 7 7 12 86 33 16 37 75 56 43 67
REMARK Flexibility Score: inf
ROOT
ATOM      1  C   UNL A   1      32.617  31.424  27.280  1.00  0.00     0.023 C 
ENDROOT
BRANCH   1   2
ATOM      2  C   UNL A   1      33.331  30.082  27.431  1.00  0.00     0.023 C 
BRANCH   2   3
ATOM      3  C   UNL A   1      33.397  29.267  26.141  1.00  0.00     0.116 C 
BRANCH   3   4
ATOM      4  N   UNL A   1      32.100  29.149  25.497  1.00  0.00    -0.354 N 
ATOM      5  C   UNL A   1      31.550  28.048  24.883  1.00  0.00     0.247 C 
ATOM      6  O   UNL A   1      30.417  28.131  24.404  1.00  0.00    -0.272 OA
ATOM      7  H   UNL A   1      31.544  29.961  25.500  1.00  0.00     0.163 HD
BRANCH   5   8
ATOM      8  C   UNL A   1      32.377  26.739  24.822  1.00  0.00     0.206 C 
BRANCH   8   9
ATOM      9  N   UNL A   1      31.858  25.742  25.751  1.00  0.00    -0.336 N 
ATOM     10  C   UNL A   1      32.211  24.503  26.218  1.00  0.00     0.252 C 
ATOM     11  O   UNL A   1      31.383  24.029  26.999  1.00  0.00    -0.269 OA
ATOM     12  H   UNL A   1      31.015  26.046  26.161  1.00  0.00     0.165 HD
BRANCH  10  13
ATOM     13  C   UNL A   1      33.485  23.733  25.904  1.00  0.00     0.051 A 
ATOM     14  C   UNL A   1      37.236  24.220  26.119  1.00  0.00     0.067 C 
ATOM     15  C   UNL A   1      35.896  23.584  25.888  1.00  0.00     0.039 A 
ATOM     16  C   UNL A   1      34.739  24.316  26.064  1.00  0.00     0.038 A 
ATOM     17  N   UNL A   1      35.873  22.299  25.528  1.00  0.00    -0.253 NA
ATOM     18  C   UNL A   1      34.697  21.689  25.317  1.00  0.00     0.074 A 
ATOM     19  C   UNL A   1      33.453  22.355  25.481  1.00  0.00     0.013 A 
ATOM     20  C   UNL A   1      34.758  20.344  24.917  1.00  0.00    -0.022 A 
ATOM     21  C   UNL A   1      32.295  21.582  25.201  1.00  0.00     0.011 A 
ATOM     22  C   UNL A   1      33.587  19.617  24.633  1.00  0.00    -0.046 A 
ATOM     23  C   UNL A   1      36.127  19.708  24.795  1.00  0.00     0.047 C 
ATOM     24  C   UNL A   1      32.359  20.251  24.786  1.00  0.00     0.004 A 
ATOM     25  C   UNL A   1      33.618  18.186  24.173  1.00  0.00     0.044 C 
ENDBRANCH  10  13
ENDBRANCH   8   9
BRANCH   8  26
ATOM     26  C   UNL A   1      32.401  26.150  23.440  1.00  0.00     0.027 A 
ATOM     27  C   UNL A   1      33.259  26.513  22.351  1.00  0.00     0.065 A 
ATOM     28  C   UNL A   1      31.628  25.116  22.921  1.00  0.00     0.038 A 
ATOM     29  C   UNL A   1      34.321  27.552  22.299  1.00  0.00     0.069 C 
ATOM     30  N   UNL A   1      33.027  25.767  21.265  1.00  0.00    -0.180 NA
ATOM     31  N   UNL A   1      32.047  24.943  21.632  1.00  0.00    -0.282 N 
ATOM     32  C   UNL A   1      30.556  24.261  23.479  1.00  0.00     0.066 C 
ATOM     33  H   UNL A   1      31.660  24.268  21.028  1.00  0.00     0.190 HD
ENDBRANCH   8  26
ENDBRANCH   5   8
ENDBRANCH   3   4
ENDBRANCH   2   3
ENDBRANCH   1   2
BRANCH   1  34
ATOM     34  C   UNL A   1      33.542  32.635  27.241  1.00  0.00     0.116 C 
BRANCH  34  35
ATOM     35  N   UNL A   1      32.910  33.860  27.714  1.00  0.00    -0.352 N 
ATOM     36  C   UNL A   1      33.231  34.568  28.851  1.00  0.00     0.251 C 
ATOM     37  H   UNL A   1      32.179  34.220  27.162  1.00  0.00     0.163 HD
ATOM     38  O   UNL A   1      32.581  35.542  29.197  1.00  0.00    -0.269 OA
BRANCH  36  39
ATOM     39  C   UNL A   1      34.365  34.080  29.658  1.00  0.00     0.039 A 
ATOM     40  C   UNL A   1      34.116  33.186  30.701  1.00  0.00     0.014 A 
ATOM     41  C   UNL A   1      35.670  34.419  29.288  1.00  0.00     0.014 A 
ATOM     42  C   UNL A   1      35.193  32.577  31.345  1.00  0.00     0.010 A 
ATOM     43  C   UNL A   1      36.738  33.776  29.902  1.00  0.00     0.010 A 
ATOM     44  C   UNL A   1      36.506  32.849  30.930  1.00  0.00    -0.014 A 
BRANCH  44  45
ATOM     45  C   UNL A   1      37.665  32.183  31.565  1.00  0.00     0.031 A 
ATOM     46  C   UNL A   1      38.159  32.674  32.893  1.00  0.00     0.074 A 
ATOM     47  C   UNL A   1      38.311  31.195  30.919  1.00  0.00     0.049 A 
ATOM     48  N   UNL A   1      39.205  32.289  33.574  1.00  0.00    -0.248 NA
ATOM     49  C   UNL A   1      37.386  33.753  33.531  1.00  0.00     0.031 C 
ATOM     50  C   UNL A   1      37.948  30.668  29.601  1.00  0.00     0.029 A 
ATOM     51  N   UNL A   1      39.421  30.473  31.274  1.00  0.00    -0.354 N 
ATOM     52  C   UNL A   1      39.228  33.087  34.708  1.00  0.00     0.074 A 
ATOM     53  C   UNL A   1      38.110  34.000  34.612  1.00  0.00     0.031 C 
ATOM     54  C   UNL A   1      38.819  29.703  29.262  1.00  0.00     0.029 A 
ATOM     55  C   UNL A   1      39.809  29.557  30.326  1.00  0.00     0.049 A 
ATOM     56  H   UNL A   1      39.896  30.600  32.127  1.00  0.00     0.167 HD
ATOM     57  C   UNL A   1      40.082  33.040  35.756  1.00  0.00     0.034 A 
ATOM     58  C   UNL A   1      40.844  28.694  30.319  1.00  0.00     0.034 A 
ATOM     59  C   UNL A   1      41.169  32.110  35.869  1.00  0.00     0.049 A 
ATOM     60  C   UNL A   1      41.765  28.641  31.506  1.00  0.00     0.074 A 
ATOM     61  C   UNL A   1      42.079  31.972  36.901  1.00  0.00     0.029 A 
ATOM     62  N   UNL A   1      41.486  31.148  34.923  1.00  0.00    -0.354 N 
ATOM     63  N   UNL A   1      41.727  29.353  32.606  1.00  0.00    -0.248 NA
ATOM     64  C   UNL A   1      42.848  27.648  31.468  1.00  0.00     0.031 C 
ATOM     65  C   UNL A   1      42.940  30.916  36.585  1.00  0.00     0.029 A 
ATOM     66  C   UNL A   1      42.564  30.398  35.355  1.00  0.00     0.049 A 
ATOM     67  H   UNL A   1      41.012  31.019  34.069  1.00  0.00     0.167 HD
ATOM     68  C   UNL A   1      42.763  28.880  33.401  1.00  0.00     0.074 A 
ATOM     69  C   UNL A   1      43.405  27.812  32.663  1.00  0.00     0.031 C 
ATOM     70  C   UNL A   1      43.153  29.303  34.629  1.00  0.00     0.034 A 
BRANCH  57  71
ATOM     71  C   UNL A   1      39.815  33.974  36.900  1.00  0.00     0.023 A 
ATOM     72  C   UNL A   1      40.158  35.334  36.759  1.00  0.00     0.012 A 
ATOM     73  C   UNL A   1      39.207  33.529  38.088  1.00  0.00     0.148 A 
ATOM     74  C   UNL A   1      39.915  36.237  37.790  1.00  0.00     0.002 A 
ATOM     75  C   UNL A   1      38.942  34.442  39.103  1.00  0.00     0.091 A 
ATOM     76  F   UNL A   1      38.915  32.227  38.209  1.00  0.00    -0.205 F 
ATOM     77  C   UNL A   1      39.300  35.794  38.957  1.00  0.00     0.022 A 
BRANCH  75  78
ATOM     78  S   UNL A   1      38.115  33.983  40.628  1.00  0.00     0.127 S 
ATOM     79  O   UNL A   1      36.928  33.293  40.123  1.00  0.00    -0.237 OA
ATOM     80  O   UNL A   1      39.103  33.111  41.265  1.00  0.00    -0.237 OA
ATOM     81  O   UNL A   1      37.857  35.228  41.337  1.00  0.00    -0.744 OA
ENDBRANCH  75  78
ENDBRANCH  57  71
BRANCH  58  82
ATOM     82  C   UNL A   1      40.991  27.749  29.181  1.00  0.00     0.023 A 
ATOM     83  C   UNL A   1      40.203  26.582  29.159  1.00  0.00     0.012 A 
ATOM     84  C   UNL A   1      41.831  28.037  28.088  1.00  0.00     0.148 A 
ATOM     85  C   UNL A   1      40.252  25.713  28.070  1.00  0.00     0.002 A 
ATOM     86  C   UNL A   1      41.848  27.184  26.990  1.00  0.00     0.091 A 
ATOM     87  F   UNL A   1      42.563  29.159  28.132  1.00  0.00    -0.205 F 
ATOM     88  C   UNL A   1      41.067  26.017  26.984  1.00  0.00     0.022 A 
BRANCH  86  89
ATOM     89  S   UNL A   1      42.787  27.536  25.499  1.00  0.00     0.127 S 
ATOM     90  O   UNL A   1      42.126  28.743  25.007  1.00  0.00    -0.237 OA
ATOM     91  O   UNL A   1      44.130  27.744  26.040  1.00  0.00    -0.237 OA
ATOM     92  O   UNL A   1      42.642  26.361  24.652  1.00  0.00    -0.744 OA
ENDBRANCH  86  89
ENDBRANCH  58  82
BRANCH  70  93
ATOM     93  C   UNL A   1      44.315  28.606  35.278  1.00  0.00     0.023 A 
ATOM     94  C   UNL A   1      45.624  29.044  35.000  1.00  0.00     0.012 A 
ATOM     95  C   UNL A   1      44.104  27.612  36.254  1.00  0.00     0.148 A 
ATOM     96  C   UNL A   1      46.709  28.497  35.682  1.00  0.00     0.002 A 
ATOM     97  C   UNL A   1      45.188  27.094  36.951  1.00  0.00     0.091 A 
ATOM     98  F   UNL A   1      42.848  27.203  36.487  1.00  0.00    -0.205 F 
ATOM     99  C   UNL A   1      46.491  27.534  36.664  1.00  0.00     0.022 A 
BRANCH  97 100
ATOM    100  S   UNL A   1      44.998  25.906  38.284  1.00  0.00     0.127 S 
ATOM    101  O   UNL A   1      46.386  25.691  38.690  1.00  0.00    -0.237 OA
ATOM    102  O   UNL A   1      44.187  26.649  39.250  1.00  0.00    -0.237 OA
ATOM    103  O   UNL A   1      44.332  24.749  37.700  1.00  0.00    -0.744 OA
ENDBRANCH  97 100
ENDBRANCH  70  93
ENDBRANCH  44  45
ENDBRANCH  36  39
ENDBRANCH  34  35
ENDBRANCH   1  34
TORSDOF 17
ENDMDL
MODEL 2
REMARK VINA RESULT:     -12.6      5.558      9.976
REMARK SMILES Cc1cc(C(=O)N[C@H](C(=O)NCCCCNC(=O)c2ccc(-c3c4nc(c(-c5cccc(S(=O)(=O)[O-])c5F)c5ccc([nH]5)c(-c5cccc(S(=O)(=O)[O-])c5F)c5nc(c(-c6cccc(S(=O)(=O)[O-])c6F)c6ccc3[nH]6)C=C5)C=C4)cc2)c2c(C)n[nH]c2C)c2ccc(C)c(C)c2n1
REMARK SMILES IDX 14 1 13 2 12 3 11 4 9 5 10 6 8 8 7 9 5 10 6 11 4 13 1 14
REMARK SMILES IDX 2 15 3 16 97 17 96 18 89 19 94 20 90 21 92 22 95 23 91 24
REMARK SMILES IDX 93 25 82 26 83 27 87 28 84 29 85 30 86 31 88 32 15 34 16 35
REMARK SMILES IDX 17 36 18 38 19 39 20 40 81 41 21 42 80 43 22 44 23 45 24 46
REMARK SMILES IDX 74 47 25 48 79 49 73 50 75 51 26 52 78 53 72 54 71 55 27 57
REMARK SMILES IDX 59 58 39 59 58 60 40 61 43 62 57 63 76 64 41 65 42 66 56 68
REMARK SMILES IDX 77 69 44 70 28 71 29 72 37 73 30 74 32 75 38 76 31 77 33 78
REMARK SMILES IDX 34 79 35 80 36 81 60 82 61 83 69 84 62 85 64 86 70 87 63 88
REMARK SMILES IDX 65 89 66 90 67 91 68 92 45 93 46 94 54 95 47 96 49 97 55 98
REMARK SMILES IDX 48 99 50 100 51 101 52 102 53 103
REMARK H PARENT 11 7 7 12 86 33 16 37 75 56 43 67
REMARK Flexibility Score: inf
ROOT
ATOM      1  C   UNL A   1      38.360  20.681  25.094  1.00  0.00     0.023 C 
ENDROOT
BRANCH   1   2
ATOM      2  C   UNL A   1      37.369  19.529  25.257  1.00  0.00     0.023 C 
BRANCH   2   3
ATOM      3  C   UNL A   1      36.143  19.636  24.353  1.00  0.00     0.116 C 
BRANCH   3   4
ATOM      4  N   UNL A   1      34.919  19.257  25.038  1.00  0.00    -0.354 N 
ATOM      5  C   UNL A   1      33.747  19.969  25.147  1.00  0.00     0.247 C 
ATOM      6  O   UNL A   1      32.798  19.474  25.757  1.00  0.00    -0.272 OA
ATOM      7  H   UNL A   1      34.929  18.379  25.482  1.00  0.00     0.163 HD
BRANCH   5   8
ATOM      8  C   UNL A   1      33.665  21.371  24.491  1.00  0.00     0.206 C 
BRANCH   8   9
ATOM      9  N   UNL A   1      32.333  21.946  24.641  1.00  0.00    -0.336 N 
ATOM     10  C   UNL A   1      31.692  23.122  24.347  1.00  0.00     0.252 C 
ATOM     11  O   UNL A   1      30.520  23.140  24.730  1.00  0.00    -0.269 OA
ATOM     12  H   UNL A   1      31.720  21.310  25.076  1.00  0.00     0.165 HD
BRANCH  10  13
ATOM     13  C   UNL A   1      32.262  24.314  23.593  1.00  0.00     0.051 A 
ATOM     14  C   UNL A   1      32.652  25.503  20.017  1.00  0.00     0.067 C 
ATOM     15  C   UNL A   1      32.693  25.472  21.517  1.00  0.00     0.039 A 
ATOM     16  C   UNL A   1      32.280  24.347  22.201  1.00  0.00     0.038 A 
ATOM     17  N   UNL A   1      33.120  26.567  22.149  1.00  0.00    -0.253 NA
ATOM     18  C   UNL A   1      33.167  26.586  23.489  1.00  0.00     0.074 A 
ATOM     19  C   UNL A   1      32.756  25.481  24.281  1.00  0.00     0.013 A 
ATOM     20  C   UNL A   1      33.653  27.765  24.078  1.00  0.00    -0.022 A 
ATOM     21  C   UNL A   1      32.884  25.643  25.686  1.00  0.00     0.011 A 
ATOM     22  C   UNL A   1      33.779  27.881  25.475  1.00  0.00    -0.046 A 
ATOM     23  C   UNL A   1      34.041  28.902  23.156  1.00  0.00     0.047 C 
ATOM     24  C   UNL A   1      33.384  26.810  26.268  1.00  0.00     0.004 A 
ATOM     25  C   UNL A   1      34.324  29.117  26.135  1.00  0.00     0.044 C 
ENDBRANCH  10  13
ENDBRANCH   8   9
BRANCH   8  26
ATOM     26  C   UNL A   1      34.674  22.324  25.064  1.00  0.00     0.027 A 
ATOM     27  C   UNL A   1      34.832  22.707  26.436  1.00  0.00     0.065 A 
ATOM     28  C   UNL A   1      35.687  23.017  24.409  1.00  0.00     0.038 A 
ATOM     29  C   UNL A   1      34.049  22.281  27.626  1.00  0.00     0.069 C 
ATOM     30  N   UNL A   1      35.849  23.559  26.600  1.00  0.00    -0.180 NA
ATOM     31  N   UNL A   1      36.341  23.730  25.375  1.00  0.00    -0.282 N 
ATOM     32  C   UNL A   1      36.130  23.090  22.998  1.00  0.00     0.066 C 
ATOM     33  H   UNL A   1      37.109  24.316  25.181  1.00  0.00     0.190 HD
ENDBRANCH   8  26
ENDBRANCH   5   8
ENDBRANCH   3   4
ENDBRANCH   2   3
ENDBRANCH   1   2
BRANCH   1  34
ATOM     34  C   UNL A   1      39.503  20.684  26.105  1.00  0.00     0.116 C 
BRANCH  34  35
ATOM     35  N   UNL A   1      40.337  19.492  26.037  1.00  0.00    -0.352 N 
ATOM     36  C   UNL A   1      41.710  19.439  26.131  1.00  0.00     0.251 C 
ATOM     37  H   UNL A   1      39.871  18.634  25.911  1.00  0.00     0.163 HD
ATOM     38  O   UNL A   1      42.318  18.391  25.979  1.00  0.00    -0.269 OA
BRANCH  36  39
ATOM     39  C   UNL A   1      42.423  20.706  26.383  1.00  0.00     0.039 A 
ATOM     40  C   UNL A   1      42.779  21.507  25.296  1.00  0.00     0.014 A 
ATOM     41  C   UNL A   1      42.616  21.139  27.697  1.00  0.00     0.014 A 
ATOM     42  C   UNL A   1      43.281  22.787  25.531  1.00  0.00     0.010 A 
ATOM     43  C   UNL A   1      43.074  22.431  27.927  1.00  0.00     0.010 A 
ATOM     44  C   UNL A   1      43.405  23.263  26.846  1.00  0.00    -0.014 A 
BRANCH  44  45
ATOM     45  C   UNL A   1      43.893  24.632  27.123  1.00  0.00     0.031 A 
ATOM     46  C   UNL A   1      42.931  25.672  27.614  1.00  0.00     0.074 A 
ATOM     47  C   UNL A   1      45.174  24.955  26.863  1.00  0.00     0.049 A 
ATOM     48  N   UNL A   1      43.136  26.944  27.830  1.00  0.00    -0.248 NA
ATOM     49  C   UNL A   1      41.552  25.227  27.878  1.00  0.00     0.031 C 
ATOM     50  C   UNL A   1      46.188  24.037  26.339  1.00  0.00     0.029 A 
ATOM     51  N   UNL A   1      45.836  26.150  26.986  1.00  0.00    -0.354 N 
ATOM     52  C   UNL A   1      41.913  27.456  28.237  1.00  0.00     0.074 A 
ATOM     53  C   UNL A   1      40.962  26.366  28.209  1.00  0.00     0.031 C 
ATOM     54  C   UNL A   1      47.345  24.703  26.189  1.00  0.00     0.029 A 
ATOM     55  C   UNL A   1      47.150  26.094  26.588  1.00  0.00     0.049 A 
ATOM     56  H   UNL A   1      45.409  26.969  27.326  1.00  0.00     0.167 HD
ATOM     57  C   UNL A   1      41.615  28.713  28.636  1.00  0.00     0.034 A 
ATOM     58  C   UNL A   1      48.091  27.058  26.553  1.00  0.00     0.034 A 
ATOM     59  C   UNL A   1      42.566  29.786  28.699  1.00  0.00     0.049 A 
ATOM     60  C   UNL A   1      47.745  28.442  27.025  1.00  0.00     0.074 A 
ATOM     61  C   UNL A   1      42.364  31.092  29.107  1.00  0.00     0.029 A 
ATOM     62  N   UNL A   1      43.905  29.674  28.358  1.00  0.00    -0.354 N 
ATOM     63  N   UNL A   1      46.600  28.891  27.479  1.00  0.00    -0.248 NA
ATOM     64  C   UNL A   1      48.822  29.442  27.013  1.00  0.00     0.031 C 
ATOM     65  C   UNL A   1      43.586  31.767  29.025  1.00  0.00     0.029 A 
ATOM     66  C   UNL A   1      44.548  30.880  28.565  1.00  0.00     0.049 A 
ATOM     67  H   UNL A   1      44.334  28.855  28.018  1.00  0.00     0.167 HD
ATOM     68  C   UNL A   1      46.823  30.217  27.829  1.00  0.00     0.074 A 
ATOM     69  C   UNL A   1      48.215  30.497  27.545  1.00  0.00     0.031 C 
ATOM     70  C   UNL A   1      45.947  31.123  28.329  1.00  0.00     0.034 A 
BRANCH  57  71
ATOM     71  C   UNL A   1      40.215  28.968  29.112  1.00  0.00     0.023 A 
ATOM     72  C   UNL A   1      39.228  29.311  28.165  1.00  0.00     0.012 A 
ATOM     73  C   UNL A   1      39.863  28.841  30.469  1.00  0.00     0.148 A 
ATOM     74  C   UNL A   1      37.914  29.542  28.563  1.00  0.00     0.002 A 
ATOM     75  C   UNL A   1      38.543  29.045  30.854  1.00  0.00     0.091 A 
ATOM     76  F   UNL A   1      40.824  28.540  31.353  1.00  0.00    -0.205 F 
ATOM     77  C   UNL A   1      37.570  29.401  29.904  1.00  0.00     0.022 A 
BRANCH  75  78
ATOM     78  S   UNL A   1      37.986  28.847  32.549  1.00  0.00     0.127 S 
ATOM     79  O   UNL A   1      38.905  29.731  33.266  1.00  0.00    -0.237 OA
ATOM     80  O   UNL A   1      36.606  29.330  32.479  1.00  0.00    -0.237 OA
ATOM     81  O   UNL A   1      38.120  27.430  32.853  1.00  0.00    -0.744 OA
ENDBRANCH  75  78
ENDBRANCH  57  71
BRANCH  58  82
ATOM     82  C   UNL A   1      49.476  26.704  26.140  1.00  0.00     0.023 A 
ATOM     83  C   UNL A   1      50.228  25.838  26.958  1.00  0.00     0.012 A 
ATOM     84  C   UNL A   1      50.014  27.139  24.915  1.00  0.00     0.148 A 
ATOM     85  C   UNL A   1      51.498  25.417  26.566  1.00  0.00     0.002 A 
ATOM     86  C   UNL A   1      51.265  26.688  24.513  1.00  0.00     0.091 A 
ATOM     87  F   UNL A   1      49.271  27.955  24.153  1.00  0.00    -0.205 F 
ATOM     88  C   UNL A   1      52.012  25.834  25.341  1.00  0.00     0.022 A 
BRANCH  86  89
ATOM     89  S   UNL A   1      51.976  27.085  22.912  1.00  0.00     0.127 S 
ATOM     90  O   UNL A   1      50.982  26.527  21.996  1.00  0.00    -0.237 OA
ATOM     91  O   UNL A   1      52.017  28.546  22.963  1.00  0.00    -0.237 OA
ATOM     92  O   UNL A   1      53.278  26.435  22.883  1.00  0.00    -0.744 OA
ENDBRANCH  86  89
ENDBRANCH  58  82
BRANCH  70  93
ATOM     93  C   UNL A   1      46.456  32.504  28.629  1.00  0.00     0.023 A 
ATOM     94  C   UNL A   1      46.953  32.791  29.915  1.00  0.00     0.012 A 
ATOM     95  C   UNL A   1      46.563  33.469  27.608  1.00  0.00     0.148 A 
ATOM     96  C   UNL A   1      47.544  34.024  30.183  1.00  0.00     0.002 A 
ATOM     97  C   UNL A   1      47.181  34.684  27.875  1.00  0.00     0.091 A 
ATOM     98  F   UNL A   1      46.069  33.174  26.397  1.00  0.00    -0.205 F 
ATOM     99  C   UNL A   1      47.669  34.964  29.162  1.00  0.00     0.022 A 
BRANCH  97 100
ATOM    100  S   UNL A   1      47.456  35.925  26.606  1.00  0.00     0.127 S 
ATOM    101  O   UNL A   1      46.089  36.339  26.295  1.00  0.00    -0.237 OA
ATOM    102  O   UNL A   1      48.251  36.927  27.318  1.00  0.00    -0.237 OA
ATOM    103  O   UNL A   1      48.164  35.247  25.528  1.00  0.00    -0.744 OA
ENDBRANCH  97 100
ENDBRANCH  70  93
ENDBRANCH  44  45
ENDBRANCH  36  39
ENDBRANCH  34  35
ENDBRANCH   1  34
TORSDOF 17
ENDMDL
MODEL 3
REMARK VINA RESULT:     -12.3      5.800     11.139
REMARK SMILES Cc1cc(C(=O)N[C@H](C(=O)NCCCCNC(=O)c2ccc(-c3c4nc(c(-c5cccc(S(=O)(=O)[O-])c5F)c5ccc([nH]5)c(-c5cccc(S(=O)(=O)[O-])c5F)c5nc(c(-c6cccc(S(=O)(=O)[O-])c6F)c6ccc3[nH]6)C=C5)C=C4)cc2)c2c(C)n[nH]c2C)c2ccc(C)c(C)c2n1
REMARK SMILES IDX 14 1 13 2 12 3 11 4 9 5 10 6 8 8 7 9 5 10 6 11 4 13 1 14
REMARK SMILES IDX 2 15 3 16 97 17 96 18 89 19 94 20 90 21 92 22 95 23 91 24
REMARK SMILES IDX 93 25 82 26 83 27 87 28 84 29 85 30 86 31 88 32 15 34 16 35
REMARK SMILES IDX 17 36 18 38 19 39 20 40 81 41 21 42 80 43 22 44 23 45 24 46
REMARK SMILES IDX 74 47 25 48 79 49 73 50 75 51 26 52 78 53 72 54 71 55 27 57
REMARK SMILES IDX 59 58 39 59 58 60 40 61 43 62 57 63 76 64 41 65 42 66 56 68
REMARK SMILES IDX 77 69 44 70 28 71 29 72 37 73 30 74 32 75 38 76 31 77 33 78
REMARK SMILES IDX 34 79 35 80 36 81 60 82 61 83 69 84 62 85 64 86 70 87 63 88
REMARK SMILES IDX 65 89 66 90 67 91 68 92 45 93 46 94 54 95 47 96 49 97 55 98
REMARK SMILES IDX 48 99 50 100 51 101 52 102 53 103
REMARK H PARENT 11 7 7 12 86 33 16 37 75 56 43 67
REMARK Flexibility Score: inf
ROOT
ATOM      1  C   UNL A   1      38.262  19.809  24.624  1.00  0.00     0.023 C 
ENDROOT
BRANCH   1   2
ATOM      2  C   UNL A   1      36.872  19.186  24.736  1.00  0.00     0.023 C 
BRANCH   2   3
ATOM      3  C   UNL A   1      35.758  20.199  24.992  1.00  0.00     0.116 C 
BRANCH   3   4
ATOM      4  N   UNL A   1      34.478  19.558  25.242  1.00  0.00    -0.354 N 
ATOM      5  C   UNL A   1      33.220  20.109  25.169  1.00  0.00     0.247 C 
ATOM      6  O   UNL A   1      32.239  19.400  25.399  1.00  0.00    -0.272 OA
ATOM      7  H   UNL A   1      34.515  18.608  25.496  1.00  0.00     0.163 HD
BRANCH   5   8
ATOM      8  C   UNL A   1      33.084  21.607  24.795  1.00  0.00     0.206 C 
BRANCH   8   9
ATOM      9  N   UNL A   1      31.787  22.137  25.199  1.00  0.00    -0.336 N 
ATOM     10  C   UNL A   1      31.098  23.319  25.114  1.00  0.00     0.252 C 
ATOM     11  O   UNL A   1      29.999  23.276  25.672  1.00  0.00    -0.269 OA
ATOM     12  H   UNL A   1      31.254  21.451  25.663  1.00  0.00     0.165 HD
BRANCH  10  13
ATOM     13  C   UNL A   1      31.533  24.586  24.393  1.00  0.00     0.051 A 
ATOM     14  C   UNL A   1      32.361  25.721  20.875  1.00  0.00     0.067 C 
ATOM     15  C   UNL A   1      32.107  25.747  22.354  1.00  0.00     0.039 A 
ATOM     16  C   UNL A   1      31.821  24.579  23.031  1.00  0.00     0.038 A 
ATOM     17  N   UNL A   1      32.152  26.929  22.971  1.00  0.00    -0.253 NA
ATOM     18  C   UNL A   1      31.925  26.999  24.290  1.00  0.00     0.074 A 
ATOM     19  C   UNL A   1      31.615  25.855  25.073  1.00  0.00     0.013 A 
ATOM     20  C   UNL A   1      32.015  28.277  24.870  1.00  0.00    -0.022 A 
ATOM     21  C   UNL A   1      31.421  26.086  26.460  1.00  0.00     0.011 A 
ATOM     22  C   UNL A   1      31.832  28.461  26.253  1.00  0.00    -0.046 A 
ATOM     23  C   UNL A   1      32.323  29.443  23.955  1.00  0.00     0.047 C 
ATOM     24  C   UNL A   1      31.529  27.353  27.036  1.00  0.00     0.004 A 
ATOM     25  C   UNL A   1      31.952  29.808  26.909  1.00  0.00     0.044 C 
ENDBRANCH  10  13
ENDBRANCH   8   9
BRANCH   8  26
ATOM     26  C   UNL A   1      34.166  22.445  25.415  1.00  0.00     0.027 A 
ATOM     27  C   UNL A   1      35.171  23.211  24.739  1.00  0.00     0.065 A 
ATOM     28  C   UNL A   1      34.416  22.687  26.761  1.00  0.00     0.038 A 
ATOM     29  C   UNL A   1      35.411  23.366  23.280  1.00  0.00     0.069 C 
ATOM     30  N   UNL A   1      35.964  23.859  25.599  1.00  0.00    -0.180 NA
ATOM     31  N   UNL A   1      35.493  23.528  26.800  1.00  0.00    -0.282 N 
ATOM     32  C   UNL A   1      33.770  22.243  28.017  1.00  0.00     0.066 C 
ATOM     33  H   UNL A   1      35.885  23.860  27.640  1.00  0.00     0.190 HD
ENDBRANCH   8  26
ENDBRANCH   5   8
ENDBRANCH   3   4
ENDBRANCH   2   3
ENDBRANCH   1   2
BRANCH   1  34
ATOM     34  C   UNL A   1      38.986  19.992  25.954  1.00  0.00     0.116 C 
BRANCH  34  35
ATOM     35  N   UNL A   1      40.209  19.208  26.059  1.00  0.00    -0.352 N 
ATOM     36  C   UNL A   1      41.464  19.675  26.382  1.00  0.00     0.251 C 
ATOM     37  H   UNL A   1      40.130  18.242  25.882  1.00  0.00     0.163 HD
ATOM     38  O   UNL A   1      42.439  18.941  26.362  1.00  0.00    -0.269 OA
BRANCH  36  39
ATOM     39  C   UNL A   1      41.592  21.107  26.712  1.00  0.00     0.039 A 
ATOM     40  C   UNL A   1      41.881  21.472  28.028  1.00  0.00     0.014 A 
ATOM     41  C   UNL A   1      41.548  22.057  25.689  1.00  0.00     0.014 A 
ATOM     42  C   UNL A   1      42.189  22.803  28.312  1.00  0.00     0.010 A 
ATOM     43  C   UNL A   1      41.899  23.372  25.967  1.00  0.00     0.010 A 
ATOM     44  C   UNL A   1      42.225  23.752  27.278  1.00  0.00    -0.014 A 
BRANCH  44  45
ATOM     45  C   UNL A   1      42.592  25.161  27.543  1.00  0.00     0.031 A 
ATOM     46  C   UNL A   1      43.974  25.637  27.210  1.00  0.00     0.074 A 
ATOM     47  C   UNL A   1      41.713  25.982  28.146  1.00  0.00     0.049 A 
ATOM     48  N   UNL A   1      44.520  26.801  27.443  1.00  0.00    -0.248 NA
ATOM     49  C   UNL A   1      44.866  24.672  26.545  1.00  0.00     0.031 C 
ATOM     50  C   UNL A   1      40.356  25.614  28.559  1.00  0.00     0.029 A 
ATOM     51  N   UNL A   1      41.837  27.291  28.537  1.00  0.00    -0.354 N 
ATOM     52  C   UNL A   1      45.821  26.705  26.972  1.00  0.00     0.074 A 
ATOM     53  C   UNL A   1      45.995  25.360  26.467  1.00  0.00     0.031 C 
ATOM     54  C   UNL A   1      39.773  26.675  29.140  1.00  0.00     0.029 A 
ATOM     55  C   UNL A   1      40.718  27.789  29.159  1.00  0.00     0.049 A 
ATOM     56  H   UNL A   1      42.652  27.823  28.385  1.00  0.00     0.167 HD
ATOM     57  C   UNL A   1      46.776  27.661  26.928  1.00  0.00     0.034 A 
ATOM     58  C   UNL A   1      40.480  29.008  29.681  1.00  0.00     0.034 A 
ATOM     59  C   UNL A   1      46.592  29.006  27.396  1.00  0.00     0.049 A 
ATOM     60  C   UNL A   1      41.547  30.064  29.598  1.00  0.00     0.074 A 
ATOM     61  C   UNL A   1      47.495  30.053  27.378  1.00  0.00     0.029 A 
ATOM     62  N   UNL A   1      45.420  29.494  27.952  1.00  0.00    -0.354 N 
ATOM     63  N   UNL A   1      42.748  29.978  29.081  1.00  0.00    -0.248 NA
ATOM     64  C   UNL A   1      41.218  31.391  30.139  1.00  0.00     0.031 C 
ATOM     65  C   UNL A   1      46.863  31.181  27.912  1.00  0.00     0.029 A 
ATOM     66  C   UNL A   1      45.567  30.833  28.263  1.00  0.00     0.049 A 
ATOM     67  H   UNL A   1      44.604  28.964  28.104  1.00  0.00     0.167 HD
ATOM     68  C   UNL A   1      43.310  31.242  29.209  1.00  0.00     0.074 A 
ATOM     69  C   UNL A   1      42.315  32.080  29.845  1.00  0.00     0.031 C 
ATOM     70  C   UNL A   1      44.545  31.664  28.845  1.00  0.00     0.034 A 
BRANCH  57  71
ATOM     71  C   UNL A   1      48.079  27.301  26.277  1.00  0.00     0.023 A 
ATOM     72  C   UNL A   1      49.098  26.732  27.068  1.00  0.00     0.012 A 
ATOM     73  C   UNL A   1      48.290  27.487  24.899  1.00  0.00     0.148 A 
ATOM     74  C   UNL A   1      50.317  26.370  26.501  1.00  0.00     0.002 A 
ATOM     75  C   UNL A   1      49.500  27.097  24.334  1.00  0.00     0.091 A 
ATOM     76  F   UNL A   1      47.317  28.054  24.173  1.00  0.00    -0.205 F 
ATOM     77  C   UNL A   1      50.514  26.544  25.135  1.00  0.00     0.022 A 
BRANCH  75  78
ATOM     78  S   UNL A   1      49.840  27.239  22.577  1.00  0.00     0.127 S 
ATOM     79  O   UNL A   1      51.221  26.764  22.506  1.00  0.00    -0.237 OA
ATOM     80  O   UNL A   1      48.851  26.329  21.997  1.00  0.00    -0.237 OA
ATOM     81  O   UNL A   1      49.645  28.642  22.242  1.00  0.00    -0.744 OA
ENDBRANCH  75  78
ENDBRANCH  57  71
BRANCH  58  82
ATOM     82  C   UNL A   1      39.135  29.308  30.239  1.00  0.00     0.023 A 
ATOM     83  C   UNL A   1      38.835  28.893  31.552  1.00  0.00     0.012 A 
ATOM     84  C   UNL A   1      38.192  30.069  29.522  1.00  0.00     0.148 A 
ATOM     85  C   UNL A   1      37.616  29.226  32.140  1.00  0.00     0.002 A 
ATOM     86  C   UNL A   1      36.994  30.427  30.127  1.00  0.00     0.091 A 
ATOM     87  F   UNL A   1      38.509  30.458  28.279  1.00  0.00    -0.205 F 
ATOM     88  C   UNL A   1      36.700  29.999  31.432  1.00  0.00     0.022 A 
BRANCH  86  89
ATOM     89  S   UNL A   1      35.789  31.503  29.341  1.00  0.00     0.127 S 
ATOM     90  O   UNL A   1      36.641  32.559  28.796  1.00  0.00    -0.237 OA
ATOM     91  O   UNL A   1      35.203  30.608  28.344  1.00  0.00    -0.237 OA
ATOM     92  O   UNL A   1      34.881  31.924  30.398  1.00  0.00    -0.744 OA
ENDBRANCH  86  89
ENDBRANCH  58  82
BRANCH  70  93
ATOM     93  C   UNL A   1      44.901  33.102  29.096  1.00  0.00     0.023 A 
ATOM     94  C   UNL A   1      45.485  33.462  30.326  1.00  0.00     0.012 A 
ATOM     95  C   UNL A   1      44.779  34.063  28.073  1.00  0.00     0.148 A 
ATOM     96  C   UNL A   1      45.937  34.764  30.537  1.00  0.00     0.002 A 
ATOM     97  C   UNL A   1      45.260  35.349  28.279  1.00  0.00     0.091 A 
ATOM     98  F   UNL A   1      44.207  33.695  26.917  1.00  0.00    -0.205 F 
ATOM     99  C   UNL A   1      45.837  35.701  29.511  1.00  0.00     0.022 A 
BRANCH  97 100
ATOM    100  S   UNL A   1      45.244  36.603  26.993  1.00  0.00     0.127 S 
ATOM    101  O   UNL A   1      43.811  36.747  26.738  1.00  0.00    -0.237 OA
ATOM    102  O   UNL A   1      45.864  37.746  27.665  1.00  0.00    -0.237 OA
ATOM    103  O   UNL A   1      46.022  36.056  25.890  1.00  0.00    -0.744 OA
ENDBRANCH  97 100
ENDBRANCH  70  93
ENDBRANCH  44  45
ENDBRANCH  36  39
ENDBRANCH  34  35
ENDBRANCH   1  34
TORSDOF 17
ENDMDL
