MODEL 1
REMARK VINA RESULT:     -10.9      0.000      0.000
REMARK SMILES COc1cccc(-c2ccc(C#N)c(SCC(=O)NCCCCNC(=O)c3ccc(-c4c5nc(c(-c6cccc(S(=O)(=O)[O-])c6F)c6ccc([nH]6)c(-c6cccc(S(=O)(=O)[O-])c6F)c6nc(c(-c7cccc(S(=O)(=O)[O-])c7F)c7ccc4[nH]7)C=C6)C=C5)cc3)n2)c1
REMARK SMILES IDX 21 1 20 2 19 3 17 4 18 5 16 7 15 8 14 9 8 10 9 11 90 12
REMARK SMILES IDX 10 13 11 14 7 15 3 16 4 17 91 18 5 19 6 20 2 21 1 22 12 23
REMARK SMILES IDX 13 24 22 25 23 26 24 27 25 28 26 30 27 31 28 32 89 33 29 34
REMARK SMILES IDX 88 35 30 36 31 37 32 38 82 39 33 40 87 41 81 42 83 43 34 44
REMARK SMILES IDX 86 45 80 46 79 47 35 49 67 50 47 51 66 52 48 53 51 54 65 55
REMARK SMILES IDX 84 56 49 57 50 58 64 60 85 61 52 62 36 63 37 64 45 65 38 66
REMARK SMILES IDX 40 67 46 68 39 69 41 70 42 71 43 72 44 73 68 74 69 75 77 76
REMARK SMILES IDX 70 77 72 78 78 79 71 80 73 81 74 82 75 83 76 84 53 85 54 86
REMARK SMILES IDX 62 87 55 88 57 89 63 90 56 91 58 92 59 93 60 94 61 95
REMARK H PARENT 19 6 24 29 83 48 51 59
REMARK Flexibility Score: inf
ROOT
ATOM      1  C   UNL A   1      32.117  28.049  24.507  1.00  0.00     0.023 C 
ENDROOT
BRANCH   1   2
ATOM      2  C   UNL A   1      33.512  27.594  24.084  1.00  0.00     0.116 C 
BRANCH   2   3
ATOM      3  N   UNL A   1      33.436  26.439  23.217  1.00  0.00    -0.355 N 
ATOM      4  C   UNL A   1      33.295  25.126  23.533  1.00  0.00     0.230 C 
ATOM      5  O   UNL A   1      33.381  24.315  22.609  1.00  0.00    -0.274 OA
ATOM      6  H   UNL A   1      33.495  26.634  22.254  1.00  0.00     0.163 HD
BRANCH   4   7
ATOM      7  C   UNL A   1      32.960  24.688  24.941  1.00  0.00     0.176 C 
BRANCH   7   8
ATOM      8  S   UNL A   1      34.363  24.590  26.096  1.00  0.00    -0.095 SA
BRANCH   8   9
ATOM      9  C   UNL A   1      35.240  23.064  25.803  1.00  0.00     0.115 A 
ATOM     10  C   UNL A   1      34.831  20.870  25.029  1.00  0.00     0.072 A 
ATOM     11  C   UNL A   1      36.172  20.541  25.157  1.00  0.00     0.030 A 
ATOM     12  N   UNL A   1      34.368  22.101  25.361  1.00  0.00    -0.240 NA
ATOM     13  C   UNL A   1      37.063  21.517  25.582  1.00  0.00     0.024 A 
ATOM     14  C   UNL A   1      36.609  22.811  25.870  1.00  0.00     0.084 A 
BRANCH  10  15
ATOM     15  C   UNL A   1      33.881  19.914  24.431  1.00  0.00     0.004 A 
ATOM     16  C   UNL A   1      33.240  17.602  23.961  1.00  0.00     0.119 A 
ATOM     17  C   UNL A   1      32.311  18.046  23.023  1.00  0.00     0.046 A 
ATOM     18  C   UNL A   1      34.024  18.530  24.653  1.00  0.00     0.056 A 
ATOM     19  C   UNL A   1      32.121  19.412  22.819  1.00  0.00     0.005 A 
ATOM     20  C   UNL A   1      32.894  20.340  23.526  1.00  0.00     0.010 A 
BRANCH  16  21
ATOM     21  O   UNL A   1      33.378  16.245  24.068  1.00  0.00    -0.497 OA
ATOM     22  C   UNL A   1      34.432  15.816  24.926  1.00  0.00     0.278 C 
ENDBRANCH  16  21
ENDBRANCH  10  15
BRANCH  14  23
ATOM     23  C   UNL A   1      37.612  23.806  26.063  1.00  0.00     0.102 C 
ATOM     24  N   UNL A   1      38.408  24.616  26.321  1.00  0.00    -0.192 NA
ENDBRANCH  14  23
ENDBRANCH   8   9
ENDBRANCH   7   8
ENDBRANCH   4   7
ENDBRANCH   2   3
ENDBRANCH   1   2
BRANCH   1  25
ATOM     25  C   UNL A   1      32.074  28.819  25.832  1.00  0.00     0.023 C 
BRANCH  25  26
ATOM     26  C   UNL A   1      33.371  29.524  26.211  1.00  0.00     0.116 C 
BRANCH  26  27
ATOM     27  N   UNL A   1      33.155  30.907  26.606  1.00  0.00    -0.352 N 
ATOM     28  C   UNL A   1      33.841  31.661  27.527  1.00  0.00     0.251 C 
ATOM     29  H   UNL A   1      32.415  31.367  26.150  1.00  0.00     0.163 HD
ATOM     30  O   UNL A   1      33.405  32.759  27.859  1.00  0.00    -0.269 OA
BRANCH  28  31
ATOM     31  C   UNL A   1      35.087  31.139  28.127  1.00  0.00     0.039 A 
ATOM     32  C   UNL A   1      36.252  31.902  28.027  1.00  0.00     0.014 A 
ATOM     33  C   UNL A   1      35.112  29.903  28.780  1.00  0.00     0.014 A 
ATOM     34  C   UNL A   1      37.433  31.439  28.609  1.00  0.00     0.010 A 
ATOM     35  C   UNL A   1      36.264  29.491  29.442  1.00  0.00     0.010 A 
ATOM     36  C   UNL A   1      37.445  30.239  29.341  1.00  0.00    -0.014 A 
BRANCH  36  37
ATOM     37  C   UNL A   1      38.696  29.748  29.976  1.00  0.00     0.031 A 
ATOM     38  C   UNL A   1      39.137  30.299  31.309  1.00  0.00     0.074 A 
ATOM     39  C   UNL A   1      39.456  28.836  29.339  1.00  0.00     0.049 A 
ATOM     40  N   UNL A   1      40.193  29.992  32.016  1.00  0.00    -0.248 NA
ATOM     41  C   UNL A   1      38.298  31.347  31.916  1.00  0.00     0.031 C 
ATOM     42  C   UNL A   1      39.177  28.277  28.015  1.00  0.00     0.029 A 
ATOM     43  N   UNL A   1      40.628  28.226  29.715  1.00  0.00    -0.354 N 
ATOM     44  C   UNL A   1      40.162  30.826  33.128  1.00  0.00     0.074 A 
ATOM     45  C   UNL A   1      39.006  31.680  32.984  1.00  0.00     0.031 C 
ATOM     46  C   UNL A   1      40.139  27.396  27.697  1.00  0.00     0.029 A 
ATOM     47  C   UNL A   1      41.124  27.356  28.772  1.00  0.00     0.049 A 
ATOM     48  H   UNL A   1      41.071  28.395  30.578  1.00  0.00     0.167 HD
ATOM     49  C   UNL A   1      41.005  30.862  34.187  1.00  0.00     0.034 A 
ATOM     50  C   UNL A   1      42.254  26.620  28.767  1.00  0.00     0.034 A 
ATOM     51  C   UNL A   1      42.142  29.996  34.340  1.00  0.00     0.049 A 
ATOM     52  C   UNL A   1      43.161  26.667  29.967  1.00  0.00     0.074 A 
ATOM     53  C   UNL A   1      43.012  29.903  35.411  1.00  0.00     0.029 A 
ATOM     54  N   UNL A   1      42.580  29.089  33.389  1.00  0.00    -0.354 N 
ATOM     55  N   UNL A   1      43.037  27.364  31.070  1.00  0.00    -0.248 NA
ATOM     56  C   UNL A   1      44.341  25.792  29.938  1.00  0.00     0.031 C 
ATOM     57  C   UNL A   1      44.009  28.980  35.085  1.00  0.00     0.029 A 
ATOM     58  C   UNL A   1      43.717  28.442  33.842  1.00  0.00     0.049 A 
ATOM     59  H   UNL A   1      42.147  28.928  32.520  1.00  0.00     0.167 HD
ATOM     60  C   UNL A   1      44.093  26.974  31.886  1.00  0.00     0.074 A 
ATOM     61  C   UNL A   1      44.834  25.967  31.156  1.00  0.00     0.031 C 
ATOM     62  C   UNL A   1      44.420  27.410  33.126  1.00  0.00     0.034 A 
BRANCH  49  63
ATOM     63  C   UNL A   1      40.724  31.860  35.280  1.00  0.00     0.023 A 
ATOM     64  C   UNL A   1      41.540  33.000  35.427  1.00  0.00     0.012 A 
ATOM     65  C   UNL A   1      39.599  31.704  36.116  1.00  0.00     0.148 A 
ATOM     66  C   UNL A   1      41.262  33.951  36.407  1.00  0.00     0.002 A 
ATOM     67  C   UNL A   1      39.299  32.683  37.054  1.00  0.00     0.091 A 
ATOM     68  F   UNL A   1      38.847  30.605  35.974  1.00  0.00    -0.205 F 
ATOM     69  C   UNL A   1      40.136  33.799  37.211  1.00  0.00     0.022 A 
BRANCH  67  70
ATOM     70  S   UNL A   1      37.823  32.624  38.077  1.00  0.00     0.127 S 
ATOM     71  O   UNL A   1      36.778  32.941  37.103  1.00  0.00    -0.237 OA
ATOM     72  O   UNL A   1      37.828  31.236  38.537  1.00  0.00    -0.237 OA
ATOM     73  O   UNL A   1      38.015  33.617  39.124  1.00  0.00    -0.744 OA
ENDBRANCH  67  70
ENDBRANCH  49  63
BRANCH  50  74
ATOM     74  C   UNL A   1      42.582  25.752  27.600  1.00  0.00     0.023 A 
ATOM     75  C   UNL A   1      43.334  26.269  26.527  1.00  0.00     0.012 A 
ATOM     76  C   UNL A   1      42.136  24.418  27.546  1.00  0.00     0.148 A 
ATOM     77  C   UNL A   1      43.588  25.491  25.397  1.00  0.00     0.002 A 
ATOM     78  C   UNL A   1      42.447  23.628  26.446  1.00  0.00     0.091 A 
ATOM     79  F   UNL A   1      41.419  23.946  28.575  1.00  0.00    -0.205 F 
ATOM     80  C   UNL A   1      43.152  24.169  25.360  1.00  0.00     0.022 A 
BRANCH  78  81
ATOM     81  S   UNL A   1      42.037  21.882  26.371  1.00  0.00     0.127 S 
ATOM     82  O   UNL A   1      42.397  21.432  27.713  1.00  0.00    -0.237 OA
ATOM     83  O   UNL A   1      40.600  21.925  26.098  1.00  0.00    -0.237 OA
ATOM     84  O   UNL A   1      42.837  21.333  25.284  1.00  0.00    -0.744 OA
ENDBRANCH  78  81
ENDBRANCH  50  74
BRANCH  62  85
ATOM     85  C   UNL A   1      45.583  26.743  33.819  1.00  0.00     0.023 A 
ATOM     86  C   UNL A   1      46.883  27.277  33.721  1.00  0.00     0.012 A 
ATOM     87  C   UNL A   1      45.365  25.596  34.607  1.00  0.00     0.148 A 
ATOM     88  C   UNL A   1      47.956  26.645  34.348  1.00  0.00     0.002 A 
ATOM     89  C   UNL A   1      46.427  25.008  35.280  1.00  0.00     0.091 A 
ATOM     90  F   UNL A   1      44.124  25.093  34.676  1.00  0.00    -0.205 F 
ATOM     91  C   UNL A   1      47.727  25.519  35.135  1.00  0.00     0.022 A 
BRANCH  89  92
ATOM     92  S   UNL A   1      46.206  23.621  36.397  1.00  0.00     0.127 S 
ATOM     93  O   UNL A   1      45.141  24.110  37.271  1.00  0.00    -0.237 OA
ATOM     94  O   UNL A   1      45.802  22.551  35.484  1.00  0.00    -0.237 OA
ATOM     95  O   UNL A   1      47.495  23.411  37.041  1.00  0.00    -0.744 OA
ENDBRANCH  89  92
ENDBRANCH  62  85
ENDBRANCH  36  37
ENDBRANCH  28  31
ENDBRANCH  26  27
ENDBRANCH  25  26
ENDBRANCH   1  25
TORSDOF 19
ENDMDL
MODEL 2
REMARK VINA RESULT:     -10.9      2.449      3.788
REMARK SMILES COc1cccc(-c2ccc(C#N)c(SCC(=O)NCCCCNC(=O)c3ccc(-c4c5nc(c(-c6cccc(S(=O)(=O)[O-])c6F)c6ccc([nH]6)c(-c6cccc(S(=O)(=O)[O-])c6F)c6nc(c(-c7cccc(S(=O)(=O)[O-])c7F)c7ccc4[nH]7)C=C6)C=C5)cc3)n2)c1
REMARK SMILES IDX 21 1 20 2 19 3 17 4 18 5 16 7 15 8 14 9 8 10 9 11 90 12
REMARK SMILES IDX 10 13 11 14 7 15 3 16 4 17 91 18 5 19 6 20 2 21 1 22 12 23
REMARK SMILES IDX 13 24 22 25 23 26 24 27 25 28 26 30 27 31 28 32 89 33 29 34
REMARK SMILES IDX 88 35 30 36 31 37 32 38 82 39 33 40 87 41 81 42 83 43 34 44
REMARK SMILES IDX 86 45 80 46 79 47 35 49 67 50 47 51 66 52 48 53 51 54 65 55
REMARK SMILES IDX 84 56 49 57 50 58 64 60 85 61 52 62 36 63 37 64 45 65 38 66
REMARK SMILES IDX 40 67 46 68 39 69 41 70 42 71 43 72 44 73 68 74 69 75 77 76
REMARK SMILES IDX 70 77 72 78 78 79 71 80 73 81 74 82 75 83 76 84 53 85 54 86
REMARK SMILES IDX 62 87 55 88 57 89 63 90 56 91 58 92 59 93 60 94 61 95
REMARK H PARENT 19 6 24 29 83 48 51 59
REMARK Flexibility Score: inf
ROOT
ATOM      1  C   UNL A   1      34.316  31.172  27.639  1.00  0.00     0.023 C 
ENDROOT
BRANCH   1   2
ATOM      2  C   UNL A   1      33.960  29.854  26.953  1.00  0.00     0.116 C 
BRANCH   2   3
ATOM      3  N   UNL A   1      33.023  29.095  27.752  1.00  0.00    -0.355 N 
ATOM      4  C   UNL A   1      31.953  28.355  27.363  1.00  0.00     0.230 C 
ATOM      5  O   UNL A   1      31.233  27.900  28.253  1.00  0.00    -0.274 OA
ATOM      6  H   UNL A   1      33.185  29.118  28.722  1.00  0.00     0.163 HD
BRANCH   4   7
ATOM      7  C   UNL A   1      31.709  28.031  25.905  1.00  0.00     0.176 C 
BRANCH   7   8
ATOM      8  S   UNL A   1      30.940  26.416  25.570  1.00  0.00    -0.095 SA
BRANCH   8   9
ATOM      9  C   UNL A   1      31.729  25.692  24.142  1.00  0.00     0.115 A 
ATOM     10  C   UNL A   1      32.905  23.737  23.531  1.00  0.00     0.072 A 
ATOM     11  C   UNL A   1      33.014  24.174  22.219  1.00  0.00     0.030 A 
ATOM     12  N   UNL A   1      32.292  24.487  24.480  1.00  0.00    -0.240 NA
ATOM     13  C   UNL A   1      32.428  25.382  21.866  1.00  0.00     0.024 A 
ATOM     14  C   UNL A   1      31.736  26.138  22.822  1.00  0.00     0.084 A 
BRANCH  10  15
ATOM     15  C   UNL A   1      33.373  22.392  23.910  1.00  0.00     0.004 A 
ATOM     16  C   UNL A   1      32.860  20.110  24.623  1.00  0.00     0.119 A 
ATOM     17  C   UNL A   1      34.194  19.917  24.978  1.00  0.00     0.046 A 
ATOM     18  C   UNL A   1      32.454  21.341  24.101  1.00  0.00     0.056 A 
ATOM     19  C   UNL A   1      35.129  20.926  24.757  1.00  0.00     0.005 A 
ATOM     20  C   UNL A   1      34.723  22.152  24.218  1.00  0.00     0.010 A 
BRANCH  16  21
ATOM     21  O   UNL A   1      32.012  19.075  24.907  1.00  0.00    -0.497 OA
ATOM     22  C   UNL A   1      32.617  17.785  24.899  1.00  0.00     0.278 C 
ENDBRANCH  16  21
ENDBRANCH  10  15
BRANCH  14  23
ATOM     23  C   UNL A   1      30.965  27.232  22.328  1.00  0.00     0.102 C 
ATOM     24  N   UNL A   1      30.257  28.059  21.916  1.00  0.00    -0.192 NA
ENDBRANCH  14  23
ENDBRANCH   8   9
ENDBRANCH   7   8
ENDBRANCH   4   7
ENDBRANCH   2   3
ENDBRANCH   1   2
BRANCH   1  25
ATOM     25  C   UNL A   1      33.132  32.128  27.831  1.00  0.00     0.023 C 
BRANCH  25  26
ATOM     26  C   UNL A   1      33.368  33.552  27.346  1.00  0.00     0.116 C 
BRANCH  26  27
ATOM     27  N   UNL A   1      32.876  34.547  28.284  1.00  0.00    -0.352 N 
ATOM     28  C   UNL A   1      33.311  34.827  29.557  1.00  0.00     0.251 C 
ATOM     29  H   UNL A   1      32.126  35.098  27.963  1.00  0.00     0.163 HD
ATOM     30  O   UNL A   1      32.659  35.585  30.269  1.00  0.00    -0.269 OA
BRANCH  28  31
ATOM     31  C   UNL A   1      34.549  34.202  30.068  1.00  0.00     0.039 A 
ATOM     32  C   UNL A   1      34.458  33.299  31.129  1.00  0.00     0.014 A 
ATOM     33  C   UNL A   1      35.795  34.507  29.511  1.00  0.00     0.014 A 
ATOM     34  C   UNL A   1      35.613  32.679  31.608  1.00  0.00     0.010 A 
ATOM     35  C   UNL A   1      36.929  33.815  29.926  1.00  0.00     0.010 A 
ATOM     36  C   UNL A   1      36.857  32.914  30.997  1.00  0.00    -0.014 A 
BRANCH  36  37
ATOM     37  C   UNL A   1      38.087  32.246  31.494  1.00  0.00     0.031 A 
ATOM     38  C   UNL A   1      38.800  32.779  32.711  1.00  0.00     0.074 A 
ATOM     39  C   UNL A   1      38.586  31.183  30.832  1.00  0.00     0.049 A 
ATOM     40  N   UNL A   1      39.882  32.328  33.292  1.00  0.00    -0.248 NA
ATOM     41  C   UNL A   1      38.243  33.985  33.345  1.00  0.00     0.031 C 
ATOM     42  C   UNL A   1      38.030  30.615  29.601  1.00  0.00     0.029 A 
ATOM     43  N   UNL A   1      39.682  30.399  31.092  1.00  0.00    -0.354 N 
ATOM     44  C   UNL A   1      40.150  33.210  34.333  1.00  0.00     0.074 A 
ATOM     45  C   UNL A   1      39.143  34.244  34.282  1.00  0.00     0.031 C 
ATOM     46  C   UNL A   1      38.777  29.565  29.225  1.00  0.00     0.029 A 
ATOM     47  C   UNL A   1      39.886  29.409  30.159  1.00  0.00     0.049 A 
ATOM     48  H   UNL A   1      40.266  30.532  31.873  1.00  0.00     0.167 HD
ATOM     49  C   UNL A   1      41.132  33.152  35.264  1.00  0.00     0.034 A 
ATOM     50  C   UNL A   1      40.866  28.488  30.058  1.00  0.00     0.034 A 
ATOM     51  C   UNL A   1      42.119  32.110  35.328  1.00  0.00     0.049 A 
ATOM     52  C   UNL A   1      41.931  28.437  31.119  1.00  0.00     0.074 A 
ATOM     53  C   UNL A   1      43.108  31.921  36.278  1.00  0.00     0.029 A 
ATOM     54  N   UNL A   1      42.259  31.093  34.398  1.00  0.00    -0.354 N 
ATOM     55  N   UNL A   1      42.085  29.200  32.174  1.00  0.00    -0.248 NA
ATOM     56  C   UNL A   1      42.934  27.369  30.999  1.00  0.00     0.031 C 
ATOM     57  C   UNL A   1      43.880  30.823  35.892  1.00  0.00     0.029 A 
ATOM     58  C   UNL A   1      43.327  30.282  34.743  1.00  0.00     0.049 A 
ATOM     59  H   UNL A   1      41.685  30.966  33.609  1.00  0.00     0.167 HD
ATOM     60  C   UNL A   1      43.169  28.673  32.869  1.00  0.00     0.074 A 
ATOM     61  C   UNL A   1      43.620  27.517  32.123  1.00  0.00     0.031 C 
ATOM     62  C   UNL A   1      43.739  29.108  34.018  1.00  0.00     0.034 A 
BRANCH  49  63
ATOM     63  C   UNL A   1      41.180  34.238  36.308  1.00  0.00     0.023 A 
ATOM     64  C   UNL A   1      41.833  35.457  36.033  1.00  0.00     0.012 A 
ATOM     65  C   UNL A   1      40.508  34.077  37.537  1.00  0.00     0.148 A 
ATOM     66  C   UNL A   1      41.846  36.484  36.975  1.00  0.00     0.002 A 
ATOM     67  C   UNL A   1      40.480  35.124  38.447  1.00  0.00     0.091 A 
ATOM     68  F   UNL A   1      39.910  32.905  37.787  1.00  0.00    -0.205 F 
ATOM     69  C   UNL A   1      41.160  36.322  38.175  1.00  0.00     0.022 A 
BRANCH  67  70
ATOM     70  S   UNL A   1      39.551  35.048  39.983  1.00  0.00     0.127 S 
ATOM     71  O   UNL A   1      38.755  33.838  39.785  1.00  0.00    -0.237 OA
ATOM     72  O   UNL A   1      40.617  34.922  40.976  1.00  0.00    -0.237 OA
ATOM     73  O   UNL A   1      38.788  36.286  40.057  1.00  0.00    -0.744 OA
ENDBRANCH  67  70
ENDBRANCH  49  63
BRANCH  50  74
ATOM     74  C   UNL A   1      40.874  27.517  28.927  1.00  0.00     0.023 A 
ATOM     75  C   UNL A   1      39.972  26.434  28.922  1.00  0.00     0.012 A 
ATOM     76  C   UNL A   1      41.783  27.658  27.862  1.00  0.00     0.148 A 
ATOM     77  C   UNL A   1      40.016  25.478  27.906  1.00  0.00     0.002 A 
ATOM     78  C   UNL A   1      41.778  26.738  26.821  1.00  0.00     0.091 A 
ATOM     79  F   UNL A   1      42.635  28.693  27.888  1.00  0.00    -0.205 F 
ATOM     80  C   UNL A   1      40.912  25.635  26.852  1.00  0.00     0.022 A 
BRANCH  78  81
ATOM     81  S   UNL A   1      42.809  26.931  25.364  1.00  0.00     0.127 S 
ATOM     82  O   UNL A   1      44.143  27.017  25.951  1.00  0.00    -0.237 OA
ATOM     83  O   UNL A   1      42.532  25.693  24.635  1.00  0.00    -0.237 OA
ATOM     84  O   UNL A   1      42.333  28.137  24.699  1.00  0.00    -0.744 OA
ENDBRANCH  78  81
ENDBRANCH  50  74
BRANCH  62  85
ATOM     85  C   UNL A   1      44.862  28.285  34.597  1.00  0.00     0.023 A 
ATOM     86  C   UNL A   1      46.205  28.579  34.289  1.00  0.00     0.012 A 
ATOM     87  C   UNL A   1      44.573  27.233  35.489  1.00  0.00     0.148 A 
ATOM     88  C   UNL A   1      47.237  27.802  34.813  1.00  0.00     0.002 A 
ATOM     89  C   UNL A   1      45.609  26.504  36.057  1.00  0.00     0.091 A 
ATOM     90  F   UNL A   1      43.289  26.958  35.760  1.00  0.00    -0.205 F 
ATOM     91  C   UNL A   1      46.941  26.773  35.704  1.00  0.00     0.022 A 
BRANCH  89  92
ATOM     92  S   UNL A   1      45.325  25.233  37.292  1.00  0.00     0.127 S 
ATOM     93  O   UNL A   1      44.648  25.990  38.346  1.00  0.00    -0.237 OA
ATOM     94  O   UNL A   1      44.468  24.290  36.573  1.00  0.00    -0.237 OA
ATOM     95  O   UNL A   1      46.637  24.711  37.645  1.00  0.00    -0.744 OA
ENDBRANCH  89  92
ENDBRANCH  62  85
ENDBRANCH  36  37
ENDBRANCH  28  31
ENDBRANCH  26  27
ENDBRANCH  25  26
ENDBRANCH   1  25
TORSDOF 19
ENDMDL
MODEL 3
REMARK VINA RESULT:     -10.7      3.206      5.074
REMARK SMILES COc1cccc(-c2ccc(C#N)c(SCC(=O)NCCCCNC(=O)c3ccc(-c4c5nc(c(-c6cccc(S(=O)(=O)[O-])c6F)c6ccc([nH]6)c(-c6cccc(S(=O)(=O)[O-])c6F)c6nc(c(-c7cccc(S(=O)(=O)[O-])c7F)c7ccc4[nH]7)C=C6)C=C5)cc3)n2)c1
REMARK SMILES IDX 21 1 20 2 19 3 17 4 18 5 16 7 15 8 14 9 8 10 9 11 90 12
REMARK SMILES IDX 10 13 11 14 7 15 3 16 4 17 91 18 5 19 6 20 2 21 1 22 12 23
REMARK SMILES IDX 13 24 22 25 23 26 24 27 25 28 26 30 27 31 28 32 89 33 29 34
REMARK SMILES IDX 88 35 30 36 31 37 32 38 82 39 33 40 87 41 81 42 83 43 34 44
REMARK SMILES IDX 86 45 80 46 79 47 35 49 67 50 47 51 66 52 48 53 51 54 65 55
REMARK SMILES IDX 84 56 49 57 50 58 64 60 85 61 52 62 36 63 37 64 45 65 38 66
REMARK SMILES IDX 40 67 46 68 39 69 41 70 42 71 43 72 44 73 68 74 69 75 77 76
REMARK SMILES IDX 70 77 72 78 78 79 71 80 73 81 74 82 75 83 76 84 53 85 54 86
REMARK SMILES IDX 62 87 55 88 57 89 63 90 56 91 58 92 59 93 60 94 61 95
REMARK H PARENT 19 6 24 29 83 48 51 59
REMARK Flexibility Score: inf
ROOT
ATOM      1  C   UNL A   1      34.642  33.135  28.036  1.00  0.00     0.023 C 
ENDROOT
BRANCH   1   2
ATOM      2  C   UNL A   1      34.552  31.761  28.697  1.00  0.00     0.116 C 
BRANCH   2   3
ATOM      3  N   UNL A   1      34.940  30.718  27.771  1.00  0.00    -0.355 N 
ATOM      4  C   UNL A   1      34.183  29.756  27.183  1.00  0.00     0.230 C 
ATOM      5  O   UNL A   1      34.777  28.902  26.523  1.00  0.00    -0.274 OA
ATOM      6  H   UNL A   1      35.894  30.705  27.532  1.00  0.00     0.163 HD
BRANCH   4   7
ATOM      7  C   UNL A   1      32.673  29.785  27.265  1.00  0.00     0.176 C 
BRANCH   7   8
ATOM      8  S   UNL A   1      31.811  30.388  25.779  1.00  0.00    -0.095 SA
BRANCH   8   9
ATOM      9  C   UNL A   1      31.160  28.986  24.887  1.00  0.00     0.115 A 
ATOM     10  C   UNL A   1      31.178  26.626  24.977  1.00  0.00     0.072 A 
ATOM     11  C   UNL A   1      30.345  26.546  23.871  1.00  0.00     0.030 A 
ATOM     12  N   UNL A   1      31.594  27.821  25.467  1.00  0.00    -0.240 NA
ATOM     13  C   UNL A   1      29.885  27.721  23.294  1.00  0.00     0.024 A 
ATOM     14  C   UNL A   1      30.255  28.963  23.827  1.00  0.00     0.084 A 
BRANCH  10  15
ATOM     15  C   UNL A   1      31.560  25.408  25.714  1.00  0.00     0.004 A 
ATOM     16  C   UNL A   1      33.291  23.835  26.424  1.00  0.00     0.119 A 
ATOM     17  C   UNL A   1      32.311  22.918  26.798  1.00  0.00     0.046 A 
ATOM     18  C   UNL A   1      32.917  25.066  25.880  1.00  0.00     0.056 A 
ATOM     19  C   UNL A   1      30.962  23.252  26.685  1.00  0.00     0.005 A 
ATOM     20  C   UNL A   1      30.590  24.492  26.156  1.00  0.00     0.010 A 
BRANCH  16  21
ATOM     21  O   UNL A   1      34.585  23.406  26.542  1.00  0.00    -0.497 OA
ATOM     22  C   UNL A   1      35.426  23.729  25.438  1.00  0.00     0.278 C 
ENDBRANCH  16  21
ENDBRANCH  10  15
BRANCH  14  23
ATOM     23  C   UNL A   1      29.552  30.101  23.332  1.00  0.00     0.102 C 
ATOM     24  N   UNL A   1      28.976  31.065  23.025  1.00  0.00    -0.192 NA
ENDBRANCH  14  23
ENDBRANCH   8   9
ENDBRANCH   7   8
ENDBRANCH   4   7
ENDBRANCH   2   3
ENDBRANCH   1   2
BRANCH   1  25
ATOM     25  C   UNL A   1      33.421  34.033  28.271  1.00  0.00     0.023 C 
BRANCH  25  26
ATOM     26  C   UNL A   1      33.724  35.374  28.929  1.00  0.00     0.116 C 
BRANCH  26  27
ATOM     27  N   UNL A   1      32.892  35.621  30.094  1.00  0.00    -0.352 N 
ATOM     28  C   UNL A   1      33.048  35.168  31.381  1.00  0.00     0.251 C 
ATOM     29  H   UNL A   1      32.106  36.193  29.940  1.00  0.00     0.163 HD
ATOM     30  O   UNL A   1      32.146  35.335  32.198  1.00  0.00    -0.269 OA
BRANCH  28  31
ATOM     31  C   UNL A   1      34.290  34.467  31.772  1.00  0.00     0.039 A 
ATOM     32  C   UNL A   1      34.206  33.143  32.207  1.00  0.00     0.014 A 
ATOM     33  C   UNL A   1      35.529  35.111  31.718  1.00  0.00     0.014 A 
ATOM     34  C   UNL A   1      35.370  32.457  32.556  1.00  0.00     0.010 A 
ATOM     35  C   UNL A   1      36.695  34.395  31.972  1.00  0.00     0.010 A 
ATOM     36  C   UNL A   1      36.628  33.069  32.421  1.00  0.00    -0.014 A 
BRANCH  36  37
ATOM     37  C   UNL A   1      37.872  32.338  32.776  1.00  0.00     0.031 A 
ATOM     38  C   UNL A   1      38.628  32.695  34.031  1.00  0.00     0.074 A 
ATOM     39  C   UNL A   1      38.344  31.380  31.954  1.00  0.00     0.049 A 
ATOM     40  N   UNL A   1      39.727  32.167  34.506  1.00  0.00    -0.248 NA
ATOM     41  C   UNL A   1      38.097  33.800  34.847  1.00  0.00     0.031 C 
ATOM     42  C   UNL A   1      37.745  30.991  30.676  1.00  0.00     0.029 A 
ATOM     43  N   UNL A   1      39.446  30.567  32.065  1.00  0.00    -0.354 N 
ATOM     44  C   UNL A   1      40.034  32.894  35.651  1.00  0.00     0.074 A 
ATOM     45  C   UNL A   1      39.029  33.924  35.780  1.00  0.00     0.031 C 
ATOM     46  C   UNL A   1      38.474  30.004  30.130  1.00  0.00     0.029 A 
ATOM     47  C   UNL A   1      39.614  29.719  30.995  1.00  0.00     0.049 A 
ATOM     48  H   UNL A   1      40.056  30.589  32.836  1.00  0.00     0.167 HD
ATOM     49  C   UNL A   1      41.046  32.706  36.531  1.00  0.00     0.034 A 
ATOM     50  C   UNL A   1      40.586  28.822  30.732  1.00  0.00     0.034 A 
ATOM     51  C   UNL A   1      42.031  31.666  36.414  1.00  0.00     0.049 A 
ATOM     52  C   UNL A   1      41.686  28.623  31.739  1.00  0.00     0.074 A 
ATOM     53  C   UNL A   1      43.050  31.347  37.294  1.00  0.00     0.029 A 
ATOM     54  N   UNL A   1      42.135  30.791  35.346  1.00  0.00    -0.354 N 
ATOM     55  N   UNL A   1      41.879  29.230  32.884  1.00  0.00    -0.248 NA
ATOM     56  C   UNL A   1      42.680  27.583  31.435  1.00  0.00     0.031 C 
ATOM     57  C   UNL A   1      43.804  30.314  36.731  1.00  0.00     0.029 A 
ATOM     58  C   UNL A   1      43.210  29.940  35.536  1.00  0.00     0.049 A 
ATOM     59  H   UNL A   1      41.534  30.776  34.566  1.00  0.00     0.167 HD
ATOM     60  C   UNL A   1      42.983  28.612  33.461  1.00  0.00     0.074 A 
ATOM     61  C   UNL A   1      43.404  27.572  32.545  1.00  0.00     0.031 C 
ATOM     62  C   UNL A   1      43.593  28.880  34.640  1.00  0.00     0.034 A 
BRANCH  49  63
ATOM     63  C   UNL A   1      41.133  33.635  37.715  1.00  0.00     0.023 A 
ATOM     64  C   UNL A   1      41.961  34.775  37.662  1.00  0.00     0.012 A 
ATOM     65  C   UNL A   1      40.333  33.415  38.854  1.00  0.00     0.148 A 
ATOM     66  C   UNL A   1      42.016  35.663  38.735  1.00  0.00     0.002 A 
ATOM     67  C   UNL A   1      40.353  34.333  39.896  1.00  0.00     0.091 A 
ATOM     68  F   UNL A   1      39.568  32.316  38.894  1.00  0.00    -0.205 F 
ATOM     69  C   UNL A   1      41.203  35.449  39.845  1.00  0.00     0.022 A 
BRANCH  67  70
ATOM     70  S   UNL A   1      39.280  34.194  41.330  1.00  0.00     0.127 S 
ATOM     71  O   UNL A   1      39.637  32.869  41.837  1.00  0.00    -0.237 OA
ATOM     72  O   UNL A   1      39.736  35.308  42.159  1.00  0.00    -0.237 OA
ATOM     73  O   UNL A   1      37.918  34.320  40.831  1.00  0.00    -0.744 OA
ENDBRANCH  67  70
ENDBRANCH  49  63
BRANCH  50  74
ATOM     74  C   UNL A   1      40.551  28.021  29.475  1.00  0.00     0.023 A 
ATOM     75  C   UNL A   1      39.633  26.960  29.342  1.00  0.00     0.012 A 
ATOM     76  C   UNL A   1      41.438  28.299  28.419  1.00  0.00     0.148 A 
ATOM     77  C   UNL A   1      39.638  26.156  28.201  1.00  0.00     0.002 A 
ATOM     78  C   UNL A   1      41.394  27.535  27.259  1.00  0.00     0.091 A 
ATOM     79  F   UNL A   1      42.306  29.309  28.568  1.00  0.00    -0.205 F 
ATOM     80  C   UNL A   1      40.511  26.449  27.157  1.00  0.00     0.022 A 
BRANCH  78  81
ATOM     81  S   UNL A   1      42.393  27.919  25.817  1.00  0.00     0.127 S 
ATOM     82  O   UNL A   1      42.014  26.849  24.898  1.00  0.00    -0.237 OA
ATOM     83  O   UNL A   1      41.899  29.248  25.456  1.00  0.00    -0.237 OA
ATOM     84  O   UNL A   1      43.775  27.897  26.276  1.00  0.00    -0.744 OA
ENDBRANCH  78  81
ENDBRANCH  50  74
BRANCH  62  85
ATOM     85  C   UNL A   1      44.732  27.984  35.059  1.00  0.00     0.023 A 
ATOM     86  C   UNL A   1      46.069  28.350  34.804  1.00  0.00     0.012 A 
ATOM     87  C   UNL A   1      44.464  26.786  35.750  1.00  0.00     0.148 A 
ATOM     88  C   UNL A   1      47.115  27.508  35.177  1.00  0.00     0.002 A 
ATOM     89  C   UNL A   1      45.514  25.983  36.174  1.00  0.00     0.091 A 
ATOM     90  F   UNL A   1      43.185  26.447  35.971  1.00  0.00    -0.205 F 
ATOM     91  C   UNL A   1      46.840  26.332  35.871  1.00  0.00     0.022 A 
BRANCH  89  92
ATOM     92  S   UNL A   1      45.256  24.508  37.163  1.00  0.00     0.127 S 
ATOM     93  O   UNL A   1      46.630  24.114  37.473  1.00  0.00    -0.237 OA
ATOM     94  O   UNL A   1      44.499  25.029  38.302  1.00  0.00    -0.237 OA
ATOM     95  O   UNL A   1      44.516  23.580  36.320  1.00  0.00    -0.744 OA
ENDBRANCH  89  92
ENDBRANCH  62  85
ENDBRANCH  36  37
ENDBRANCH  28  31
ENDBRANCH  26  27
ENDBRANCH  25  26
ENDBRANCH   1  25
TORSDOF 19
ENDMDL
