MODEL 1
REMARK VINA RESULT:     -11.9      0.000      0.000
REMARK SMILES O=C(CNC(=O)c1ccco1)Nc1cccc(C(=O)NCCCCNC(=O)c2ccc(-c3c4nc(c(-c5cccc(S(=O)(=O)[O-])c5F)c5ccc([nH]5)c(-c5cccc(S(=O)(=O)[O-])c5F)c5nc(c(-c6cccc(S(=O)(=O)[O-])c6F)c6ccc3[nH]6)C=C5)C=C4)cc2)c1
REMARK SMILES IDX 22 1 21 2 20 3 18 4 19 5 17 7 13 8 14 9 91 10 15 11 16 12
REMARK SMILES IDX 12 13 1 14 2 15 3 17 4 18 5 19 6 21 7 22 8 23 11 24 9 25
REMARK SMILES IDX 10 26 23 27 24 28 25 29 26 30 27 32 28 33 29 34 90 35 30 36
REMARK SMILES IDX 89 37 31 38 32 39 33 40 83 41 34 42 88 43 82 44 84 45 35 46
REMARK SMILES IDX 87 47 81 48 80 49 36 51 68 52 48 53 67 54 49 55 52 56 66 57
REMARK SMILES IDX 85 58 50 59 51 60 65 62 86 63 53 64 37 65 38 66 46 67 39 68
REMARK SMILES IDX 41 69 47 70 40 71 42 72 43 73 44 74 45 75 69 76 70 77 78 78
REMARK SMILES IDX 71 79 73 80 79 81 72 82 74 83 75 84 76 85 77 86 54 87 55 88
REMARK SMILES IDX 63 89 56 90 58 91 64 92 57 93 59 94 60 95 61 96 62 97
REMARK H PARENT 20 6 12 16 4 20 25 31 84 50 52 61
REMARK Flexibility Score: inf
ROOT
ATOM      1  C   UNL A   1      31.787  30.182  26.885  1.00  0.00     0.023 C 
ENDROOT
BRANCH   1   2
ATOM      2  C   UNL A   1      33.076  29.442  26.554  1.00  0.00     0.116 C 
BRANCH   2   3
ATOM      3  N   UNL A   1      33.472  29.501  25.152  1.00  0.00    -0.352 N 
ATOM      4  C   UNL A   1      32.924  28.880  24.048  1.00  0.00     0.251 C 
ATOM      5  O   UNL A   1      33.424  29.043  22.938  1.00  0.00    -0.269 OA
ATOM      6  H   UNL A   1      34.253  30.071  24.964  1.00  0.00     0.163 HD
BRANCH   4   7
ATOM      7  C   UNL A   1      31.769  27.955  24.191  1.00  0.00     0.041 A 
ATOM      8  C   UNL A   1      30.947  25.722  24.629  1.00  0.00     0.042 A 
ATOM      9  C   UNL A   1      29.720  26.077  24.057  1.00  0.00     0.026 A 
ATOM     10  C   UNL A   1      31.914  26.709  24.801  1.00  0.00     0.040 A 
ATOM     11  C   UNL A   1      29.504  27.381  23.595  1.00  0.00     0.003 A 
ATOM     12  C   UNL A   1      30.541  28.313  23.631  1.00  0.00     0.014 A 
BRANCH   8  13
ATOM     13  N   UNL A   1      31.210  24.351  24.862  1.00  0.00    -0.325 N 
ATOM     14  O   UNL A   1      30.662  24.148  27.123  1.00  0.00    -0.273 OA
ATOM     15  C   UNL A   1      31.154  23.703  26.089  1.00  0.00     0.243 C 
ATOM     16  H   UNL A   1      31.456  23.805  24.080  1.00  0.00     0.169 HD
BRANCH  15  17
ATOM     17  C   UNL A   1      32.013  22.439  26.159  1.00  0.00     0.216 C 
BRANCH  17  18
ATOM     18  N   UNL A   1      31.829  21.526  25.046  1.00  0.00    -0.340 N 
ATOM     19  C   UNL A   1      32.640  21.311  23.954  1.00  0.00     0.287 C 
ATOM     20  H   UNL A   1      31.008  20.983  25.076  1.00  0.00     0.164 HD
ATOM     21  O   UNL A   1      32.190  20.583  23.073  1.00  0.00    -0.266 OA
BRANCH  19  22
ATOM     22  C   UNL A   1      33.938  21.953  23.882  1.00  0.00     0.191 A 
ATOM     23  C   UNL A   1      34.407  23.097  23.258  1.00  0.00     0.056 A 
ATOM     24  O   UNL A   1      34.969  21.372  24.574  1.00  0.00    -0.459 OA
ATOM     25  C   UNL A   1      35.792  23.187  23.544  1.00  0.00     0.043 A 
ATOM     26  C   UNL A   1      36.082  22.114  24.351  1.00  0.00     0.196 A 
ENDBRANCH  19  22
ENDBRANCH  17  18
ENDBRANCH  15  17
ENDBRANCH   8  13
ENDBRANCH   4   7
ENDBRANCH   2   3
ENDBRANCH   1   2
BRANCH   1  27
ATOM     27  C   UNL A   1      31.791  31.687  26.649  1.00  0.00     0.023 C 
BRANCH  27  28
ATOM     28  C   UNL A   1      32.940  32.465  27.281  1.00  0.00     0.116 C 
BRANCH  28  29
ATOM     29  N   UNL A   1      32.592  33.830  27.659  1.00  0.00    -0.352 N 
ATOM     30  C   UNL A   1      33.143  34.641  28.627  1.00  0.00     0.251 C 
ATOM     31  H   UNL A   1      31.855  34.231  27.146  1.00  0.00     0.163 HD
ATOM     32  O   UNL A   1      32.650  35.743  28.853  1.00  0.00    -0.269 OA
BRANCH  30  33
ATOM     33  C   UNL A   1      34.300  34.168  29.422  1.00  0.00     0.039 A 
ATOM     34  C   UNL A   1      34.064  33.427  30.584  1.00  0.00     0.014 A 
ATOM     35  C   UNL A   1      35.610  34.425  29.010  1.00  0.00     0.014 A 
ATOM     36  C   UNL A   1      35.141  32.862  31.276  1.00  0.00     0.010 A 
ATOM     37  C   UNL A   1      36.672  33.794  29.653  1.00  0.00     0.010 A 
ATOM     38  C   UNL A   1      36.450  32.999  30.787  1.00  0.00    -0.014 A 
BRANCH  38  39
ATOM     39  C   UNL A   1      37.599  32.299  31.424  1.00  0.00     0.031 A 
ATOM     40  C   UNL A   1      38.160  32.795  32.730  1.00  0.00     0.074 A 
ATOM     41  C   UNL A   1      38.203  31.282  30.776  1.00  0.00     0.049 A 
ATOM     42  N   UNL A   1      39.205  32.373  33.392  1.00  0.00    -0.248 NA
ATOM     43  C   UNL A   1      37.470  33.932  33.363  1.00  0.00     0.031 C 
ATOM     44  C   UNL A   1      37.808  30.757  29.466  1.00  0.00     0.029 A 
ATOM     45  N   UNL A   1      39.296  30.524  31.118  1.00  0.00    -0.354 N 
ATOM     46  C   UNL A   1      39.322  33.211  34.494  1.00  0.00     0.074 A 
ATOM     47  C   UNL A   1      38.260  34.189  34.395  1.00  0.00     0.031 C 
ATOM     48  C   UNL A   1      38.640  29.761  29.120  1.00  0.00     0.029 A 
ATOM     49  C   UNL A   1      39.644  29.593  30.167  1.00  0.00     0.049 A 
ATOM     50  H   UNL A   1      39.784  30.636  31.966  1.00  0.00     0.167 HD
ATOM     51  C   UNL A   1      40.208  33.152  35.518  1.00  0.00     0.034 A 
ATOM     52  C   UNL A   1      40.658  28.705  30.138  1.00  0.00     0.034 A 
ATOM     53  C   UNL A   1      41.228  32.148  35.645  1.00  0.00     0.049 A 
ATOM     54  C   UNL A   1      41.601  28.634  31.310  1.00  0.00     0.074 A 
ATOM     55  C   UNL A   1      42.126  31.959  36.681  1.00  0.00     0.029 A 
ATOM     56  N   UNL A   1      41.487  31.160  34.707  1.00  0.00    -0.354 N 
ATOM     57  N   UNL A   1      41.598  29.338  32.415  1.00  0.00    -0.248 NA
ATOM     58  C   UNL A   1      42.665  27.621  31.246  1.00  0.00     0.031 C 
ATOM     59  C   UNL A   1      42.930  30.858  36.368  1.00  0.00     0.029 A 
ATOM     60  C   UNL A   1      42.526  30.356  35.142  1.00  0.00     0.049 A 
ATOM     61  H   UNL A   1      41.003  31.048  33.857  1.00  0.00     0.167 HD
ATOM     62  C   UNL A   1      42.632  28.829  33.194  1.00  0.00     0.074 A 
ATOM     63  C   UNL A   1      43.224  27.742  32.442  1.00  0.00     0.031 C 
ATOM     64  C   UNL A   1      43.062  29.235  34.413  1.00  0.00     0.034 A 
BRANCH  51  65
ATOM     65  C   UNL A   1      40.060  34.161  36.627  1.00  0.00     0.023 A 
ATOM     66  C   UNL A   1      40.394  35.509  36.377  1.00  0.00     0.012 A 
ATOM     67  C   UNL A   1      39.540  33.800  37.884  1.00  0.00     0.148 A 
ATOM     68  C   UNL A   1      40.245  36.474  37.369  1.00  0.00     0.002 A 
ATOM     69  C   UNL A   1      39.355  34.777  38.857  1.00  0.00     0.091 A 
ATOM     70  F   UNL A   1      39.247  32.512  38.110  1.00  0.00    -0.205 F 
ATOM     71  C   UNL A   1      39.717  36.111  38.605  1.00  0.00     0.022 A 
BRANCH  69  72
ATOM     72  S   UNL A   1      38.612  34.426  40.454  1.00  0.00     0.127 S 
ATOM     73  O   UNL A   1      37.387  33.729  40.063  1.00  0.00    -0.237 OA
ATOM     74  O   UNL A   1      39.623  33.576  41.085  1.00  0.00    -0.237 OA
ATOM     75  O   UNL A   1      38.419  35.717  41.099  1.00  0.00    -0.744 OA
ENDBRANCH  69  72
ENDBRANCH  51  65
BRANCH  52  76
ATOM     76  C   UNL A   1      40.787  27.751  29.000  1.00  0.00     0.023 A 
ATOM     77  C   UNL A   1      39.972  26.602  28.975  1.00  0.00     0.012 A 
ATOM     78  C   UNL A   1      41.691  27.972  27.943  1.00  0.00     0.148 A 
ATOM     79  C   UNL A   1      40.078  25.674  27.939  1.00  0.00     0.002 A 
ATOM     80  C   UNL A   1      41.755  27.070  26.885  1.00  0.00     0.091 A 
ATOM     81  F   UNL A   1      42.472  29.061  27.990  1.00  0.00    -0.205 F 
ATOM     82  C   UNL A   1      40.962  25.912  26.890  1.00  0.00     0.022 A 
BRANCH  80  83
ATOM     83  S   UNL A   1      42.771  27.368  25.434  1.00  0.00     0.127 S 
ATOM     84  O   UNL A   1      44.090  27.565  26.028  1.00  0.00    -0.237 OA
ATOM     85  O   UNL A   1      42.612  26.119  24.687  1.00  0.00    -0.237 OA
ATOM     86  O   UNL A   1      42.183  28.530  24.783  1.00  0.00    -0.744 OA
ENDBRANCH  80  83
ENDBRANCH  52  76
BRANCH  64  87
ATOM     87  C   UNL A   1      44.207  28.482  35.038  1.00  0.00     0.023 A 
ATOM     88  C   UNL A   1      45.530  28.799  34.676  1.00  0.00     0.012 A 
ATOM     89  C   UNL A   1      43.974  27.517  36.038  1.00  0.00     0.148 A 
ATOM     90  C   UNL A   1      46.605  28.148  35.279  1.00  0.00     0.002 A 
ATOM     91  C   UNL A   1      45.051  26.904  36.666  1.00  0.00     0.091 A 
ATOM     92  F   UNL A   1      42.706  27.214  36.353  1.00  0.00    -0.205 F 
ATOM     93  C   UNL A   1      46.367  27.211  36.281  1.00  0.00     0.022 A 
BRANCH  91  94
ATOM     94  S   UNL A   1      44.839  25.754  38.031  1.00  0.00     0.127 S 
ATOM     95  O   UNL A   1      46.210  25.609  38.515  1.00  0.00    -0.237 OA
ATOM     96  O   UNL A   1      43.949  26.494  38.928  1.00  0.00    -0.237 OA
ATOM     97  O   UNL A   1      44.248  24.555  37.452  1.00  0.00    -0.744 OA
ENDBRANCH  91  94
ENDBRANCH  64  87
ENDBRANCH  38  39
ENDBRANCH  30  33
ENDBRANCH  28  29
ENDBRANCH  27  28
ENDBRANCH   1  27
TORSDOF 18
ENDMDL
MODEL 2
REMARK VINA RESULT:     -11.7      3.312      4.377
REMARK SMILES O=C(CNC(=O)c1ccco1)Nc1cccc(C(=O)NCCCCNC(=O)c2ccc(-c3c4nc(c(-c5cccc(S(=O)(=O)[O-])c5F)c5ccc([nH]5)c(-c5cccc(S(=O)(=O)[O-])c5F)c5nc(c(-c6cccc(S(=O)(=O)[O-])c6F)c6ccc3[nH]6)C=C5)C=C4)cc2)c1
REMARK SMILES IDX 22 1 21 2 20 3 18 4 19 5 17 7 13 8 14 9 91 10 15 11 16 12
REMARK SMILES IDX 12 13 1 14 2 15 3 17 4 18 5 19 6 21 7 22 8 23 11 24 9 25
REMARK SMILES IDX 10 26 23 27 24 28 25 29 26 30 27 32 28 33 29 34 90 35 30 36
REMARK SMILES IDX 89 37 31 38 32 39 33 40 83 41 34 42 88 43 82 44 84 45 35 46
REMARK SMILES IDX 87 47 81 48 80 49 36 51 68 52 48 53 67 54 49 55 52 56 66 57
REMARK SMILES IDX 85 58 50 59 51 60 65 62 86 63 53 64 37 65 38 66 46 67 39 68
REMARK SMILES IDX 41 69 47 70 40 71 42 72 43 73 44 74 45 75 69 76 70 77 78 78
REMARK SMILES IDX 71 79 73 80 79 81 72 82 74 83 75 84 76 85 77 86 54 87 55 88
REMARK SMILES IDX 63 89 56 90 58 91 64 92 57 93 59 94 60 95 61 96 62 97
REMARK H PARENT 20 6 12 16 4 20 25 31 84 50 52 61
REMARK Flexibility Score: inf
ROOT
ATOM      1  C   UNL A   1      32.842  29.427  24.664  1.00  0.00     0.023 C 
ENDROOT
BRANCH   1   2
ATOM      2  C   UNL A   1      31.346  29.352  24.943  1.00  0.00     0.116 C 
BRANCH   2   3
ATOM      3  N   UNL A   1      30.494  29.631  23.793  1.00  0.00    -0.352 N 
ATOM      4  C   UNL A   1      30.062  28.793  22.785  1.00  0.00     0.251 C 
ATOM      5  O   UNL A   1      29.356  29.233  21.880  1.00  0.00    -0.269 OA
ATOM      6  H   UNL A   1      30.180  30.562  23.725  1.00  0.00     0.163 HD
BRANCH   4   7
ATOM      7  C   UNL A   1      30.496  27.373  22.737  1.00  0.00     0.041 A 
ATOM      8  C   UNL A   1      30.516  25.178  23.756  1.00  0.00     0.042 A 
ATOM      9  C   UNL A   1      31.608  24.831  22.953  1.00  0.00     0.026 A 
ATOM     10  C   UNL A   1      29.895  26.407  23.545  1.00  0.00     0.040 A 
ATOM     11  C   UNL A   1      32.113  25.738  22.012  1.00  0.00     0.003 A 
ATOM     12  C   UNL A   1      31.578  27.023  21.927  1.00  0.00     0.014 A 
BRANCH   8  13
ATOM     13  N   UNL A   1      30.189  24.339  24.848  1.00  0.00    -0.325 N 
ATOM     14  O   UNL A   1      31.167  25.491  26.629  1.00  0.00    -0.273 OA
ATOM     15  C   UNL A   1      30.621  24.495  26.158  1.00  0.00     0.243 C 
ATOM     16  H   UNL A   1      29.601  23.572  24.660  1.00  0.00     0.169 HD
BRANCH  15  17
ATOM     17  C   UNL A   1      30.616  23.197  26.968  1.00  0.00     0.216 C 
BRANCH  17  18
ATOM     18  N   UNL A   1      30.825  21.997  26.179  1.00  0.00    -0.340 N 
ATOM     19  C   UNL A   1      31.976  21.543  25.575  1.00  0.00     0.287 C 
ATOM     20  H   UNL A   1      30.032  21.426  26.059  1.00  0.00     0.164 HD
ATOM     21  O   UNL A   1      31.859  20.567  24.839  1.00  0.00    -0.266 OA
BRANCH  19  22
ATOM     22  C   UNL A   1      33.231  22.232  25.804  1.00  0.00     0.191 A 
ATOM     23  C   UNL A   1      34.067  22.359  26.901  1.00  0.00     0.056 A 
ATOM     24  O   UNL A   1      33.783  22.906  24.746  1.00  0.00    -0.459 OA
ATOM     25  C   UNL A   1      35.146  23.187  26.506  1.00  0.00     0.043 A 
ATOM     26  C   UNL A   1      34.927  23.489  25.184  1.00  0.00     0.196 A 
ENDBRANCH  19  22
ENDBRANCH  17  18
ENDBRANCH  15  17
ENDBRANCH   8  13
ENDBRANCH   4   7
ENDBRANCH   2   3
ENDBRANCH   1   2
BRANCH   1  27
ATOM     27  C   UNL A   1      33.718  28.414  25.390  1.00  0.00     0.023 C 
BRANCH  27  28
ATOM     28  C   UNL A   1      34.507  28.940  26.584  1.00  0.00     0.116 C 
BRANCH  28  29
ATOM     29  N   UNL A   1      34.163  30.304  26.966  1.00  0.00    -0.352 N 
ATOM     30  C   UNL A   1      34.782  31.150  27.859  1.00  0.00     0.251 C 
ATOM     31  H   UNL A   1      33.370  30.676  26.517  1.00  0.00     0.163 HD
ATOM     32  O   UNL A   1      34.285  32.245  28.109  1.00  0.00    -0.269 OA
BRANCH  30  33
ATOM     33  C   UNL A   1      36.022  30.723  28.549  1.00  0.00     0.039 A 
ATOM     34  C   UNL A   1      35.940  29.740  29.540  1.00  0.00     0.014 A 
ATOM     35  C   UNL A   1      37.262  31.264  28.202  1.00  0.00     0.014 A 
ATOM     36  C   UNL A   1      37.111  29.230  30.110  1.00  0.00     0.010 A 
ATOM     37  C   UNL A   1      38.429  30.698  28.711  1.00  0.00     0.010 A 
ATOM     38  C   UNL A   1      38.368  29.670  29.664  1.00  0.00    -0.014 A 
BRANCH  38  39
ATOM     39  C   UNL A   1      39.630  29.053  30.154  1.00  0.00     0.031 A 
ATOM     40  C   UNL A   1      40.321  29.604  31.373  1.00  0.00     0.074 A 
ATOM     41  C   UNL A   1      40.210  28.065  29.442  1.00  0.00     0.049 A 
ATOM     42  N   UNL A   1      41.467  29.258  31.898  1.00  0.00    -0.248 NA
ATOM     43  C   UNL A   1      39.648  30.707  32.079  1.00  0.00     0.031 C 
ATOM     44  C   UNL A   1      39.685  27.495  28.198  1.00  0.00     0.029 A 
ATOM     45  N   UNL A   1      41.384  27.381  29.647  1.00  0.00    -0.354 N 
ATOM     46  C   UNL A   1      41.670  30.120  32.969  1.00  0.00     0.074 A 
ATOM     47  C   UNL A   1      40.545  31.029  32.999  1.00  0.00     0.031 C 
ATOM     48  C   UNL A   1      40.528  26.547  27.756  1.00  0.00     0.029 A 
ATOM     49  C   UNL A   1      41.666  26.458  28.666  1.00  0.00     0.049 A 
ATOM     50  H   UNL A   1      41.968  27.537  30.424  1.00  0.00     0.167 HD
ATOM     51  C   UNL A   1      42.682  30.132  33.871  1.00  0.00     0.034 A 
ATOM     52  C   UNL A   1      42.722  25.634  28.515  1.00  0.00     0.034 A 
ATOM     53  C   UNL A   1      43.772  29.196  33.874  1.00  0.00     0.049 A 
ATOM     54  C   UNL A   1      43.809  25.641  29.557  1.00  0.00     0.074 A 
ATOM     55  C   UNL A   1      44.804  29.079  34.788  1.00  0.00     0.029 A 
ATOM     56  N   UNL A   1      43.970  28.211  32.919  1.00  0.00    -0.354 N 
ATOM     57  N   UNL A   1      43.903  26.361  30.647  1.00  0.00    -0.248 NA
ATOM     58  C   UNL A   1      44.919  24.694  29.365  1.00  0.00     0.031 C 
ATOM     59  C   UNL A   1      45.630  28.026  34.383  1.00  0.00     0.029 A 
ATOM     60  C   UNL A   1      45.106  27.479  33.223  1.00  0.00     0.049 A 
ATOM     61  H   UNL A   1      43.390  28.054  32.140  1.00  0.00     0.167 HD
ATOM     62  C   UNL A   1      45.058  25.930  31.291  1.00  0.00     0.074 A 
ATOM     63  C   UNL A   1      45.617  24.870  30.478  1.00  0.00     0.031 C 
ATOM     64  C   UNL A   1      45.614  26.381  32.442  1.00  0.00     0.034 A 
BRANCH  51  65
ATOM     65  C   UNL A   1      42.613  31.149  34.981  1.00  0.00     0.023 A 
ATOM     66  C   UNL A   1      42.036  30.780  36.214  1.00  0.00     0.012 A 
ATOM     67  C   UNL A   1      43.163  32.436  34.833  1.00  0.00     0.148 A 
ATOM     68  C   UNL A   1      41.978  31.685  37.271  1.00  0.00     0.002 A 
ATOM     69  C   UNL A   1      43.140  33.321  35.906  1.00  0.00     0.091 A 
ATOM     70  F   UNL A   1      43.690  32.775  33.648  1.00  0.00    -0.205 F 
ATOM     71  C   UNL A   1      42.538  32.951  37.121  1.00  0.00     0.022 A 
BRANCH  69  72
ATOM     72  S   UNL A   1      43.900  34.947  35.840  1.00  0.00     0.127 S 
ATOM     73  O   UNL A   1      45.303  34.607  35.601  1.00  0.00    -0.237 OA
ATOM     74  O   UNL A   1      43.219  35.560  34.699  1.00  0.00    -0.237 OA
ATOM     75  O   UNL A   1      43.619  35.574  37.123  1.00  0.00    -0.744 OA
ENDBRANCH  69  72
ENDBRANCH  51  65
BRANCH  52  76
ATOM     76  C   UNL A   1      42.765  24.671  27.378  1.00  0.00     0.023 A 
ATOM     77  C   UNL A   1      43.436  25.039  26.195  1.00  0.00     0.012 A 
ATOM     78  C   UNL A   1      42.166  23.400  27.458  1.00  0.00     0.148 A 
ATOM     79  C   UNL A   1      43.480  24.175  25.100  1.00  0.00     0.002 A 
ATOM     80  C   UNL A   1      42.260  22.521  26.382  1.00  0.00     0.091 A 
ATOM     81  F   UNL A   1      41.518  23.071  28.584  1.00  0.00    -0.205 F 
ATOM     82  C   UNL A   1      42.901  22.913  25.197  1.00  0.00     0.022 A 
BRANCH  80  83
ATOM     83  S   UNL A   1      41.654  20.832  26.472  1.00  0.00     0.127 S 
ATOM     84  O   UNL A   1      42.071  20.435  27.814  1.00  0.00    -0.237 OA
ATOM     85  O   UNL A   1      40.211  21.015  26.305  1.00  0.00    -0.237 OA
ATOM     86  O   UNL A   1      42.297  20.132  25.369  1.00  0.00    -0.744 OA
ENDBRANCH  80  83
ENDBRANCH  52  76
BRANCH  64  87
ATOM     87  C   UNL A   1      46.874  25.711  32.920  1.00  0.00     0.023 A 
ATOM     88  C   UNL A   1      48.127  26.207  32.510  1.00  0.00     0.012 A 
ATOM     89  C   UNL A   1      46.818  24.642  33.837  1.00  0.00     0.148 A 
ATOM     90  C   UNL A   1      49.305  25.631  32.981  1.00  0.00     0.002 A 
ATOM     91  C   UNL A   1      47.997  24.102  34.336  1.00  0.00     0.091 A 
ATOM     92  F   UNL A   1      45.616  24.171  34.198  1.00  0.00    -0.205 F 
ATOM     93  C   UNL A   1      49.241  24.588  33.902  1.00  0.00     0.022 A 
BRANCH  91  94
ATOM     94  S   UNL A   1      48.007  22.821  35.595  1.00  0.00     0.127 S 
ATOM     95  O   UNL A   1      49.432  22.511  35.695  1.00  0.00    -0.237 OA
ATOM     96  O   UNL A   1      47.451  23.518  36.756  1.00  0.00    -0.237 OA
ATOM     97  O   UNL A   1      47.167  21.748  35.079  1.00  0.00    -0.744 OA
ENDBRANCH  91  94
ENDBRANCH  64  87
ENDBRANCH  38  39
ENDBRANCH  30  33
ENDBRANCH  28  29
ENDBRANCH  27  28
ENDBRANCH   1  27
TORSDOF 18
ENDMDL
MODEL 3
REMARK VINA RESULT:     -11.6      1.330      7.616
REMARK SMILES O=C(CNC(=O)c1ccco1)Nc1cccc(C(=O)NCCCCNC(=O)c2ccc(-c3c4nc(c(-c5cccc(S(=O)(=O)[O-])c5F)c5ccc([nH]5)c(-c5cccc(S(=O)(=O)[O-])c5F)c5nc(c(-c6cccc(S(=O)(=O)[O-])c6F)c6ccc3[nH]6)C=C5)C=C4)cc2)c1
REMARK SMILES IDX 22 1 21 2 20 3 18 4 19 5 17 7 13 8 14 9 91 10 15 11 16 12
REMARK SMILES IDX 12 13 1 14 2 15 3 17 4 18 5 19 6 21 7 22 8 23 11 24 9 25
REMARK SMILES IDX 10 26 23 27 24 28 25 29 26 30 27 32 28 33 29 34 90 35 30 36
REMARK SMILES IDX 89 37 31 38 32 39 33 40 83 41 34 42 88 43 82 44 84 45 35 46
REMARK SMILES IDX 87 47 81 48 80 49 36 51 68 52 48 53 67 54 49 55 52 56 66 57
REMARK SMILES IDX 85 58 50 59 51 60 65 62 86 63 53 64 37 65 38 66 46 67 39 68
REMARK SMILES IDX 41 69 47 70 40 71 42 72 43 73 44 74 45 75 69 76 70 77 78 78
REMARK SMILES IDX 71 79 73 80 79 81 72 82 74 83 75 84 76 85 77 86 54 87 55 88
REMARK SMILES IDX 63 89 56 90 58 91 64 92 57 93 59 94 60 95 61 96 62 97
REMARK H PARENT 20 6 12 16 4 20 25 31 84 50 52 61
REMARK Flexibility Score: inf
ROOT
ATOM      1  C   UNL A   1      31.736  30.397  26.864  1.00  0.00     0.023 C 
ENDROOT
BRANCH   1   2
ATOM      2  C   UNL A   1      33.082  29.739  26.588  1.00  0.00     0.116 C 
BRANCH   2   3
ATOM      3  N   UNL A   1      33.446  29.659  25.179  1.00  0.00    -0.352 N 
ATOM      4  C   UNL A   1      33.045  28.763  24.208  1.00  0.00     0.251 C 
ATOM      5  O   UNL A   1      33.489  28.852  23.066  1.00  0.00    -0.269 OA
ATOM      6  H   UNL A   1      34.076  30.350  24.872  1.00  0.00     0.163 HD
BRANCH   4   7
ATOM      7  C   UNL A   1      32.131  27.639  24.541  1.00  0.00     0.041 A 
ATOM      8  C   UNL A   1      31.843  25.343  25.248  1.00  0.00     0.042 A 
ATOM      9  C   UNL A   1      30.528  25.375  24.768  1.00  0.00     0.026 A 
ATOM     10  C   UNL A   1      32.586  26.521  25.240  1.00  0.00     0.040 A 
ATOM     11  C   UNL A   1      30.003  26.551  24.219  1.00  0.00     0.003 A 
ATOM     12  C   UNL A   1      30.815  27.676  24.074  1.00  0.00     0.014 A 
BRANCH   8  13
ATOM     13  N   UNL A   1      32.411  24.088  25.572  1.00  0.00    -0.325 N 
ATOM     14  O   UNL A   1      31.323  23.587  27.577  1.00  0.00    -0.273 OA
ATOM     15  C   UNL A   1      32.196  23.369  26.740  1.00  0.00     0.243 C 
ATOM     16  H   UNL A   1      33.017  23.688  24.906  1.00  0.00     0.169 HD
BRANCH  15  17
ATOM     17  C   UNL A   1      33.326  22.395  27.081  1.00  0.00     0.216 C 
BRANCH  17  18
ATOM     18  N   UNL A   1      33.264  21.132  26.369  1.00  0.00    -0.340 N 
ATOM     19  C   UNL A   1      34.066  20.669  25.349  1.00  0.00     0.287 C 
ATOM     20  H   UNL A   1      32.549  20.519  26.654  1.00  0.00     0.164 HD
ATOM     21  O   UNL A   1      33.719  19.620  24.812  1.00  0.00    -0.266 OA
BRANCH  19  22
ATOM     22  C   UNL A   1      35.234  21.429  24.947  1.00  0.00     0.191 A 
ATOM     23  C   UNL A   1      35.440  22.468  24.055  1.00  0.00     0.056 A 
ATOM     24  O   UNL A   1      36.424  21.125  25.556  1.00  0.00    -0.459 OA
ATOM     25  C   UNL A   1      36.823  22.775  24.088  1.00  0.00     0.043 A 
ATOM     26  C   UNL A   1      37.375  21.931  25.020  1.00  0.00     0.196 A 
ENDBRANCH  19  22
ENDBRANCH  17  18
ENDBRANCH  15  17
ENDBRANCH   8  13
ENDBRANCH   4   7
ENDBRANCH   2   3
ENDBRANCH   1   2
BRANCH   1  27
ATOM     27  C   UNL A   1      31.668  31.906  26.671  1.00  0.00     0.023 C 
BRANCH  27  28
ATOM     28  C   UNL A   1      32.805  32.716  27.285  1.00  0.00     0.116 C 
BRANCH  28  29
ATOM     29  N   UNL A   1      32.434  34.081  27.637  1.00  0.00    -0.352 N 
ATOM     30  C   UNL A   1      32.993  34.932  28.565  1.00  0.00     0.251 C 
ATOM     31  H   UNL A   1      31.673  34.451  27.134  1.00  0.00     0.163 HD
ATOM     32  O   UNL A   1      32.479  36.028  28.776  1.00  0.00    -0.269 OA
BRANCH  30  33
ATOM     33  C   UNL A   1      34.183  34.509  29.339  1.00  0.00     0.039 A 
ATOM     34  C   UNL A   1      34.001  33.905  30.586  1.00  0.00     0.014 A 
ATOM     35  C   UNL A   1      35.472  34.678  28.825  1.00  0.00     0.014 A 
ATOM     36  C   UNL A   1      35.102  33.383  31.271  1.00  0.00     0.010 A 
ATOM     37  C   UNL A   1      36.555  34.084  29.470  1.00  0.00     0.010 A 
ATOM     38  C   UNL A   1      36.382  33.423  30.695  1.00  0.00    -0.014 A 
BRANCH  38  39
ATOM     39  C   UNL A   1      37.549  32.758  31.336  1.00  0.00     0.031 A 
ATOM     40  C   UNL A   1      38.297  31.672  30.611  1.00  0.00     0.074 A 
ATOM     41  C   UNL A   1      37.870  33.059  32.612  1.00  0.00     0.049 A 
ATOM     42  N   UNL A   1      39.278  30.921  31.037  1.00  0.00    -0.248 NA
ATOM     43  C   UNL A   1      37.868  31.372  29.234  1.00  0.00     0.031 C 
ATOM     44  C   UNL A   1      37.173  34.035  33.454  1.00  0.00     0.029 A 
ATOM     45  N   UNL A   1      38.848  32.554  33.433  1.00  0.00    -0.354 N 
ATOM     46  C   UNL A   1      39.560  30.038  30.001  1.00  0.00     0.074 A 
ATOM     47  C   UNL A   1      38.622  30.324  28.937  1.00  0.00     0.031 C 
ATOM     48  C   UNL A   1      37.749  34.062  34.667  1.00  0.00     0.029 A 
ATOM     49  C   UNL A   1      38.837  33.089  34.701  1.00  0.00     0.049 A 
ATOM     50  H   UNL A   1      39.497  31.874  33.142  1.00  0.00     0.167 HD
ATOM     51  C   UNL A   1      40.535  29.100  29.924  1.00  0.00     0.034 A 
ATOM     52  C   UNL A   1      39.612  32.824  35.772  1.00  0.00     0.034 A 
ATOM     53  C   UNL A   1      41.500  28.853  30.959  1.00  0.00     0.049 A 
ATOM     54  C   UNL A   1      40.714  31.807  35.642  1.00  0.00     0.074 A 
ATOM     55  C   UNL A   1      42.571  27.976  30.946  1.00  0.00     0.029 A 
ATOM     56  N   UNL A   1      41.517  29.485  32.192  1.00  0.00    -0.354 N 
ATOM     57  N   UNL A   1      41.059  31.092  34.600  1.00  0.00    -0.248 NA
ATOM     58  C   UNL A   1      41.557  31.585  36.827  1.00  0.00     0.031 C 
ATOM     59  C   UNL A   1      43.233  28.075  32.173  1.00  0.00     0.029 A 
ATOM     60  C   UNL A   1      42.581  29.021  32.947  1.00  0.00     0.049 A 
ATOM     61  H   UNL A   1      40.868  30.163  32.488  1.00  0.00     0.167 HD
ATOM     62  C   UNL A   1      42.181  30.367  34.988  1.00  0.00     0.074 A 
ATOM     63  C   UNL A   1      42.468  30.745  36.356  1.00  0.00     0.031 C 
ATOM     64  C   UNL A   1      42.896  29.457  34.283  1.00  0.00     0.034 A 
BRANCH  51  65
ATOM     65  C   UNL A   1      40.652  28.322  28.639  1.00  0.00     0.023 A 
ATOM     66  C   UNL A   1      41.284  28.920  27.529  1.00  0.00     0.012 A 
ATOM     67  C   UNL A   1      40.198  26.993  28.541  1.00  0.00     0.148 A 
ATOM     68  C   UNL A   1      41.433  28.222  26.333  1.00  0.00     0.002 A 
ATOM     69  C   UNL A   1      40.388  26.287  27.358  1.00  0.00     0.091 A 
ATOM     70  F   UNL A   1      39.582  26.447  29.599  1.00  0.00    -0.205 F 
ATOM     71  C   UNL A   1      40.995  26.904  26.251  1.00  0.00     0.022 A 
BRANCH  69  72
ATOM     72  S   UNL A   1      39.927  24.561  27.173  1.00  0.00     0.127 S 
ATOM     73  O   UNL A   1      40.402  24.272  25.820  1.00  0.00    -0.237 OA
ATOM     74  O   UNL A   1      40.697  23.920  28.239  1.00  0.00    -0.237 OA
ATOM     75  O   UNL A   1      38.483  24.509  27.353  1.00  0.00    -0.744 OA
ENDBRANCH  69  72
ENDBRANCH  51  65
BRANCH  52  76
ATOM     76  C   UNL A   1      39.433  33.594  37.036  1.00  0.00     0.023 A 
ATOM     77  C   UNL A   1      40.000  34.880  37.140  1.00  0.00     0.012 A 
ATOM     78  C   UNL A   1      38.703  33.077  38.123  1.00  0.00     0.148 A 
ATOM     79  C   UNL A   1      39.874  35.623  38.314  1.00  0.00     0.002 A 
ATOM     80  C   UNL A   1      38.535  33.845  39.272  1.00  0.00     0.091 A 
ATOM     81  F   UNL A   1      38.184  31.846  38.015  1.00  0.00    -0.205 F 
ATOM     82  C   UNL A   1      39.134  35.110  39.376  1.00  0.00     0.022 A 
BRANCH  80  83
ATOM     83  S   UNL A   1      37.490  33.313  40.633  1.00  0.00     0.127 S 
ATOM     84  O   UNL A   1      36.265  32.930  39.938  1.00  0.00    -0.237 OA
ATOM     85  O   UNL A   1      38.257  32.198  41.190  1.00  0.00    -0.237 OA
ATOM     86  O   UNL A   1      37.390  34.467  41.516  1.00  0.00    -0.744 OA
ENDBRANCH  80  83
ENDBRANCH  52  76
BRANCH  64  87
ATOM     87  C   UNL A   1      44.087  28.829  34.957  1.00  0.00     0.023 A 
ATOM     88  C   UNL A   1      45.338  29.474  34.905  1.00  0.00     0.012 A 
ATOM     89  C   UNL A   1      43.949  27.643  35.705  1.00  0.00     0.148 A 
ATOM     90  C   UNL A   1      46.441  28.934  35.564  1.00  0.00     0.002 A 
ATOM     91  C   UNL A   1      45.042  27.135  36.396  1.00  0.00     0.091 A 
ATOM     92  F   UNL A   1      42.755  27.033  35.724  1.00  0.00    -0.205 F 
ATOM     93  C   UNL A   1      46.291  27.773  36.319  1.00  0.00     0.022 A 
BRANCH  91  94
ATOM     94  S   UNL A   1      44.917  25.697  37.466  1.00  0.00     0.127 S 
ATOM     95  O   UNL A   1      46.218  25.705  38.131  1.00  0.00    -0.237 OA
ATOM     96  O   UNL A   1      43.788  26.047  38.330  1.00  0.00    -0.237 OA
ATOM     97  O   UNL A   1      44.670  24.564  36.584  1.00  0.00    -0.744 OA
ENDBRANCH  91  94
ENDBRANCH  64  87
ENDBRANCH  38  39
ENDBRANCH  30  33
ENDBRANCH  28  29
ENDBRANCH  27  28
ENDBRANCH   1  27
TORSDOF 18
ENDMDL
