MODEL 1
REMARK VINA RESULT:      -8.9      0.000      0.000
REMARK SMILES CCOC(=O)c1cccc(Nc2c(-c3ccc(C(=O)NCCCCNC(=O)c4ccc(-c5c6nc(c(-c7cccc(S(=O)(=O)[O-])c7F)c7ccc([nH]7)c(-c7cccc(S(=O)(=O)[O-])c7F)c7nc(c(-c8cccc(S(=O)(=O)[O-])c8F)c8ccc5[nH]8)C=C7)C=C6)cc4)cc3)nc3cnccn23)c1
REMARK SMILES IDX 21 1 20 2 18 3 19 4 17 6 14 7 15 8 92 9 16 10 91 11 13 12
REMARK SMILES IDX 12 13 99 14 93 15 94 16 98 17 95 18 97 19 96 20 11 21 10 23
REMARK SMILES IDX 6 24 7 25 100 26 8 27 9 28 4 29 5 30 3 31 2 32 1 33 22 34
REMARK SMILES IDX 23 35 24 36 25 37 26 38 27 40 28 41 29 42 90 43 30 44 89 45
REMARK SMILES IDX 31 46 32 47 33 48 83 49 34 50 88 51 82 52 84 53 35 54 87 55
REMARK SMILES IDX 81 56 80 57 36 59 68 60 48 61 67 62 49 63 52 64 66 65 85 66
REMARK SMILES IDX 50 67 51 68 65 70 86 71 53 72 37 73 38 74 46 75 39 76 41 77
REMARK SMILES IDX 47 78 40 79 42 80 43 81 44 82 45 83 69 84 70 85 78 86 71 87
REMARK SMILES IDX 73 88 79 89 72 90 74 91 75 92 76 93 77 94 54 95 55 96 63 97
REMARK SMILES IDX 56 98 58 99 64 100 57 101 59 102 60 103 61 104 62 105
REMARK H PARENT 20 5 11 22 25 39 84 58 52 69
REMARK Flexibility Score: inf
ROOT
ATOM      1  C   UNL A   1      38.495  32.321  37.351  1.00  0.00     0.116 C 
ENDROOT
BRANCH   1   2
ATOM      2  N   UNL A   1      38.963  31.223  36.528  1.00  0.00    -0.352 N 
ATOM      3  C   UNL A   1      38.685  30.870  35.234  1.00  0.00     0.251 C 
ATOM      4  O   UNL A   1      39.271  29.894  34.763  1.00  0.00    -0.269 OA
ATOM      5  H   UNL A   1      39.596  30.622  36.982  1.00  0.00     0.163 HD
BRANCH   3   6
ATOM      6  C   UNL A   1      37.740  31.622  34.359  1.00  0.00     0.039 A 
ATOM      7  C   UNL A   1      36.077  33.207  32.732  1.00  0.00     0.004 A 
ATOM      8  C   UNL A   1      36.994  33.814  33.594  1.00  0.00     0.011 A 
ATOM      9  C   UNL A   1      35.995  31.817  32.676  1.00  0.00     0.011 A 
ATOM     10  C   UNL A   1      37.815  33.025  34.405  1.00  0.00     0.014 A 
ATOM     11  C   UNL A   1      36.844  31.033  33.463  1.00  0.00     0.014 A 
BRANCH   7  12
ATOM     12  C   UNL A   1      35.259  33.999  31.844  1.00  0.00     0.114 A 
ATOM     13  C   UNL A   1      35.356  33.968  30.459  1.00  0.00     0.143 A 
ATOM     14  N   UNL A   1      34.353  34.812  30.035  1.00  0.00    -0.283 N 
ATOM     15  N   UNL A   1      34.280  34.861  32.277  1.00  0.00    -0.225 NA
ATOM     16  C   UNL A   1      33.775  35.342  31.163  1.00  0.00     0.157 A 
ATOM     17  C   UNL A   1      33.859  35.155  28.787  1.00  0.00     0.115 A 
ATOM     18  C   UNL A   1      32.708  36.289  31.007  1.00  0.00     0.158 A 
ATOM     19  C   UNL A   1      32.845  36.036  28.721  1.00  0.00     0.129 A 
ATOM     20  N   UNL A   1      32.258  36.632  29.827  1.00  0.00    -0.259 NA
BRANCH  13  21
ATOM     21  N   UNL A   1      36.149  33.231  29.633  1.00  0.00    -0.339 N 
ATOM     22  H   UNL A   1      35.726  32.817  28.847  1.00  0.00     0.168 HD
BRANCH  21  23
ATOM     23  C   UNL A   1      37.539  33.015  29.817  1.00  0.00     0.040 A 
ATOM     24  C   UNL A   1      39.375  31.434  30.063  1.00  0.00     0.062 A 
ATOM     25  C   UNL A   1      40.274  32.487  30.246  1.00  0.00     0.016 A 
ATOM     26  C   UNL A   1      38.019  31.694  29.825  1.00  0.00     0.041 A 
ATOM     27  C   UNL A   1      39.820  33.799  30.182  1.00  0.00     0.003 A 
ATOM     28  C   UNL A   1      38.464  34.058  29.972  1.00  0.00     0.026 A 
BRANCH  24  29
ATOM     29  C   UNL A   1      39.883  30.055  30.214  1.00  0.00     0.338 C 
ATOM     30  O   UNL A   1      40.275  29.385  29.274  1.00  0.00    -0.246 OA
BRANCH  29  31
ATOM     31  O   UNL A   1      39.781  29.661  31.507  1.00  0.00    -0.462 OA
BRANCH  31  32
ATOM     32  C   UNL A   1      39.629  28.246  31.704  1.00  0.00     0.230 C 
ATOM     33  C   UNL A   1      38.205  27.879  32.089  1.00  0.00     0.049 C 
ENDBRANCH  31  32
ENDBRANCH  29  31
ENDBRANCH  24  29
ENDBRANCH  21  23
ENDBRANCH  13  21
ENDBRANCH   7  12
ENDBRANCH   3   6
ENDBRANCH   1   2
BRANCH   1  34
ATOM     34  C   UNL A   1      39.543  32.694  38.403  1.00  0.00     0.023 C 
BRANCH  34  35
ATOM     35  C   UNL A   1      39.262  34.006  39.139  1.00  0.00     0.023 C 
BRANCH  35  36
ATOM     36  C   UNL A   1      40.424  34.539  39.971  1.00  0.00     0.116 C 
BRANCH  36  37
ATOM     37  N   UNL A   1      40.622  35.973  39.825  1.00  0.00    -0.352 N 
ATOM     38  C   UNL A   1      41.135  36.660  38.752  1.00  0.00     0.251 C 
ATOM     39  H   UNL A   1      40.353  36.523  40.596  1.00  0.00     0.163 HD
ATOM     40  O   UNL A   1      41.335  37.869  38.836  1.00  0.00    -0.269 OA
BRANCH  38  41
ATOM     41  C   UNL A   1      41.480  35.929  37.516  1.00  0.00     0.039 A 
ATOM     42  C   UNL A   1      42.769  35.407  37.384  1.00  0.00     0.014 A 
ATOM     43  C   UNL A   1      40.534  35.740  36.505  1.00  0.00     0.014 A 
ATOM     44  C   UNL A   1      43.091  34.645  36.260  1.00  0.00     0.010 A 
ATOM     45  C   UNL A   1      40.838  34.927  35.418  1.00  0.00     0.010 A 
ATOM     46  C   UNL A   1      42.120  34.375  35.282  1.00  0.00    -0.014 A 
BRANCH  46  47
ATOM     47  C   UNL A   1      42.426  33.506  34.120  1.00  0.00     0.031 A 
ATOM     48  C   UNL A   1      42.513  32.015  34.289  1.00  0.00     0.074 A 
ATOM     49  C   UNL A   1      42.708  34.070  32.928  1.00  0.00     0.049 A 
ATOM     50  N   UNL A   1      42.790  31.101  33.395  1.00  0.00    -0.248 NA
ATOM     51  C   UNL A   1      42.288  31.480  35.643  1.00  0.00     0.031 C 
ATOM     52  C   UNL A   1      42.751  35.510  32.663  1.00  0.00     0.029 A 
ATOM     53  N   UNL A   1      43.038  33.501  31.724  1.00  0.00    -0.354 N 
ATOM     54  C   UNL A   1      42.807  29.892  34.082  1.00  0.00     0.074 A 
ATOM     55  C   UNL A   1      42.545  30.191  35.472  1.00  0.00     0.031 C 
ATOM     56  C   UNL A   1      43.084  35.710  31.378  1.00  0.00     0.029 A 
ATOM     57  C   UNL A   1      43.295  34.418  30.731  1.00  0.00     0.049 A 
ATOM     58  H   UNL A   1      43.086  32.528  31.584  1.00  0.00     0.167 HD
ATOM     59  C   UNL A   1      42.989  28.643  33.592  1.00  0.00     0.034 A 
ATOM     60  C   UNL A   1      43.655  34.239  29.446  1.00  0.00     0.034 A 
ATOM     61  C   UNL A   1      43.192  28.346  32.200  1.00  0.00     0.049 A 
ATOM     62  C   UNL A   1      43.781  32.836  28.914  1.00  0.00     0.074 A 
ATOM     63  C   UNL A   1      43.279  27.108  31.588  1.00  0.00     0.029 A 
ATOM     64  N   UNL A   1      43.341  29.296  31.203  1.00  0.00    -0.354 N 
ATOM     65  N   UNL A   1      43.605  31.698  29.540  1.00  0.00    -0.248 NA
ATOM     66  C   UNL A   1      44.111  32.692  27.489  1.00  0.00     0.031 C 
ATOM     67  C   UNL A   1      43.493  27.310  30.221  1.00  0.00     0.029 A 
ATOM     68  C   UNL A   1      43.526  28.675  29.980  1.00  0.00     0.049 A 
ATOM     69  H   UNL A   1      43.317  30.271  31.343  1.00  0.00     0.167 HD
ATOM     70  C   UNL A   1      43.772  30.705  28.581  1.00  0.00     0.074 A 
ATOM     71  C   UNL A   1      44.038  31.378  27.326  1.00  0.00     0.031 C 
ATOM     72  C   UNL A   1      43.729  29.358  28.729  1.00  0.00     0.034 A 
BRANCH  59  73
ATOM     73  C   UNL A   1      42.905  27.492  34.560  1.00  0.00     0.023 A 
ATOM     74  C   UNL A   1      41.670  26.838  34.747  1.00  0.00     0.012 A 
ATOM     75  C   UNL A   1      44.047  27.019  35.232  1.00  0.00     0.148 A 
ATOM     76  C   UNL A   1      41.567  25.748  35.610  1.00  0.00     0.002 A 
ATOM     77  C   UNL A   1      43.946  25.906  36.060  1.00  0.00     0.091 A 
ATOM     78  F   UNL A   1      45.207  27.668  35.058  1.00  0.00    -0.205 F 
ATOM     79  C   UNL A   1      42.705  25.276  36.258  1.00  0.00     0.022 A 
BRANCH  77  80
ATOM     80  S   UNL A   1      45.367  25.176  36.881  1.00  0.00     0.127 S 
ATOM     81  O   UNL A   1      46.099  26.366  37.316  1.00  0.00    -0.237 OA
ATOM     82  O   UNL A   1      44.741  24.416  37.964  1.00  0.00    -0.237 OA
ATOM     83  O   UNL A   1      46.036  24.362  35.877  1.00  0.00    -0.744 OA
ENDBRANCH  77  80
ENDBRANCH  59  73
BRANCH  60  84
ATOM     84  C   UNL A   1      43.835  35.417  28.553  1.00  0.00     0.023 A 
ATOM     85  C   UNL A   1      42.733  35.900  27.821  1.00  0.00     0.012 A 
ATOM     86  C   UNL A   1      45.072  36.080  28.448  1.00  0.00     0.148 A 
ATOM     87  C   UNL A   1      42.867  37.003  26.976  1.00  0.00     0.002 A 
ATOM     88  C   UNL A   1      45.187  37.210  27.646  1.00  0.00     0.091 A 
ATOM     89  F   UNL A   1      46.114  35.597  29.141  1.00  0.00    -0.205 F 
ATOM     90  C   UNL A   1      44.090  37.665  26.897  1.00  0.00     0.022 A 
BRANCH  88  91
ATOM     91  S   UNL A   1      46.687  38.197  27.592  1.00  0.00     0.127 S 
ATOM     92  O   UNL A   1      46.290  39.298  26.720  1.00  0.00    -0.237 OA
ATOM     93  O   UNL A   1      46.867  38.558  28.998  1.00  0.00    -0.237 OA
ATOM     94  O   UNL A   1      47.715  37.308  27.069  1.00  0.00    -0.744 OA
ENDBRANCH  88  91
ENDBRANCH  60  84
BRANCH  72  95
ATOM     95  C   UNL A   1      43.949  28.514  27.503  1.00  0.00     0.023 A 
ATOM     96  C   UNL A   1      42.838  28.034  26.781  1.00  0.00     0.012 A 
ATOM     97  C   UNL A   1      45.249  28.265  27.020  1.00  0.00     0.148 A 
ATOM     98  C   UNL A   1      43.017  27.296  25.613  1.00  0.00     0.002 A 
ATOM     99  C   UNL A   1      45.418  27.566  25.830  1.00  0.00     0.091 A 
ATOM    100  F   UNL A   1      46.293  28.711  27.733  1.00  0.00    -0.205 F 
ATOM    101  C   UNL A   1      44.305  27.072  25.131  1.00  0.00     0.022 A 
BRANCH  99 102
ATOM    102  S   UNL A   1      47.037  27.316  25.090  1.00  0.00     0.127 S 
ATOM    103  O   UNL A   1      46.803  26.142  24.252  1.00  0.00    -0.237 OA
ATOM    104  O   UNL A   1      47.239  28.562  24.350  1.00  0.00    -0.237 OA
ATOM    105  O   UNL A   1      47.957  27.122  26.202  1.00  0.00    -0.744 OA
ENDBRANCH  99 102
ENDBRANCH  72  95
ENDBRANCH  46  47
ENDBRANCH  38  41
ENDBRANCH  36  37
ENDBRANCH  35  36
ENDBRANCH  34  35
ENDBRANCH   1  34
TORSDOF 20
ENDMDL
MODEL 2
REMARK VINA RESULT:      -8.8      7.835     14.539
REMARK SMILES CCOC(=O)c1cccc(Nc2c(-c3ccc(C(=O)NCCCCNC(=O)c4ccc(-c5c6nc(c(-c7cccc(S(=O)(=O)[O-])c7F)c7ccc([nH]7)c(-c7cccc(S(=O)(=O)[O-])c7F)c7nc(c(-c8cccc(S(=O)(=O)[O-])c8F)c8ccc5[nH]8)C=C7)C=C6)cc4)cc3)nc3cnccn23)c1
REMARK SMILES IDX 21 1 20 2 18 3 19 4 17 6 14 7 15 8 92 9 16 10 91 11 13 12
REMARK SMILES IDX 12 13 99 14 93 15 94 16 98 17 95 18 97 19 96 20 11 21 10 23
REMARK SMILES IDX 6 24 7 25 100 26 8 27 9 28 4 29 5 30 3 31 2 32 1 33 22 34
REMARK SMILES IDX 23 35 24 36 25 37 26 38 27 40 28 41 29 42 90 43 30 44 89 45
REMARK SMILES IDX 31 46 32 47 33 48 83 49 34 50 88 51 82 52 84 53 35 54 87 55
REMARK SMILES IDX 81 56 80 57 36 59 68 60 48 61 67 62 49 63 52 64 66 65 85 66
REMARK SMILES IDX 50 67 51 68 65 70 86 71 53 72 37 73 38 74 46 75 39 76 41 77
REMARK SMILES IDX 47 78 40 79 42 80 43 81 44 82 45 83 69 84 70 85 78 86 71 87
REMARK SMILES IDX 73 88 79 89 72 90 74 91 75 92 76 93 77 94 54 95 55 96 63 97
REMARK SMILES IDX 56 98 58 99 64 100 57 101 59 102 60 103 61 104 62 105
REMARK H PARENT 20 5 11 22 25 39 84 58 52 69
REMARK Flexibility Score: inf
ROOT
ATOM      1  C   UNL A   1      47.616  22.823  39.398  1.00  0.00     0.116 C 
ENDROOT
BRANCH   1   2
ATOM      2  N   UNL A   1      47.768  21.864  38.321  1.00  0.00    -0.352 N 
ATOM      3  C   UNL A   1      47.628  20.502  38.285  1.00  0.00     0.251 C 
ATOM      4  O   UNL A   1      47.776  19.935  37.201  1.00  0.00    -0.269 OA
ATOM      5  H   UNL A   1      48.018  22.266  37.458  1.00  0.00     0.163 HD
BRANCH   3   6
ATOM      6  C   UNL A   1      47.274  19.679  39.477  1.00  0.00     0.039 A 
ATOM      7  C   UNL A   1      46.789  18.034  41.709  1.00  0.00     0.004 A 
ATOM      8  C   UNL A   1      47.792  17.696  40.797  1.00  0.00     0.011 A 
ATOM      9  C   UNL A   1      46.038  19.191  41.514  1.00  0.00     0.011 A 
ATOM     10  C   UNL A   1      48.027  18.511  39.686  1.00  0.00     0.014 A 
ATOM     11  C   UNL A   1      46.301  20.022  40.421  1.00  0.00     0.014 A 
BRANCH   7  12
ATOM     12  C   UNL A   1      46.566  17.239  42.893  1.00  0.00     0.114 A 
ATOM     13  C   UNL A   1      45.314  16.835  43.337  1.00  0.00     0.143 A 
ATOM     14  N   UNL A   1      45.585  16.052  44.439  1.00  0.00    -0.283 N 
ATOM     15  N   UNL A   1      47.576  16.780  43.704  1.00  0.00    -0.225 NA
ATOM     16  C   UNL A   1      46.946  16.092  44.627  1.00  0.00     0.157 A 
ATOM     17  C   UNL A   1      44.798  15.285  45.281  1.00  0.00     0.115 A 
ATOM     18  C   UNL A   1      47.504  15.376  45.741  1.00  0.00     0.158 A 
ATOM     19  C   UNL A   1      45.395  14.628  46.291  1.00  0.00     0.129 A 
ATOM     20  N   UNL A   1      46.757  14.671  46.551  1.00  0.00    -0.259 NA
BRANCH  13  21
ATOM     21  N   UNL A   1      44.072  17.030  42.813  1.00  0.00    -0.339 N 
ATOM     22  H   UNL A   1      43.538  17.774  43.175  1.00  0.00     0.168 HD
BRANCH  21  23
ATOM     23  C   UNL A   1      43.488  16.246  41.787  1.00  0.00     0.040 A 
ATOM     24  C   UNL A   1      42.207  14.271  41.162  1.00  0.00     0.062 A 
ATOM     25  C   UNL A   1      42.352  14.588  39.809  1.00  0.00     0.016 A 
ATOM     26  C   UNL A   1      42.750  15.106  42.147  1.00  0.00     0.041 A 
ATOM     27  C   UNL A   1      43.031  15.745  39.442  1.00  0.00     0.003 A 
ATOM     28  C   UNL A   1      43.595  16.563  40.424  1.00  0.00     0.026 A 
BRANCH  24  29
ATOM     29  C   UNL A   1      41.547  12.996  41.506  1.00  0.00     0.338 C 
ATOM     30  O   UNL A   1      40.716  12.463  40.790  1.00  0.00    -0.246 OA
BRANCH  29  31
ATOM     31  O   UNL A   1      41.955  12.575  42.728  1.00  0.00    -0.462 OA
BRANCH  31  32
ATOM     32  C   UNL A   1      41.340  11.364  43.195  1.00  0.00     0.230 C 
ATOM     33  C   UNL A   1      42.355  10.417  43.814  1.00  0.00     0.049 C 
ENDBRANCH  31  32
ENDBRANCH  29  31
ENDBRANCH  24  29
ENDBRANCH  21  23
ENDBRANCH  13  21
ENDBRANCH   7  12
ENDBRANCH   3   6
ENDBRANCH   1   2
BRANCH   1  34
ATOM     34  C   UNL A   1      46.299  23.589  39.258  1.00  0.00     0.023 C 
BRANCH  34  35
ATOM     35  C   UNL A   1      46.390  25.075  39.615  1.00  0.00     0.023 C 
BRANCH  35  36
ATOM     36  C   UNL A   1      46.662  26.005  38.437  1.00  0.00     0.116 C 
BRANCH  36  37
ATOM     37  N   UNL A   1      47.554  25.425  37.444  1.00  0.00    -0.352 N 
ATOM     38  C   UNL A   1      47.402  25.381  36.080  1.00  0.00     0.251 C 
ATOM     39  H   UNL A   1      48.373  25.008  37.797  1.00  0.00     0.163 HD
ATOM     40  O   UNL A   1      48.202  24.752  35.393  1.00  0.00    -0.269 OA
BRANCH  38  41
ATOM     41  C   UNL A   1      46.249  26.059  35.453  1.00  0.00     0.039 A 
ATOM     42  C   UNL A   1      46.438  27.329  34.901  1.00  0.00     0.014 A 
ATOM     43  C   UNL A   1      44.998  25.439  35.387  1.00  0.00     0.014 A 
ATOM     44  C   UNL A   1      45.384  27.953  34.233  1.00  0.00     0.010 A 
ATOM     45  C   UNL A   1      43.969  26.035  34.665  1.00  0.00     0.010 A 
ATOM     46  C   UNL A   1      44.150  27.299  34.086  1.00  0.00    -0.014 A 
BRANCH  46  47
ATOM     47  C   UNL A   1      43.044  27.918  33.315  1.00  0.00     0.031 A 
ATOM     48  C   UNL A   1      42.864  27.601  31.857  1.00  0.00     0.074 A 
ATOM     49  C   UNL A   1      42.252  28.832  33.912  1.00  0.00     0.049 A 
ATOM     50  N   UNL A   1      41.971  28.061  31.019  1.00  0.00    -0.248 NA
ATOM     51  C   UNL A   1      43.828  26.667  31.250  1.00  0.00     0.031 C 
ATOM     52  C   UNL A   1      42.389  29.294  35.295  1.00  0.00     0.029 A 
ATOM     53  N   UNL A   1      41.193  29.554  33.424  1.00  0.00    -0.354 N 
ATOM     54  C   UNL A   1      42.285  27.503  29.785  1.00  0.00     0.074 A 
ATOM     55  C   UNL A   1      43.469  26.696  29.975  1.00  0.00     0.031 C 
ATOM     56  C   UNL A   1      41.447  30.219  35.544  1.00  0.00     0.029 A 
ATOM     57  C   UNL A   1      40.652  30.428  34.338  1.00  0.00     0.049 A 
ATOM     58  H   UNL A   1      40.852  29.456  32.506  1.00  0.00     0.167 HD
ATOM     59  C   UNL A   1      41.625  27.624  28.609  1.00  0.00     0.034 A 
ATOM     60  C   UNL A   1      39.628  31.296  34.219  1.00  0.00     0.034 A 
ATOM     61  C   UNL A   1      40.415  28.381  28.439  1.00  0.00     0.049 A 
ATOM     62  C   UNL A   1      38.871  31.356  32.920  1.00  0.00     0.074 A 
ATOM     63  C   UNL A   1      39.611  28.479  27.317  1.00  0.00     0.029 A 
ATOM     64  N   UNL A   1      39.833  29.171  29.418  1.00  0.00    -0.354 N 
ATOM     65  N   UNL A   1      39.069  30.675  31.817  1.00  0.00    -0.248 NA
ATOM     66  C   UNL A   1      37.721  32.269  32.862  1.00  0.00     0.031 C 
ATOM     67  C   UNL A   1      38.550  29.339  27.614  1.00  0.00     0.029 A 
ATOM     68  C   UNL A   1      38.685  29.766  28.925  1.00  0.00     0.049 A 
ATOM     69  H   UNL A   1      40.184  29.291  30.330  1.00  0.00     0.167 HD
ATOM     70  C   UNL A   1      38.055  31.054  30.946  1.00  0.00     0.074 A 
ATOM     71  C   UNL A   1      37.227  32.005  31.659  1.00  0.00     0.031 C 
ATOM     72  C   UNL A   1      37.838  30.664  29.666  1.00  0.00     0.034 A 
BRANCH  59  73
ATOM     73  C   UNL A   1      42.159  26.861  27.426  1.00  0.00     0.023 A 
ATOM     74  C   UNL A   1      42.935  27.539  26.462  1.00  0.00     0.012 A 
ATOM     75  C   UNL A   1      41.952  25.475  27.296  1.00  0.00     0.148 A 
ATOM     76  C   UNL A   1      43.472  26.854  25.374  1.00  0.00     0.002 A 
ATOM     77  C   UNL A   1      42.524  24.791  26.229  1.00  0.00     0.091 A 
ATOM     78  F   UNL A   1      41.192  24.854  28.209  1.00  0.00    -0.205 F 
ATOM     79  C   UNL A   1      43.276  25.480  25.262  1.00  0.00     0.022 A 
BRANCH  77  80
ATOM     80  S   UNL A   1      42.392  23.010  26.036  1.00  0.00     0.127 S 
ATOM     81  O   UNL A   1      43.014  22.808  24.728  1.00  0.00    -0.237 OA
ATOM     82  O   UNL A   1      43.178  22.518  27.168  1.00  0.00    -0.237 OA
ATOM     83  O   UNL A   1      40.970  22.705  26.107  1.00  0.00    -0.744 OA
ENDBRANCH  77  80
ENDBRANCH  59  73
BRANCH  60  84
ATOM     84  C   UNL A   1      39.207  32.113  35.391  1.00  0.00     0.023 A 
ATOM     85  C   UNL A   1      38.280  31.576  36.307  1.00  0.00     0.012 A 
ATOM     86  C   UNL A   1      39.737  33.396  35.624  1.00  0.00     0.148 A 
ATOM     87  C   UNL A   1      37.865  32.314  37.416  1.00  0.00     0.002 A 
ATOM     88  C   UNL A   1      39.360  34.105  36.760  1.00  0.00     0.091 A 
ATOM     89  F   UNL A   1      40.606  33.897  34.735  1.00  0.00    -0.205 F 
ATOM     90  C   UNL A   1      38.413  33.573  37.649  1.00  0.00     0.022 A 
BRANCH  88  91
ATOM     91  S   UNL A   1      40.116  35.673  37.203  1.00  0.00     0.127 S 
ATOM     92  O   UNL A   1      39.518  35.936  38.507  1.00  0.00    -0.237 OA
ATOM     93  O   UNL A   1      41.538  35.330  37.234  1.00  0.00    -0.237 OA
ATOM     94  O   UNL A   1      39.750  36.594  36.134  1.00  0.00    -0.744 OA
ENDBRANCH  88  91
ENDBRANCH  60  84
BRANCH  72  95
ATOM     95  C   UNL A   1      36.646  31.244  28.952  1.00  0.00     0.023 A 
ATOM     96  C   UNL A   1      36.597  32.628  28.692  1.00  0.00     0.012 A 
ATOM     97  C   UNL A   1      35.619  30.411  28.467  1.00  0.00     0.148 A 
ATOM     98  C   UNL A   1      35.529  33.179  27.986  1.00  0.00     0.002 A 
ATOM     99  C   UNL A   1      34.581  30.961  27.724  1.00  0.00     0.091 A 
ATOM    100  F   UNL A   1      35.673  29.100  28.742  1.00  0.00    -0.205 F 
ATOM    101  C   UNL A   1      34.529  32.345  27.491  1.00  0.00     0.022 A 
BRANCH  99 102
ATOM    102  S   UNL A   1      33.302  29.949  26.970  1.00  0.00     0.127 S 
ATOM    103  O   UNL A   1      33.431  28.699  27.718  1.00  0.00    -0.237 OA
ATOM    104  O   UNL A   1      32.087  30.710  27.263  1.00  0.00    -0.237 OA
ATOM    105  O   UNL A   1      33.637  29.873  25.554  1.00  0.00    -0.744 OA
ENDBRANCH  99 102
ENDBRANCH  72  95
ENDBRANCH  46  47
ENDBRANCH  38  41
ENDBRANCH  36  37
ENDBRANCH  35  36
ENDBRANCH  34  35
ENDBRANCH   1  34
TORSDOF 20
ENDMDL
MODEL 3
REMARK VINA RESULT:      -8.7      2.614     10.757
REMARK SMILES CCOC(=O)c1cccc(Nc2c(-c3ccc(C(=O)NCCCCNC(=O)c4ccc(-c5c6nc(c(-c7cccc(S(=O)(=O)[O-])c7F)c7ccc([nH]7)c(-c7cccc(S(=O)(=O)[O-])c7F)c7nc(c(-c8cccc(S(=O)(=O)[O-])c8F)c8ccc5[nH]8)C=C7)C=C6)cc4)cc3)nc3cnccn23)c1
REMARK SMILES IDX 21 1 20 2 18 3 19 4 17 6 14 7 15 8 92 9 16 10 91 11 13 12
REMARK SMILES IDX 12 13 99 14 93 15 94 16 98 17 95 18 97 19 96 20 11 21 10 23
REMARK SMILES IDX 6 24 7 25 100 26 8 27 9 28 4 29 5 30 3 31 2 32 1 33 22 34
REMARK SMILES IDX 23 35 24 36 25 37 26 38 27 40 28 41 29 42 90 43 30 44 89 45
REMARK SMILES IDX 31 46 32 47 33 48 83 49 34 50 88 51 82 52 84 53 35 54 87 55
REMARK SMILES IDX 81 56 80 57 36 59 68 60 48 61 67 62 49 63 52 64 66 65 85 66
REMARK SMILES IDX 50 67 51 68 65 70 86 71 53 72 37 73 38 74 46 75 39 76 41 77
REMARK SMILES IDX 47 78 40 79 42 80 43 81 44 82 45 83 69 84 70 85 78 86 71 87
REMARK SMILES IDX 73 88 79 89 72 90 74 91 75 92 76 93 77 94 54 95 55 96 63 97
REMARK SMILES IDX 56 98 58 99 64 100 57 101 59 102 60 103 61 104 62 105
REMARK H PARENT 20 5 11 22 25 39 84 58 52 69
REMARK Flexibility Score: inf
ROOT
ATOM      1  C   UNL A   1      40.666  28.862  26.423  1.00  0.00     0.116 C 
ENDROOT
BRANCH   1   2
ATOM      2  N   UNL A   1      40.158  27.977  27.452  1.00  0.00    -0.352 N 
ATOM      3  C   UNL A   1      39.159  28.131  28.376  1.00  0.00     0.251 C 
ATOM      4  O   UNL A   1      38.904  27.178  29.115  1.00  0.00    -0.269 OA
ATOM      5  H   UNL A   1      40.615  27.106  27.494  1.00  0.00     0.163 HD
BRANCH   3   6
ATOM      6  C   UNL A   1      38.345  29.373  28.510  1.00  0.00     0.039 A 
ATOM      7  C   UNL A   1      36.642  31.604  28.731  1.00  0.00     0.004 A 
ATOM      8  C   UNL A   1      36.185  30.433  28.121  1.00  0.00     0.011 A 
ATOM      9  C   UNL A   1      37.940  31.659  29.237  1.00  0.00     0.011 A 
ATOM     10  C   UNL A   1      37.034  29.329  28.008  1.00  0.00     0.014 A 
ATOM     11  C   UNL A   1      38.772  30.539  29.153  1.00  0.00     0.014 A 
BRANCH   7  12
ATOM     12  C   UNL A   1      35.766  32.737  28.911  1.00  0.00     0.114 A 
ATOM     13  C   UNL A   1      34.977  32.942  30.035  1.00  0.00     0.143 A 
ATOM     14  N   UNL A   1      34.377  34.162  29.804  1.00  0.00    -0.283 N 
ATOM     15  N   UNL A   1      35.631  33.748  27.990  1.00  0.00    -0.225 NA
ATOM     16  C   UNL A   1      34.776  34.570  28.555  1.00  0.00     0.157 A 
ATOM     17  C   UNL A   1      33.549  34.975  30.560  1.00  0.00     0.115 A 
ATOM     18  C   UNL A   1      34.266  35.812  28.045  1.00  0.00     0.158 A 
ATOM     19  C   UNL A   1      33.127  36.133  30.021  1.00  0.00     0.129 A 
ATOM     20  N   UNL A   1      33.464  36.568  28.749  1.00  0.00    -0.259 NA
BRANCH  13  21
ATOM     21  N   UNL A   1      34.847  32.220  31.182  1.00  0.00    -0.339 N 
ATOM     22  H   UNL A   1      34.198  31.480  31.181  1.00  0.00     0.168 HD
BRANCH  21  23
ATOM     23  C   UNL A   1      35.575  32.450  32.377  1.00  0.00     0.040 A 
ATOM     24  C   UNL A   1      37.495  31.903  33.772  1.00  0.00     0.062 A 
ATOM     25  C   UNL A   1      37.050  32.790  34.755  1.00  0.00     0.016 A 
ATOM     26  C   UNL A   1      36.777  31.750  32.579  1.00  0.00     0.041 A 
ATOM     27  C   UNL A   1      35.893  33.531  34.542  1.00  0.00     0.003 A 
ATOM     28  C   UNL A   1      35.162  33.358  33.364  1.00  0.00     0.026 A 
BRANCH  24  29
ATOM     29  C   UNL A   1      38.685  31.080  34.069  1.00  0.00     0.338 C 
ATOM     30  O   UNL A   1      39.777  31.560  34.324  1.00  0.00    -0.246 OA
BRANCH  29  31
ATOM     31  O   UNL A   1      38.383  29.765  33.949  1.00  0.00    -0.462 OA
BRANCH  31  32
ATOM     32  C   UNL A   1      39.085  29.069  32.907  1.00  0.00     0.230 C 
ATOM     33  C   UNL A   1      38.164  28.145  32.125  1.00  0.00     0.049 C 
ENDBRANCH  31  32
ENDBRANCH  29  31
ENDBRANCH  24  29
ENDBRANCH  21  23
ENDBRANCH  13  21
ENDBRANCH   7  12
ENDBRANCH   3   6
ENDBRANCH   1   2
BRANCH   1  34
ATOM     34  C   UNL A   1      42.119  28.520  26.084  1.00  0.00     0.023 C 
BRANCH  34  35
ATOM     35  C   UNL A   1      42.283  27.431  25.021  1.00  0.00     0.023 C 
BRANCH  35  36
ATOM     36  C   UNL A   1      41.657  26.086  25.375  1.00  0.00     0.116 C 
BRANCH  36  37
ATOM     37  N   UNL A   1      42.632  25.009  25.471  1.00  0.00    -0.352 N 
ATOM     38  C   UNL A   1      43.538  24.764  26.474  1.00  0.00     0.251 C 
ATOM     39  H   UNL A   1      42.643  24.374  24.719  1.00  0.00     0.163 HD
ATOM     40  O   UNL A   1      44.368  23.868  26.345  1.00  0.00    -0.269 OA
BRANCH  38  41
ATOM     41  C   UNL A   1      43.533  25.610  27.685  1.00  0.00     0.039 A 
ATOM     42  C   UNL A   1      44.616  26.463  27.911  1.00  0.00     0.014 A 
ATOM     43  C   UNL A   1      42.458  25.580  28.577  1.00  0.00     0.014 A 
ATOM     44  C   UNL A   1      44.593  27.329  29.006  1.00  0.00     0.010 A 
ATOM     45  C   UNL A   1      42.409  26.488  29.630  1.00  0.00     0.010 A 
ATOM     46  C   UNL A   1      43.477  27.367  29.857  1.00  0.00    -0.014 A 
BRANCH  46  47
ATOM     47  C   UNL A   1      43.406  28.333  30.981  1.00  0.00     0.031 A 
ATOM     48  C   UNL A   1      43.021  29.764  30.730  1.00  0.00     0.074 A 
ATOM     49  C   UNL A   1      43.772  27.938  32.217  1.00  0.00     0.049 A 
ATOM     50  N   UNL A   1      42.927  30.753  31.582  1.00  0.00    -0.248 NA
ATOM     51  C   UNL A   1      42.729  30.145  29.337  1.00  0.00     0.031 C 
ATOM     52  C   UNL A   1      44.258  26.601  32.568  1.00  0.00     0.029 A 
ATOM     53  N   UNL A   1      43.818  28.629  33.402  1.00  0.00    -0.354 N 
ATOM     54  C   UNL A   1      42.601  31.874  30.827  1.00  0.00     0.074 A 
ATOM     55  C   UNL A   1      42.545  31.452  29.445  1.00  0.00     0.031 C 
ATOM     56  C   UNL A   1      44.548  26.569  33.879  1.00  0.00     0.029 A 
ATOM     57  C   UNL A   1      44.288  27.884  34.458  1.00  0.00     0.049 A 
ATOM     58  H   UNL A   1      43.541  29.569  33.487  1.00  0.00     0.167 HD
ATOM     59  C   UNL A   1      42.337  33.132  31.251  1.00  0.00     0.034 A 
ATOM     60  C   UNL A   1      44.482  28.220  35.748  1.00  0.00     0.034 A 
ATOM     61  C   UNL A   1      42.337  33.533  32.632  1.00  0.00     0.049 A 
ATOM     62  C   UNL A   1      44.113  29.606  36.203  1.00  0.00     0.074 A 
ATOM     63  C   UNL A   1      41.980  34.754  33.174  1.00  0.00     0.029 A 
ATOM     64  N   UNL A   1      42.715  32.721  33.690  1.00  0.00    -0.354 N 
ATOM     65  N   UNL A   1      43.623  30.601  35.503  1.00  0.00    -0.248 NA
ATOM     66  C   UNL A   1      44.280  29.905  37.633  1.00  0.00     0.031 C 
ATOM     67  C   UNL A   1      42.153  34.685  34.560  1.00  0.00     0.029 A 
ATOM     68  C   UNL A   1      42.606  33.415  34.882  1.00  0.00     0.049 A 
ATOM     69  H   UNL A   1      43.016  31.787  33.607  1.00  0.00     0.167 HD
ATOM     70  C   UNL A   1      43.396  31.630  36.409  1.00  0.00     0.074 A 
ATOM     71  C   UNL A   1      43.777  31.129  37.714  1.00  0.00     0.031 C 
ATOM     72  C   UNL A   1      42.932  32.884  36.180  1.00  0.00     0.034 A 
BRANCH  59  73
ATOM     73  C   UNL A   1      41.954  34.155  30.215  1.00  0.00     0.023 A 
ATOM     74  C   UNL A   1      40.595  34.312  29.871  1.00  0.00     0.012 A 
ATOM     75  C   UNL A   1      42.917  34.998  29.631  1.00  0.00     0.148 A 
ATOM     76  C   UNL A   1      40.205  35.273  28.940  1.00  0.00     0.002 A 
ATOM     77  C   UNL A   1      42.516  35.982  28.733  1.00  0.00     0.091 A 
ATOM     78  F   UNL A   1      44.206  34.819  29.954  1.00  0.00    -0.205 F 
ATOM     79  C   UNL A   1      41.163  36.114  28.379  1.00  0.00     0.022 A 
BRANCH  77  80
ATOM     80  S   UNL A   1      43.662  37.163  28.013  1.00  0.00     0.127 S 
ATOM     81  O   UNL A   1      42.754  38.215  27.558  1.00  0.00    -0.237 OA
ATOM     82  O   UNL A   1      44.492  37.529  29.162  1.00  0.00    -0.237 OA
ATOM     83  O   UNL A   1      44.367  36.446  26.960  1.00  0.00    -0.744 OA
ENDBRANCH  77  80
ENDBRANCH  59  73
BRANCH  60  84
ATOM     84  C   UNL A   1      44.970  27.199  36.717  1.00  0.00     0.023 A 
ATOM     85  C   UNL A   1      44.036  26.378  37.380  1.00  0.00     0.012 A 
ATOM     86  C   UNL A   1      46.343  27.013  36.962  1.00  0.00     0.148 A 
ATOM     87  C   UNL A   1      44.460  25.411  38.293  1.00  0.00     0.002 A 
ATOM     88  C   UNL A   1      46.762  26.012  37.832  1.00  0.00     0.091 A 
ATOM     89  F   UNL A   1      47.216  27.813  36.333  1.00  0.00    -0.205 F 
ATOM     90  C   UNL A   1      45.821  25.220  38.510  1.00  0.00     0.022 A 
BRANCH  88  91
ATOM     91  S   UNL A   1      48.497  25.613  38.066  1.00  0.00     0.127 S 
ATOM     92  O   UNL A   1      49.004  26.833  38.685  1.00  0.00    -0.237 OA
ATOM     93  O   UNL A   1      48.428  24.453  38.955  1.00  0.00    -0.237 OA
ATOM     94  O   UNL A   1      49.007  25.313  36.734  1.00  0.00    -0.744 OA
ENDBRANCH  88  91
ENDBRANCH  60  84
BRANCH  72  95
ATOM     95  C   UNL A   1      42.784  33.801  37.364  1.00  0.00     0.023 A 
ATOM     96  C   UNL A   1      43.860  34.629  37.741  1.00  0.00     0.012 A 
ATOM     97  C   UNL A   1      41.557  33.903  38.050  1.00  0.00     0.148 A 
ATOM     98  C   UNL A   1      43.727  35.525  38.801  1.00  0.00     0.002 A 
ATOM     99  C   UNL A   1      41.418  34.831  39.076  1.00  0.00     0.091 A 
ATOM    100  F   UNL A   1      40.552  33.092  37.690  1.00  0.00    -0.205 F 
ATOM    101  C   UNL A   1      42.504  35.634  39.459  1.00  0.00     0.022 A 
BRANCH  99 102
ATOM    102  S   UNL A   1      39.852  35.103  39.914  1.00  0.00     0.127 S 
ATOM    103  O   UNL A   1      39.632  33.812  40.563  1.00  0.00    -0.237 OA
ATOM    104  O   UNL A   1      40.174  36.198  40.830  1.00  0.00    -0.237 OA
ATOM    105  O   UNL A   1      38.898  35.455  38.871  1.00  0.00    -0.744 OA
ENDBRANCH  99 102
ENDBRANCH  72  95
ENDBRANCH  46  47
ENDBRANCH  38  41
ENDBRANCH  36  37
ENDBRANCH  35  36
ENDBRANCH  34  35
ENDBRANCH   1  34
TORSDOF 20
ENDMDL
