MODEL 1
REMARK VINA RESULT:     -11.6      0.000      0.000
REMARK SMILES C/C(=N/[NH+]=C1\NC(=O)[C@H](CC(=O)NCCCCNC(=O)c2ccc(-c3c4nc(c(-c5cccc(S(=O)(=O)[O-])c5F)c5ccc([nH]5)c(-c5cccc(S(=O)(=O)[O-])c5F)c5nc(c(-c6cccc(S(=O)(=O)[O-])c6F)c6ccc3[nH]6)C=C5)C=C4)cc2)S1)c1ccc(OC(C)C)cc1
REMARK SMILES IDX 14 1 13 2 11 3 12 4 10 6 9 7 4 8 5 9 6 11 84 12 7 13 8 15
REMARK SMILES IDX 3 16 1 17 2 18 85 19 86 20 94 21 87 22 93 23 88 24 89 25
REMARK SMILES IDX 90 26 91 27 92 28 15 29 16 30 17 31 18 32 19 33 20 35 21 36
REMARK SMILES IDX 22 37 83 38 23 39 82 40 24 41 25 42 26 43 76 44 27 45 81 46
REMARK SMILES IDX 75 47 77 48 28 49 80 50 74 51 73 52 29 54 61 55 41 56 60 57
REMARK SMILES IDX 42 58 45 59 59 60 78 61 43 62 44 63 58 65 79 66 46 67 30 68
REMARK SMILES IDX 31 69 39 70 32 71 34 72 40 73 33 74 35 75 36 76 37 77 38 78
REMARK SMILES IDX 62 79 63 80 71 81 64 82 66 83 72 84 65 85 67 86 68 87 69 88
REMARK SMILES IDX 70 89 47 90 48 91 56 92 49 93 51 94 57 95 50 96 52 97 53 98
REMARK SMILES IDX 54 99 55 100
REMARK H PARENT 13 5 4 10 6 14 18 34 77 53 45 64
REMARK Flexibility Score: inf
ROOT
ATOM      1  C   UNL A   1      33.348  30.096  26.401  1.00  0.00     0.116 C 
ENDROOT
BRANCH   1   2
ATOM      2  N   UNL A   1      33.699  28.701  26.576  1.00  0.00    -0.356 N 
ATOM      3  C   UNL A   1      33.550  27.665  25.702  1.00  0.00     0.221 C 
ATOM      4  O   UNL A   1      33.944  26.542  26.015  1.00  0.00    -0.275 OA
ATOM      5  H   UNL A   1      34.102  28.470  27.445  1.00  0.00     0.163 HD
BRANCH   3   6
ATOM      6  C   UNL A   1      32.916  27.910  24.353  1.00  0.00     0.127 C 
BRANCH   6   7
ATOM      7  C   UNL A   1      31.428  27.572  24.329  1.00  0.00     0.183 C 
ATOM      8  N   UNL A   1      31.137  23.762  24.416  1.00  0.00    -0.142 N 
ATOM      9  C   UNL A   1      31.034  25.030  24.214  1.00  0.00     0.337 C 
ATOM     10  H   UNL A   1      31.285  23.391  25.316  1.00  0.00     0.343 HD
ATOM     11  N   UNL A   1      30.857  25.647  23.027  1.00  0.00    -0.202 N 
ATOM     12  S   UNL A   1      31.159  26.188  25.508  1.00  0.00    -0.020 SA
ATOM     13  C   UNL A   1      30.920  27.009  23.012  1.00  0.00     0.322 C 
ATOM     14  H   UNL A   1      30.688  25.133  22.204  1.00  0.00     0.316 HD
ATOM     15  O   UNL A   1      30.620  27.681  22.032  1.00  0.00    -0.246 OA
BRANCH   8  16
ATOM     16  N   UNL A   1      31.028  22.940  23.293  1.00  0.00    -0.090 NA
ATOM     17  C   UNL A   1      31.843  21.199  21.856  1.00  0.00     0.071 C 
ATOM     18  C   UNL A   1      32.053  22.191  22.985  1.00  0.00     0.088 C 
BRANCH  18  19
ATOM     19  C   UNL A   1      33.432  22.276  23.562  1.00  0.00    -0.000 A 
ATOM     20  C   UNL A   1      34.386  23.173  23.087  1.00  0.00     0.014 A 
ATOM     21  C   UNL A   1      33.817  21.344  24.532  1.00  0.00     0.014 A 
ATOM     22  C   UNL A   1      35.719  23.066  23.508  1.00  0.00     0.047 A 
ATOM     23  C   UNL A   1      35.156  21.250  24.953  1.00  0.00     0.047 A 
ATOM     24  C   UNL A   1      36.125  22.090  24.427  1.00  0.00     0.119 A 
BRANCH  24  25
ATOM     25  O   UNL A   1      37.461  22.086  24.665  1.00  0.00    -0.491 OA
BRANCH  25  26
ATOM     26  C   UNL A   1      38.142  22.394  25.885  1.00  0.00     0.167 C 
ATOM     27  C   UNL A   1      39.468  21.689  26.147  1.00  0.00     0.052 C 
ATOM     28  C   UNL A   1      38.194  23.888  26.181  1.00  0.00     0.052 C 
ENDBRANCH  25  26
ENDBRANCH  24  25
ENDBRANCH  18  19
ENDBRANCH   8  16
ENDBRANCH   6   7
ENDBRANCH   3   6
ENDBRANCH   1   2
BRANCH   1  29
ATOM     29  C   UNL A   1      31.946  30.442  26.890  1.00  0.00     0.023 C 
BRANCH  29  30
ATOM     30  C   UNL A   1      31.590  31.927  26.873  1.00  0.00     0.023 C 
BRANCH  30  31
ATOM     31  C   UNL A   1      32.752  32.914  26.877  1.00  0.00     0.116 C 
BRANCH  31  32
ATOM     32  N   UNL A   1      32.565  34.088  27.716  1.00  0.00    -0.352 N 
ATOM     33  C   UNL A   1      33.368  34.546  28.736  1.00  0.00     0.251 C 
ATOM     34  H   UNL A   1      31.761  34.624  27.530  1.00  0.00     0.163 HD
ATOM     35  O   UNL A   1      33.096  35.596  29.310  1.00  0.00    -0.269 OA
BRANCH  33  36
ATOM     36  C   UNL A   1      34.506  33.714  29.180  1.00  0.00     0.039 A 
ATOM     37  C   UNL A   1      35.796  34.213  28.991  1.00  0.00     0.014 A 
ATOM     38  C   UNL A   1      34.299  32.528  29.889  1.00  0.00     0.014 A 
ATOM     39  C   UNL A   1      36.877  33.571  29.600  1.00  0.00     0.010 A 
ATOM     40  C   UNL A   1      35.367  31.939  30.561  1.00  0.00     0.010 A 
ATOM     41  C   UNL A   1      36.664  32.461  30.434  1.00  0.00    -0.014 A 
BRANCH  41  42
ATOM     42  C   UNL A   1      37.789  31.864  31.200  1.00  0.00     0.031 A 
ATOM     43  C   UNL A   1      38.632  30.778  30.592  1.00  0.00     0.074 A 
ATOM     44  C   UNL A   1      38.013  32.257  32.473  1.00  0.00     0.049 A 
ATOM     45  N   UNL A   1      39.647  30.136  31.110  1.00  0.00    -0.248 NA
ATOM     46  C   UNL A   1      38.274  30.337  29.234  1.00  0.00     0.031 C 
ATOM     47  C   UNL A   1      37.216  33.243  33.208  1.00  0.00     0.029 A 
ATOM     48  N   UNL A   1      38.967  31.864  33.379  1.00  0.00    -0.354 N 
ATOM     49  C   UNL A   1      40.030  29.200  30.157  1.00  0.00     0.074 A 
ATOM     50  C   UNL A   1      39.112  29.328  29.047  1.00  0.00     0.031 C 
ATOM     51  C   UNL A   1      37.721  33.387  34.443  1.00  0.00     0.029 A 
ATOM     52  C   UNL A   1      38.856  32.484  34.603  1.00  0.00     0.049 A 
ATOM     53  H   UNL A   1      39.663  31.200  33.173  1.00  0.00     0.167 HD
ATOM     54  C   UNL A   1      41.068  28.333  30.188  1.00  0.00     0.034 A 
ATOM     55  C   UNL A   1      39.583  32.339  35.730  1.00  0.00     0.034 A 
ATOM     56  C   UNL A   1      41.997  28.229  31.281  1.00  0.00     0.049 A 
ATOM     57  C   UNL A   1      40.749  31.386  35.729  1.00  0.00     0.074 A 
ATOM     58  C   UNL A   1      43.130  27.440  31.373  1.00  0.00     0.029 A 
ATOM     59  N   UNL A   1      41.893  28.921  32.478  1.00  0.00    -0.354 N 
ATOM     60  N   UNL A   1      41.191  30.626  34.757  1.00  0.00    -0.248 NA
ATOM     61  C   UNL A   1      41.538  31.298  36.966  1.00  0.00     0.031 C 
ATOM     62  C   UNL A   1      43.691  27.628  32.641  1.00  0.00     0.029 A 
ATOM     63  C   UNL A   1      42.932  28.567  33.321  1.00  0.00     0.049 A 
ATOM     64  H   UNL A   1      41.185  29.570  32.695  1.00  0.00     0.167 HD
ATOM     65  C   UNL A   1      42.330  29.999  35.251  1.00  0.00     0.074 A 
ATOM     66  C   UNL A   1      42.520  30.485  36.602  1.00  0.00     0.031 C 
ATOM     67  C   UNL A   1      43.138  29.094  34.645  1.00  0.00     0.034 A 
BRANCH  54  68
ATOM     68  C   UNL A   1      41.279  27.452  28.984  1.00  0.00     0.023 A 
ATOM     69  C   UNL A   1      40.555  26.247  28.863  1.00  0.00     0.012 A 
ATOM     70  C   UNL A   1      42.154  27.838  27.951  1.00  0.00     0.148 A 
ATOM     71  C   UNL A   1      40.727  25.422  27.753  1.00  0.00     0.002 A 
ATOM     72  C   UNL A   1      42.283  27.035  26.824  1.00  0.00     0.091 A 
ATOM     73  F   UNL A   1      42.849  28.975  28.093  1.00  0.00    -0.205 F 
ATOM     74  C   UNL A   1      41.583  25.821  26.729  1.00  0.00     0.022 A 
BRANCH  72  75
ATOM     75  S   UNL A   1      43.295  27.498  25.415  1.00  0.00     0.127 S 
ATOM     76  O   UNL A   1      43.712  26.190  24.910  1.00  0.00    -0.237 OA
ATOM     77  O   UNL A   1      42.334  28.201  24.566  1.00  0.00    -0.237 OA
ATOM     78  O   UNL A   1      44.365  28.331  25.944  1.00  0.00    -0.744 OA
ENDBRANCH  72  75
ENDBRANCH  54  68
BRANCH  55  79
ATOM     79  C   UNL A   1      39.265  33.153  36.938  1.00  0.00     0.023 A 
ATOM     80  C   UNL A   1      38.345  32.664  37.887  1.00  0.00     0.012 A 
ATOM     81  C   UNL A   1      39.876  34.402  37.159  1.00  0.00     0.148 A 
ATOM     82  C   UNL A   1      38.011  33.420  39.013  1.00  0.00     0.002 A 
ATOM     83  C   UNL A   1      39.584  35.124  38.310  1.00  0.00     0.091 A 
ATOM     84  F   UNL A   1      40.741  34.855  36.240  1.00  0.00    -0.205 F 
ATOM     85  C   UNL A   1      38.638  34.644  39.228  1.00  0.00     0.022 A 
BRANCH  83  86
ATOM     86  S   UNL A   1      40.436  36.646  38.735  1.00  0.00     0.127 S 
ATOM     87  O   UNL A   1      39.331  37.596  38.810  1.00  0.00    -0.237 OA
ATOM     88  O   UNL A   1      41.043  36.300  40.022  1.00  0.00    -0.237 OA
ATOM     89  O   UNL A   1      41.395  36.873  37.662  1.00  0.00    -0.744 OA
ENDBRANCH  83  86
ENDBRANCH  55  79
BRANCH  67  90
ATOM     90  C   UNL A   1      44.335  28.597  35.414  1.00  0.00     0.023 A 
ATOM     91  C   UNL A   1      45.589  29.218  35.251  1.00  0.00     0.012 A 
ATOM     92  C   UNL A   1      44.195  27.558  36.357  1.00  0.00     0.148 A 
ATOM     93  C   UNL A   1      46.692  28.791  35.988  1.00  0.00     0.002 A 
ATOM     94  C   UNL A   1      45.286  27.175  37.126  1.00  0.00     0.091 A 
ATOM     95  F   UNL A   1      42.997  26.969  36.485  1.00  0.00    -0.205 F 
ATOM     96  C   UNL A   1      46.539  27.779  36.933  1.00  0.00     0.022 A 
BRANCH  94  97
ATOM     97  S   UNL A   1      45.158  25.953  38.437  1.00  0.00     0.127 S 
ATOM     98  O   UNL A   1      44.199  26.585  39.341  1.00  0.00    -0.237 OA
ATOM     99  O   UNL A   1      44.642  24.786  37.721  1.00  0.00    -0.237 OA
ATOM    100  O   UNL A   1      46.504  25.790  38.969  1.00  0.00    -0.744 OA
ENDBRANCH  94  97
ENDBRANCH  67  90
ENDBRANCH  41  42
ENDBRANCH  33  36
ENDBRANCH  31  32
ENDBRANCH  30  31
ENDBRANCH  29  30
ENDBRANCH   1  29
TORSDOF 19
ENDMDL
MODEL 2
REMARK VINA RESULT:     -11.4      2.046      7.753
REMARK SMILES C/C(=N/[NH+]=C1\NC(=O)[C@H](CC(=O)NCCCCNC(=O)c2ccc(-c3c4nc(c(-c5cccc(S(=O)(=O)[O-])c5F)c5ccc([nH]5)c(-c5cccc(S(=O)(=O)[O-])c5F)c5nc(c(-c6cccc(S(=O)(=O)[O-])c6F)c6ccc3[nH]6)C=C5)C=C4)cc2)S1)c1ccc(OC(C)C)cc1
REMARK SMILES IDX 14 1 13 2 11 3 12 4 10 6 9 7 4 8 5 9 6 11 84 12 7 13 8 15
REMARK SMILES IDX 3 16 1 17 2 18 85 19 86 20 94 21 87 22 93 23 88 24 89 25
REMARK SMILES IDX 90 26 91 27 92 28 15 29 16 30 17 31 18 32 19 33 20 35 21 36
REMARK SMILES IDX 22 37 83 38 23 39 82 40 24 41 25 42 26 43 76 44 27 45 81 46
REMARK SMILES IDX 75 47 77 48 28 49 80 50 74 51 73 52 29 54 61 55 41 56 60 57
REMARK SMILES IDX 42 58 45 59 59 60 78 61 43 62 44 63 58 65 79 66 46 67 30 68
REMARK SMILES IDX 31 69 39 70 32 71 34 72 40 73 33 74 35 75 36 76 37 77 38 78
REMARK SMILES IDX 62 79 63 80 71 81 64 82 66 83 72 84 65 85 67 86 68 87 69 88
REMARK SMILES IDX 70 89 47 90 48 91 56 92 49 93 51 94 57 95 50 96 52 97 53 98
REMARK SMILES IDX 54 99 55 100
REMARK H PARENT 13 5 4 10 6 14 18 34 77 53 45 64
REMARK Flexibility Score: inf
ROOT
ATOM      1  C   UNL A   1      34.454  31.081  28.004  1.00  0.00     0.116 C 
ENDROOT
BRANCH   1   2
ATOM      2  N   UNL A   1      33.273  31.284  27.188  1.00  0.00    -0.356 N 
ATOM      3  C   UNL A   1      32.460  30.351  26.612  1.00  0.00     0.221 C 
ATOM      4  O   UNL A   1      31.471  30.715  25.977  1.00  0.00    -0.275 OA
ATOM      5  H   UNL A   1      33.023  32.223  27.029  1.00  0.00     0.163 HD
BRANCH   3   6
ATOM      6  C   UNL A   1      32.775  28.883  26.774  1.00  0.00     0.127 C 
BRANCH   6   7
ATOM      7  C   UNL A   1      32.201  28.027  25.649  1.00  0.00     0.183 C 
ATOM      8  N   UNL A   1      34.059  24.688  25.715  1.00  0.00    -0.142 N 
ATOM      9  C   UNL A   1      33.451  25.787  25.429  1.00  0.00     0.337 C 
ATOM     10  H   UNL A   1      33.744  24.093  26.432  1.00  0.00     0.343 HD
ATOM     11  N   UNL A   1      33.808  26.686  24.488  1.00  0.00    -0.202 N 
ATOM     12  S   UNL A   1      32.034  26.314  26.292  1.00  0.00    -0.020 SA
ATOM     13  C   UNL A   1      33.112  27.858  24.444  1.00  0.00     0.322 C 
ATOM     14  H   UNL A   1      34.542  26.503  23.858  1.00  0.00     0.316 HD
ATOM     15  O   UNL A   1      33.238  28.677  23.540  1.00  0.00    -0.246 OA
BRANCH   8  16
ATOM     16  N   UNL A   1      35.190  24.384  24.954  1.00  0.00    -0.090 NA
ATOM     17  C   UNL A   1      36.393  22.996  23.410  1.00  0.00     0.071 C 
ATOM     18  C   UNL A   1      35.225  23.226  24.351  1.00  0.00     0.088 C 
BRANCH  18  19
ATOM     19  C   UNL A   1      34.291  22.075  24.564  1.00  0.00    -0.000 A 
ATOM     20  C   UNL A   1      34.470  21.149  25.589  1.00  0.00     0.014 A 
ATOM     21  C   UNL A   1      33.272  21.851  23.632  1.00  0.00     0.014 A 
ATOM     22  C   UNL A   1      33.703  19.977  25.615  1.00  0.00     0.047 A 
ATOM     23  C   UNL A   1      32.503  20.674  23.671  1.00  0.00     0.047 A 
ATOM     24  C   UNL A   1      32.727  19.713  24.645  1.00  0.00     0.119 A 
BRANCH  24  25
ATOM     25  O   UNL A   1      32.133  18.501  24.782  1.00  0.00    -0.491 OA
BRANCH  25  26
ATOM     26  C   UNL A   1      32.579  17.236  24.284  1.00  0.00     0.167 C 
ATOM     27  C   UNL A   1      33.677  17.245  23.228  1.00  0.00     0.052 C 
ATOM     28  C   UNL A   1      32.819  16.209  25.384  1.00  0.00     0.052 C 
ENDBRANCH  25  26
ENDBRANCH  24  25
ENDBRANCH  18  19
ENDBRANCH   8  16
ENDBRANCH   6   7
ENDBRANCH   3   6
ENDBRANCH   1   2
BRANCH   1  29
ATOM     29  C   UNL A   1      35.138  32.376  28.426  1.00  0.00     0.023 C 
BRANCH  29  30
ATOM     30  C   UNL A   1      34.463  33.662  27.954  1.00  0.00     0.023 C 
BRANCH  30  31
ATOM     31  C   UNL A   1      34.612  34.887  28.849  1.00  0.00     0.116 C 
BRANCH  31  32
ATOM     32  N   UNL A   1      33.485  35.151  29.731  1.00  0.00    -0.352 N 
ATOM     33  C   UNL A   1      33.417  35.002  31.099  1.00  0.00     0.251 C 
ATOM     34  H   UNL A   1      32.666  35.478  29.294  1.00  0.00     0.163 HD
ATOM     35  O   UNL A   1      32.400  35.329  31.703  1.00  0.00    -0.269 OA
BRANCH  33  36
ATOM     36  C   UNL A   1      34.548  34.368  31.808  1.00  0.00     0.039 A 
ATOM     37  C   UNL A   1      34.450  33.010  32.116  1.00  0.00     0.014 A 
ATOM     38  C   UNL A   1      35.734  35.067  32.043  1.00  0.00     0.014 A 
ATOM     39  C   UNL A   1      35.579  32.326  32.572  1.00  0.00     0.010 A 
ATOM     40  C   UNL A   1      36.877  34.365  32.420  1.00  0.00     0.010 A 
ATOM     41  C   UNL A   1      36.815  32.987  32.675  1.00  0.00    -0.014 A 
BRANCH  41  42
ATOM     42  C   UNL A   1      38.049  32.233  33.018  1.00  0.00     0.031 A 
ATOM     43  C   UNL A   1      38.806  32.546  34.278  1.00  0.00     0.074 A 
ATOM     44  C   UNL A   1      38.526  31.306  32.159  1.00  0.00     0.049 A 
ATOM     45  N   UNL A   1      39.902  32.000  34.737  1.00  0.00    -0.248 NA
ATOM     46  C   UNL A   1      38.278  33.631  35.122  1.00  0.00     0.031 C 
ATOM     47  C   UNL A   1      37.930  30.965  30.864  1.00  0.00     0.029 A 
ATOM     48  N   UNL A   1      39.628  30.491  32.238  1.00  0.00    -0.354 N 
ATOM     49  C   UNL A   1      40.211  32.690  35.903  1.00  0.00     0.074 A 
ATOM     50  C   UNL A   1      39.209  33.723  36.059  1.00  0.00     0.031 C 
ATOM     51  C   UNL A   1      38.664  30.005  30.279  1.00  0.00     0.029 A 
ATOM     52  C   UNL A   1      39.799  29.682  31.138  1.00  0.00     0.049 A 
ATOM     53  H   UNL A   1      40.240  30.487  33.009  1.00  0.00     0.167 HD
ATOM     54  C   UNL A   1      41.216  32.468  36.781  1.00  0.00     0.034 A 
ATOM     55  C   UNL A   1      40.763  28.785  30.849  1.00  0.00     0.034 A 
ATOM     56  C   UNL A   1      42.192  31.422  36.638  1.00  0.00     0.049 A 
ATOM     57  C   UNL A   1      41.856  28.539  31.854  1.00  0.00     0.074 A 
ATOM     58  C   UNL A   1      43.201  31.063  37.514  1.00  0.00     0.029 A 
ATOM     59  N   UNL A   1      42.294  30.578  35.543  1.00  0.00    -0.354 N 
ATOM     60  N   UNL A   1      42.036  29.093  33.029  1.00  0.00    -0.248 NA
ATOM     61  C   UNL A   1      42.858  27.518  31.513  1.00  0.00     0.031 C 
ATOM     62  C   UNL A   1      43.936  30.025  36.931  1.00  0.00     0.029 A 
ATOM     63  C   UNL A   1      43.358  29.709  35.713  1.00  0.00     0.049 A 
ATOM     64  H   UNL A   1      41.697  30.595  34.760  1.00  0.00     0.167 HD
ATOM     65  C   UNL A   1      43.146  28.464  33.581  1.00  0.00     0.074 A 
ATOM     66  C   UNL A   1      43.584  27.471  32.622  1.00  0.00     0.031 C 
ATOM     67  C   UNL A   1      43.754  28.693  34.771  1.00  0.00     0.034 A 
BRANCH  54  68
ATOM     68  C   UNL A   1      41.288  33.352  37.999  1.00  0.00     0.023 A 
ATOM     69  C   UNL A   1      40.608  32.976  39.177  1.00  0.00     0.012 A 
ATOM     70  C   UNL A   1      42.068  34.524  37.996  1.00  0.00     0.148 A 
ATOM     71  C   UNL A   1      40.670  33.773  40.319  1.00  0.00     0.002 A 
ATOM     72  C   UNL A   1      42.165  35.287  39.153  1.00  0.00     0.091 A 
ATOM     73  F   UNL A   1      42.691  34.875  36.863  1.00  0.00    -0.205 F 
ATOM     74  C   UNL A   1      41.456  34.922  40.310  1.00  0.00     0.022 A 
BRANCH  72  75
ATOM     75  S   UNL A   1      43.215  36.739  39.271  1.00  0.00     0.127 S 
ATOM     76  O   UNL A   1      42.772  37.321  40.538  1.00  0.00    -0.237 OA
ATOM     77  O   UNL A   1      44.552  36.147  39.308  1.00  0.00    -0.237 OA
ATOM     78  O   UNL A   1      42.934  37.537  38.087  1.00  0.00    -0.744 OA
ENDBRANCH  72  75
ENDBRANCH  54  68
BRANCH  55  79
ATOM     79  C   UNL A   1      40.713  28.012  29.574  1.00  0.00     0.023 A 
ATOM     80  C   UNL A   1      39.767  26.978  29.422  1.00  0.00     0.012 A 
ATOM     81  C   UNL A   1      41.586  28.302  28.509  1.00  0.00     0.148 A 
ATOM     82  C   UNL A   1      39.718  26.224  28.248  1.00  0.00     0.002 A 
ATOM     83  C   UNL A   1      41.495  27.585  27.322  1.00  0.00     0.091 A 
ATOM     84  F   UNL A   1      42.486  29.282  28.676  1.00  0.00    -0.205 F 
ATOM     85  C   UNL A   1      40.575  26.534  27.196  1.00  0.00     0.022 A 
BRANCH  83  86
ATOM     86  S   UNL A   1      42.467  27.999  25.870  1.00  0.00     0.127 S 
ATOM     87  O   UNL A   1      41.970  27.034  24.893  1.00  0.00    -0.237 OA
ATOM     88  O   UNL A   1      42.067  29.386  25.626  1.00  0.00    -0.237 OA
ATOM     89  O   UNL A   1      43.859  27.837  26.268  1.00  0.00    -0.744 OA
ENDBRANCH  83  86
ENDBRANCH  55  79
BRANCH  67  90
ATOM     90  C   UNL A   1      44.935  27.830  35.134  1.00  0.00     0.023 A 
ATOM     91  C   UNL A   1      46.246  28.278  34.874  1.00  0.00     0.012 A 
ATOM     92  C   UNL A   1      44.743  26.604  35.801  1.00  0.00     0.148 A 
ATOM     93  C   UNL A   1      47.345  27.504  35.243  1.00  0.00     0.002 A 
ATOM     94  C   UNL A   1      45.844  25.864  36.214  1.00  0.00     0.091 A 
ATOM     95  F   UNL A   1      43.488  26.187  36.023  1.00  0.00    -0.205 F 
ATOM     96  C   UNL A   1      47.145  26.304  35.922  1.00  0.00     0.022 A 
BRANCH  94  97
ATOM     97  S   UNL A   1      45.685  24.360  37.183  1.00  0.00     0.127 S 
ATOM     98  O   UNL A   1      47.077  23.932  37.299  1.00  0.00    -0.237 OA
ATOM     99  O   UNL A   1      45.094  24.856  38.427  1.00  0.00    -0.237 OA
ATOM    100  O   UNL A   1      44.821  23.474  36.415  1.00  0.00    -0.744 OA
ENDBRANCH  94  97
ENDBRANCH  67  90
ENDBRANCH  41  42
ENDBRANCH  33  36
ENDBRANCH  31  32
ENDBRANCH  30  31
ENDBRANCH  29  30
ENDBRANCH   1  29
TORSDOF 19
ENDMDL
MODEL 3
REMARK VINA RESULT:     -10.3      7.069     11.584
REMARK SMILES C/C(=N/[NH+]=C1\NC(=O)[C@H](CC(=O)NCCCCNC(=O)c2ccc(-c3c4nc(c(-c5cccc(S(=O)(=O)[O-])c5F)c5ccc([nH]5)c(-c5cccc(S(=O)(=O)[O-])c5F)c5nc(c(-c6cccc(S(=O)(=O)[O-])c6F)c6ccc3[nH]6)C=C5)C=C4)cc2)S1)c1ccc(OC(C)C)cc1
REMARK SMILES IDX 14 1 13 2 11 3 12 4 10 6 9 7 4 8 5 9 6 11 84 12 7 13 8 15
REMARK SMILES IDX 3 16 1 17 2 18 85 19 86 20 94 21 87 22 93 23 88 24 89 25
REMARK SMILES IDX 90 26 91 27 92 28 15 29 16 30 17 31 18 32 19 33 20 35 21 36
REMARK SMILES IDX 22 37 83 38 23 39 82 40 24 41 25 42 26 43 76 44 27 45 81 46
REMARK SMILES IDX 75 47 77 48 28 49 80 50 74 51 73 52 29 54 61 55 41 56 60 57
REMARK SMILES IDX 42 58 45 59 59 60 78 61 43 62 44 63 58 65 79 66 46 67 30 68
REMARK SMILES IDX 31 69 39 70 32 71 34 72 40 73 33 74 35 75 36 76 37 77 38 78
REMARK SMILES IDX 62 79 63 80 71 81 64 82 66 83 72 84 65 85 67 86 68 87 69 88
REMARK SMILES IDX 70 89 47 90 48 91 56 92 49 93 51 94 57 95 50 96 52 97 53 98
REMARK SMILES IDX 54 99 55 100
REMARK H PARENT 13 5 4 10 6 14 18 34 77 53 45 64
REMARK Flexibility Score: inf
ROOT
ATOM      1  C   UNL A   1      35.059  32.918  32.644  1.00  0.00     0.116 C 
ENDROOT
BRANCH   1   2
ATOM      2  N   UNL A   1      34.988  33.856  31.542  1.00  0.00    -0.356 N 
ATOM      3  C   UNL A   1      34.844  33.600  30.209  1.00  0.00     0.221 C 
ATOM      4  O   UNL A   1      34.766  34.537  29.415  1.00  0.00    -0.275 OA
ATOM      5  H   UNL A   1      35.051  34.807  31.788  1.00  0.00     0.163 HD
BRANCH   3   6
ATOM      6  C   UNL A   1      34.766  32.172  29.725  1.00  0.00     0.127 C 
BRANCH   6   7
ATOM      7  C   UNL A   1      35.150  32.023  28.256  1.00  0.00     0.183 C 
ATOM      8  N   UNL A   1      33.082  29.137  26.841  1.00  0.00    -0.142 N 
ATOM      9  C   UNL A   1      33.973  30.007  27.169  1.00  0.00     0.337 C 
ATOM     10  H   UNL A   1      32.151  29.394  26.652  1.00  0.00     0.343 HD
ATOM     11  N   UNL A   1      35.265  29.764  27.474  1.00  0.00    -0.202 N 
ATOM     12  S   UNL A   1      33.604  31.702  27.314  1.00  0.00    -0.020 SA
ATOM     13  C   UNL A   1      36.007  30.809  27.938  1.00  0.00     0.322 C 
ATOM     14  H   UNL A   1      35.656  28.867  27.364  1.00  0.00     0.316 HD
ATOM     15  O   UNL A   1      37.222  30.749  28.095  1.00  0.00    -0.246 OA
BRANCH   8  16
ATOM     16  N   UNL A   1      33.504  27.808  26.769  1.00  0.00    -0.090 NA
ATOM     17  C   UNL A   1      33.798  25.742  25.585  1.00  0.00     0.071 C 
ATOM     18  C   UNL A   1      33.190  27.127  25.699  1.00  0.00     0.088 C 
BRANCH  18  19
ATOM     19  C   UNL A   1      32.226  27.533  24.628  1.00  0.00    -0.000 A 
ATOM     20  C   UNL A   1      32.559  28.445  23.630  1.00  0.00     0.014 A 
ATOM     21  C   UNL A   1      30.906  27.074  24.699  1.00  0.00     0.014 A 
ATOM     22  C   UNL A   1      31.563  28.955  22.786  1.00  0.00     0.047 A 
ATOM     23  C   UNL A   1      29.915  27.588  23.842  1.00  0.00     0.047 A 
ATOM     24  C   UNL A   1      30.227  28.552  22.896  1.00  0.00     0.119 A 
BRANCH  24  25
ATOM     25  O   UNL A   1      29.388  29.200  22.049  1.00  0.00    -0.491 OA
BRANCH  25  26
ATOM     26  C   UNL A   1      28.882  30.535  22.155  1.00  0.00     0.167 C 
ATOM     27  C   UNL A   1      28.232  31.139  20.916  1.00  0.00     0.052 C 
ATOM     28  C   UNL A   1      28.075  30.771  23.426  1.00  0.00     0.052 C 
ENDBRANCH  25  26
ENDBRANCH  24  25
ENDBRANCH  18  19
ENDBRANCH   8  16
ENDBRANCH   6   7
ENDBRANCH   3   6
ENDBRANCH   1   2
BRANCH   1  29
ATOM     29  C   UNL A   1      36.279  33.112  33.537  1.00  0.00     0.023 C 
BRANCH  29  30
ATOM     30  C   UNL A   1      37.440  32.152  33.284  1.00  0.00     0.023 C 
BRANCH  30  31
ATOM     31  C   UNL A   1      37.139  30.913  32.447  1.00  0.00     0.116 C 
BRANCH  31  32
ATOM     32  N   UNL A   1      37.823  29.700  32.868  1.00  0.00    -0.352 N 
ATOM     33  C   UNL A   1      39.162  29.394  32.768  1.00  0.00     0.251 C 
ATOM     34  H   UNL A   1      37.255  29.008  33.277  1.00  0.00     0.163 HD
ATOM     35  O   UNL A   1      39.589  28.341  33.230  1.00  0.00    -0.269 OA
BRANCH  33  36
ATOM     36  C   UNL A   1      40.052  30.310  32.025  1.00  0.00     0.039 A 
ATOM     37  C   UNL A   1      41.001  31.034  32.749  1.00  0.00     0.014 A 
ATOM     38  C   UNL A   1      40.038  30.354  30.629  1.00  0.00     0.014 A 
ATOM     39  C   UNL A   1      42.003  31.727  32.067  1.00  0.00     0.010 A 
ATOM     40  C   UNL A   1      41.086  30.977  29.954  1.00  0.00     0.010 A 
ATOM     41  C   UNL A   1      42.086  31.659  30.666  1.00  0.00    -0.014 A 
BRANCH  41  42
ATOM     42  C   UNL A   1      43.233  32.270  29.945  1.00  0.00     0.031 A 
ATOM     43  C   UNL A   1      43.175  33.706  29.505  1.00  0.00     0.074 A 
ATOM     44  C   UNL A   1      44.305  31.512  29.630  1.00  0.00     0.049 A 
ATOM     45  N   UNL A   1      44.072  34.406  28.861  1.00  0.00    -0.248 NA
ATOM     46  C   UNL A   1      41.938  34.447  29.803  1.00  0.00     0.031 C 
ATOM     47  C   UNL A   1      44.449  30.084  29.928  1.00  0.00     0.029 A 
ATOM     48  N   UNL A   1      45.469  31.831  28.976  1.00  0.00    -0.354 N 
ATOM     49  C   UNL A   1      43.502  35.656  28.653  1.00  0.00     0.074 A 
ATOM     50  C   UNL A   1      42.164  35.605  29.202  1.00  0.00     0.031 C 
ATOM     51  C   UNL A   1      45.637  29.656  29.471  1.00  0.00     0.029 A 
ATOM     52  C   UNL A   1      46.327  30.766  28.821  1.00  0.00     0.049 A 
ATOM     53  H   UNL A   1      45.671  32.736  28.647  1.00  0.00     0.167 HD
ATOM     54  C   UNL A   1      44.048  36.756  28.085  1.00  0.00     0.034 A 
ATOM     55  C   UNL A   1      47.531  30.688  28.219  1.00  0.00     0.034 A 
ATOM     56  C   UNL A   1      45.389  36.812  27.568  1.00  0.00     0.049 A 
ATOM     57  C   UNL A   1      48.128  31.933  27.617  1.00  0.00     0.074 A 
ATOM     58  C   UNL A   1      46.064  37.902  27.048  1.00  0.00     0.029 A 
ATOM     59  N   UNL A   1      46.253  35.731  27.489  1.00  0.00    -0.354 N 
ATOM     60  N   UNL A   1      47.634  33.147  27.576  1.00  0.00    -0.248 NA
ATOM     61  C   UNL A   1      49.462  31.807  27.013  1.00  0.00     0.031 C 
ATOM     62  C   UNL A   1      47.324  37.471  26.620  1.00  0.00     0.029 A 
ATOM     63  C   UNL A   1      47.450  36.123  26.914  1.00  0.00     0.049 A 
ATOM     64  H   UNL A   1      46.046  34.819  27.796  1.00  0.00     0.167 HD
ATOM     65  C   UNL A   1      48.610  33.935  26.977  1.00  0.00     0.074 A 
ATOM     66  C   UNL A   1      49.732  33.065  26.692  1.00  0.00     0.031 C 
ATOM     67  C   UNL A   1      48.577  35.257  26.680  1.00  0.00     0.034 A 
BRANCH  54  68
ATOM     68  C   UNL A   1      43.208  38.005  28.029  1.00  0.00     0.023 A 
ATOM     69  C   UNL A   1      42.392  38.250  26.905  1.00  0.00     0.012 A 
ATOM     70  C   UNL A   1      43.186  38.910  29.108  1.00  0.00     0.148 A 
ATOM     71  C   UNL A   1      41.598  39.394  26.837  1.00  0.00     0.002 A 
ATOM     72  C   UNL A   1      42.355  40.022  29.054  1.00  0.00     0.091 A 
ATOM     73  F   UNL A   1      43.983  38.672  30.158  1.00  0.00    -0.205 F 
ATOM     74  C   UNL A   1      41.572  40.274  27.915  1.00  0.00     0.022 A 
BRANCH  72  75
ATOM     75  S   UNL A   1      42.187  41.173  30.423  1.00  0.00     0.127 S 
ATOM     76  O   UNL A   1      43.185  42.186  30.079  1.00  0.00    -0.237 OA
ATOM     77  O   UNL A   1      40.799  41.613  30.283  1.00  0.00    -0.237 OA
ATOM     78  O   UNL A   1      42.465  40.408  31.629  1.00  0.00    -0.744 OA
ENDBRANCH  72  75
ENDBRANCH  54  68
BRANCH  55  79
ATOM     79  C   UNL A   1      48.279  29.398  28.199  1.00  0.00     0.023 A 
ATOM     80  C   UNL A   1      49.286  29.161  29.156  1.00  0.00     0.012 A 
ATOM     81  C   UNL A   1      47.993  28.402  27.246  1.00  0.00     0.148 A 
ATOM     82  C   UNL A   1      50.018  27.972  29.142  1.00  0.00     0.002 A 
ATOM     83  C   UNL A   1      48.686  27.198  27.272  1.00  0.00     0.091 A 
ATOM     84  F   UNL A   1      47.039  28.651  26.337  1.00  0.00    -0.205 F 
ATOM     85  C   UNL A   1      49.711  26.988  28.206  1.00  0.00     0.022 A 
BRANCH  83  86
ATOM     86  S   UNL A   1      48.271  25.825  26.192  1.00  0.00     0.127 S 
ATOM     87  O   UNL A   1      46.818  25.766  26.327  1.00  0.00    -0.237 OA
ATOM     88  O   UNL A   1      48.752  26.308  24.896  1.00  0.00    -0.237 OA
ATOM     89  O   UNL A   1      49.002  24.678  26.714  1.00  0.00    -0.744 OA
ENDBRANCH  83  86
ENDBRANCH  55  79
BRANCH  67  90
ATOM     90  C   UNL A   1      49.804  35.867  26.052  1.00  0.00     0.023 A 
ATOM     91  C   UNL A   1      50.059  35.688  24.678  1.00  0.00     0.012 A 
ATOM     92  C   UNL A   1      50.666  36.680  26.816  1.00  0.00     0.148 A 
ATOM     93  C   UNL A   1      51.171  36.282  24.082  1.00  0.00     0.002 A 
ATOM     94  C   UNL A   1      51.740  37.311  26.203  1.00  0.00     0.091 A 
ATOM     95  F   UNL A   1      50.416  36.822  28.126  1.00  0.00    -0.205 F 
ATOM     96  C   UNL A   1      52.004  37.102  24.840  1.00  0.00     0.022 A 
BRANCH  94  97
ATOM     97  S   UNL A   1      52.805  38.465  27.076  1.00  0.00     0.127 S 
ATOM     98  O   UNL A   1      53.545  37.573  27.966  1.00  0.00    -0.237 OA
ATOM     99  O   UNL A   1      53.599  39.036  25.988  1.00  0.00    -0.237 OA
ATOM    100  O   UNL A   1      51.917  39.411  27.738  1.00  0.00    -0.744 OA
ENDBRANCH  94  97
ENDBRANCH  67  90
ENDBRANCH  41  42
ENDBRANCH  33  36
ENDBRANCH  31  32
ENDBRANCH  30  31
ENDBRANCH  29  30
ENDBRANCH   1  29
TORSDOF 19
ENDMDL
