MODEL 1
REMARK VINA RESULT:     -11.8      0.000      0.000
REMARK SMILES CCC[C@@](C)(NC(=O)N1CCN(C)C(=O)C1(C)C)C(=O)NCCCCNC(=O)c1ccc(-c2c3nc(c(-c4cccc(S(=O)(=O)[O-])c4F)c4ccc([nH]4)c(-c4cccc(S(=O)(=O)[O-])c4F)c4nc(c(-c5cccc(S(=O)(=O)[O-])c5F)c5ccc2[nH]5)C=C4)C=C3)cc1
REMARK SMILES IDX 24 1 23 2 22 3 21 4 19 5 20 6 4 8 5 9 3 10 2 11 1 12 6 13
REMARK SMILES IDX 7 14 8 16 9 17 10 18 16 19 11 20 14 21 17 22 18 23 12 24
REMARK SMILES IDX 15 25 13 26 25 27 26 28 27 29 28 31 29 32 30 33 91 34 31 35
REMARK SMILES IDX 90 36 32 37 33 38 34 39 84 40 35 41 89 42 83 43 85 44 36 45
REMARK SMILES IDX 88 46 82 47 81 48 37 50 69 51 49 52 68 53 50 54 53 55 67 56
REMARK SMILES IDX 86 57 51 58 52 59 66 61 87 62 54 63 38 64 39 65 47 66 40 67
REMARK SMILES IDX 42 68 48 69 41 70 43 71 44 72 45 73 46 74 70 75 71 76 79 77
REMARK SMILES IDX 72 78 74 79 80 80 73 81 75 82 76 83 77 84 78 85 55 86 56 87
REMARK SMILES IDX 64 88 57 89 59 90 65 91 58 92 60 93 61 94 62 95 63 96
REMARK H PARENT 21 7 6 15 26 30 85 49 53 60
REMARK Flexibility Score: inf
ROOT
ATOM      1  C   UNL A   1      31.455  32.234  26.639  1.00  0.00     0.023 C 
ENDROOT
BRANCH   1   2
ATOM      2  C   UNL A   1      31.520  30.759  26.142  1.00  0.00     0.023 C 
BRANCH   2   3
ATOM      3  C   UNL A   1      32.861  29.944  26.162  1.00  0.00     0.116 C 
BRANCH   3   4
ATOM      4  N   UNL A   1      33.337  28.839  25.231  1.00  0.00    -0.354 N 
ATOM      5  C   UNL A   1      33.105  28.113  24.085  1.00  0.00     0.245 C 
ATOM      6  O   UNL A   1      33.898  28.471  23.186  1.00  0.00    -0.272 OA
ATOM      7  H   UNL A   1      34.175  28.494  25.615  1.00  0.00     0.163 HD
BRANCH   5   8
ATOM      8  C   UNL A   1      31.999  26.956  23.636  1.00  0.00     0.117 C 
ATOM      9  C   UNL A   1      31.282  26.719  24.995  1.00  0.00     0.045 C 
BRANCH   8  10
ATOM     10  C   UNL A   1      30.945  27.556  22.608  1.00  0.00     0.038 C 
BRANCH  10  11
ATOM     11  C   UNL A   1      29.839  28.544  23.003  1.00  0.00    -0.000 C 
ATOM     12  C   UNL A   1      29.706  29.699  22.013  1.00  0.00     0.004 C 
ENDBRANCH  10  11
ENDBRANCH   8  10
BRANCH   8  13
ATOM     13  N   UNL A   1      32.169  25.530  23.040  1.00  0.00    -0.324 N 
ATOM     14  C   UNL A   1      33.059  24.489  23.254  1.00  0.00     0.319 C 
ATOM     15  H   UNL A   1      31.493  25.319  22.357  1.00  0.00     0.166 HD
ATOM     16  O   UNL A   1      33.730  24.105  22.295  1.00  0.00    -0.249 OA
BRANCH  14  17
ATOM     17  N   UNL A   1      33.013  23.784  24.442  1.00  0.00    -0.309 N 
ATOM     18  C   UNL A   1      31.886  22.974  24.832  1.00  0.00     0.144 C 
ATOM     19  C   UNL A   1      34.204  23.557  25.218  1.00  0.00     0.118 C 
ATOM     20  C   UNL A   1      32.220  21.525  24.486  1.00  0.00     0.140 C 
ATOM     21  C   UNL A   1      34.687  22.220  24.497  1.00  0.00     0.247 C 
ATOM     22  C   UNL A   1      34.673  24.995  25.460  1.00  0.00     0.045 C 
ATOM     23  C   UNL A   1      34.209  22.961  26.653  1.00  0.00     0.045 C 
ATOM     24  N   UNL A   1      33.668  21.217  24.471  1.00  0.00    -0.342 N 
ATOM     25  O   UNL A   1      35.855  21.897  24.308  1.00  0.00    -0.272 OA
ATOM     26  C   UNL A   1      34.048  19.830  24.679  1.00  0.00     0.146 C 
ENDBRANCH  14  17
ENDBRANCH   8  13
ENDBRANCH   5   8
ENDBRANCH   3   4
ENDBRANCH   2   3
ENDBRANCH   1   2
BRANCH   1  27
ATOM     27  C   UNL A   1      32.693  32.772  27.331  1.00  0.00     0.116 C 
BRANCH  27  28
ATOM     28  N   UNL A   1      32.557  34.186  27.647  1.00  0.00    -0.352 N 
ATOM     29  C   UNL A   1      33.273  34.891  28.580  1.00  0.00     0.251 C 
ATOM     30  H   UNL A   1      31.880  34.688  27.137  1.00  0.00     0.163 HD
ATOM     31  O   UNL A   1      32.974  36.044  28.881  1.00  0.00    -0.269 OA
BRANCH  29  32
ATOM     32  C   UNL A   1      34.386  34.192  29.237  1.00  0.00     0.039 A 
ATOM     33  C   UNL A   1      35.694  34.441  28.821  1.00  0.00     0.014 A 
ATOM     34  C   UNL A   1      34.116  33.404  30.359  1.00  0.00     0.014 A 
ATOM     35  C   UNL A   1      36.749  33.910  29.557  1.00  0.00     0.010 A 
ATOM     36  C   UNL A   1      35.168  32.955  31.139  1.00  0.00     0.010 A 
ATOM     37  C   UNL A   1      36.490  33.171  30.723  1.00  0.00    -0.014 A 
BRANCH  37  38
ATOM     38  C   UNL A   1      37.588  32.522  31.472  1.00  0.00     0.031 A 
ATOM     39  C   UNL A   1      38.316  31.375  30.830  1.00  0.00     0.074 A 
ATOM     40  C   UNL A   1      37.886  32.921  32.723  1.00  0.00     0.049 A 
ATOM     41  N   UNL A   1      39.286  30.644  31.309  1.00  0.00    -0.248 NA
ATOM     42  C   UNL A   1      37.870  30.970  29.483  1.00  0.00     0.031 C 
ATOM     43  C   UNL A   1      37.190  33.970  33.470  1.00  0.00     0.029 A 
ATOM     44  N   UNL A   1      38.844  32.472  33.595  1.00  0.00    -0.354 N 
ATOM     45  C   UNL A   1      39.536  29.677  30.343  1.00  0.00     0.074 A 
ATOM     46  C   UNL A   1      38.583  29.874  29.277  1.00  0.00     0.031 C 
ATOM     47  C   UNL A   1      37.750  34.088  34.686  1.00  0.00     0.029 A 
ATOM     48  C   UNL A   1      38.828  33.113  34.811  1.00  0.00     0.049 A 
ATOM     49  H   UNL A   1      39.483  31.757  33.371  1.00  0.00     0.167 HD
ATOM     50  C   UNL A   1      40.504  28.735  30.324  1.00  0.00     0.034 A 
ATOM     51  C   UNL A   1      39.602  32.928  35.899  1.00  0.00     0.034 A 
ATOM     52  C   UNL A   1      41.486  28.588  31.359  1.00  0.00     0.049 A 
ATOM     53  C   UNL A   1      40.704  31.903  35.834  1.00  0.00     0.074 A 
ATOM     54  C   UNL A   1      42.574  27.739  31.397  1.00  0.00     0.029 A 
ATOM     55  N   UNL A   1      41.493  29.312  32.542  1.00  0.00    -0.354 N 
ATOM     56  N   UNL A   1      41.038  31.112  34.841  1.00  0.00    -0.248 NA
ATOM     57  C   UNL A   1      41.559  31.767  37.022  1.00  0.00     0.031 C 
ATOM     58  C   UNL A   1      43.226  27.929  32.619  1.00  0.00     0.029 A 
ATOM     59  C   UNL A   1      42.559  28.918  33.327  1.00  0.00     0.049 A 
ATOM     60  H   UNL A   1      40.836  30.004  32.785  1.00  0.00     0.167 HD
ATOM     61  C   UNL A   1      42.158  30.410  35.272  1.00  0.00     0.074 A 
ATOM     62  C   UNL A   1      42.459  30.886  36.607  1.00  0.00     0.031 C 
ATOM     63  C   UNL A   1      42.865  29.446  34.631  1.00  0.00     0.034 A 
BRANCH  50  64
ATOM     64  C   UNL A   1      40.576  27.833  29.122  1.00  0.00     0.023 A 
ATOM     65  C   UNL A   1      39.715  26.720  29.031  1.00  0.00     0.012 A 
ATOM     66  C   UNL A   1      41.469  28.106  28.069  1.00  0.00     0.148 A 
ATOM     67  C   UNL A   1      39.768  25.870  27.927  1.00  0.00     0.002 A 
ATOM     68  C   UNL A   1      41.481  27.283  26.949  1.00  0.00     0.091 A 
ATOM     69  F   UNL A   1      42.299  29.152  28.189  1.00  0.00    -0.205 F 
ATOM     70  C   UNL A   1      40.641  26.158  26.883  1.00  0.00     0.022 A 
BRANCH  68  71
ATOM     71  S   UNL A   1      42.511  27.613  25.517  1.00  0.00     0.127 S 
ATOM     72  O   UNL A   1      42.238  26.443  24.682  1.00  0.00    -0.237 OA
ATOM     73  O   UNL A   1      41.946  28.865  25.015  1.00  0.00    -0.237 OA
ATOM     74  O   UNL A   1      43.874  27.718  26.017  1.00  0.00    -0.744 OA
ENDBRANCH  68  71
ENDBRANCH  50  64
BRANCH  51  75
ATOM     75  C   UNL A   1      39.404  33.773  37.110  1.00  0.00     0.023 A 
ATOM     76  C   UNL A   1      39.862  35.105  37.111  1.00  0.00     0.012 A 
ATOM     77  C   UNL A   1      38.743  33.276  38.250  1.00  0.00     0.148 A 
ATOM     78  C   UNL A   1      39.697  35.915  38.236  1.00  0.00     0.002 A 
ATOM     79  C   UNL A   1      38.532  34.104  39.347  1.00  0.00     0.091 A 
ATOM     80  F   UNL A   1      38.324  32.002  38.236  1.00  0.00    -0.205 F 
ATOM     81  C   UNL A   1      39.024  35.418  39.349  1.00  0.00     0.022 A 
BRANCH  79  82
ATOM     82  S   UNL A   1      37.559  33.589  40.767  1.00  0.00     0.127 S 
ATOM     83  O   UNL A   1      37.290  34.865  41.425  1.00  0.00    -0.237 OA
ATOM     84  O   UNL A   1      36.398  32.966  40.129  1.00  0.00    -0.237 OA
ATOM     85  O   UNL A   1      38.403  32.659  41.506  1.00  0.00    -0.744 OA
ENDBRANCH  79  82
ENDBRANCH  51  75
BRANCH  63  86
ATOM     86  C   UNL A   1      44.049  28.855  35.346  1.00  0.00     0.023 A 
ATOM     87  C   UNL A   1      45.322  29.434  35.182  1.00  0.00     0.012 A 
ATOM     88  C   UNL A   1      43.877  27.796  36.260  1.00  0.00     0.148 A 
ATOM     89  C   UNL A   1      46.414  28.951  35.900  1.00  0.00     0.002 A 
ATOM     90  C   UNL A   1      44.960  27.354  37.009  1.00  0.00     0.091 A 
ATOM     91  F   UNL A   1      42.658  27.253  36.388  1.00  0.00    -0.205 F 
ATOM     92  C   UNL A   1      46.231  27.922  36.822  1.00  0.00     0.022 A 
BRANCH  90  93
ATOM     93  S   UNL A   1      44.800  26.108  38.291  1.00  0.00     0.127 S 
ATOM     94  O   UNL A   1      46.178  25.990  38.763  1.00  0.00    -0.237 OA
ATOM     95  O   UNL A   1      43.885  26.751  39.234  1.00  0.00    -0.237 OA
ATOM     96  O   UNL A   1      44.261  24.923  37.638  1.00  0.00    -0.744 OA
ENDBRANCH  90  93
ENDBRANCH  63  86
ENDBRANCH  37  38
ENDBRANCH  29  32
ENDBRANCH  27  28
ENDBRANCH   1  27
TORSDOF 18
ENDMDL
MODEL 2
REMARK VINA RESULT:     -11.6      2.281      8.009
REMARK SMILES CCC[C@@](C)(NC(=O)N1CCN(C)C(=O)C1(C)C)C(=O)NCCCCNC(=O)c1ccc(-c2c3nc(c(-c4cccc(S(=O)(=O)[O-])c4F)c4ccc([nH]4)c(-c4cccc(S(=O)(=O)[O-])c4F)c4nc(c(-c5cccc(S(=O)(=O)[O-])c5F)c5ccc2[nH]5)C=C4)C=C3)cc1
REMARK SMILES IDX 24 1 23 2 22 3 21 4 19 5 20 6 4 8 5 9 3 10 2 11 1 12 6 13
REMARK SMILES IDX 7 14 8 16 9 17 10 18 16 19 11 20 14 21 17 22 18 23 12 24
REMARK SMILES IDX 15 25 13 26 25 27 26 28 27 29 28 31 29 32 30 33 91 34 31 35
REMARK SMILES IDX 90 36 32 37 33 38 34 39 84 40 35 41 89 42 83 43 85 44 36 45
REMARK SMILES IDX 88 46 82 47 81 48 37 50 69 51 49 52 68 53 50 54 53 55 67 56
REMARK SMILES IDX 86 57 51 58 52 59 66 61 87 62 54 63 38 64 39 65 47 66 40 67
REMARK SMILES IDX 42 68 48 69 41 70 43 71 44 72 45 73 46 74 70 75 71 76 79 77
REMARK SMILES IDX 72 78 74 79 80 80 73 81 75 82 76 83 77 84 78 85 55 86 56 87
REMARK SMILES IDX 64 88 57 89 59 90 65 91 58 92 60 93 61 94 62 95 63 96
REMARK H PARENT 21 7 6 15 26 30 85 49 53 60
REMARK Flexibility Score: inf
ROOT
ATOM      1  C   UNL A   1      31.786  29.595  26.557  1.00  0.00     0.023 C 
ENDROOT
BRANCH   1   2
ATOM      2  C   UNL A   1      31.792  28.195  27.240  1.00  0.00     0.023 C 
BRANCH   2   3
ATOM      3  C   UNL A   1      31.127  26.946  26.561  1.00  0.00     0.116 C 
BRANCH   3   4
ATOM      4  N   UNL A   1      30.879  26.664  25.087  1.00  0.00    -0.354 N 
ATOM      5  C   UNL A   1      31.107  25.832  24.015  1.00  0.00     0.245 C 
ATOM      6  O   UNL A   1      30.074  25.173  23.760  1.00  0.00    -0.272 OA
ATOM      7  H   UNL A   1      30.305  27.393  24.757  1.00  0.00     0.163 HD
BRANCH   5   8
ATOM      8  C   UNL A   1      32.425  25.480  23.065  1.00  0.00     0.117 C 
ATOM      9  C   UNL A   1      31.957  26.085  21.712  1.00  0.00     0.045 C 
BRANCH   8  10
ATOM     10  C   UNL A   1      33.704  26.282  23.561  1.00  0.00     0.038 C 
BRANCH  10  11
ATOM     11  C   UNL A   1      33.690  27.779  23.903  1.00  0.00    -0.000 C 
ATOM     12  C   UNL A   1      34.127  28.651  22.728  1.00  0.00     0.004 C 
ENDBRANCH  10  11
ENDBRANCH   8  10
BRANCH   8  13
ATOM     13  N   UNL A   1      33.093  24.132  22.672  1.00  0.00    -0.324 N 
ATOM     14  C   UNL A   1      33.942  23.246  23.315  1.00  0.00     0.319 C 
ATOM     15  H   UNL A   1      32.859  23.843  21.761  1.00  0.00     0.166 HD
ATOM     16  O   UNL A   1      35.037  23.025  22.795  1.00  0.00    -0.249 OA
BRANCH  14  17
ATOM     17  N   UNL A   1      33.469  22.489  24.370  1.00  0.00    -0.309 N 
ATOM     18  C   UNL A   1      32.242  21.735  24.308  1.00  0.00     0.144 C 
ATOM     19  C   UNL A   1      34.319  22.149  25.481  1.00  0.00     0.118 C 
ATOM     20  C   UNL A   1      32.610  20.285  23.997  1.00  0.00     0.140 C 
ATOM     21  C   UNL A   1      34.957  20.821  24.875  1.00  0.00     0.247 C 
ATOM     22  C   UNL A   1      34.742  23.541  25.962  1.00  0.00     0.045 C 
ATOM     23  C   UNL A   1      33.815  21.485  26.793  1.00  0.00     0.045 C 
ATOM     24  N   UNL A   1      33.964  19.887  24.444  1.00  0.00    -0.342 N 
ATOM     25  O   UNL A   1      36.105  20.433  25.064  1.00  0.00    -0.272 OA
ATOM     26  C   UNL A   1      34.191  18.470  24.673  1.00  0.00     0.146 C 
ENDBRANCH  14  17
ENDBRANCH   8  13
ENDBRANCH   5   8
ENDBRANCH   3   4
ENDBRANCH   2   3
ENDBRANCH   1   2
BRANCH   1  27
ATOM     27  C   UNL A   1      33.099  30.354  26.554  1.00  0.00     0.116 C 
BRANCH  27  28
ATOM     28  N   UNL A   1      32.901  31.764  26.854  1.00  0.00    -0.352 N 
ATOM     29  C   UNL A   1      33.682  32.549  27.663  1.00  0.00     0.251 C 
ATOM     30  H   UNL A   1      32.125  32.201  26.431  1.00  0.00     0.163 HD
ATOM     31  O   UNL A   1      33.341  33.687  27.977  1.00  0.00    -0.269 OA
BRANCH  29  32
ATOM     32  C   UNL A   1      34.924  31.952  28.175  1.00  0.00     0.039 A 
ATOM     33  C   UNL A   1      36.106  32.692  28.137  1.00  0.00     0.014 A 
ATOM     34  C   UNL A   1      34.859  30.714  28.819  1.00  0.00     0.014 A 
ATOM     35  C   UNL A   1      37.236  32.191  28.777  1.00  0.00     0.010 A 
ATOM     36  C   UNL A   1      35.958  30.264  29.530  1.00  0.00     0.010 A 
ATOM     37  C   UNL A   1      37.164  30.979  29.483  1.00  0.00    -0.014 A 
BRANCH  37  38
ATOM     38  C   UNL A   1      38.371  30.382  30.094  1.00  0.00     0.031 A 
ATOM     39  C   UNL A   1      38.767  30.817  31.478  1.00  0.00     0.074 A 
ATOM     40  C   UNL A   1      39.126  29.510  29.399  1.00  0.00     0.049 A 
ATOM     41  N   UNL A   1      39.794  30.449  32.194  1.00  0.00    -0.248 NA
ATOM     42  C   UNL A   1      37.912  31.827  32.130  1.00  0.00     0.031 C 
ATOM     43  C   UNL A   1      38.877  29.081  28.021  1.00  0.00     0.029 A 
ATOM     44  N   UNL A   1      40.269  28.842  29.754  1.00  0.00    -0.354 N 
ATOM     45  C   UNL A   1      39.730  31.209  33.356  1.00  0.00     0.074 A 
ATOM     46  C   UNL A   1      38.599  32.097  33.229  1.00  0.00     0.031 C 
ATOM     47  C   UNL A   1      39.837  28.217  27.651  1.00  0.00     0.029 A 
ATOM     48  C   UNL A   1      40.776  28.045  28.754  1.00  0.00     0.049 A 
ATOM     49  H   UNL A   1      40.687  28.926  30.641  1.00  0.00     0.167 HD
ATOM     50  C   UNL A   1      40.516  31.140  34.452  1.00  0.00     0.034 A 
ATOM     51  C   UNL A   1      41.876  27.267  28.741  1.00  0.00     0.034 A 
ATOM     52  C   UNL A   1      41.597  30.210  34.594  1.00  0.00     0.049 A 
ATOM     53  C   UNL A   1      42.709  27.174  29.992  1.00  0.00     0.074 A 
ATOM     54  C   UNL A   1      42.395  29.981  35.698  1.00  0.00     0.029 A 
ATOM     55  N   UNL A   1      42.033  29.356  33.592  1.00  0.00    -0.354 N 
ATOM     56  N   UNL A   1      42.533  27.771  31.148  1.00  0.00    -0.248 NA
ATOM     57  C   UNL A   1      43.872  26.275  29.954  1.00  0.00     0.031 C 
ATOM     58  C   UNL A   1      43.335  29.004  35.354  1.00  0.00     0.029 A 
ATOM     59  C   UNL A   1      43.102  28.607  34.046  1.00  0.00     0.049 A 
ATOM     60  H   UNL A   1      41.640  29.293  32.692  1.00  0.00     0.167 HD
ATOM     61  C   UNL A   1      43.539  27.297  31.981  1.00  0.00     0.074 A 
ATOM     62  C   UNL A   1      44.308  26.345  31.204  1.00  0.00     0.031 C 
ATOM     63  C   UNL A   1      43.816  27.629  33.267  1.00  0.00     0.034 A 
BRANCH  50  64
ATOM     64  C   UNL A   1      40.193  32.059  35.599  1.00  0.00     0.023 A 
ATOM     65  C   UNL A   1      40.956  33.230  35.792  1.00  0.00     0.012 A 
ATOM     66  C   UNL A   1      39.118  31.783  36.464  1.00  0.00     0.148 A 
ATOM     67  C   UNL A   1      40.676  34.094  36.850  1.00  0.00     0.002 A 
ATOM     68  C   UNL A   1      38.814  32.674  37.486  1.00  0.00     0.091 A 
ATOM     69  F   UNL A   1      38.425  30.650  36.281  1.00  0.00    -0.205 F 
ATOM     70  C   UNL A   1      39.600  33.822  37.688  1.00  0.00     0.022 A 
BRANCH  68  71
ATOM     71  S   UNL A   1      37.400  32.457  38.571  1.00  0.00     0.127 S 
ATOM     72  O   UNL A   1      37.434  31.016  38.814  1.00  0.00    -0.237 OA
ATOM     73  O   UNL A   1      37.770  33.279  39.722  1.00  0.00    -0.237 OA
ATOM     74  O   UNL A   1      36.244  32.938  37.826  1.00  0.00    -0.744 OA
ENDBRANCH  68  71
ENDBRANCH  50  64
BRANCH  51  75
ATOM     75  C   UNL A   1      42.213  26.469  27.528  1.00  0.00     0.023 A 
ATOM     76  C   UNL A   1      42.889  27.085  26.456  1.00  0.00     0.012 A 
ATOM     77  C   UNL A   1      41.892  25.101  27.440  1.00  0.00     0.148 A 
ATOM     78  C   UNL A   1      43.208  26.362  25.305  1.00  0.00     0.002 A 
ATOM     79  C   UNL A   1      42.261  24.373  26.314  1.00  0.00     0.091 A 
ATOM     80  F   UNL A   1      41.239  24.535  28.464  1.00  0.00    -0.205 F 
ATOM     81  C   UNL A   1      42.903  25.005  25.238  1.00  0.00     0.022 A 
BRANCH  79  82
ATOM     82  S   UNL A   1      42.029  22.594  26.201  1.00  0.00     0.127 S 
ATOM     83  O   UNL A   1      42.700  22.284  24.942  1.00  0.00    -0.237 OA
ATOM     84  O   UNL A   1      42.719  22.121  27.402  1.00  0.00    -0.237 OA
ATOM     85  O   UNL A   1      40.587  22.384  26.221  1.00  0.00    -0.744 OA
ENDBRANCH  79  82
ENDBRANCH  51  75
BRANCH  63  86
ATOM     86  C   UNL A   1      44.980  26.946  33.931  1.00  0.00     0.023 A 
ATOM     87  C   UNL A   1      46.268  27.503  33.825  1.00  0.00     0.012 A 
ATOM     88  C   UNL A   1      44.775  25.814  34.746  1.00  0.00     0.148 A 
ATOM     89  C   UNL A   1      47.343  26.930  34.502  1.00  0.00     0.002 A 
ATOM     90  C   UNL A   1      45.841  25.279  35.457  1.00  0.00     0.091 A 
ATOM     91  F   UNL A   1      43.541  25.294  34.820  1.00  0.00    -0.205 F 
ATOM     92  C   UNL A   1      47.127  25.828  35.327  1.00  0.00     0.022 A 
BRANCH  90  93
ATOM     93  S   UNL A   1      45.639  23.929  36.623  1.00  0.00     0.127 S 
ATOM     94  O   UNL A   1      45.139  22.862  35.757  1.00  0.00    -0.237 OA
ATOM     95  O   UNL A   1      47.005  23.732  37.108  1.00  0.00    -0.237 OA
ATOM     96  O   UNL A   1      44.701  24.402  37.631  1.00  0.00    -0.744 OA
ENDBRANCH  90  93
ENDBRANCH  63  86
ENDBRANCH  37  38
ENDBRANCH  29  32
ENDBRANCH  27  28
ENDBRANCH   1  27
TORSDOF 18
ENDMDL
MODEL 3
REMARK VINA RESULT:     -11.5      3.674      8.497
REMARK SMILES CCC[C@@](C)(NC(=O)N1CCN(C)C(=O)C1(C)C)C(=O)NCCCCNC(=O)c1ccc(-c2c3nc(c(-c4cccc(S(=O)(=O)[O-])c4F)c4ccc([nH]4)c(-c4cccc(S(=O)(=O)[O-])c4F)c4nc(c(-c5cccc(S(=O)(=O)[O-])c5F)c5ccc2[nH]5)C=C4)C=C3)cc1
REMARK SMILES IDX 24 1 23 2 22 3 21 4 19 5 20 6 4 8 5 9 3 10 2 11 1 12 6 13
REMARK SMILES IDX 7 14 8 16 9 17 10 18 16 19 11 20 14 21 17 22 18 23 12 24
REMARK SMILES IDX 15 25 13 26 25 27 26 28 27 29 28 31 29 32 30 33 91 34 31 35
REMARK SMILES IDX 90 36 32 37 33 38 34 39 84 40 35 41 89 42 83 43 85 44 36 45
REMARK SMILES IDX 88 46 82 47 81 48 37 50 69 51 49 52 68 53 50 54 53 55 67 56
REMARK SMILES IDX 86 57 51 58 52 59 66 61 87 62 54 63 38 64 39 65 47 66 40 67
REMARK SMILES IDX 42 68 48 69 41 70 43 71 44 72 45 73 46 74 70 75 71 76 79 77
REMARK SMILES IDX 72 78 74 79 80 80 73 81 75 82 76 83 77 84 78 85 55 86 56 87
REMARK SMILES IDX 64 88 57 89 59 90 65 91 58 92 60 93 61 94 62 95 63 96
REMARK H PARENT 21 7 6 15 26 30 85 49 53 60
REMARK Flexibility Score: inf
ROOT
ATOM      1  C   UNL A   1      33.037  27.836  26.818  1.00  0.00     0.023 C 
ENDROOT
BRANCH   1   2
ATOM      2  C   UNL A   1      31.665  28.544  26.612  1.00  0.00     0.023 C 
BRANCH   2   3
ATOM      3  C   UNL A   1      30.821  28.333  25.306  1.00  0.00     0.116 C 
BRANCH   3   4
ATOM      4  N   UNL A   1      30.649  27.085  24.454  1.00  0.00    -0.354 N 
ATOM      5  C   UNL A   1      31.207  25.915  23.990  1.00  0.00     0.245 C 
ATOM      6  O   UNL A   1      30.687  24.936  24.571  1.00  0.00    -0.272 OA
ATOM      7  H   UNL A   1      29.745  27.135  24.066  1.00  0.00     0.163 HD
BRANCH   5   8
ATOM      8  C   UNL A   1      32.420  25.541  22.918  1.00  0.00     0.117 C 
ATOM      9  C   UNL A   1      31.754  25.984  21.585  1.00  0.00     0.045 C 
BRANCH   8  10
ATOM     10  C   UNL A   1      33.695  26.455  23.172  1.00  0.00     0.038 C 
BRANCH  10  11
ATOM     11  C   UNL A   1      34.010  27.722  22.363  1.00  0.00    -0.000 C 
ATOM     12  C   UNL A   1      33.403  28.977  22.984  1.00  0.00     0.004 C 
ENDBRANCH  10  11
ENDBRANCH   8  10
BRANCH   8  13
ATOM     13  N   UNL A   1      33.121  24.199  22.568  1.00  0.00    -0.324 N 
ATOM     14  C   UNL A   1      33.964  23.337  23.252  1.00  0.00     0.319 C 
ATOM     15  H   UNL A   1      32.921  23.892  21.655  1.00  0.00     0.166 HD
ATOM     16  O   UNL A   1      35.078  23.125  22.771  1.00  0.00    -0.249 OA
BRANCH  14  17
ATOM     17  N   UNL A   1      33.469  22.589  24.303  1.00  0.00    -0.309 N 
ATOM     18  C   UNL A   1      32.241  21.838  24.225  1.00  0.00     0.144 C 
ATOM     19  C   UNL A   1      34.298  22.254  25.432  1.00  0.00     0.118 C 
ATOM     20  C   UNL A   1      32.610  20.385  23.931  1.00  0.00     0.140 C 
ATOM     21  C   UNL A   1      34.943  20.920  24.847  1.00  0.00     0.247 C 
ATOM     22  C   UNL A   1      34.717  23.648  25.910  1.00  0.00     0.045 C 
ATOM     23  C   UNL A   1      33.768  21.601  26.740  1.00  0.00     0.045 C 
ATOM     24  N   UNL A   1      33.954  19.986  24.405  1.00  0.00    -0.342 N 
ATOM     25  O   UNL A   1      36.086  20.530  25.059  1.00  0.00    -0.272 OA
ATOM     26  C   UNL A   1      34.172  18.570  24.648  1.00  0.00     0.146 C 
ENDBRANCH  14  17
ENDBRANCH   8  13
ENDBRANCH   5   8
ENDBRANCH   3   4
ENDBRANCH   2   3
ENDBRANCH   1   2
BRANCH   1  27
ATOM     27  C   UNL A   1      34.277  28.662  26.531  1.00  0.00     0.116 C 
BRANCH  27  28
ATOM     28  N   UNL A   1      34.026  30.083  26.712  1.00  0.00    -0.352 N 
ATOM     29  C   UNL A   1      34.746  30.951  27.493  1.00  0.00     0.251 C 
ATOM     30  H   UNL A   1      33.259  30.462  26.223  1.00  0.00     0.163 HD
ATOM     31  O   UNL A   1      34.359  32.098  27.704  1.00  0.00    -0.269 OA
BRANCH  29  32
ATOM     32  C   UNL A   1      35.978  30.434  28.105  1.00  0.00     0.039 A 
ATOM     33  C   UNL A   1      35.905  29.747  29.317  1.00  0.00     0.014 A 
ATOM     34  C   UNL A   1      37.172  30.518  27.385  1.00  0.00     0.014 A 
ATOM     35  C   UNL A   1      37.046  29.114  29.803  1.00  0.00     0.010 A 
ATOM     36  C   UNL A   1      38.279  29.811  27.826  1.00  0.00     0.010 A 
ATOM     37  C   UNL A   1      38.235  29.137  29.056  1.00  0.00    -0.014 A 
BRANCH  37  38
ATOM     38  C   UNL A   1      39.482  28.549  29.591  1.00  0.00     0.031 A 
ATOM     39  C   UNL A   1      40.095  29.161  30.820  1.00  0.00     0.074 A 
ATOM     40  C   UNL A   1      40.078  27.524  28.955  1.00  0.00     0.049 A 
ATOM     41  N   UNL A   1      41.192  28.829  31.443  1.00  0.00    -0.248 NA
ATOM     42  C   UNL A   1      39.401  30.324  31.404  1.00  0.00     0.031 C 
ATOM     43  C   UNL A   1      39.611  26.908  27.711  1.00  0.00     0.029 A 
ATOM     44  N   UNL A   1      41.222  26.832  29.259  1.00  0.00    -0.354 N 
ATOM     45  C   UNL A   1      41.338  29.762  32.463  1.00  0.00     0.074 A 
ATOM     46  C   UNL A   1      40.252  30.705  32.344  1.00  0.00     0.031 C 
ATOM     47  C   UNL A   1      40.458  25.924  27.363  1.00  0.00     0.029 A 
ATOM     48  C   UNL A   1      41.535  25.853  28.346  1.00  0.00     0.049 A 
ATOM     49  H   UNL A   1      41.767  27.019  30.057  1.00  0.00     0.167 HD
ATOM     50  C   UNL A   1      42.268  29.803  33.442  1.00  0.00     0.034 A 
ATOM     51  C   UNL A   1      42.577  24.999  28.314  1.00  0.00     0.034 A 
ATOM     52  C   UNL A   1      43.306  28.824  33.590  1.00  0.00     0.049 A 
ATOM     53  C   UNL A   1      43.574  25.036  29.442  1.00  0.00     0.074 A 
ATOM     54  C   UNL A   1      44.240  28.707  34.600  1.00  0.00     0.029 A 
ATOM     55  N   UNL A   1      43.545  27.794  32.692  1.00  0.00    -0.354 N 
ATOM     56  N   UNL A   1      43.599  25.816  30.497  1.00  0.00    -0.248 NA
ATOM     57  C   UNL A   1      44.667  24.053  29.398  1.00  0.00     0.031 C 
ATOM     58  C   UNL A   1      45.064  27.618  34.300  1.00  0.00     0.029 A 
ATOM     59  C   UNL A   1      44.624  27.043  33.117  1.00  0.00     0.049 A 
ATOM     60  H   UNL A   1      43.023  27.624  31.875  1.00  0.00     0.167 HD
ATOM     61  C   UNL A   1      44.686  25.399  31.256  1.00  0.00     0.074 A 
ATOM     62  C   UNL A   1      45.282  24.282  30.550  1.00  0.00     0.031 C 
ATOM     63  C   UNL A   1      45.163  25.904  32.421  1.00  0.00     0.034 A 
BRANCH  50  64
ATOM     64  C   UNL A   1      42.166  30.911  34.455  1.00  0.00     0.023 A 
ATOM     65  C   UNL A   1      41.410  30.715  35.630  1.00  0.00     0.012 A 
ATOM     66  C   UNL A   1      42.843  32.129  34.262  1.00  0.00     0.148 A 
ATOM     67  C   UNL A   1      41.299  31.729  36.580  1.00  0.00     0.002 A 
ATOM     68  C   UNL A   1      42.769  33.116  35.237  1.00  0.00     0.091 A 
ATOM     69  F   UNL A   1      43.532  32.305  33.126  1.00  0.00    -0.205 F 
ATOM     70  C   UNL A   1      41.988  32.923  36.389  1.00  0.00     0.022 A 
BRANCH  68  71
ATOM     71  S   UNL A   1      43.682  34.658  35.125  1.00  0.00     0.127 S 
ATOM     72  O   UNL A   1      45.024  34.183  34.793  1.00  0.00    -0.237 OA
ATOM     73  O   UNL A   1      42.990  35.344  34.033  1.00  0.00    -0.237 OA
ATOM     74  O   UNL A   1      43.550  35.299  36.426  1.00  0.00    -0.744 OA
ENDBRANCH  68  71
ENDBRANCH  50  64
BRANCH  51  75
ATOM     75  C   UNL A   1      42.691  23.999  27.215  1.00  0.00     0.023 A 
ATOM     76  C   UNL A   1      43.422  24.322  26.054  1.00  0.00     0.012 A 
ATOM     77  C   UNL A   1      42.104  22.723  27.321  1.00  0.00     0.148 A 
ATOM     78  C   UNL A   1      43.536  23.407  25.006  1.00  0.00     0.002 A 
ATOM     79  C   UNL A   1      42.268  21.796  26.298  1.00  0.00     0.091 A 
ATOM     80  F   UNL A   1      41.402  22.438  28.427  1.00  0.00    -0.205 F 
ATOM     81  C   UNL A   1      42.968  22.142  25.132  1.00  0.00     0.022 A 
BRANCH  79  82
ATOM     82  S   UNL A   1      41.685  20.102  26.434  1.00  0.00     0.127 S 
ATOM     83  O   UNL A   1      42.224  19.703  27.732  1.00  0.00    -0.237 OA
ATOM     84  O   UNL A   1      40.233  20.277  26.397  1.00  0.00    -0.237 OA
ATOM     85  O   UNL A   1      42.231  19.403  25.279  1.00  0.00    -0.744 OA
ENDBRANCH  79  82
ENDBRANCH  51  75
BRANCH  63  86
ATOM     86  C   UNL A   1      46.370  25.243  33.028  1.00  0.00     0.023 A 
ATOM     87  C   UNL A   1      47.654  25.755  32.760  1.00  0.00     0.012 A 
ATOM     88  C   UNL A   1      46.220  24.184  33.945  1.00  0.00     0.148 A 
ATOM     89  C   UNL A   1      48.776  25.207  33.380  1.00  0.00     0.002 A 
ATOM     90  C   UNL A   1      47.337  23.676  34.596  1.00  0.00     0.091 A 
ATOM     91  F   UNL A   1      44.989  23.704  34.173  1.00  0.00    -0.205 F 
ATOM     92  C   UNL A   1      48.616  24.179  34.306  1.00  0.00     0.022 A 
BRANCH  90  93
ATOM     93  S   UNL A   1      47.219  22.426  35.879  1.00  0.00     0.127 S 
ATOM     94  O   UNL A   1      46.479  23.138  36.920  1.00  0.00    -0.237 OA
ATOM     95  O   UNL A   1      46.465  21.366  35.211  1.00  0.00    -0.237 OA
ATOM     96  O   UNL A   1      48.589  22.069  36.223  1.00  0.00    -0.744 OA
ENDBRANCH  90  93
ENDBRANCH  63  86
ENDBRANCH  37  38
ENDBRANCH  29  32
ENDBRANCH  27  28
ENDBRANCH   1  27
TORSDOF 18
ENDMDL
