MODEL 1
REMARK VINA RESULT:     -11.8      0.000      0.000
REMARK SMILES CCN(C(=O)Cc1c(C(=O)NCCCCNC(=O)c2ccc(-c3c4nc(c(-c5cccc(S(=O)(=O)[O-])c5F)c5ccc([nH]5)c(-c5cccc(S(=O)(=O)[O-])c5F)c5nc(c(-c6cccc(S(=O)(=O)[O-])c6F)c6ccc3[nH]6)C=C5)C=C4)cc2)[nH]c2ccc(Cl)cc12)c1ccc(C)c(C)c1
REMARK SMILES IDX 13 1 12 2 11 3 9 4 10 5 8 7 7 8 89 9 82 10 83 11 88 12 84 14
REMARK SMILES IDX 86 15 85 16 87 17 6 18 4 19 5 20 3 21 2 22 1 23 90 24 91 25
REMARK SMILES IDX 97 26 92 27 95 28 93 29 96 30 94 31 14 32 15 33 16 34 17 35
REMARK SMILES IDX 18 37 19 38 20 39 81 40 21 41 80 42 22 43 23 44 24 45 74 46
REMARK SMILES IDX 25 47 79 48 73 49 75 50 26 51 78 52 72 53 71 54 27 56 59 57
REMARK SMILES IDX 39 58 58 59 40 60 43 61 57 62 76 63 41 64 42 65 56 67 77 68
REMARK SMILES IDX 44 69 28 70 29 71 37 72 30 73 32 74 38 75 31 76 33 77 34 78
REMARK SMILES IDX 35 79 36 80 60 81 61 82 69 83 62 84 64 85 70 86 63 87 65 88
REMARK SMILES IDX 66 89 67 90 68 91 45 92 46 93 54 94 47 95 49 96 55 97 48 98
REMARK SMILES IDX 50 99 51 100 52 101 53 102
REMARK H PARENT 11 6 82 13 16 36 75 55 43 66
REMARK Flexibility Score: inf
ROOT
ATOM      1  C   UNL A   1      38.008  21.421  25.221  1.00  0.00     0.023 C 
ENDROOT
BRANCH   1   2
ATOM      2  C   UNL A   1      36.484  21.337  25.146  1.00  0.00     0.116 C 
BRANCH   2   3
ATOM      3  N   UNL A   1      35.939  21.949  23.953  1.00  0.00    -0.351 N 
ATOM      4  C   UNL A   1      35.267  23.070  23.583  1.00  0.00     0.268 C 
ATOM      5  O   UNL A   1      35.141  23.177  22.355  1.00  0.00    -0.268 OA
ATOM      6  H   UNL A   1      36.108  21.378  23.169  1.00  0.00     0.163 HD
BRANCH   4   7
ATOM      7  C   UNL A   1      34.698  24.115  24.423  1.00  0.00     0.109 A 
ATOM      8  C   UNL A   1      34.241  24.345  25.727  1.00  0.00    -0.000 A 
ATOM      9  C   UNL A   1      33.637  25.663  25.748  1.00  0.00     0.005 A 
ATOM     10  N   UNL A   1      34.553  25.340  23.776  1.00  0.00    -0.350 N 
ATOM     11  C   UNL A   1      33.880  26.261  24.522  1.00  0.00     0.046 A 
ATOM     12  C   UNL A   1      32.900  26.394  26.707  1.00  0.00     0.031 A 
ATOM     13  H   UNL A   1      34.901  25.521  22.873  1.00  0.00     0.167 HD
ATOM     14  C   UNL A   1      33.465  27.556  24.193  1.00  0.00     0.028 A 
ATOM     15  C   UNL A   1      32.434  27.673  26.380  1.00  0.00     0.041 A 
ATOM     16  C   UNL A   1      32.722  28.253  25.148  1.00  0.00     0.022 A 
ATOM     17  Cl  UNL A   1      31.469  28.541  27.515  1.00  0.00    -0.084 Cl
BRANCH   8  18
ATOM     18  C   UNL A   1      34.227  23.468  26.936  1.00  0.00     0.139 C 
BRANCH  18  19
ATOM     19  C   UNL A   1      32.919  22.715  27.203  1.00  0.00     0.231 C 
ATOM     20  O   UNL A   1      32.659  22.451  28.386  1.00  0.00    -0.274 OA
BRANCH  19  21
ATOM     21  N   UNL A   1      32.038  22.402  26.158  1.00  0.00    -0.312 N 
BRANCH  21  22
ATOM     22  C   UNL A   1      30.727  23.031  25.924  1.00  0.00     0.122 C 
ATOM     23  C   UNL A   1      30.682  24.130  24.874  1.00  0.00     0.028 C 
ENDBRANCH  21  22
BRANCH  21  24
ATOM     24  C   UNL A   1      32.326  21.277  25.316  1.00  0.00     0.044 A 
ATOM     25  C   UNL A   1      32.813  20.086  25.856  1.00  0.00     0.026 A 
ATOM     26  C   UNL A   1      32.051  21.323  23.946  1.00  0.00     0.030 A 
ATOM     27  C   UNL A   1      32.989  18.963  25.042  1.00  0.00     0.006 A 
ATOM     28  C   UNL A   1      32.223  20.206  23.113  1.00  0.00    -0.046 A 
ATOM     29  C   UNL A   1      32.694  19.006  23.669  1.00  0.00    -0.048 A 
ATOM     30  C   UNL A   1      31.911  20.354  21.649  1.00  0.00     0.044 C 
ATOM     31  C   UNL A   1      32.934  17.764  22.857  1.00  0.00     0.044 C 
ENDBRANCH  21  24
ENDBRANCH  19  21
ENDBRANCH  18  19
ENDBRANCH   8  18
ENDBRANCH   4   7
ENDBRANCH   2   3
ENDBRANCH   1   2
BRANCH   1  32
ATOM     32  C   UNL A   1      38.673  20.045  25.163  1.00  0.00     0.023 C 
BRANCH  32  33
ATOM     33  C   UNL A   1      39.605  19.731  26.329  1.00  0.00     0.116 C 
BRANCH  33  34
ATOM     34  N   UNL A   1      40.832  19.052  25.941  1.00  0.00    -0.352 N 
ATOM     35  C   UNL A   1      42.096  19.603  25.895  1.00  0.00     0.251 C 
ATOM     36  H   UNL A   1      40.752  18.104  25.686  1.00  0.00     0.163 HD
ATOM     37  O   UNL A   1      43.056  18.961  25.481  1.00  0.00    -0.269 OA
BRANCH  35  38
ATOM     38  C   UNL A   1      42.252  21.012  26.311  1.00  0.00     0.039 A 
ATOM     39  C   UNL A   1      42.562  21.296  27.643  1.00  0.00     0.014 A 
ATOM     40  C   UNL A   1      42.232  22.027  25.351  1.00  0.00     0.014 A 
ATOM     41  C   UNL A   1      42.936  22.594  28.000  1.00  0.00     0.010 A 
ATOM     42  C   UNL A   1      42.669  23.300  25.696  1.00  0.00     0.010 A 
ATOM     43  C   UNL A   1      43.036  23.595  27.020  1.00  0.00    -0.014 A 
BRANCH  43  44
ATOM     44  C   UNL A   1      43.545  24.955  27.341  1.00  0.00     0.031 A 
ATOM     45  C   UNL A   1      42.604  25.996  27.878  1.00  0.00     0.074 A 
ATOM     46  C   UNL A   1      44.817  25.286  27.038  1.00  0.00     0.049 A 
ATOM     47  N   UNL A   1      42.821  27.265  28.106  1.00  0.00    -0.248 NA
ATOM     48  C   UNL A   1      41.226  25.561  28.165  1.00  0.00     0.031 C 
ATOM     49  C   UNL A   1      45.806  24.390  26.436  1.00  0.00     0.029 A 
ATOM     50  N   UNL A   1      45.485  26.479  27.162  1.00  0.00    -0.354 N 
ATOM     51  C   UNL A   1      41.600  27.790  28.515  1.00  0.00     0.074 A 
ATOM     52  C   UNL A   1      40.641  26.709  28.477  1.00  0.00     0.031 C 
ATOM     53  C   UNL A   1      46.951  25.065  26.242  1.00  0.00     0.029 A 
ATOM     54  C   UNL A   1      46.774  26.446  26.681  1.00  0.00     0.049 A 
ATOM     55  H   UNL A   1      45.080  27.284  27.560  1.00  0.00     0.167 HD
ATOM     56  C   UNL A   1      41.310  29.050  28.916  1.00  0.00     0.034 A 
ATOM     57  C   UNL A   1      47.703  27.418  26.596  1.00  0.00     0.034 A 
ATOM     58  C   UNL A   1      42.280  30.105  29.017  1.00  0.00     0.049 A 
ATOM     59  C   UNL A   1      47.377  28.791  27.119  1.00  0.00     0.074 A 
ATOM     60  C   UNL A   1      42.106  31.390  29.500  1.00  0.00     0.029 A 
ATOM     61  N   UNL A   1      43.608  29.997  28.637  1.00  0.00    -0.354 N 
ATOM     62  N   UNL A   1      46.258  29.227  27.646  1.00  0.00    -0.248 NA
ATOM     63  C   UNL A   1      48.448  29.798  27.069  1.00  0.00     0.031 C 
ATOM     64  C   UNL A   1      43.329  32.060  29.410  1.00  0.00     0.029 A 
ATOM     65  C   UNL A   1      44.268  31.189  28.879  1.00  0.00     0.049 A 
ATOM     66  H   UNL A   1      44.021  29.191  28.251  1.00  0.00     0.167 HD
ATOM     67  C   UNL A   1      46.504  30.541  28.030  1.00  0.00     0.074 A 
ATOM     68  C   UNL A   1      47.881  30.827  27.686  1.00  0.00     0.031 C 
ATOM     69  C   UNL A   1      45.659  31.435  28.601  1.00  0.00     0.034 A 
BRANCH  56  70
ATOM     70  C   UNL A   1      39.896  29.337  29.342  1.00  0.00     0.023 A 
ATOM     71  C   UNL A   1      38.904  29.529  28.359  1.00  0.00     0.012 A 
ATOM     72  C   UNL A   1      39.537  29.366  30.703  1.00  0.00     0.148 A 
ATOM     73  C   UNL A   1      37.582  29.781  28.723  1.00  0.00     0.002 A 
ATOM     74  C   UNL A   1      38.209  29.577  31.057  1.00  0.00     0.091 A 
ATOM     75  F   UNL A   1      40.498  29.207  31.624  1.00  0.00    -0.205 F 
ATOM     76  C   UNL A   1      37.234  29.795  30.071  1.00  0.00     0.022 A 
BRANCH  74  77
ATOM     77  S   UNL A   1      37.650  29.537  32.765  1.00  0.00     0.127 S 
ATOM     78  O   UNL A   1      36.342  30.184  32.662  1.00  0.00    -0.237 OA
ATOM     79  O   UNL A   1      37.598  28.101  33.041  1.00  0.00    -0.237 OA
ATOM     80  O   UNL A   1      38.653  30.264  33.529  1.00  0.00    -0.744 OA
ENDBRANCH  74  77
ENDBRANCH  56  70
BRANCH  57  81
ATOM     81  C   UNL A   1      49.064  27.105  26.072  1.00  0.00     0.023 A 
ATOM     82  C   UNL A   1      49.970  26.401  26.890  1.00  0.00     0.012 A 
ATOM     83  C   UNL A   1      49.455  27.466  24.768  1.00  0.00     0.148 A 
ATOM     84  C   UNL A   1      51.249  26.088  26.431  1.00  0.00     0.002 A 
ATOM     85  C   UNL A   1      50.715  27.105  24.299  1.00  0.00     0.091 A 
ATOM     86  F   UNL A   1      48.587  28.148  24.009  1.00  0.00    -0.205 F 
ATOM     87  C   UNL A   1      51.618  26.431  25.134  1.00  0.00     0.022 A 
BRANCH  85  88
ATOM     88  S   UNL A   1      51.220  27.391  22.598  1.00  0.00     0.127 S 
ATOM     89  O   UNL A   1      51.154  28.847  22.507  1.00  0.00    -0.237 OA
ATOM     90  O   UNL A   1      52.572  26.832  22.583  1.00  0.00    -0.237 OA
ATOM     91  O   UNL A   1      50.263  26.656  21.781  1.00  0.00    -0.744 OA
ENDBRANCH  85  88
ENDBRANCH  57  81
BRANCH  69  92
ATOM     92  C   UNL A   1      46.199  32.797  28.940  1.00  0.00     0.023 A 
ATOM     93  C   UNL A   1      46.892  32.991  30.150  1.00  0.00     0.012 A 
ATOM     94  C   UNL A   1      46.111  33.855  28.013  1.00  0.00     0.148 A 
ATOM     95  C   UNL A   1      47.471  34.226  30.443  1.00  0.00     0.002 A 
ATOM     96  C   UNL A   1      46.728  35.068  28.292  1.00  0.00     0.091 A 
ATOM     97  F   UNL A   1      45.429  33.653  26.876  1.00  0.00    -0.205 F 
ATOM     98  C   UNL A   1      47.401  35.258  29.511  1.00  0.00     0.022 A 
BRANCH  96  99
ATOM     99  S   UNL A   1      46.766  36.418  27.108  1.00  0.00     0.127 S 
ATOM    100  O   UNL A   1      47.521  37.435  27.839  1.00  0.00    -0.237 OA
ATOM    101  O   UNL A   1      47.481  35.823  25.978  1.00  0.00    -0.237 OA
ATOM    102  O   UNL A   1      45.374  36.746  26.833  1.00  0.00    -0.744 OA
ENDBRANCH  96  99
ENDBRANCH  69  92
ENDBRANCH  43  44
ENDBRANCH  35  38
ENDBRANCH  33  34
ENDBRANCH  32  33
ENDBRANCH   1  32
TORSDOF 19
ENDMDL
MODEL 2
REMARK VINA RESULT:     -11.7      1.582      3.077
REMARK SMILES CCN(C(=O)Cc1c(C(=O)NCCCCNC(=O)c2ccc(-c3c4nc(c(-c5cccc(S(=O)(=O)[O-])c5F)c5ccc([nH]5)c(-c5cccc(S(=O)(=O)[O-])c5F)c5nc(c(-c6cccc(S(=O)(=O)[O-])c6F)c6ccc3[nH]6)C=C5)C=C4)cc2)[nH]c2ccc(Cl)cc12)c1ccc(C)c(C)c1
REMARK SMILES IDX 13 1 12 2 11 3 9 4 10 5 8 7 7 8 89 9 82 10 83 11 88 12 84 14
REMARK SMILES IDX 86 15 85 16 87 17 6 18 4 19 5 20 3 21 2 22 1 23 90 24 91 25
REMARK SMILES IDX 97 26 92 27 95 28 93 29 96 30 94 31 14 32 15 33 16 34 17 35
REMARK SMILES IDX 18 37 19 38 20 39 81 40 21 41 80 42 22 43 23 44 24 45 74 46
REMARK SMILES IDX 25 47 79 48 73 49 75 50 26 51 78 52 72 53 71 54 27 56 59 57
REMARK SMILES IDX 39 58 58 59 40 60 43 61 57 62 76 63 41 64 42 65 56 67 77 68
REMARK SMILES IDX 44 69 28 70 29 71 37 72 30 73 32 74 38 75 31 76 33 77 34 78
REMARK SMILES IDX 35 79 36 80 60 81 61 82 69 83 62 84 64 85 70 86 63 87 65 88
REMARK SMILES IDX 66 89 67 90 68 91 45 92 46 93 54 94 47 95 49 96 55 97 48 98
REMARK SMILES IDX 50 99 51 100 52 101 53 102
REMARK H PARENT 11 6 82 13 16 36 75 55 43 66
REMARK Flexibility Score: inf
ROOT
ATOM      1  C   UNL A   1      36.605  21.582  25.768  1.00  0.00     0.023 C 
ENDROOT
BRANCH   1   2
ATOM      2  C   UNL A   1      35.223  21.011  25.455  1.00  0.00     0.116 C 
BRANCH   2   3
ATOM      3  N   UNL A   1      34.257  21.250  26.506  1.00  0.00    -0.351 N 
ATOM      4  C   UNL A   1      33.429  22.234  26.942  1.00  0.00     0.268 C 
ATOM      5  O   UNL A   1      32.682  21.868  27.860  1.00  0.00    -0.268 OA
ATOM      6  H   UNL A   1      34.175  20.455  27.081  1.00  0.00     0.163 HD
BRANCH   4   7
ATOM      7  C   UNL A   1      33.322  23.612  26.481  1.00  0.00     0.109 A 
ATOM      8  C   UNL A   1      33.954  24.538  25.642  1.00  0.00    -0.000 A 
ATOM      9  C   UNL A   1      33.313  25.822  25.853  1.00  0.00     0.005 A 
ATOM     10  N   UNL A   1      32.222  24.293  26.996  1.00  0.00    -0.350 N 
ATOM     11  C   UNL A   1      32.221  25.619  26.681  1.00  0.00     0.046 A 
ATOM     12  C   UNL A   1      33.577  27.139  25.414  1.00  0.00     0.031 A 
ATOM     13  H   UNL A   1      31.519  23.861  27.532  1.00  0.00     0.167 HD
ATOM     14  C   UNL A   1      31.348  26.638  27.078  1.00  0.00     0.028 A 
ATOM     15  C   UNL A   1      32.743  28.180  25.839  1.00  0.00     0.041 A 
ATOM     16  C   UNL A   1      31.637  27.934  26.647  1.00  0.00     0.022 A 
ATOM     17  Cl  UNL A   1      33.101  29.800  25.371  1.00  0.00    -0.084 Cl
BRANCH   8  18
ATOM     18  C   UNL A   1      35.124  24.400  24.724  1.00  0.00     0.139 C 
BRANCH  18  19
ATOM     19  C   UNL A   1      34.821  23.839  23.330  1.00  0.00     0.231 C 
ATOM     20  O   UNL A   1      35.783  23.392  22.687  1.00  0.00    -0.274 OA
BRANCH  19  21
ATOM     21  N   UNL A   1      33.508  23.781  22.843  1.00  0.00    -0.312 N 
BRANCH  21  22
ATOM     22  C   UNL A   1      32.878  22.609  22.211  1.00  0.00     0.122 C 
ATOM     23  C   UNL A   1      32.510  21.458  23.134  1.00  0.00     0.028 C 
ENDBRANCH  21  22
BRANCH  21  24
ATOM     24  C   UNL A   1      32.728  24.985  22.795  1.00  0.00     0.044 A 
ATOM     25  C   UNL A   1      33.199  26.115  22.127  1.00  0.00     0.026 A 
ATOM     26  C   UNL A   1      31.445  25.024  23.349  1.00  0.00     0.030 A 
ATOM     27  C   UNL A   1      32.386  27.245  21.995  1.00  0.00     0.006 A 
ATOM     28  C   UNL A   1      30.615  26.152  23.229  1.00  0.00    -0.046 A 
ATOM     29  C   UNL A   1      31.090  27.277  22.537  1.00  0.00    -0.048 A 
ATOM     30  C   UNL A   1      29.255  26.106  23.867  1.00  0.00     0.044 C 
ATOM     31  C   UNL A   1      30.289  28.538  22.375  1.00  0.00     0.044 C 
ENDBRANCH  21  24
ENDBRANCH  19  21
ENDBRANCH  18  19
ENDBRANCH   8  18
ENDBRANCH   4   7
ENDBRANCH   2   3
ENDBRANCH   1   2
BRANCH   1  32
ATOM     32  C   UNL A   1      37.729  20.802  25.084  1.00  0.00     0.023 C 
BRANCH  32  33
ATOM     33  C   UNL A   1      39.101  20.942  25.739  1.00  0.00     0.116 C 
BRANCH  33  34
ATOM     34  N   UNL A   1      39.843  19.693  25.831  1.00  0.00    -0.352 N 
ATOM     35  C   UNL A   1      41.184  19.556  26.125  1.00  0.00     0.251 C 
ATOM     36  H   UNL A   1      39.337  18.864  25.667  1.00  0.00     0.163 HD
ATOM     37  O   UNL A   1      41.731  18.458  26.105  1.00  0.00    -0.269 OA
BRANCH  35  38
ATOM     38  C   UNL A   1      41.958  20.781  26.415  1.00  0.00     0.039 A 
ATOM     39  C   UNL A   1      42.340  21.609  25.357  1.00  0.00     0.014 A 
ATOM     40  C   UNL A   1      42.171  21.170  27.740  1.00  0.00     0.014 A 
ATOM     41  C   UNL A   1      42.865  22.874  25.631  1.00  0.00     0.010 A 
ATOM     42  C   UNL A   1      42.631  22.454  28.007  1.00  0.00     0.010 A 
ATOM     43  C   UNL A   1      42.972  23.323  26.958  1.00  0.00    -0.014 A 
BRANCH  43  44
ATOM     44  C   UNL A   1      43.415  24.705  27.281  1.00  0.00     0.031 A 
ATOM     45  C   UNL A   1      42.440  25.680  27.880  1.00  0.00     0.074 A 
ATOM     46  C   UNL A   1      44.649  25.117  26.926  1.00  0.00     0.049 A 
ATOM     47  N   UNL A   1      42.593  26.956  28.122  1.00  0.00    -0.248 NA
ATOM     48  C   UNL A   1      41.105  25.159  28.222  1.00  0.00     0.031 C 
ATOM     49  C   UNL A   1      45.661  24.291  26.263  1.00  0.00     0.029 A 
ATOM     50  N   UNL A   1      45.251  26.345  27.042  1.00  0.00    -0.354 N 
ATOM     51  C   UNL A   1      41.364  27.400  28.595  1.00  0.00     0.074 A 
ATOM     52  C   UNL A   1      40.469  26.265  28.582  1.00  0.00     0.031 C 
ATOM     53  C   UNL A   1      46.754  25.036  26.029  1.00  0.00     0.029 A 
ATOM     54  C   UNL A   1      46.516  26.397  26.501  1.00  0.00     0.049 A 
ATOM     55  H   UNL A   1      44.819  27.118  27.473  1.00  0.00     0.167 HD
ATOM     56  C   UNL A   1      41.020  28.635  29.033  1.00  0.00     0.034 A 
ATOM     57  C   UNL A   1      47.382  27.423  26.392  1.00  0.00     0.034 A 
ATOM     58  C   UNL A   1      41.930  29.744  29.110  1.00  0.00     0.049 A 
ATOM     59  C   UNL A   1      47.000  28.766  26.955  1.00  0.00     0.074 A 
ATOM     60  C   UNL A   1      41.703  31.008  29.624  1.00  0.00     0.029 A 
ATOM     61  N   UNL A   1      43.242  29.721  28.667  1.00  0.00    -0.354 N 
ATOM     62  N   UNL A   1      45.884  29.126  27.541  1.00  0.00    -0.248 NA
ATOM     63  C   UNL A   1      48.007  29.835  26.876  1.00  0.00     0.031 C 
ATOM     64  C   UNL A   1      42.880  31.751  29.490  1.00  0.00     0.029 A 
ATOM     65  C   UNL A   1      43.842  30.946  28.901  1.00  0.00     0.049 A 
ATOM     66  H   UNL A   1      43.684  28.948  28.248  1.00  0.00     0.167 HD
ATOM     67  C   UNL A   1      46.069  30.446  27.938  1.00  0.00     0.074 A 
ATOM     68  C   UNL A   1      47.410  30.819  27.536  1.00  0.00     0.031 C 
ATOM     69  C   UNL A   1      45.201  31.279  28.564  1.00  0.00     0.034 A 
BRANCH  56  70
ATOM     70  C   UNL A   1      39.613  28.830  29.529  1.00  0.00     0.023 A 
ATOM     71  C   UNL A   1      39.295  28.483  30.858  1.00  0.00     0.012 A 
ATOM     72  C   UNL A   1      38.621  29.397  28.706  1.00  0.00     0.148 A 
ATOM     73  C   UNL A   1      38.005  28.666  31.352  1.00  0.00     0.002 A 
ATOM     74  C   UNL A   1      37.347  29.614  29.218  1.00  0.00     0.091 A 
ATOM     75  F   UNL A   1      38.934  29.696  27.437  1.00  0.00    -0.205 F 
ATOM     76  C   UNL A   1      37.034  29.240  30.535  1.00  0.00     0.022 A 
BRANCH  74  77
ATOM     77  S   UNL A   1      36.051  30.418  28.266  1.00  0.00     0.127 S 
ATOM     78  O   UNL A   1      36.651  31.725  27.997  1.00  0.00    -0.237 OA
ATOM     79  O   UNL A   1      35.940  29.547  27.095  1.00  0.00    -0.237 OA
ATOM     80  O   UNL A   1      34.877  30.429  29.125  1.00  0.00    -0.744 OA
ENDBRANCH  74  77
ENDBRANCH  56  70
BRANCH  57  81
ATOM     81  C   UNL A   1      48.732  27.200  25.801  1.00  0.00     0.023 A 
ATOM     82  C   UNL A   1      49.758  26.671  26.609  1.00  0.00     0.012 A 
ATOM     83  C   UNL A   1      49.000  27.474  24.445  1.00  0.00     0.148 A 
ATOM     84  C   UNL A   1      51.032  26.446  26.088  1.00  0.00     0.002 A 
ATOM     85  C   UNL A   1      50.259  27.199  23.919  1.00  0.00     0.091 A 
ATOM     86  F   UNL A   1      48.018  27.991  23.694  1.00  0.00    -0.205 F 
ATOM     87  C   UNL A   1      51.280  26.701  24.742  1.00  0.00     0.022 A 
BRANCH  85  88
ATOM     88  S   UNL A   1      50.623  27.373  22.168  1.00  0.00     0.127 S 
ATOM     89  O   UNL A   1      49.560  26.578  21.561  1.00  0.00    -0.237 OA
ATOM     90  O   UNL A   1      50.501  28.819  21.973  1.00  0.00    -0.237 OA
ATOM     91  O   UNL A   1      51.978  26.862  22.002  1.00  0.00    -0.744 OA
ENDBRANCH  85  88
ENDBRANCH  57  81
BRANCH  69  92
ATOM     92  C   UNL A   1      45.676  32.665  28.903  1.00  0.00     0.023 A 
ATOM     93  C   UNL A   1      46.366  32.890  30.110  1.00  0.00     0.012 A 
ATOM     94  C   UNL A   1      45.530  33.719  27.980  1.00  0.00     0.148 A 
ATOM     95  C   UNL A   1      46.886  34.152  30.402  1.00  0.00     0.002 A 
ATOM     96  C   UNL A   1      46.089  34.961  28.258  1.00  0.00     0.091 A 
ATOM     97  F   UNL A   1      44.853  33.487  26.846  1.00  0.00    -0.205 F 
ATOM     98  C   UNL A   1      46.759  35.181  29.473  1.00  0.00     0.022 A 
BRANCH  96  99
ATOM     99  S   UNL A   1      46.054  36.314  27.077  1.00  0.00     0.127 S 
ATOM    100  O   UNL A   1      47.023  37.242  27.657  1.00  0.00    -0.237 OA
ATOM    101  O   UNL A   1      46.496  35.663  25.843  1.00  0.00    -0.237 OA
ATOM    102  O   UNL A   1      44.675  36.783  27.049  1.00  0.00    -0.744 OA
ENDBRANCH  96  99
ENDBRANCH  69  92
ENDBRANCH  43  44
ENDBRANCH  35  38
ENDBRANCH  33  34
ENDBRANCH  32  33
ENDBRANCH   1  32
TORSDOF 19
ENDMDL
MODEL 3
REMARK VINA RESULT:     -11.6      5.501     11.190
REMARK SMILES CCN(C(=O)Cc1c(C(=O)NCCCCNC(=O)c2ccc(-c3c4nc(c(-c5cccc(S(=O)(=O)[O-])c5F)c5ccc([nH]5)c(-c5cccc(S(=O)(=O)[O-])c5F)c5nc(c(-c6cccc(S(=O)(=O)[O-])c6F)c6ccc3[nH]6)C=C5)C=C4)cc2)[nH]c2ccc(Cl)cc12)c1ccc(C)c(C)c1
REMARK SMILES IDX 13 1 12 2 11 3 9 4 10 5 8 7 7 8 89 9 82 10 83 11 88 12 84 14
REMARK SMILES IDX 86 15 85 16 87 17 6 18 4 19 5 20 3 21 2 22 1 23 90 24 91 25
REMARK SMILES IDX 97 26 92 27 95 28 93 29 96 30 94 31 14 32 15 33 16 34 17 35
REMARK SMILES IDX 18 37 19 38 20 39 81 40 21 41 80 42 22 43 23 44 24 45 74 46
REMARK SMILES IDX 25 47 79 48 73 49 75 50 26 51 78 52 72 53 71 54 27 56 59 57
REMARK SMILES IDX 39 58 58 59 40 60 43 61 57 62 76 63 41 64 42 65 56 67 77 68
REMARK SMILES IDX 44 69 28 70 29 71 37 72 30 73 32 74 38 75 31 76 33 77 34 78
REMARK SMILES IDX 35 79 36 80 60 81 61 82 69 83 62 84 64 85 70 86 63 87 65 88
REMARK SMILES IDX 66 89 67 90 68 91 45 92 46 93 54 94 47 95 49 96 55 97 48 98
REMARK SMILES IDX 50 99 51 100 52 101 53 102
REMARK H PARENT 11 6 82 13 16 36 75 55 43 66
REMARK Flexibility Score: inf
ROOT
ATOM      1  C   UNL A   1      32.070  28.954  27.291  1.00  0.00     0.023 C 
ENDROOT
BRANCH   1   2
ATOM      2  C   UNL A   1      31.922  27.776  26.328  1.00  0.00     0.116 C 
BRANCH   2   3
ATOM      3  N   UNL A   1      30.714  27.010  26.550  1.00  0.00    -0.351 N 
ATOM      4  C   UNL A   1      30.216  25.772  26.294  1.00  0.00     0.268 C 
ATOM      5  O   UNL A   1      29.119  25.570  26.834  1.00  0.00    -0.268 OA
ATOM      6  H   UNL A   1      30.051  27.551  27.036  1.00  0.00     0.163 HD
BRANCH   4   7
ATOM      7  C   UNL A   1      30.791  24.702  25.492  1.00  0.00     0.109 A 
ATOM      8  C   UNL A   1      30.996  24.320  24.159  1.00  0.00    -0.000 A 
ATOM      9  C   UNL A   1      31.521  22.968  24.172  1.00  0.00     0.005 A 
ATOM     10  N   UNL A   1      31.377  23.688  26.245  1.00  0.00    -0.350 N 
ATOM     11  C   UNL A   1      31.772  22.623  25.490  1.00  0.00     0.046 A 
ATOM     12  C   UNL A   1      31.796  22.009  23.172  1.00  0.00     0.031 A 
ATOM     13  H   UNL A   1      31.494  23.735  27.221  1.00  0.00     0.167 HD
ATOM     14  C   UNL A   1      32.312  21.393  25.881  1.00  0.00     0.028 A 
ATOM     15  C   UNL A   1      32.292  20.755  23.546  1.00  0.00     0.041 A 
ATOM     16  C   UNL A   1      32.560  20.454  24.879  1.00  0.00     0.022 A 
ATOM     17  Cl  UNL A   1      32.560  19.552  22.341  1.00  0.00    -0.084 Cl
BRANCH   8  18
ATOM     18  C   UNL A   1      30.697  25.022  22.876  1.00  0.00     0.139 C 
BRANCH  18  19
ATOM     19  C   UNL A   1      31.870  25.763  22.226  1.00  0.00     0.231 C 
ATOM     20  O   UNL A   1      31.892  25.797  20.987  1.00  0.00    -0.274 OA
BRANCH  19  21
ATOM     21  N   UNL A   1      32.830  26.423  23.006  1.00  0.00    -0.312 N 
BRANCH  21  22
ATOM     22  C   UNL A   1      33.065  27.877  23.031  1.00  0.00     0.122 C 
ATOM     23  C   UNL A   1      34.147  28.403  22.101  1.00  0.00     0.028 C 
ENDBRANCH  21  22
BRANCH  21  24
ATOM     24  C   UNL A   1      33.788  25.645  23.738  1.00  0.00     0.044 A 
ATOM     25  C   UNL A   1      34.042  25.905  25.085  1.00  0.00     0.026 A 
ATOM     26  C   UNL A   1      34.430  24.557  23.138  1.00  0.00     0.030 A 
ATOM     27  C   UNL A   1      34.897  25.074  25.815  1.00  0.00     0.006 A 
ATOM     28  C   UNL A   1      35.294  23.713  23.855  1.00  0.00    -0.046 A 
ATOM     29  C   UNL A   1      35.527  23.971  25.215  1.00  0.00    -0.048 A 
ATOM     30  C   UNL A   1      35.949  22.575  23.122  1.00  0.00     0.044 C 
ATOM     31  C   UNL A   1      36.452  23.141  26.061  1.00  0.00     0.044 C 
ENDBRANCH  21  24
ENDBRANCH  19  21
ENDBRANCH  18  19
ENDBRANCH   8  18
ENDBRANCH   4   7
ENDBRANCH   2   3
ENDBRANCH   1   2
BRANCH   1  32
ATOM     32  C   UNL A   1      32.266  30.284  26.562  1.00  0.00     0.023 C 
BRANCH  32  33
ATOM     33  C   UNL A   1      33.155  31.290  27.288  1.00  0.00     0.116 C 
BRANCH  33  34
ATOM     34  N   UNL A   1      32.643  32.652  27.274  1.00  0.00    -0.352 N 
ATOM     35  C   UNL A   1      33.097  33.707  28.038  1.00  0.00     0.251 C 
ATOM     36  H   UNL A   1      31.898  32.839  26.657  1.00  0.00     0.163 HD
ATOM     37  O   UNL A   1      32.546  34.802  28.003  1.00  0.00    -0.269 OA
BRANCH  35  38
ATOM     38  C   UNL A   1      34.241  33.465  28.942  1.00  0.00     0.039 A 
ATOM     39  C   UNL A   1      34.034  32.743  30.119  1.00  0.00     0.014 A 
ATOM     40  C   UNL A   1      35.530  33.830  28.544  1.00  0.00     0.014 A 
ATOM     41  C   UNL A   1      35.136  32.312  30.862  1.00  0.00     0.010 A 
ATOM     42  C   UNL A   1      36.624  33.343  29.249  1.00  0.00     0.010 A 
ATOM     43  C   UNL A   1      36.441  32.570  30.408  1.00  0.00    -0.014 A 
BRANCH  43  44
ATOM     44  C   UNL A   1      37.633  32.025  31.107  1.00  0.00     0.031 A 
ATOM     45  C   UNL A   1      38.411  30.897  30.490  1.00  0.00     0.074 A 
ATOM     46  C   UNL A   1      37.943  32.459  32.347  1.00  0.00     0.049 A 
ATOM     47  N   UNL A   1      39.402  30.206  30.991  1.00  0.00    -0.248 NA
ATOM     48  C   UNL A   1      37.999  30.466  29.143  1.00  0.00     0.031 C 
ATOM     49  C   UNL A   1      37.216  33.491  33.090  1.00  0.00     0.029 A 
ATOM     50  N   UNL A   1      38.930  32.062  33.214  1.00  0.00    -0.354 N 
ATOM     51  C   UNL A   1      39.698  29.231  30.047  1.00  0.00     0.074 A 
ATOM     52  C   UNL A   1      38.766  29.402  28.955  1.00  0.00     0.031 C 
ATOM     53  C   UNL A   1      37.780  33.642  34.300  1.00  0.00     0.029 A 
ATOM     54  C   UNL A   1      38.891  32.704  34.431  1.00  0.00     0.049 A 
ATOM     55  H   UNL A   1      39.604  31.381  32.987  1.00  0.00     0.167 HD
ATOM     56  C   UNL A   1      40.679  28.297  30.071  1.00  0.00     0.034 A 
ATOM     57  C   UNL A   1      39.658  32.550  35.528  1.00  0.00     0.034 A 
ATOM     58  C   UNL A   1      41.647  28.174  31.125  1.00  0.00     0.049 A 
ATOM     59  C   UNL A   1      40.788  31.556  35.499  1.00  0.00     0.074 A 
ATOM     60  C   UNL A   1      42.734  27.322  31.199  1.00  0.00     0.029 A 
ATOM     61  N   UNL A   1      41.650  28.929  32.286  1.00  0.00    -0.354 N 
ATOM     62  N   UNL A   1      41.148  30.747  34.531  1.00  0.00    -0.248 NA
ATOM     63  C   UNL A   1      41.640  31.476  36.695  1.00  0.00     0.031 C 
ATOM     64  C   UNL A   1      43.394  27.561  32.408  1.00  0.00     0.029 A 
ATOM     65  C   UNL A   1      42.723  28.568  33.083  1.00  0.00     0.049 A 
ATOM     66  H   UNL A   1      40.986  29.619  32.514  1.00  0.00     0.167 HD
ATOM     67  C   UNL A   1      42.291  30.096  34.984  1.00  0.00     0.074 A 
ATOM     68  C   UNL A   1      42.570  30.613  36.308  1.00  0.00     0.031 C 
ATOM     69  C   UNL A   1      43.031  29.144  34.365  1.00  0.00     0.034 A 
BRANCH  56  70
ATOM     70  C   UNL A   1      40.795  27.380  28.884  1.00  0.00     0.023 A 
ATOM     71  C   UNL A   1      39.917  26.282  28.772  1.00  0.00     0.012 A 
ATOM     72  C   UNL A   1      41.729  27.626  27.860  1.00  0.00     0.148 A 
ATOM     73  C   UNL A   1      39.990  25.422  27.677  1.00  0.00     0.002 A 
ATOM     74  C   UNL A   1      41.768  26.788  26.751  1.00  0.00     0.091 A 
ATOM     75  F   UNL A   1      42.573  28.659  27.996  1.00  0.00    -0.205 F 
ATOM     76  C   UNL A   1      40.908  25.681  26.663  1.00  0.00     0.022 A 
BRANCH  74  77
ATOM     77  S   UNL A   1      42.864  27.085  25.358  1.00  0.00     0.127 S 
ATOM     78  O   UNL A   1      44.137  27.337  26.033  1.00  0.00    -0.237 OA
ATOM     79  O   UNL A   1      42.800  25.813  24.636  1.00  0.00    -0.237 OA
ATOM     80  O   UNL A   1      42.297  28.217  24.640  1.00  0.00    -0.744 OA
ENDBRANCH  74  77
ENDBRANCH  56  70
BRANCH  57  81
ATOM     81  C   UNL A   1      39.438  33.420  36.719  1.00  0.00     0.023 A 
ATOM     82  C   UNL A   1      39.865  34.762  36.678  1.00  0.00     0.012 A 
ATOM     83  C   UNL A   1      38.785  32.944  37.872  1.00  0.00     0.148 A 
ATOM     84  C   UNL A   1      39.673  35.605  37.772  1.00  0.00     0.002 A 
ATOM     85  C   UNL A   1      38.550  33.805  38.941  1.00  0.00     0.091 A 
ATOM     86  F   UNL A   1      38.398  31.661  37.901  1.00  0.00    -0.205 F 
ATOM     87  C   UNL A   1      39.008  35.130  38.899  1.00  0.00     0.022 A 
BRANCH  85  88
ATOM     88  S   UNL A   1      37.585  33.311  40.373  1.00  0.00     0.127 S 
ATOM     89  O   UNL A   1      38.342  32.164  40.864  1.00  0.00    -0.237 OA
ATOM     90  O   UNL A   1      37.657  34.505  41.217  1.00  0.00    -0.237 OA
ATOM     91  O   UNL A   1      36.250  33.024  39.861  1.00  0.00    -0.744 OA
ENDBRANCH  85  88
ENDBRANCH  57  81
BRANCH  69  92
ATOM     92  C   UNL A   1      44.248  28.623  35.080  1.00  0.00     0.023 A 
ATOM     93  C   UNL A   1      45.506  29.205  34.832  1.00  0.00     0.012 A 
ATOM     94  C   UNL A   1      44.126  27.631  36.072  1.00  0.00     0.148 A 
ATOM     95  C   UNL A   1      46.630  28.791  35.546  1.00  0.00     0.002 A 
ATOM     96  C   UNL A   1      45.242  27.254  36.810  1.00  0.00     0.091 A 
ATOM     97  F   UNL A   1      42.923  27.076  36.278  1.00  0.00    -0.205 F 
ATOM     98  C   UNL A   1      46.496  27.827  36.542  1.00  0.00     0.022 A 
BRANCH  96  99
ATOM     99  S   UNL A   1      45.140  26.090  38.174  1.00  0.00     0.127 S 
ATOM    100  O   UNL A   1      44.630  24.893  37.508  1.00  0.00    -0.237 OA
ATOM    101  O   UNL A   1      46.535  25.997  38.611  1.00  0.00    -0.237 OA
ATOM    102  O   UNL A   1      44.244  26.696  39.150  1.00  0.00    -0.744 OA
ENDBRANCH  96  99
ENDBRANCH  69  92
ENDBRANCH  43  44
ENDBRANCH  35  38
ENDBRANCH  33  34
ENDBRANCH  32  33
ENDBRANCH   1  32
TORSDOF 19
ENDMDL
