MODEL 1
REMARK VINA RESULT:     -10.7      0.000      0.000
REMARK SMILES CC(C)C[C@H](CNc1cccc(F)c1C#N)CC(=O)NCCCCNC(=O)c1ccc(-c2c3nc(c(-c4cccc(S(=O)(=O)[O-])c4F)c4ccc([nH]4)c(-c4cccc(S(=O)(=O)[O-])c4F)c4nc(c(-c5cccc(S(=O)(=O)[O-])c5F)c5ccc2[nH]5)C=C4)C=C3)cc1
REMARK SMILES IDX 21 1 20 2 18 3 19 4 17 6 5 7 4 8 2 9 1 10 3 11 6 12 7 13
REMARK SMILES IDX 8 15 9 16 14 17 10 18 12 19 11 20 13 21 15 22 16 23 22 24
REMARK SMILES IDX 23 25 24 26 25 27 26 28 27 30 28 31 29 32 90 33 30 34 89 35
REMARK SMILES IDX 31 36 32 37 33 38 83 39 34 40 88 41 82 42 84 43 35 44 87 45
REMARK SMILES IDX 81 46 80 47 36 49 68 50 48 51 67 52 49 53 52 54 66 55 85 56
REMARK SMILES IDX 50 57 51 58 65 60 86 61 53 62 37 63 38 64 46 65 39 66 41 67
REMARK SMILES IDX 47 68 40 69 42 70 43 71 44 72 45 73 69 74 70 75 78 76 71 77
REMARK SMILES IDX 73 78 79 79 72 80 74 81 75 82 76 83 77 84 54 85 55 86 63 87
REMARK SMILES IDX 56 88 58 89 64 90 57 91 59 92 60 93 61 94 62 95
REMARK H PARENT 20 5 7 14 25 29 84 48 52 59
REMARK Flexibility Score: inf
ROOT
ATOM      1  C   UNL A   1      33.054  27.665  25.677  1.00  0.00     0.116 C 
ENDROOT
BRANCH   1   2
ATOM      2  N   UNL A   1      32.570  27.969  24.351  1.00  0.00    -0.356 N 
ATOM      3  C   UNL A   1      32.678  27.238  23.211  1.00  0.00     0.220 C 
ATOM      4  O   UNL A   1      32.373  27.771  22.142  1.00  0.00    -0.275 OA
ATOM      5  H   UNL A   1      32.095  28.827  24.261  1.00  0.00     0.163 HD
BRANCH   3   6
ATOM      6  C   UNL A   1      33.061  25.768  23.257  1.00  0.00     0.105 C 
BRANCH   6   7
ATOM      7  C   UNL A   1      32.188  24.760  22.483  1.00  0.00     0.018 C 
BRANCH   7   8
ATOM      8  C   UNL A   1      30.946  24.296  23.300  1.00  0.00     0.009 C 
BRANCH   8   9
ATOM      9  C   UNL A   1      30.934  24.593  24.819  1.00  0.00    -0.017 C 
ATOM     10  C   UNL A   1      29.852  25.608  25.203  1.00  0.00     0.007 C 
ATOM     11  C   UNL A   1      30.706  23.296  25.601  1.00  0.00     0.007 C 
ENDBRANCH   8   9
ENDBRANCH   7   8
BRANCH   7  12
ATOM     12  C   UNL A   1      32.897  23.513  21.904  1.00  0.00     0.117 C 
BRANCH  12  13
ATOM     13  N   UNL A   1      33.911  22.992  22.803  1.00  0.00    -0.384 N 
ATOM     14  H   UNL A   1      34.840  23.259  22.616  1.00  0.00     0.160 HD
BRANCH  13  15
ATOM     15  C   UNL A   1      33.717  22.160  23.892  1.00  0.00     0.055 A 
ATOM     16  C   UNL A   1      32.819  21.090  23.682  1.00  0.00     0.027 A 
ATOM     17  C   UNL A   1      34.361  22.230  25.140  1.00  0.00     0.111 A 
ATOM     18  C   UNL A   1      32.564  20.128  24.658  1.00  0.00     0.005 A 
ATOM     19  C   UNL A   1      34.082  21.267  26.120  1.00  0.00     0.143 A 
ATOM     20  C   UNL A   1      33.198  20.219  25.887  1.00  0.00     0.041 A 
ATOM     21  F   UNL A   1      34.675  21.332  27.322  1.00  0.00    -0.205 F 
BRANCH  17  22
ATOM     22  C   UNL A   1      35.262  23.280  25.499  1.00  0.00     0.104 C 
ATOM     23  N   UNL A   1      35.994  24.141  25.775  1.00  0.00    -0.192 NA
ENDBRANCH  17  22
ENDBRANCH  13  15
ENDBRANCH  12  13
ENDBRANCH   7  12
ENDBRANCH   6   7
ENDBRANCH   3   6
ENDBRANCH   1   2
BRANCH   1  24
ATOM     24  C   UNL A   1      31.957  27.939  26.702  1.00  0.00     0.023 C 
BRANCH  24  25
ATOM     25  C   UNL A   1      31.918  29.354  27.246  1.00  0.00     0.023 C 
BRANCH  25  26
ATOM     26  C   UNL A   1      32.949  30.272  26.624  1.00  0.00     0.116 C 
BRANCH  26  27
ATOM     27  N   UNL A   1      32.789  31.671  27.003  1.00  0.00    -0.352 N 
ATOM     28  C   UNL A   1      33.649  32.449  27.743  1.00  0.00     0.251 C 
ATOM     29  H   UNL A   1      31.968  32.113  26.691  1.00  0.00     0.163 HD
ATOM     30  O   UNL A   1      33.333  33.584  28.083  1.00  0.00    -0.269 OA
BRANCH  28  31
ATOM     31  C   UNL A   1      34.943  31.868  28.152  1.00  0.00     0.039 A 
ATOM     32  C   UNL A   1      36.077  32.676  28.154  1.00  0.00     0.014 A 
ATOM     33  C   UNL A   1      35.002  30.556  28.632  1.00  0.00     0.014 A 
ATOM     34  C   UNL A   1      37.262  32.177  28.692  1.00  0.00     0.010 A 
ATOM     35  C   UNL A   1      36.137  30.119  29.297  1.00  0.00     0.010 A 
ATOM     36  C   UNL A   1      37.291  30.910  29.305  1.00  0.00    -0.014 A 
BRANCH  36  37
ATOM     37  C   UNL A   1      38.532  30.413  29.945  1.00  0.00     0.031 A 
ATOM     38  C   UNL A   1      38.913  30.866  31.328  1.00  0.00     0.074 A 
ATOM     39  C   UNL A   1      39.327  29.561  29.265  1.00  0.00     0.049 A 
ATOM     40  N   UNL A   1      39.903  30.459  32.080  1.00  0.00    -0.248 NA
ATOM     41  C   UNL A   1      38.101  31.931  31.943  1.00  0.00     0.031 C 
ATOM     42  C   UNL A   1      39.120  29.134  27.879  1.00  0.00     0.029 A 
ATOM     43  N   UNL A   1      40.462  28.897  29.651  1.00  0.00    -0.354 N 
ATOM     44  C   UNL A   1      39.843  31.228  33.236  1.00  0.00     0.074 A 
ATOM     45  C   UNL A   1      38.758  32.165  33.068  1.00  0.00     0.031 C 
ATOM     46  C   UNL A   1      40.066  28.242  27.548  1.00  0.00     0.029 A 
ATOM     47  C   UNL A   1      40.968  28.065  28.679  1.00  0.00     0.049 A 
ATOM     48  H   UNL A   1      40.876  29.005  30.538  1.00  0.00     0.167 HD
ATOM     49  C   UNL A   1      40.601  31.141  34.353  1.00  0.00     0.034 A 
ATOM     50  C   UNL A   1      42.039  27.249  28.701  1.00  0.00     0.034 A 
ATOM     51  C   UNL A   1      41.671  30.196  34.518  1.00  0.00     0.049 A 
ATOM     52  C   UNL A   1      42.841  27.143  29.966  1.00  0.00     0.074 A 
ATOM     53  C   UNL A   1      42.451  29.969  35.637  1.00  0.00     0.029 A 
ATOM     54  N   UNL A   1      42.128  29.338  33.530  1.00  0.00    -0.354 N 
ATOM     55  N   UNL A   1      42.670  27.763  31.108  1.00  0.00    -0.248 NA
ATOM     56  C   UNL A   1      43.958  26.189  29.960  1.00  0.00     0.031 C 
ATOM     57  C   UNL A   1      43.418  29.014  35.307  1.00  0.00     0.029 A 
ATOM     58  C   UNL A   1      43.195  28.594  34.005  1.00  0.00     0.049 A 
ATOM     59  H   UNL A   1      41.751  29.268  32.624  1.00  0.00     0.167 HD
ATOM     60  C   UNL A   1      43.633  27.250  31.968  1.00  0.00     0.074 A 
ATOM     61  C   UNL A   1      44.364  26.247  31.220  1.00  0.00     0.031 C 
ATOM     62  C   UNL A   1      43.895  27.582  33.256  1.00  0.00     0.034 A 
BRANCH  49  63
ATOM     63  C   UNL A   1      40.287  32.082  35.488  1.00  0.00     0.023 A 
ATOM     64  C   UNL A   1      41.016  33.280  35.638  1.00  0.00     0.012 A 
ATOM     65  C   UNL A   1      39.236  31.800  36.381  1.00  0.00     0.148 A 
ATOM     66  C   UNL A   1      40.731  34.163  36.680  1.00  0.00     0.002 A 
ATOM     67  C   UNL A   1      38.921  32.710  37.383  1.00  0.00     0.091 A 
ATOM     68  F   UNL A   1      38.569  30.646  36.240  1.00  0.00    -0.205 F 
ATOM     69  C   UNL A   1      39.676  33.883  37.544  1.00  0.00     0.022 A 
BRANCH  67  70
ATOM     70  S   UNL A   1      37.529  32.483  38.494  1.00  0.00     0.127 S 
ATOM     71  O   UNL A   1      37.901  33.349  39.612  1.00  0.00    -0.237 OA
ATOM     72  O   UNL A   1      36.413  32.975  37.686  1.00  0.00    -0.237 OA
ATOM     73  O   UNL A   1      37.481  31.060  38.798  1.00  0.00    -0.744 OA
ENDBRANCH  67  70
ENDBRANCH  49  63
BRANCH  50  74
ATOM     74  C   UNL A   1      42.383  26.437  27.500  1.00  0.00     0.023 A 
ATOM     75  C   UNL A   1      43.120  27.011  26.444  1.00  0.00     0.012 A 
ATOM     76  C   UNL A   1      41.991  25.089  27.410  1.00  0.00     0.148 A 
ATOM     77  C   UNL A   1      43.423  26.266  25.304  1.00  0.00     0.002 A 
ATOM     78  C   UNL A   1      42.349  24.336  26.300  1.00  0.00     0.091 A 
ATOM     79  F   UNL A   1      41.286  24.565  28.422  1.00  0.00    -0.205 F 
ATOM     80  C   UNL A   1      43.046  24.927  25.236  1.00  0.00     0.022 A 
BRANCH  78  81
ATOM     81  S   UNL A   1      42.018  22.575  26.186  1.00  0.00     0.127 S 
ATOM     82  O   UNL A   1      42.685  22.226  24.934  1.00  0.00    -0.237 OA
ATOM     83  O   UNL A   1      42.670  22.071  27.395  1.00  0.00    -0.237 OA
ATOM     84  O   UNL A   1      40.567  22.444  26.185  1.00  0.00    -0.744 OA
ENDBRANCH  78  81
ENDBRANCH  50  74
BRANCH  62  85
ATOM     85  C   UNL A   1      44.984  26.812  33.958  1.00  0.00     0.023 A 
ATOM     86  C   UNL A   1      46.314  27.281  33.948  1.00  0.00     0.012 A 
ATOM     87  C   UNL A   1      44.678  25.622  34.648  1.00  0.00     0.148 A 
ATOM     88  C   UNL A   1      47.329  26.543  34.555  1.00  0.00     0.002 A 
ATOM     89  C   UNL A   1      45.684  24.926  35.305  1.00  0.00     0.091 A 
ATOM     90  F   UNL A   1      43.411  25.183  34.637  1.00  0.00    -0.205 F 
ATOM     91  C   UNL A   1      47.014  25.372  35.239  1.00  0.00     0.022 A 
BRANCH  89  92
ATOM     92  S   UNL A   1      45.351  23.468  36.297  1.00  0.00     0.127 S 
ATOM     93  O   UNL A   1      46.701  22.994  36.590  1.00  0.00    -0.237 OA
ATOM     94  O   UNL A   1      44.640  24.033  37.445  1.00  0.00    -0.237 OA
ATOM     95  O   UNL A   1      44.545  22.588  35.462  1.00  0.00    -0.744 OA
ENDBRANCH  89  92
ENDBRANCH  62  85
ENDBRANCH  36  37
ENDBRANCH  28  31
ENDBRANCH  26  27
ENDBRANCH  25  26
ENDBRANCH  24  25
ENDBRANCH   1  24
TORSDOF 21
ENDMDL
MODEL 2
REMARK VINA RESULT:     -10.4      2.213      3.614
REMARK SMILES CC(C)C[C@H](CNc1cccc(F)c1C#N)CC(=O)NCCCCNC(=O)c1ccc(-c2c3nc(c(-c4cccc(S(=O)(=O)[O-])c4F)c4ccc([nH]4)c(-c4cccc(S(=O)(=O)[O-])c4F)c4nc(c(-c5cccc(S(=O)(=O)[O-])c5F)c5ccc2[nH]5)C=C4)C=C3)cc1
REMARK SMILES IDX 21 1 20 2 18 3 19 4 17 6 5 7 4 8 2 9 1 10 3 11 6 12 7 13
REMARK SMILES IDX 8 15 9 16 14 17 10 18 12 19 11 20 13 21 15 22 16 23 22 24
REMARK SMILES IDX 23 25 24 26 25 27 26 28 27 30 28 31 29 32 90 33 30 34 89 35
REMARK SMILES IDX 31 36 32 37 33 38 83 39 34 40 88 41 82 42 84 43 35 44 87 45
REMARK SMILES IDX 81 46 80 47 36 49 68 50 48 51 67 52 49 53 52 54 66 55 85 56
REMARK SMILES IDX 50 57 51 58 65 60 86 61 53 62 37 63 38 64 46 65 39 66 41 67
REMARK SMILES IDX 47 68 40 69 42 70 43 71 44 72 45 73 69 74 70 75 78 76 71 77
REMARK SMILES IDX 73 78 79 79 72 80 74 81 75 82 76 83 77 84 54 85 55 86 63 87
REMARK SMILES IDX 56 88 58 89 64 90 57 91 59 92 60 93 61 94 62 95
REMARK H PARENT 20 5 7 14 25 29 84 48 52 59
REMARK Flexibility Score: inf
ROOT
ATOM      1  C   UNL A   1      34.005  25.901  25.059  1.00  0.00     0.116 C 
ENDROOT
BRANCH   1   2
ATOM      2  N   UNL A   1      35.028  24.958  25.444  1.00  0.00    -0.356 N 
ATOM      3  C   UNL A   1      35.092  23.621  25.213  1.00  0.00     0.220 C 
ATOM      4  O   UNL A   1      35.952  22.964  25.803  1.00  0.00    -0.275 OA
ATOM      5  H   UNL A   1      35.786  25.338  25.946  1.00  0.00     0.163 HD
BRANCH   3   6
ATOM      6  C   UNL A   1      34.200  22.963  24.173  1.00  0.00     0.105 C 
BRANCH   6   7
ATOM      7  C   UNL A   1      33.015  22.108  24.662  1.00  0.00     0.018 C 
BRANCH   7   8
ATOM      8  C   UNL A   1      32.659  20.959  23.672  1.00  0.00     0.009 C 
BRANCH   8   9
ATOM      9  C   UNL A   1      32.448  19.544  24.260  1.00  0.00    -0.017 C 
ATOM     10  C   UNL A   1      33.154  18.462  23.436  1.00  0.00     0.007 C 
ATOM     11  C   UNL A   1      32.966  19.497  25.701  1.00  0.00     0.007 C 
ENDBRANCH   8   9
ENDBRANCH   7   8
BRANCH   7  12
ATOM     12  C   UNL A   1      31.716  22.856  25.042  1.00  0.00     0.117 C 
BRANCH  12  13
ATOM     13  N   UNL A   1      31.053  23.429  23.884  1.00  0.00    -0.384 N 
ATOM     14  H   UNL A   1      30.561  22.802  23.307  1.00  0.00     0.160 HD
BRANCH  13  15
ATOM     15  C   UNL A   1      31.036  24.759  23.503  1.00  0.00     0.055 A 
ATOM     16  C   UNL A   1      31.642  25.037  22.258  1.00  0.00     0.027 A 
ATOM     17  C   UNL A   1      30.430  25.831  24.182  1.00  0.00     0.111 A 
ATOM     18  C   UNL A   1      31.652  26.316  21.701  1.00  0.00     0.005 A 
ATOM     19  C   UNL A   1      30.462  27.115  23.621  1.00  0.00     0.143 A 
ATOM     20  C   UNL A   1      31.060  27.363  22.390  1.00  0.00     0.041 A 
ATOM     21  F   UNL A   1      29.904  28.151  24.267  1.00  0.00    -0.205 F 
BRANCH  17  22
ATOM     22  C   UNL A   1      29.815  25.698  25.465  1.00  0.00     0.104 C 
ATOM     23  N   UNL A   1      29.330  25.588  26.517  1.00  0.00    -0.192 NA
ENDBRANCH  17  22
ENDBRANCH  13  15
ENDBRANCH  12  13
ENDBRANCH   7  12
ENDBRANCH   6   7
ENDBRANCH   3   6
ENDBRANCH   1   2
BRANCH   1  24
ATOM     24  C   UNL A   1      33.302  26.436  26.304  1.00  0.00     0.023 C 
BRANCH  24  25
ATOM     25  C   UNL A   1      32.874  27.889  26.232  1.00  0.00     0.023 C 
BRANCH  25  26
ATOM     26  C   UNL A   1      34.027  28.854  26.058  1.00  0.00     0.116 C 
BRANCH  26  27
ATOM     27  N   UNL A   1      33.824  30.134  26.725  1.00  0.00    -0.352 N 
ATOM     28  C   UNL A   1      34.626  30.732  27.669  1.00  0.00     0.251 C 
ATOM     29  H   UNL A   1      33.015  30.632  26.469  1.00  0.00     0.163 HD
ATOM     30  O   UNL A   1      34.272  31.763  28.231  1.00  0.00    -0.269 OA
BRANCH  28  31
ATOM     31  C   UNL A   1      35.903  30.078  28.018  1.00  0.00     0.039 A 
ATOM     32  C   UNL A   1      37.020  30.306  27.218  1.00  0.00     0.014 A 
ATOM     33  C   UNL A   1      36.009  29.331  29.195  1.00  0.00     0.014 A 
ATOM     34  C   UNL A   1      38.259  29.824  27.635  1.00  0.00     0.010 A 
ATOM     35  C   UNL A   1      37.262  28.984  29.675  1.00  0.00     0.010 A 
ATOM     36  C   UNL A   1      38.398  29.195  28.887  1.00  0.00    -0.014 A 
BRANCH  36  37
ATOM     37  C   UNL A   1      39.730  28.752  29.362  1.00  0.00     0.031 A 
ATOM     38  C   UNL A   1      40.412  29.464  30.498  1.00  0.00     0.074 A 
ATOM     39  C   UNL A   1      40.333  27.711  28.752  1.00  0.00     0.049 A 
ATOM     40  N   UNL A   1      41.525  29.153  31.110  1.00  0.00    -0.248 NA
ATOM     41  C   UNL A   1      39.784  30.699  31.002  1.00  0.00     0.031 C 
ATOM     42  C   UNL A   1      39.822  27.009  27.571  1.00  0.00     0.029 A 
ATOM     43  N   UNL A   1      41.502  27.058  29.045  1.00  0.00    -0.354 N 
ATOM     44  C   UNL A   1      41.738  30.158  32.045  1.00  0.00     0.074 A 
ATOM     45  C   UNL A   1      40.673  31.120  31.887  1.00  0.00     0.031 C 
ATOM     46  C   UNL A   1      40.645  25.994  27.272  1.00  0.00     0.029 A 
ATOM     47  C   UNL A   1      41.762  25.996  28.210  1.00  0.00     0.049 A 
ATOM     48  H   UNL A   1      42.099  27.324  29.781  1.00  0.00     0.167 HD
ATOM     49  C   UNL A   1      42.714  30.256  32.978  1.00  0.00     0.034 A 
ATOM     50  C   UNL A   1      42.786  25.122  28.204  1.00  0.00     0.034 A 
ATOM     51  C   UNL A   1      43.763  29.288  33.139  1.00  0.00     0.049 A 
ATOM     52  C   UNL A   1      43.835  25.230  29.273  1.00  0.00     0.074 A 
ATOM     53  C   UNL A   1      44.756  29.249  34.100  1.00  0.00     0.029 A 
ATOM     54  N   UNL A   1      43.971  28.201  32.304  1.00  0.00    -0.354 N 
ATOM     55  N   UNL A   1      43.932  26.097  30.251  1.00  0.00    -0.248 NA
ATOM     56  C   UNL A   1      44.894  24.212  29.263  1.00  0.00     0.031 C 
ATOM     57  C   UNL A   1      45.599  28.171  33.812  1.00  0.00     0.029 A 
ATOM     58  C   UNL A   1      45.089  27.496  32.714  1.00  0.00     0.049 A 
ATOM     59  H   UNL A   1      43.406  27.965  31.532  1.00  0.00     0.167 HD
ATOM     60  C   UNL A   1      45.039  25.709  30.996  1.00  0.00     0.074 A 
ATOM     61  C   UNL A   1      45.560  24.511  30.369  1.00  0.00     0.031 C 
ATOM     62  C   UNL A   1      45.581  26.292  32.093  1.00  0.00     0.034 A 
BRANCH  49  63
ATOM     63  C   UNL A   1      42.680  31.445  33.905  1.00  0.00     0.023 A 
ATOM     64  C   UNL A   1      43.232  32.677  33.498  1.00  0.00     0.012 A 
ATOM     65  C   UNL A   1      42.057  31.353  35.164  1.00  0.00     0.148 A 
ATOM     66  C   UNL A   1      43.201  33.786  34.344  1.00  0.00     0.002 A 
ATOM     67  C   UNL A   1      41.981  32.475  35.979  1.00  0.00     0.091 A 
ATOM     68  F   UNL A   1      41.559  30.168  35.546  1.00  0.00    -0.205 F 
ATOM     69  C   UNL A   1      42.565  33.688  35.578  1.00  0.00     0.022 A 
BRANCH  67  70
ATOM     70  S   UNL A   1      41.110  32.475  37.549  1.00  0.00     0.127 S 
ATOM     71  O   UNL A   1      39.825  31.887  37.172  1.00  0.00    -0.237 OA
ATOM     72  O   UNL A   1      41.960  31.610  38.367  1.00  0.00    -0.237 OA
ATOM     73  O   UNL A   1      41.055  33.864  37.982  1.00  0.00    -0.744 OA
ENDBRANCH  67  70
ENDBRANCH  49  63
BRANCH  50  74
ATOM     74  C   UNL A   1      42.839  24.043  27.178  1.00  0.00     0.023 A 
ATOM     75  C   UNL A   1      43.612  24.211  26.012  1.00  0.00     0.012 A 
ATOM     76  C   UNL A   1      42.133  22.839  27.367  1.00  0.00     0.148 A 
ATOM     77  C   UNL A   1      43.646  23.217  25.034  1.00  0.00     0.002 A 
ATOM     78  C   UNL A   1      42.221  21.829  26.418  1.00  0.00     0.091 A 
ATOM     79  F   UNL A   1      41.400  22.703  28.480  1.00  0.00    -0.205 F 
ATOM     80  C   UNL A   1      42.959  22.023  25.241  1.00  0.00     0.022 A 
BRANCH  78  81
ATOM     81  S   UNL A   1      41.475  20.215  26.663  1.00  0.00     0.127 S 
ATOM     82  O   UNL A   1      40.054  20.548  26.719  1.00  0.00    -0.237 OA
ATOM     83  O   UNL A   1      41.895  19.506  25.455  1.00  0.00    -0.237 OA
ATOM     84  O   UNL A   1      42.050  19.696  27.897  1.00  0.00    -0.744 OA
ENDBRANCH  78  81
ENDBRANCH  50  74
BRANCH  62  85
ATOM     85  C   UNL A   1      46.768  25.609  32.722  1.00  0.00     0.023 A 
ATOM     86  C   UNL A   1      48.078  25.927  32.308  1.00  0.00     0.012 A 
ATOM     87  C   UNL A   1      46.579  24.657  33.743  1.00  0.00     0.148 A 
ATOM     88  C   UNL A   1      49.174  25.258  32.853  1.00  0.00     0.002 A 
ATOM     89  C   UNL A   1      47.679  24.044  34.327  1.00  0.00     0.091 A 
ATOM     90  F   UNL A   1      45.326  24.358  34.117  1.00  0.00    -0.205 F 
ATOM     91  C   UNL A   1      48.975  24.325  33.867  1.00  0.00     0.022 A 
BRANCH  89  92
ATOM     92  S   UNL A   1      47.523  22.909  35.709  1.00  0.00     0.127 S 
ATOM     93  O   UNL A   1      46.492  23.561  36.514  1.00  0.00    -0.237 OA
ATOM     94  O   UNL A   1      47.092  21.677  35.048  1.00  0.00    -0.237 OA
ATOM     95  O   UNL A   1      48.843  22.836  36.321  1.00  0.00    -0.744 OA
ENDBRANCH  89  92
ENDBRANCH  62  85
ENDBRANCH  36  37
ENDBRANCH  28  31
ENDBRANCH  26  27
ENDBRANCH  25  26
ENDBRANCH  24  25
ENDBRANCH   1  24
TORSDOF 21
ENDMDL
MODEL 3
REMARK VINA RESULT:     -10.3      2.099      2.760
REMARK SMILES CC(C)C[C@H](CNc1cccc(F)c1C#N)CC(=O)NCCCCNC(=O)c1ccc(-c2c3nc(c(-c4cccc(S(=O)(=O)[O-])c4F)c4ccc([nH]4)c(-c4cccc(S(=O)(=O)[O-])c4F)c4nc(c(-c5cccc(S(=O)(=O)[O-])c5F)c5ccc2[nH]5)C=C4)C=C3)cc1
REMARK SMILES IDX 21 1 20 2 18 3 19 4 17 6 5 7 4 8 2 9 1 10 3 11 6 12 7 13
REMARK SMILES IDX 8 15 9 16 14 17 10 18 12 19 11 20 13 21 15 22 16 23 22 24
REMARK SMILES IDX 23 25 24 26 25 27 26 28 27 30 28 31 29 32 90 33 30 34 89 35
REMARK SMILES IDX 31 36 32 37 33 38 83 39 34 40 88 41 82 42 84 43 35 44 87 45
REMARK SMILES IDX 81 46 80 47 36 49 68 50 48 51 67 52 49 53 52 54 66 55 85 56
REMARK SMILES IDX 50 57 51 58 65 60 86 61 53 62 37 63 38 64 46 65 39 66 41 67
REMARK SMILES IDX 47 68 40 69 42 70 43 71 44 72 45 73 69 74 70 75 78 76 71 77
REMARK SMILES IDX 73 78 79 79 72 80 74 81 75 82 76 83 77 84 54 85 55 86 63 87
REMARK SMILES IDX 56 88 58 89 64 90 57 91 59 92 60 93 61 94 62 95
REMARK H PARENT 20 5 7 14 25 29 84 48 52 59
REMARK Flexibility Score: inf
ROOT
ATOM      1  C   UNL A   1      32.916  30.008  26.015  1.00  0.00     0.116 C 
ENDROOT
BRANCH   1   2
ATOM      2  N   UNL A   1      33.236  29.786  24.624  1.00  0.00    -0.356 N 
ATOM      3  C   UNL A   1      33.698  28.661  24.020  1.00  0.00     0.220 C 
ATOM      4  O   UNL A   1      34.101  28.742  22.858  1.00  0.00    -0.275 OA
ATOM      5  H   UNL A   1      33.102  30.561  24.031  1.00  0.00     0.163 HD
BRANCH   3   6
ATOM      6  C   UNL A   1      33.620  27.311  24.715  1.00  0.00     0.105 C 
BRANCH   6   7
ATOM      7  C   UNL A   1      32.540  26.312  24.255  1.00  0.00     0.018 C 
BRANCH   7   8
ATOM      8  C   UNL A   1      31.105  26.753  24.670  1.00  0.00     0.009 C 
BRANCH   8   9
ATOM      9  C   UNL A   1      30.079  27.013  23.540  1.00  0.00    -0.017 C 
ATOM     10  C   UNL A   1      28.662  26.586  23.934  1.00  0.00     0.007 C 
ATOM     11  C   UNL A   1      30.073  28.501  23.176  1.00  0.00     0.007 C 
ENDBRANCH   8   9
ENDBRANCH   7   8
BRANCH   7  12
ATOM     12  C   UNL A   1      32.738  24.830  24.649  1.00  0.00     0.117 C 
BRANCH  12  13
ATOM     13  N   UNL A   1      33.531  24.104  23.674  1.00  0.00    -0.384 N 
ATOM     14  H   UNL A   1      33.391  24.344  22.730  1.00  0.00     0.160 HD
BRANCH  13  15
ATOM     15  C   UNL A   1      34.463  23.112  23.925  1.00  0.00     0.055 A 
ATOM     16  C   UNL A   1      35.802  23.456  23.639  1.00  0.00     0.027 A 
ATOM     17  C   UNL A   1      34.225  21.845  24.488  1.00  0.00     0.111 A 
ATOM     18  C   UNL A   1      36.866  22.591  23.896  1.00  0.00     0.005 A 
ATOM     19  C   UNL A   1      35.301  20.978  24.725  1.00  0.00     0.143 A 
ATOM     20  C   UNL A   1      36.612  21.342  24.440  1.00  0.00     0.041 A 
ATOM     21  F   UNL A   1      35.087  19.759  25.244  1.00  0.00    -0.205 F 
BRANCH  17  22
ATOM     22  C   UNL A   1      32.917  21.355  24.790  1.00  0.00     0.104 C 
ATOM     23  N   UNL A   1      31.845  20.970  25.031  1.00  0.00    -0.192 NA
ENDBRANCH  17  22
ENDBRANCH  13  15
ENDBRANCH  12  13
ENDBRANCH   7  12
ENDBRANCH   6   7
ENDBRANCH   3   6
ENDBRANCH   1   2
BRANCH   1  24
ATOM     24  C   UNL A   1      31.491  30.542  26.137  1.00  0.00     0.023 C 
BRANCH  24  25
ATOM     25  C   UNL A   1      31.379  32.007  26.512  1.00  0.00     0.023 C 
BRANCH  25  26
ATOM     26  C   UNL A   1      32.666  32.596  27.048  1.00  0.00     0.116 C 
BRANCH  26  27
ATOM     27  N   UNL A   1      32.487  33.875  27.724  1.00  0.00    -0.352 N 
ATOM     28  C   UNL A   1      33.255  34.414  28.730  1.00  0.00     0.251 C 
ATOM     29  H   UNL A   1      31.724  34.420  27.424  1.00  0.00     0.163 HD
ATOM     30  O   UNL A   1      32.919  35.454  29.286  1.00  0.00    -0.269 OA
BRANCH  28  31
ATOM     31  C   UNL A   1      34.469  33.688  29.149  1.00  0.00     0.039 A 
ATOM     32  C   UNL A   1      35.700  34.062  28.615  1.00  0.00     0.014 A 
ATOM     33  C   UNL A   1      34.392  32.713  30.148  1.00  0.00     0.014 A 
ATOM     34  C   UNL A   1      36.862  33.490  29.129  1.00  0.00     0.010 A 
ATOM     35  C   UNL A   1      35.554  32.260  30.754  1.00  0.00     0.010 A 
ATOM     36  C   UNL A   1      36.802  32.616  30.230  1.00  0.00    -0.014 A 
BRANCH  36  37
ATOM     37  C   UNL A   1      38.045  32.068  30.825  1.00  0.00     0.031 A 
ATOM     38  C   UNL A   1      38.635  32.683  32.064  1.00  0.00     0.074 A 
ATOM     39  C   UNL A   1      38.651  31.020  30.230  1.00  0.00     0.049 A 
ATOM     40  N   UNL A   1      39.653  32.276  32.776  1.00  0.00    -0.248 NA
ATOM     41  C   UNL A   1      38.027  33.931  32.559  1.00  0.00     0.031 C 
ATOM     42  C   UNL A   1      38.236  30.406  28.966  1.00  0.00     0.029 A 
ATOM     43  N   UNL A   1      39.741  30.282  30.614  1.00  0.00    -0.354 N 
ATOM     44  C   UNL A   1      39.818  33.222  33.780  1.00  0.00     0.074 A 
ATOM     45  C   UNL A   1      38.834  34.255  33.556  1.00  0.00     0.031 C 
ATOM     46  C   UNL A   1      39.028  29.355  28.706  1.00  0.00     0.029 A 
ATOM     47  C   UNL A   1      40.031  29.245  29.759  1.00  0.00     0.049 A 
ATOM     48  H   UNL A   1      40.265  30.476  31.424  1.00  0.00     0.167 HD
ATOM     49  C   UNL A   1      40.687  33.216  34.817  1.00  0.00     0.034 A 
ATOM     50  C   UNL A   1      40.996  28.309  29.819  1.00  0.00     0.034 A 
ATOM     51  C   UNL A   1      41.654  32.177  35.041  1.00  0.00     0.049 A 
ATOM     52  C   UNL A   1      41.924  28.302  31.000  1.00  0.00     0.074 A 
ATOM     53  C   UNL A   1      42.529  32.032  36.102  1.00  0.00     0.029 A 
ATOM     54  N   UNL A   1      41.890  31.118  34.178  1.00  0.00    -0.354 N 
ATOM     55  N   UNL A   1      41.961  29.116  32.027  1.00  0.00    -0.248 NA
ATOM     56  C   UNL A   1      42.917  27.221  31.053  1.00  0.00     0.031 C 
ATOM     57  C   UNL A   1      43.335  30.917  35.851  1.00  0.00     0.029 A 
ATOM     58  C   UNL A   1      42.913  30.326  34.671  1.00  0.00     0.049 A 
ATOM     59  H   UNL A   1      41.403  30.954  33.338  1.00  0.00     0.167 HD
ATOM     60  C   UNL A   1      42.953  28.625  32.867  1.00  0.00     0.074 A 
ATOM     61  C   UNL A   1      43.471  27.427  32.238  1.00  0.00     0.031 C 
ATOM     62  C   UNL A   1      43.401  29.123  34.045  1.00  0.00     0.034 A 
BRANCH  49  63
ATOM     63  C   UNL A   1      40.618  34.361  35.796  1.00  0.00     0.023 A 
ATOM     64  C   UNL A   1      41.051  35.648  35.413  1.00  0.00     0.012 A 
ATOM     65  C   UNL A   1      40.079  34.171  37.082  1.00  0.00     0.148 A 
ATOM     66  C   UNL A   1      40.986  36.717  36.306  1.00  0.00     0.002 A 
ATOM     67  C   UNL A   1      39.966  35.252  37.948  1.00  0.00     0.091 A 
ATOM     68  F   UNL A   1      39.694  32.937  37.439  1.00  0.00    -0.205 F 
ATOM     69  C   UNL A   1      40.432  36.521  37.568  1.00  0.00     0.022 A 
BRANCH  67  70
ATOM     70  S   UNL A   1      39.191  35.122  39.562  1.00  0.00     0.127 S 
ATOM     71  O   UNL A   1      38.859  36.518  39.842  1.00  0.00    -0.237 OA
ATOM     72  O   UNL A   1      38.039  34.266  39.278  1.00  0.00    -0.237 OA
ATOM     73  O   UNL A   1      40.187  34.532  40.444  1.00  0.00    -0.744 OA
ENDBRANCH  67  70
ENDBRANCH  49  63
BRANCH  50  74
ATOM     74  C   UNL A   1      41.102  27.276  28.750  1.00  0.00     0.023 A 
ATOM     75  C   UNL A   1      40.287  26.127  28.794  1.00  0.00     0.012 A 
ATOM     76  C   UNL A   1      42.001  27.440  27.680  1.00  0.00     0.148 A 
ATOM     77  C   UNL A   1      40.398  25.141  27.812  1.00  0.00     0.002 A 
ATOM     78  C   UNL A   1      42.062  26.485  26.674  1.00  0.00     0.091 A 
ATOM     79  F   UNL A   1      42.770  28.538  27.662  1.00  0.00    -0.205 F 
ATOM     80  C   UNL A   1      41.278  25.325  26.748  1.00  0.00     0.022 A 
BRANCH  78  81
ATOM     81  S   UNL A   1      43.071  26.702  25.205  1.00  0.00     0.127 S 
ATOM     82  O   UNL A   1      42.867  25.433  24.512  1.00  0.00    -0.237 OA
ATOM     83  O   UNL A   1      42.434  27.859  24.575  1.00  0.00    -0.237 OA
ATOM     84  O   UNL A   1      44.424  26.947  25.686  1.00  0.00    -0.744 OA
ENDBRANCH  78  81
ENDBRANCH  50  74
BRANCH  62  85
ATOM     85  C   UNL A   1      44.470  28.339  34.763  1.00  0.00     0.023 A 
ATOM     86  C   UNL A   1      45.829  28.506  34.426  1.00  0.00     0.012 A 
ATOM     87  C   UNL A   1      44.119  27.442  35.791  1.00  0.00     0.148 A 
ATOM     88  C   UNL A   1      46.813  27.744  35.055  1.00  0.00     0.002 A 
ATOM     89  C   UNL A   1      45.111  26.734  36.458  1.00  0.00     0.091 A 
ATOM     90  F   UNL A   1      42.822  27.285  36.091  1.00  0.00    -0.205 F 
ATOM     91  C   UNL A   1      46.455  26.866  36.075  1.00  0.00     0.022 A 
BRANCH  89  92
ATOM     92  S   UNL A   1      44.752  25.662  37.852  1.00  0.00     0.127 S 
ATOM     93  O   UNL A   1      46.059  25.063  38.110  1.00  0.00    -0.237 OA
ATOM     94  O   UNL A   1      44.306  26.616  38.867  1.00  0.00    -0.237 OA
ATOM     95  O   UNL A   1      43.720  24.741  37.396  1.00  0.00    -0.744 OA
ENDBRANCH  89  92
ENDBRANCH  62  85
ENDBRANCH  36  37
ENDBRANCH  28  31
ENDBRANCH  26  27
ENDBRANCH  25  26
ENDBRANCH  24  25
ENDBRANCH   1  24
TORSDOF 21
ENDMDL
