MODEL 1
REMARK VINA RESULT:     -12.1      0.000      0.000
REMARK SMILES O=C(C[C@@H]1C[N@@H+]([C@H]2CCCc3sccc32)CCO1)NCCCCNC(=O)c1ccc(-c2c3nc(c(-c4cccc(S(=O)(=O)[O-])c4F)c4ccc([nH]4)c(-c4cccc(S(=O)(=O)[O-])c4F)c4nc(c(-c5cccc(S(=O)(=O)[O-])c5F)c5ccc2[nH]5)C=C4)C=C3)cc1
REMARK SMILES IDX 22 1 21 2 20 3 19 4 1 5 2 6 3 8 4 9 5 10 18 11 6 12 17 13
REMARK SMILES IDX 16 14 7 16 8 17 15 18 9 19 11 20 14 21 10 22 12 23 13 24
REMARK SMILES IDX 23 25 24 26 25 27 26 29 27 30 28 31 89 32 29 33 88 34 30 35
REMARK SMILES IDX 31 36 32 37 82 38 33 39 87 40 81 41 83 42 34 43 86 44 80 45
REMARK SMILES IDX 79 46 35 48 67 49 47 50 66 51 48 52 51 53 65 54 84 55 49 56
REMARK SMILES IDX 50 57 64 59 85 60 52 61 36 62 37 63 45 64 38 65 40 66 46 67
REMARK SMILES IDX 39 68 41 69 42 70 43 71 44 72 68 73 69 74 77 75 70 76 72 77
REMARK SMILES IDX 78 78 71 79 73 80 74 81 75 82 76 83 53 84 54 85 62 86 55 87
REMARK SMILES IDX 57 88 63 89 56 90 58 91 59 92 60 93 61 94
REMARK H PARENT 19 7 6 15 24 28 83 47 51 58
REMARK Flexibility Score: inf
ROOT
ATOM      1  C   UNL A   1      31.627  31.600  26.690  1.00  0.00     0.023 C 
ENDROOT
BRANCH   1   2
ATOM      2  C   UNL A   1      31.801  30.090  26.501  1.00  0.00     0.023 C 
BRANCH   2   3
ATOM      3  C   UNL A   1      32.406  29.670  25.163  1.00  0.00     0.116 C 
BRANCH   3   4
ATOM      4  N   UNL A   1      31.724  28.519  24.609  1.00  0.00    -0.356 N 
ATOM      5  O   UNL A   1      29.987  29.684  23.655  1.00  0.00    -0.275 OA
ATOM      6  C   UNL A   1      30.560  28.625  23.878  1.00  0.00     0.222 C 
ATOM      7  H   UNL A   1      32.109  27.625  24.760  1.00  0.00     0.163 HD
BRANCH   6   8
ATOM      8  C   UNL A   1      30.045  27.294  23.382  1.00  0.00     0.138 C 
BRANCH   8   9
ATOM      9  C   UNL A   1      30.778  26.063  23.926  1.00  0.00     0.182 C 
ATOM     10  C   UNL A   1      30.356  24.689  23.355  1.00  0.00     0.295 C 
ATOM     11  O   UNL A   1      30.644  26.039  25.360  1.00  0.00    -0.366 OA
ATOM     12  N   UNL A   1      31.112  23.545  23.897  1.00  0.00    -0.325 N 
ATOM     13  C   UNL A   1      31.527  25.053  25.909  1.00  0.00     0.222 C 
ATOM     14  C   UNL A   1      31.243  23.643  25.356  1.00  0.00     0.291 C 
ATOM     15  H   UNL A   1      30.558  22.696  23.784  1.00  0.00     0.348 HD
BRANCH  12  16
ATOM     16  C   UNL A   1      32.257  23.110  23.085  1.00  0.00     0.216 C 
ATOM     17  C   UNL A   1      33.266  24.167  22.577  1.00  0.00     0.071 C 
ATOM     18  C   UNL A   1      32.999  21.994  23.795  1.00  0.00     0.023 A 
ATOM     19  C   UNL A   1      34.342  24.555  23.600  1.00  0.00     0.012 C 
ATOM     20  C   UNL A   1      34.299  22.138  24.248  1.00  0.00     0.014 A 
ATOM     21  C   UNL A   1      32.532  20.656  24.004  1.00  0.00     0.022 A 
ATOM     22  C   UNL A   1      35.158  23.353  24.088  1.00  0.00     0.047 C 
ATOM     23  S   UNL A   1      34.915  20.718  24.958  1.00  0.00    -0.148 S 
ATOM     24  C   UNL A   1      33.482  19.857  24.606  1.00  0.00     0.065 A 
ENDBRANCH  12  16
ENDBRANCH   8   9
ENDBRANCH   6   8
ENDBRANCH   3   4
ENDBRANCH   2   3
ENDBRANCH   1   2
BRANCH   1  25
ATOM     25  C   UNL A   1      32.855  32.340  27.214  1.00  0.00     0.116 C 
BRANCH  25  26
ATOM     26  N   UNL A   1      32.574  33.731  27.537  1.00  0.00    -0.352 N 
ATOM     27  C   UNL A   1      33.118  34.529  28.513  1.00  0.00     0.251 C 
ATOM     28  H   UNL A   1      31.893  34.163  26.972  1.00  0.00     0.163 HD
ATOM     29  O   UNL A   1      32.622  35.633  28.740  1.00  0.00    -0.269 OA
BRANCH  27  30
ATOM     30  C   UNL A   1      34.277  34.063  29.305  1.00  0.00     0.039 A 
ATOM     31  C   UNL A   1      34.054  33.221  30.398  1.00  0.00     0.014 A 
ATOM     32  C   UNL A   1      35.578  34.458  28.982  1.00  0.00     0.014 A 
ATOM     33  C   UNL A   1      35.138  32.723  31.124  1.00  0.00     0.010 A 
ATOM     34  C   UNL A   1      36.660  33.899  29.659  1.00  0.00     0.010 A 
ATOM     35  C   UNL A   1      36.454  33.028  30.739  1.00  0.00    -0.014 A 
BRANCH  35  36
ATOM     36  C   UNL A   1      37.622  32.429  31.440  1.00  0.00     0.031 A 
ATOM     37  C   UNL A   1      38.387  31.292  30.817  1.00  0.00     0.074 A 
ATOM     38  C   UNL A   1      37.941  32.853  32.680  1.00  0.00     0.049 A 
ATOM     39  N   UNL A   1      39.396  30.615  31.302  1.00  0.00    -0.248 NA
ATOM     40  C   UNL A   1      37.949  30.841  29.487  1.00  0.00     0.031 C 
ATOM     41  C   UNL A   1      37.236  33.897  33.426  1.00  0.00     0.029 A 
ATOM     42  N   UNL A   1      38.928  32.441  33.543  1.00  0.00    -0.354 N 
ATOM     43  C   UNL A   1      39.687  29.636  30.360  1.00  0.00     0.074 A 
ATOM     44  C   UNL A   1      38.729  29.788  29.287  1.00  0.00     0.031 C 
ATOM     45  C   UNL A   1      37.816  34.049  34.627  1.00  0.00     0.029 A 
ATOM     46  C   UNL A   1      38.909  33.091  34.755  1.00  0.00     0.049 A 
ATOM     47  H   UNL A   1      39.586  31.745  33.315  1.00  0.00     0.167 HD
ATOM     48  C   UNL A   1      40.675  28.710  30.372  1.00  0.00     0.034 A 
ATOM     49  C   UNL A   1      39.676  32.929  35.851  1.00  0.00     0.034 A 
ATOM     50  C   UNL A   1      41.650  28.584  31.423  1.00  0.00     0.049 A 
ATOM     51  C   UNL A   1      40.783  31.910  35.828  1.00  0.00     0.074 A 
ATOM     52  C   UNL A   1      42.745  27.739  31.481  1.00  0.00     0.029 A 
ATOM     53  N   UNL A   1      41.641  29.307  32.605  1.00  0.00    -0.354 N 
ATOM     54  N   UNL A   1      41.141  31.102  34.859  1.00  0.00    -0.248 NA
ATOM     55  C   UNL A   1      41.614  31.803  37.037  1.00  0.00     0.031 C 
ATOM     56  C   UNL A   1      43.376  27.926  32.716  1.00  0.00     0.029 A 
ATOM     57  C   UNL A   1      42.699  28.917  33.408  1.00  0.00     0.049 A 
ATOM     58  H   UNL A   1      40.979  29.999  32.839  1.00  0.00     0.167 HD
ATOM     59  C   UNL A   1      42.260  30.421  35.325  1.00  0.00     0.074 A 
ATOM     60  C   UNL A   1      42.532  30.925  36.656  1.00  0.00     0.031 C 
ATOM     61  C   UNL A   1      42.990  29.459  34.711  1.00  0.00     0.034 A 
BRANCH  48  62
ATOM     62  C   UNL A   1      40.778  27.775  29.194  1.00  0.00     0.023 A 
ATOM     63  C   UNL A   1      39.979  26.615  29.147  1.00  0.00     0.012 A 
ATOM     64  C   UNL A   1      41.618  28.078  28.104  1.00  0.00     0.148 A 
ATOM     65  C   UNL A   1      40.042  25.751  28.055  1.00  0.00     0.002 A 
ATOM     66  C   UNL A   1      41.638  27.239  26.996  1.00  0.00     0.091 A 
ATOM     67  F   UNL A   1      42.384  29.176  28.173  1.00  0.00    -0.205 F 
ATOM     68  C   UNL A   1      40.862  26.069  26.976  1.00  0.00     0.022 A 
BRANCH  66  69
ATOM     69  S   UNL A   1      42.595  27.603  25.521  1.00  0.00     0.127 S 
ATOM     70  O   UNL A   1      43.956  27.638  26.054  1.00  0.00    -0.237 OA
ATOM     71  O   UNL A   1      42.302  26.448  24.672  1.00  0.00    -0.237 OA
ATOM     72  O   UNL A   1      42.090  28.873  25.016  1.00  0.00    -0.744 OA
ENDBRANCH  66  69
ENDBRANCH  48  62
BRANCH  49  73
ATOM     73  C   UNL A   1      39.463  33.793  37.046  1.00  0.00     0.023 A 
ATOM     74  C   UNL A   1      39.900  35.133  37.022  1.00  0.00     0.012 A 
ATOM     75  C   UNL A   1      38.819  33.303  38.199  1.00  0.00     0.148 A 
ATOM     76  C   UNL A   1      39.731  35.957  38.134  1.00  0.00     0.002 A 
ATOM     77  C   UNL A   1      38.602  34.146  39.282  1.00  0.00     0.091 A 
ATOM     78  F   UNL A   1      38.418  32.024  38.206  1.00  0.00    -0.205 F 
ATOM     79  C   UNL A   1      39.075  35.467  39.260  1.00  0.00     0.022 A 
BRANCH  77  80
ATOM     80  S   UNL A   1      37.652  33.642  40.720  1.00  0.00     0.127 S 
ATOM     81  O   UNL A   1      37.529  34.900  41.454  1.00  0.00    -0.237 OA
ATOM     82  O   UNL A   1      36.413  33.160  40.109  1.00  0.00    -0.237 OA
ATOM     83  O   UNL A   1      38.442  32.607  41.373  1.00  0.00    -0.744 OA
ENDBRANCH  77  80
ENDBRANCH  49  73
BRANCH  61  84
ATOM     84  C   UNL A   1      44.189  28.910  35.443  1.00  0.00     0.023 A 
ATOM     85  C   UNL A   1      45.459  29.492  35.257  1.00  0.00     0.012 A 
ATOM     86  C   UNL A   1      44.039  27.861  36.372  1.00  0.00     0.148 A 
ATOM     87  C   UNL A   1      46.566  29.015  35.956  1.00  0.00     0.002 A 
ATOM     88  C   UNL A   1      45.137  27.427  37.105  1.00  0.00     0.091 A 
ATOM     89  F   UNL A   1      42.827  27.308  36.522  1.00  0.00    -0.205 F 
ATOM     90  C   UNL A   1      46.404  27.993  36.888  1.00  0.00     0.022 A 
BRANCH  88  91
ATOM     91  S   UNL A   1      45.004  26.186  38.396  1.00  0.00     0.127 S 
ATOM     92  O   UNL A   1      44.530  25.024  37.645  1.00  0.00    -0.237 OA
ATOM     93  O   UNL A   1      46.384  26.083  38.869  1.00  0.00    -0.237 OA
ATOM     94  O   UNL A   1      44.067  26.721  39.374  1.00  0.00    -0.744 OA
ENDBRANCH  88  91
ENDBRANCH  61  84
ENDBRANCH  35  36
ENDBRANCH  27  30
ENDBRANCH  25  26
ENDBRANCH   1  25
TORSDOF 16
ENDMDL
MODEL 2
REMARK VINA RESULT:     -11.8      3.409      8.662
REMARK SMILES O=C(C[C@@H]1C[N@@H+]([C@H]2CCCc3sccc32)CCO1)NCCCCNC(=O)c1ccc(-c2c3nc(c(-c4cccc(S(=O)(=O)[O-])c4F)c4ccc([nH]4)c(-c4cccc(S(=O)(=O)[O-])c4F)c4nc(c(-c5cccc(S(=O)(=O)[O-])c5F)c5ccc2[nH]5)C=C4)C=C3)cc1
REMARK SMILES IDX 22 1 21 2 20 3 19 4 1 5 2 6 3 8 4 9 5 10 18 11 6 12 17 13
REMARK SMILES IDX 16 14 7 16 8 17 15 18 9 19 11 20 14 21 10 22 12 23 13 24
REMARK SMILES IDX 23 25 24 26 25 27 26 29 27 30 28 31 89 32 29 33 88 34 30 35
REMARK SMILES IDX 31 36 32 37 82 38 33 39 87 40 81 41 83 42 34 43 86 44 80 45
REMARK SMILES IDX 79 46 35 48 67 49 47 50 66 51 48 52 51 53 65 54 84 55 49 56
REMARK SMILES IDX 50 57 64 59 85 60 52 61 36 62 37 63 45 64 38 65 40 66 46 67
REMARK SMILES IDX 39 68 41 69 42 70 43 71 44 72 68 73 69 74 77 75 70 76 72 77
REMARK SMILES IDX 78 78 71 79 73 80 74 81 75 82 76 83 53 84 54 85 62 86 55 87
REMARK SMILES IDX 57 88 63 89 56 90 58 91 59 92 60 93 61 94
REMARK H PARENT 19 7 6 15 24 28 83 47 51 58
REMARK Flexibility Score: inf
ROOT
ATOM      1  C   UNL A   1      33.242  28.228  26.937  1.00  0.00     0.023 C 
ENDROOT
BRANCH   1   2
ATOM      2  C   UNL A   1      31.729  28.370  26.739  1.00  0.00     0.023 C 
BRANCH   2   3
ATOM      3  C   UNL A   1      31.304  28.958  25.396  1.00  0.00     0.116 C 
BRANCH   3   4
ATOM      4  N   UNL A   1      31.415  27.985  24.329  1.00  0.00    -0.356 N 
ATOM      5  O   UNL A   1      29.465  28.559  23.254  1.00  0.00    -0.275 OA
ATOM      6  C   UNL A   1      30.477  27.873  23.324  1.00  0.00     0.222 C 
ATOM      7  H   UNL A   1      32.191  27.380  24.322  1.00  0.00     0.163 HD
BRANCH   6   8
ATOM      8  C   UNL A   1      30.816  26.805  22.311  1.00  0.00     0.138 C 
BRANCH   8   9
ATOM      9  C   UNL A   1      31.611  25.614  22.854  1.00  0.00     0.182 C 
ATOM     10  C   UNL A   1      33.010  25.370  22.241  1.00  0.00     0.295 C 
ATOM     11  O   UNL A   1      30.818  24.421  22.709  1.00  0.00    -0.366 OA
ATOM     12  N   UNL A   1      33.738  24.226  22.820  1.00  0.00    -0.325 N 
ATOM     13  C   UNL A   1      31.426  23.347  23.436  1.00  0.00     0.222 C 
ATOM     14  C   UNL A   1      32.861  23.056  22.955  1.00  0.00     0.291 C 
ATOM     15  H   UNL A   1      34.435  23.900  22.149  1.00  0.00     0.348 HD
BRANCH  12  16
ATOM     16  C   UNL A   1      34.682  24.563  23.895  1.00  0.00     0.216 C 
ATOM     17  C   UNL A   1      34.149  25.240  25.180  1.00  0.00     0.071 C 
ATOM     18  C   UNL A   1      35.503  23.342  24.263  1.00  0.00     0.023 A 
ATOM     19  C   UNL A   1      33.568  24.266  26.213  1.00  0.00     0.012 C 
ATOM     20  C   UNL A   1      35.422  22.740  25.507  1.00  0.00     0.014 A 
ATOM     21  C   UNL A   1      36.512  22.717  23.460  1.00  0.00     0.022 A 
ATOM     22  C   UNL A   1      34.574  23.197  26.652  1.00  0.00     0.047 C 
ATOM     23  S   UNL A   1      36.488  21.424  25.678  1.00  0.00    -0.148 S 
ATOM     24  C   UNL A   1      37.137  21.679  24.118  1.00  0.00     0.065 A 
ENDBRANCH  12  16
ENDBRANCH   8   9
ENDBRANCH   6   8
ENDBRANCH   3   4
ENDBRANCH   2   3
ENDBRANCH   1   2
BRANCH   1  25
ATOM     25  C   UNL A   1      34.089  29.343  26.330  1.00  0.00     0.116 C 
BRANCH  25  26
ATOM     26  N   UNL A   1      33.960  30.600  27.051  1.00  0.00    -0.352 N 
ATOM     27  C   UNL A   1      34.732  31.108  28.067  1.00  0.00     0.251 C 
ATOM     28  H   UNL A   1      33.208  31.169  26.769  1.00  0.00     0.163 HD
ATOM     29  O   UNL A   1      34.357  32.115  28.668  1.00  0.00    -0.269 OA
BRANCH  27  30
ATOM     30  C   UNL A   1      35.994  30.443  28.456  1.00  0.00     0.039 A 
ATOM     31  C   UNL A   1      37.128  30.626  27.659  1.00  0.00     0.014 A 
ATOM     32  C   UNL A   1      36.065  29.637  29.596  1.00  0.00     0.014 A 
ATOM     33  C   UNL A   1      38.345  30.055  28.040  1.00  0.00     0.010 A 
ATOM     34  C   UNL A   1      37.294  29.133  30.014  1.00  0.00     0.010 A 
ATOM     35  C   UNL A   1      38.448  29.332  29.241  1.00  0.00    -0.014 A 
BRANCH  35  36
ATOM     36  C   UNL A   1      39.755  28.800  29.711  1.00  0.00     0.031 A 
ATOM     37  C   UNL A   1      40.507  29.488  30.820  1.00  0.00     0.074 A 
ATOM     38  C   UNL A   1      40.309  27.745  29.080  1.00  0.00     0.049 A 
ATOM     39  N   UNL A   1      41.679  29.197  31.324  1.00  0.00    -0.248 NA
ATOM     40  C   UNL A   1      39.872  30.669  31.426  1.00  0.00     0.031 C 
ATOM     41  C   UNL A   1      39.719  27.032  27.944  1.00  0.00     0.029 A 
ATOM     42  N   UNL A   1      41.504  27.100  29.288  1.00  0.00    -0.354 N 
ATOM     43  C   UNL A   1      41.939  30.177  32.274  1.00  0.00     0.074 A 
ATOM     44  C   UNL A   1      40.816  31.089  32.256  1.00  0.00     0.031 C 
ATOM     45  C   UNL A   1      40.547  26.047  27.563  1.00  0.00     0.029 A 
ATOM     46  C   UNL A   1      41.743  26.078  28.398  1.00  0.00     0.049 A 
ATOM     47  H   UNL A   1      42.131  27.347  30.006  1.00  0.00     0.167 HD
ATOM     48  C   UNL A   1      43.003  30.297  33.104  1.00  0.00     0.034 A 
ATOM     49  C   UNL A   1      42.808  25.265  28.261  1.00  0.00     0.034 A 
ATOM     50  C   UNL A   1      44.102  29.369  33.146  1.00  0.00     0.049 A 
ATOM     51  C   UNL A   1      43.966  25.403  29.213  1.00  0.00     0.074 A 
ATOM     52  C   UNL A   1      45.179  29.353  34.015  1.00  0.00     0.029 A 
ATOM     53  N   UNL A   1      44.275  28.305  32.276  1.00  0.00    -0.354 N 
ATOM     54  N   UNL A   1      44.118  26.240  30.210  1.00  0.00    -0.248 NA
ATOM     55  C   UNL A   1      45.084  24.464  29.041  1.00  0.00     0.031 C 
ATOM     56  C   UNL A   1      46.023  28.301  33.646  1.00  0.00     0.029 A 
ATOM     57  C   UNL A   1      45.450  27.636  32.573  1.00  0.00     0.049 A 
ATOM     58  H   UNL A   1      43.654  28.060  31.551  1.00  0.00     0.167 HD
ATOM     59  C   UNL A   1      45.327  25.903  30.809  1.00  0.00     0.074 A 
ATOM     60  C   UNL A   1      45.856  24.773  30.074  1.00  0.00     0.031 C 
ATOM     61  C   UNL A   1      45.946  26.483  31.866  1.00  0.00     0.034 A 
BRANCH  48  62
ATOM     62  C   UNL A   1      43.018  31.458  34.066  1.00  0.00     0.023 A 
ATOM     63  C   UNL A   1      43.641  32.667  33.696  1.00  0.00     0.012 A 
ATOM     64  C   UNL A   1      42.360  31.373  35.308  1.00  0.00     0.148 A 
ATOM     65  C   UNL A   1      43.644  33.760  34.562  1.00  0.00     0.002 A 
ATOM     66  C   UNL A   1      42.323  32.483  36.146  1.00  0.00     0.091 A 
ATOM     67  F   UNL A   1      41.787  30.210  35.652  1.00  0.00    -0.205 F 
ATOM     68  C   UNL A   1      42.976  33.671  35.780  1.00  0.00     0.022 A 
BRANCH  66  69
ATOM     69  S   UNL A   1      41.418  32.498  37.696  1.00  0.00     0.127 S 
ATOM     70  O   UNL A   1      42.192  31.551  38.498  1.00  0.00    -0.237 OA
ATOM     71  O   UNL A   1      41.546  33.895  38.113  1.00  0.00    -0.237 OA
ATOM     72  O   UNL A   1      40.060  32.081  37.375  1.00  0.00    -0.744 OA
ENDBRANCH  66  69
ENDBRANCH  48  62
BRANCH  49  73
ATOM     73  C   UNL A   1      42.808  24.204  27.214  1.00  0.00     0.023 A 
ATOM     74  C   UNL A   1      43.491  24.425  26.001  1.00  0.00     0.012 A 
ATOM     75  C   UNL A   1      42.149  22.975  27.416  1.00  0.00     0.148 A 
ATOM     76  C   UNL A   1      43.489  23.458  24.997  1.00  0.00     0.002 A 
ATOM     77  C   UNL A   1      42.200  21.993  26.435  1.00  0.00     0.091 A 
ATOM     78  F   UNL A   1      41.498  22.787  28.573  1.00  0.00    -0.205 F 
ATOM     79  C   UNL A   1      42.852  22.239  25.216  1.00  0.00     0.022 A 
BRANCH  77  80
ATOM     80  S   UNL A   1      41.522  20.348  26.681  1.00  0.00     0.127 S 
ATOM     81  O   UNL A   1      41.895  19.681  25.436  1.00  0.00    -0.237 OA
ATOM     82  O   UNL A   1      42.252  19.896  27.866  1.00  0.00    -0.237 OA
ATOM     83  O   UNL A   1      40.094  20.538  26.891  1.00  0.00    -0.744 OA
ENDBRANCH  77  80
ENDBRANCH  49  73
BRANCH  61  84
ATOM     84  C   UNL A   1      47.249  25.883  32.333  1.00  0.00     0.023 A 
ATOM     85  C   UNL A   1      48.465  26.302  31.759  1.00  0.00     0.012 A 
ATOM     86  C   UNL A   1      47.268  24.954  33.393  1.00  0.00     0.148 A 
ATOM     87  C   UNL A   1      49.678  25.780  32.208  1.00  0.00     0.002 A 
ATOM     88  C   UNL A   1      48.483  24.479  33.870  1.00  0.00     0.091 A 
ATOM     89  F   UNL A   1      46.099  24.555  33.914  1.00  0.00    -0.205 F 
ATOM     90  C   UNL A   1      49.688  24.879  33.270  1.00  0.00     0.022 A 
BRANCH  88  91
ATOM     91  S   UNL A   1      48.600  23.395  35.297  1.00  0.00     0.127 S 
ATOM     92  O   UNL A   1      47.863  22.218  34.839  1.00  0.00    -0.237 OA
ATOM     93  O   UNL A   1      50.044  23.200  35.420  1.00  0.00    -0.237 OA
ATOM     94  O   UNL A   1      47.990  24.119  36.404  1.00  0.00    -0.744 OA
ENDBRANCH  88  91
ENDBRANCH  61  84
ENDBRANCH  35  36
ENDBRANCH  27  30
ENDBRANCH  25  26
ENDBRANCH   1  25
TORSDOF 16
ENDMDL
MODEL 3
REMARK VINA RESULT:     -11.8      5.467      8.793
REMARK SMILES O=C(C[C@@H]1C[N@@H+]([C@H]2CCCc3sccc32)CCO1)NCCCCNC(=O)c1ccc(-c2c3nc(c(-c4cccc(S(=O)(=O)[O-])c4F)c4ccc([nH]4)c(-c4cccc(S(=O)(=O)[O-])c4F)c4nc(c(-c5cccc(S(=O)(=O)[O-])c5F)c5ccc2[nH]5)C=C4)C=C3)cc1
REMARK SMILES IDX 22 1 21 2 20 3 19 4 1 5 2 6 3 8 4 9 5 10 18 11 6 12 17 13
REMARK SMILES IDX 16 14 7 16 8 17 15 18 9 19 11 20 14 21 10 22 12 23 13 24
REMARK SMILES IDX 23 25 24 26 25 27 26 29 27 30 28 31 89 32 29 33 88 34 30 35
REMARK SMILES IDX 31 36 32 37 82 38 33 39 87 40 81 41 83 42 34 43 86 44 80 45
REMARK SMILES IDX 79 46 35 48 67 49 47 50 66 51 48 52 51 53 65 54 84 55 49 56
REMARK SMILES IDX 50 57 64 59 85 60 52 61 36 62 37 63 45 64 38 65 40 66 46 67
REMARK SMILES IDX 39 68 41 69 42 70 43 71 44 72 68 73 69 74 77 75 70 76 72 77
REMARK SMILES IDX 78 78 71 79 73 80 74 81 75 82 76 83 53 84 54 85 62 86 55 87
REMARK SMILES IDX 57 88 63 89 56 90 58 91 59 92 60 93 61 94
REMARK H PARENT 19 7 6 15 24 28 83 47 51 58
REMARK Flexibility Score: inf
ROOT
ATOM      1  C   UNL A   1      35.261  22.997  26.101  1.00  0.00     0.023 C 
ENDROOT
BRANCH   1   2
ATOM      2  C   UNL A   1      35.192  21.475  26.264  1.00  0.00     0.023 C 
BRANCH   2   3
ATOM      3  C   UNL A   1      34.862  20.702  24.989  1.00  0.00     0.116 C 
BRANCH   3   4
ATOM      4  N   UNL A   1      33.926  21.426  24.155  1.00  0.00    -0.356 N 
ATOM      5  O   UNL A   1      32.020  20.481  25.028  1.00  0.00    -0.275 OA
ATOM      6  C   UNL A   1      32.560  21.262  24.254  1.00  0.00     0.222 C 
ATOM      7  H   UNL A   1      34.279  22.061  23.490  1.00  0.00     0.163 HD
BRANCH   6   8
ATOM      8  C   UNL A   1      31.784  22.139  23.299  1.00  0.00     0.138 C 
BRANCH   8   9
ATOM      9  C   UNL A   1      31.589  23.589  23.753  1.00  0.00     0.182 C 
ATOM     10  C   UNL A   1      31.684  23.865  25.272  1.00  0.00     0.295 C 
ATOM     11  O   UNL A   1      30.317  24.059  23.267  1.00  0.00    -0.366 OA
ATOM     12  N   UNL A   1      31.512  25.281  25.646  1.00  0.00    -0.325 N 
ATOM     13  C   UNL A   1      30.224  25.477  23.455  1.00  0.00     0.222 C 
ATOM     14  C   UNL A   1      30.376  25.881  24.935  1.00  0.00     0.291 C 
ATOM     15  H   UNL A   1      31.213  25.334  26.620  1.00  0.00     0.348 HD
BRANCH  12  16
ATOM     16  C   UNL A   1      32.759  26.042  25.810  1.00  0.00     0.216 C 
ATOM     17  C   UNL A   1      33.850  25.945  24.717  1.00  0.00     0.071 C 
ATOM     18  C   UNL A   1      32.442  27.499  26.089  1.00  0.00     0.023 A 
ATOM     19  C   UNL A   1      33.627  26.876  23.518  1.00  0.00     0.012 C 
ATOM     20  C   UNL A   1      32.787  28.514  25.212  1.00  0.00     0.014 A 
ATOM     21  C   UNL A   1      31.862  28.033  27.284  1.00  0.00     0.022 A 
ATOM     22  C   UNL A   1      33.525  28.350  23.921  1.00  0.00     0.047 C 
ATOM     23  S   UNL A   1      32.366  30.060  25.791  1.00  0.00    -0.148 S 
ATOM     24  C   UNL A   1      31.784  29.409  27.260  1.00  0.00     0.065 A 
ENDBRANCH  12  16
ENDBRANCH   8   9
ENDBRANCH   6   8
ENDBRANCH   3   4
ENDBRANCH   2   3
ENDBRANCH   1   2
BRANCH   1  25
ATOM     25  C   UNL A   1      36.666  23.593  26.095  1.00  0.00     0.116 C 
BRANCH  25  26
ATOM     26  N   UNL A   1      37.705  22.574  26.121  1.00  0.00    -0.352 N 
ATOM     27  C   UNL A   1      39.051  22.704  26.363  1.00  0.00     0.251 C 
ATOM     28  H   UNL A   1      37.398  21.658  25.938  1.00  0.00     0.163 HD
ATOM     29  O   UNL A   1      39.798  21.745  26.168  1.00  0.00    -0.269 OA
BRANCH  27  30
ATOM     30  C   UNL A   1      39.609  23.991  26.832  1.00  0.00     0.039 A 
ATOM     31  C   UNL A   1      40.063  24.916  25.887  1.00  0.00     0.014 A 
ATOM     32  C   UNL A   1      39.695  24.287  28.195  1.00  0.00     0.014 A 
ATOM     33  C   UNL A   1      40.541  26.160  26.305  1.00  0.00     0.010 A 
ATOM     34  C   UNL A   1      40.099  25.556  28.605  1.00  0.00     0.010 A 
ATOM     35  C   UNL A   1      40.529  26.506  27.667  1.00  0.00    -0.014 A 
BRANCH  35  36
ATOM     36  C   UNL A   1      40.942  27.861  28.122  1.00  0.00     0.031 A 
ATOM     37  C   UNL A   1      42.396  28.254  28.135  1.00  0.00     0.074 A 
ATOM     38  C   UNL A   1      40.013  28.712  28.605  1.00  0.00     0.049 A 
ATOM     39  N   UNL A   1      42.943  29.369  28.544  1.00  0.00    -0.248 NA
ATOM     40  C   UNL A   1      43.361  27.256  27.648  1.00  0.00     0.031 C 
ATOM     41  C   UNL A   1      38.581  28.428  28.715  1.00  0.00     0.029 A 
ATOM     42  N   UNL A   1      40.138  29.980  29.117  1.00  0.00    -0.354 N 
ATOM     43  C   UNL A   1      44.315  29.195  28.403  1.00  0.00     0.074 A 
ATOM     44  C   UNL A   1      44.518  27.854  27.897  1.00  0.00     0.031 C 
ATOM     45  C   UNL A   1      37.960  29.492  29.250  1.00  0.00     0.029 A 
ATOM     46  C   UNL A   1      38.951  30.518  29.558  1.00  0.00     0.049 A 
ATOM     47  H   UNL A   1      40.997  30.459  29.166  1.00  0.00     0.167 HD
ATOM     48  C   UNL A   1      45.314  30.075  28.647  1.00  0.00     0.034 A 
ATOM     49  C   UNL A   1      38.688  31.698  30.152  1.00  0.00     0.034 A 
ATOM     50  C   UNL A   1      45.109  31.420  29.114  1.00  0.00     0.049 A 
ATOM     51  C   UNL A   1      39.814  32.668  30.389  1.00  0.00     0.074 A 
ATOM     52  C   UNL A   1      46.050  32.417  29.302  1.00  0.00     0.029 A 
ATOM     53  N   UNL A   1      43.884  31.953  29.484  1.00  0.00    -0.354 N 
ATOM     54  N   UNL A   1      41.086  32.542  30.098  1.00  0.00    -0.248 NA
ATOM     55  C   UNL A   1      39.463  33.956  31.005  1.00  0.00     0.031 C 
ATOM     56  C   UNL A   1      45.399  33.541  29.821  1.00  0.00     0.029 A 
ATOM     57  C   UNL A   1      44.046  33.258  29.916  1.00  0.00     0.049 A 
ATOM     58  H   UNL A   1      43.024  31.473  29.444  1.00  0.00     0.167 HD
ATOM     59  C   UNL A   1      41.679  33.747  30.457  1.00  0.00     0.074 A 
ATOM     60  C   UNL A   1      40.624  34.597  30.970  1.00  0.00     0.031 C 
ATOM     61  C   UNL A   1      42.982  34.113  30.379  1.00  0.00     0.034 A 
BRANCH  48  62
ATOM     62  C   UNL A   1      46.729  29.626  28.379  1.00  0.00     0.023 A 
ATOM     63  C   UNL A   1      47.324  29.891  27.130  1.00  0.00     0.012 A 
ATOM     64  C   UNL A   1      47.489  29.001  29.387  1.00  0.00     0.148 A 
ATOM     65  C   UNL A   1      48.640  29.506  26.872  1.00  0.00     0.002 A 
ATOM     66  C   UNL A   1      48.816  28.664  29.140  1.00  0.00     0.091 A 
ATOM     67  F   UNL A   1      46.902  28.740  30.564  1.00  0.00    -0.205 F 
ATOM     68  C   UNL A   1      49.387  28.904  27.880  1.00  0.00     0.022 A 
BRANCH  66  69
ATOM     69  S   UNL A   1      49.888  27.963  30.398  1.00  0.00     0.127 S 
ATOM     70  O   UNL A   1      49.249  26.671  30.643  1.00  0.00    -0.237 OA
ATOM     71  O   UNL A   1      51.171  27.885  29.699  1.00  0.00    -0.237 OA
ATOM     72  O   UNL A   1      49.861  28.896  31.517  1.00  0.00    -0.744 OA
ENDBRANCH  66  69
ENDBRANCH  48  62
BRANCH  49  73
ATOM     73  C   UNL A   1      37.287  32.056  30.514  1.00  0.00     0.023 A 
ATOM     74  C   UNL A   1      36.808  31.762  31.806  1.00  0.00     0.012 A 
ATOM     75  C   UNL A   1      36.433  32.697  29.595  1.00  0.00     0.148 A 
ATOM     76  C   UNL A   1      35.495  32.068  32.165  1.00  0.00     0.002 A 
ATOM     77  C   UNL A   1      35.145  33.051  29.978  1.00  0.00     0.091 A 
ATOM     78  F   UNL A   1      36.905  32.960  28.368  1.00  0.00    -0.205 F 
ATOM     79  C   UNL A   1      34.667  32.720  31.255  1.00  0.00     0.022 A 
BRANCH  77  80
ATOM     80  S   UNL A   1      34.054  34.008  28.920  1.00  0.00     0.127 S 
ATOM     81  O   UNL A   1      34.966  35.016  28.383  1.00  0.00    -0.237 OA
ATOM     82  O   UNL A   1      33.611  33.000  27.955  1.00  0.00    -0.237 OA
ATOM     83  O   UNL A   1      33.001  34.511  29.790  1.00  0.00    -0.744 OA
ENDBRANCH  77  80
ENDBRANCH  49  73
BRANCH  61  84
ATOM     84  C   UNL A   1      43.347  35.510  30.813  1.00  0.00     0.023 A 
ATOM     85  C   UNL A   1      43.755  35.755  32.139  1.00  0.00     0.012 A 
ATOM     86  C   UNL A   1      43.352  36.568  29.882  1.00  0.00     0.148 A 
ATOM     87  C   UNL A   1      44.128  37.037  32.540  1.00  0.00     0.002 A 
ATOM     88  C   UNL A   1      43.776  37.831  30.275  1.00  0.00     0.091 A 
ATOM     89  F   UNL A   1      42.944  36.319  28.629  1.00  0.00    -0.205 F 
ATOM     90  C   UNL A   1      44.151  38.071  31.608  1.00  0.00     0.022 A 
BRANCH  88  91
ATOM     91  S   UNL A   1      43.934  39.198  29.121  1.00  0.00     0.127 S 
ATOM     92  O   UNL A   1      44.797  38.620  28.091  1.00  0.00    -0.237 OA
ATOM     93  O   UNL A   1      42.549  39.413  28.705  1.00  0.00    -0.237 OA
ATOM     94  O   UNL A   1      44.517  40.298  29.877  1.00  0.00    -0.744 OA
ENDBRANCH  88  91
ENDBRANCH  61  84
ENDBRANCH  35  36
ENDBRANCH  27  30
ENDBRANCH  25  26
ENDBRANCH   1  25
TORSDOF 16
ENDMDL
