MODEL 1
REMARK VINA RESULT:     -12.7      0.000      0.000
REMARK SMILES Cn1c(-c2ccccc2)c(C(=O)NCCCCNC(=O)c2ccc(-c3c4nc(c(-c5cccc(S(=O)(=O)[O-])c5F)c5ccc([nH]5)c(-c5cccc(S(=O)(=O)[O-])c5F)c5nc(c(-c6cccc(S(=O)(=O)[O-])c6F)c6ccc3[nH]6)C=C5)C=C4)cc2)c2ccccc21
REMARK SMILES IDX 16 1 15 2 14 3 13 4 11 5 12 6 10 8 1 9 2 10 3 11 89 12 84 13
REMARK SMILES IDX 88 14 85 15 87 16 86 17 4 18 5 19 9 20 6 21 8 22 7 23 17 24
REMARK SMILES IDX 18 25 19 26 20 28 21 29 22 30 83 31 23 32 82 33 24 34 25 35
REMARK SMILES IDX 26 36 76 37 27 38 81 39 75 40 77 41 28 42 80 43 74 44 73 45
REMARK SMILES IDX 29 47 61 48 41 49 60 50 42 51 45 52 59 53 78 54 43 55 44 56
REMARK SMILES IDX 58 58 79 59 46 60 30 61 31 62 39 63 32 64 34 65 40 66 33 67
REMARK SMILES IDX 35 68 36 69 37 70 38 71 62 72 63 73 71 74 64 75 66 76 72 77
REMARK SMILES IDX 65 78 67 79 68 80 69 81 70 82 47 83 48 84 56 85 49 86 51 87
REMARK SMILES IDX 57 88 50 89 52 90 53 91 54 92 55 93
REMARK H PARENT 13 7 18 27 77 46 45 57
REMARK Flexibility Score: inf
ROOT
ATOM      1  C   UNL A   1      35.535  21.100  25.184  1.00  0.00     0.023 C 
ENDROOT
BRANCH   1   2
ATOM      2  C   UNL A   1      34.714  21.334  26.450  1.00  0.00     0.023 C 
BRANCH   2   3
ATOM      3  C   UNL A   1      34.536  22.774  26.909  1.00  0.00     0.116 C 
BRANCH   3   4
ATOM      4  N   UNL A   1      33.222  23.161  27.346  1.00  0.00    -0.352 N 
ATOM      5  C   UNL A   1      32.270  23.924  26.708  1.00  0.00     0.254 C 
ATOM      6  O   UNL A   1      31.196  24.046  27.305  1.00  0.00    -0.269 OA
ATOM      7  H   UNL A   1      32.966  22.833  28.239  1.00  0.00     0.163 HD
BRANCH   5   8
ATOM      8  C   UNL A   1      32.498  24.629  25.429  1.00  0.00     0.073 A 
ATOM      9  C   UNL A   1      33.224  27.292  23.022  1.00  0.00     0.150 C 
ATOM     10  N   UNL A   1      32.926  26.081  23.765  1.00  0.00    -0.343 N 
ATOM     11  C   UNL A   1      32.718  25.983  25.132  1.00  0.00     0.062 A 
ATOM     12  C   UNL A   1      32.852  24.847  23.159  1.00  0.00     0.049 A 
ATOM     13  C   UNL A   1      32.608  23.919  24.167  1.00  0.00     0.013 A 
ATOM     14  C   UNL A   1      32.995  24.476  21.809  1.00  0.00     0.027 A 
ATOM     15  C   UNL A   1      32.513  22.554  23.798  1.00  0.00     0.011 A 
ATOM     16  C   UNL A   1      32.896  23.125  21.477  1.00  0.00     0.002 A 
ATOM     17  C   UNL A   1      32.661  22.172  22.459  1.00  0.00     0.001 A 
BRANCH  11  18
ATOM     18  C   UNL A   1      32.782  27.169  25.991  1.00  0.00    -0.001 A 
ATOM     19  C   UNL A   1      31.617  27.781  26.461  1.00  0.00     0.010 A 
ATOM     20  C   UNL A   1      34.032  27.730  26.310  1.00  0.00     0.010 A 
ATOM     21  C   UNL A   1      31.700  28.965  27.200  1.00  0.00     0.001 A 
ATOM     22  C   UNL A   1      34.111  28.917  27.038  1.00  0.00     0.001 A 
ATOM     23  C   UNL A   1      32.943  29.538  27.477  1.00  0.00     0.000 A 
ENDBRANCH  11  18
ENDBRANCH   5   8
ENDBRANCH   3   4
ENDBRANCH   2   3
ENDBRANCH   1   2
BRANCH   1  24
ATOM     24  C   UNL A   1      36.925  21.726  25.116  1.00  0.00     0.116 C 
BRANCH  24  25
ATOM     25  N   UNL A   1      38.031  20.800  25.333  1.00  0.00    -0.352 N 
ATOM     26  C   UNL A   1      39.222  20.977  26.008  1.00  0.00     0.251 C 
ATOM     27  H   UNL A   1      37.908  19.908  24.936  1.00  0.00     0.163 HD
ATOM     28  O   UNL A   1      40.033  20.059  26.074  1.00  0.00    -0.269 OA
BRANCH  26  29
ATOM     29  C   UNL A   1      39.545  22.293  26.609  1.00  0.00     0.039 A 
ATOM     30  C   UNL A   1      40.585  22.376  27.539  1.00  0.00     0.014 A 
ATOM     31  C   UNL A   1      38.876  23.450  26.208  1.00  0.00     0.014 A 
ATOM     32  C   UNL A   1      41.043  23.629  27.960  1.00  0.00     0.010 A 
ATOM     33  C   UNL A   1      39.389  24.696  26.557  1.00  0.00     0.010 A 
ATOM     34  C   UNL A   1      40.496  24.802  27.415  1.00  0.00    -0.014 A 
BRANCH  34  35
ATOM     35  C   UNL A   1      41.102  26.140  27.661  1.00  0.00     0.031 A 
ATOM     36  C   UNL A   1      42.513  26.432  27.227  1.00  0.00     0.074 A 
ATOM     37  C   UNL A   1      40.430  27.047  28.401  1.00  0.00     0.049 A 
ATOM     38  N   UNL A   1      43.246  27.490  27.462  1.00  0.00    -0.248 NA
ATOM     39  C   UNL A   1      43.205  25.383  26.460  1.00  0.00     0.031 C 
ATOM     40  C   UNL A   1      39.094  26.856  28.972  1.00  0.00     0.029 A 
ATOM     41  N   UNL A   1      40.794  28.301  28.833  1.00  0.00    -0.354 N 
ATOM     42  C   UNL A   1      44.496  27.214  26.920  1.00  0.00     0.074 A 
ATOM     43  C   UNL A   1      44.430  25.879  26.367  1.00  0.00     0.031 C 
ATOM     44  C   UNL A   1      38.751  27.948  29.672  1.00  0.00     0.029 A 
ATOM     45  C   UNL A   1      39.848  28.908  29.628  1.00  0.00     0.049 A 
ATOM     46  H   UNL A   1      41.650  28.725  28.596  1.00  0.00     0.167 HD
ATOM     47  C   UNL A   1      45.590  28.011  26.856  1.00  0.00     0.034 A 
ATOM     48  C   UNL A   1      39.862  30.101  30.258  1.00  0.00     0.034 A 
ATOM     49  C   UNL A   1      45.632  29.365  27.338  1.00  0.00     0.049 A 
ATOM     50  C   UNL A   1      41.063  30.995  30.108  1.00  0.00     0.074 A 
ATOM     51  C   UNL A   1      46.652  30.291  27.210  1.00  0.00     0.029 A 
ATOM     52  N   UNL A   1      44.613  29.987  28.039  1.00  0.00    -0.354 N 
ATOM     53  N   UNL A   1      42.168  30.785  29.435  1.00  0.00    -0.248 NA
ATOM     54  C   UNL A   1      41.007  32.303  30.777  1.00  0.00     0.031 C 
ATOM     55  C   UNL A   1      46.249  31.474  27.840  1.00  0.00     0.029 A 
ATOM     56  C   UNL A   1      44.978  31.284  28.356  1.00  0.00     0.049 A 
ATOM     57  H   UNL A   1      43.754  29.568  28.278  1.00  0.00     0.167 HD
ATOM     58  C   UNL A   1      42.926  31.942  29.577  1.00  0.00     0.074 A 
ATOM     59  C   UNL A   1      42.143  32.859  30.378  1.00  0.00     0.031 C 
ATOM     60  C   UNL A   1      44.167  32.210  29.104  1.00  0.00     0.034 A 
BRANCH  47  61
ATOM     61  C   UNL A   1      46.812  27.462  26.168  1.00  0.00     0.023 A 
ATOM     62  C   UNL A   1      46.964  27.656  24.779  1.00  0.00     0.012 A 
ATOM     63  C   UNL A   1      47.826  26.805  26.889  1.00  0.00     0.148 A 
ATOM     64  C   UNL A   1      48.089  27.174  24.112  1.00  0.00     0.002 A 
ATOM     65  C   UNL A   1      48.965  26.362  26.224  1.00  0.00     0.091 A 
ATOM     66  F   UNL A   1      47.656  26.611  28.205  1.00  0.00    -0.205 F 
ATOM     67  C   UNL A   1      49.092  26.535  24.836  1.00  0.00     0.022 A 
BRANCH  65  68
ATOM     68  S   UNL A   1      50.345  25.591  27.078  1.00  0.00     0.127 S 
ATOM     69  O   UNL A   1      49.735  24.361  27.576  1.00  0.00    -0.237 OA
ATOM     70  O   UNL A   1      51.311  25.398  25.995  1.00  0.00    -0.237 OA
ATOM     71  O   UNL A   1      50.764  26.544  28.096  1.00  0.00    -0.744 OA
ENDBRANCH  65  68
ENDBRANCH  47  61
BRANCH  48  72
ATOM     72  C   UNL A   1      38.663  30.555  31.020  1.00  0.00     0.023 A 
ATOM     73  C   UNL A   1      38.604  30.314  32.407  1.00  0.00     0.012 A 
ATOM     74  C   UNL A   1      37.605  31.247  30.398  1.00  0.00     0.148 A 
ATOM     75  C   UNL A   1      37.503  30.727  33.156  1.00  0.00     0.002 A 
ATOM     76  C   UNL A   1      36.533  31.701  31.160  1.00  0.00     0.091 A 
ATOM     77  F   UNL A   1      37.671  31.454  29.075  1.00  0.00    -0.205 F 
ATOM     78  C   UNL A   1      36.474  31.430  32.536  1.00  0.00     0.022 A 
BRANCH  76  79
ATOM     79  S   UNL A   1      35.231  32.727  30.466  1.00  0.00     0.127 S 
ATOM     80  O   UNL A   1      34.334  32.883  31.607  1.00  0.00    -0.237 OA
ATOM     81  O   UNL A   1      35.962  33.936  30.086  1.00  0.00    -0.237 OA
ATOM     82  O   UNL A   1      34.704  31.971  29.338  1.00  0.00    -0.744 OA
ENDBRANCH  76  79
ENDBRANCH  48  72
BRANCH  60  83
ATOM     83  C   UNL A   1      44.762  33.555  29.422  1.00  0.00     0.023 A 
ATOM     84  C   UNL A   1      45.490  33.725  30.616  1.00  0.00     0.012 A 
ATOM     85  C   UNL A   1      44.679  34.620  28.504  1.00  0.00     0.148 A 
ATOM     86  C   UNL A   1      46.109  34.941  30.902  1.00  0.00     0.002 A 
ATOM     87  C   UNL A   1      45.332  35.817  28.776  1.00  0.00     0.091 A 
ATOM     88  F   UNL A   1      43.963  34.445  27.383  1.00  0.00    -0.205 F 
ATOM     89  C   UNL A   1      46.041  35.982  29.977  1.00  0.00     0.022 A 
BRANCH  87  90
ATOM     90  S   UNL A   1      45.374  37.178  27.603  1.00  0.00     0.127 S 
ATOM     91  O   UNL A   1      45.929  36.532  26.416  1.00  0.00    -0.237 OA
ATOM     92  O   UNL A   1      43.960  37.540  27.495  1.00  0.00    -0.237 OA
ATOM     93  O   UNL A   1      46.212  38.202  28.211  1.00  0.00    -0.744 OA
ENDBRANCH  87  90
ENDBRANCH  60  83
ENDBRANCH  34  35
ENDBRANCH  26  29
ENDBRANCH  24  25
ENDBRANCH   1  24
TORSDOF 15
ENDMDL
MODEL 2
REMARK VINA RESULT:     -12.6      0.751      7.837
REMARK SMILES Cn1c(-c2ccccc2)c(C(=O)NCCCCNC(=O)c2ccc(-c3c4nc(c(-c5cccc(S(=O)(=O)[O-])c5F)c5ccc([nH]5)c(-c5cccc(S(=O)(=O)[O-])c5F)c5nc(c(-c6cccc(S(=O)(=O)[O-])c6F)c6ccc3[nH]6)C=C5)C=C4)cc2)c2ccccc21
REMARK SMILES IDX 16 1 15 2 14 3 13 4 11 5 12 6 10 8 1 9 2 10 3 11 89 12 84 13
REMARK SMILES IDX 88 14 85 15 87 16 86 17 4 18 5 19 9 20 6 21 8 22 7 23 17 24
REMARK SMILES IDX 18 25 19 26 20 28 21 29 22 30 83 31 23 32 82 33 24 34 25 35
REMARK SMILES IDX 26 36 76 37 27 38 81 39 75 40 77 41 28 42 80 43 74 44 73 45
REMARK SMILES IDX 29 47 61 48 41 49 60 50 42 51 45 52 59 53 78 54 43 55 44 56
REMARK SMILES IDX 58 58 79 59 46 60 30 61 31 62 39 63 32 64 34 65 40 66 33 67
REMARK SMILES IDX 35 68 36 69 37 70 38 71 62 72 63 73 71 74 64 75 66 76 72 77
REMARK SMILES IDX 65 78 67 79 68 80 69 81 70 82 47 83 48 84 56 85 49 86 51 87
REMARK SMILES IDX 57 88 50 89 52 90 53 91 54 92 55 93
REMARK H PARENT 13 7 18 27 77 46 45 57
REMARK Flexibility Score: inf
ROOT
ATOM      1  C   UNL A   1      35.749  21.669  25.131  1.00  0.00     0.023 C 
ENDROOT
BRANCH   1   2
ATOM      2  C   UNL A   1      35.273  22.218  26.474  1.00  0.00     0.023 C 
BRANCH   2   3
ATOM      3  C   UNL A   1      34.248  21.394  27.239  1.00  0.00     0.116 C 
BRANCH   3   4
ATOM      4  N   UNL A   1      33.087  22.089  27.726  1.00  0.00    -0.352 N 
ATOM      5  C   UNL A   1      32.130  22.799  27.036  1.00  0.00     0.254 C 
ATOM      6  O   UNL A   1      31.201  23.244  27.717  1.00  0.00    -0.269 OA
ATOM      7  H   UNL A   1      32.958  22.053  28.702  1.00  0.00     0.163 HD
BRANCH   5   8
ATOM      8  C   UNL A   1      32.205  23.096  25.590  1.00  0.00     0.073 A 
ATOM      9  C   UNL A   1      32.607  24.930  22.446  1.00  0.00     0.150 C 
ATOM     10  N   UNL A   1      32.420  23.993  23.538  1.00  0.00    -0.343 N 
ATOM     11  C   UNL A   1      32.358  24.302  24.888  1.00  0.00     0.062 A 
ATOM     12  C   UNL A   1      32.315  22.635  23.331  1.00  0.00     0.049 A 
ATOM     13  C   UNL A   1      32.201  22.046  24.587  1.00  0.00     0.013 A 
ATOM     14  C   UNL A   1      32.326  21.884  22.142  1.00  0.00     0.027 A 
ATOM     15  C   UNL A   1      32.103  20.633  24.646  1.00  0.00     0.011 A 
ATOM     16  C   UNL A   1      32.228  20.495  22.232  1.00  0.00     0.002 A 
ATOM     17  C   UNL A   1      32.120  19.874  23.470  1.00  0.00     0.001 A 
BRANCH  11  18
ATOM     18  C   UNL A   1      32.481  25.687  25.351  1.00  0.00    -0.001 A 
ATOM     19  C   UNL A   1      33.736  26.262  25.574  1.00  0.00     0.010 A 
ATOM     20  C   UNL A   1      31.322  26.437  25.621  1.00  0.00     0.010 A 
ATOM     21  C   UNL A   1      33.827  27.552  26.105  1.00  0.00     0.001 A 
ATOM     22  C   UNL A   1      31.417  27.719  26.161  1.00  0.00     0.001 A 
ATOM     23  C   UNL A   1      32.671  28.273  26.410  1.00  0.00     0.000 A 
ENDBRANCH  11  18
ENDBRANCH   5   8
ENDBRANCH   3   4
ENDBRANCH   2   3
ENDBRANCH   1   2
BRANCH   1  24
ATOM     24  C   UNL A   1      37.201  21.923  24.736  1.00  0.00     0.116 C 
BRANCH  24  25
ATOM     25  N   UNL A   1      38.136  20.864  25.100  1.00  0.00    -0.352 N 
ATOM     26  C   UNL A   1      39.226  20.890  25.947  1.00  0.00     0.251 C 
ATOM     27  H   UNL A   1      37.961  19.993  24.676  1.00  0.00     0.163 HD
ATOM     28  O   UNL A   1      39.894  19.876  26.118  1.00  0.00    -0.269 OA
BRANCH  26  29
ATOM     29  C   UNL A   1      39.620  22.156  26.608  1.00  0.00     0.039 A 
ATOM     30  C   UNL A   1      40.643  22.132  27.562  1.00  0.00     0.014 A 
ATOM     31  C   UNL A   1      39.037  23.370  26.244  1.00  0.00     0.014 A 
ATOM     32  C   UNL A   1      41.172  23.334  28.043  1.00  0.00     0.010 A 
ATOM     33  C   UNL A   1      39.623  24.564  26.655  1.00  0.00     0.010 A 
ATOM     34  C   UNL A   1      40.715  24.562  27.538  1.00  0.00    -0.014 A 
BRANCH  34  35
ATOM     35  C   UNL A   1      41.402  25.846  27.851  1.00  0.00     0.031 A 
ATOM     36  C   UNL A   1      40.683  26.934  28.603  1.00  0.00     0.074 A 
ATOM     37  C   UNL A   1      42.626  26.087  27.337  1.00  0.00     0.049 A 
ATOM     38  N   UNL A   1      41.074  28.156  28.859  1.00  0.00    -0.248 NA
ATOM     39  C   UNL A   1      39.334  26.620  29.100  1.00  0.00     0.031 C 
ATOM     40  C   UNL A   1      43.395  25.158  26.504  1.00  0.00     0.029 A 
ATOM     41  N   UNL A   1      43.426  27.202  27.406  1.00  0.00    -0.354 N 
ATOM     42  C   UNL A   1      40.004  28.772  29.498  1.00  0.00     0.074 A 
ATOM     43  C   UNL A   1      38.938  27.795  29.567  1.00  0.00     0.031 C 
ATOM     44  C   UNL A   1      44.551  25.737  26.145  1.00  0.00     0.029 A 
ATOM     45  C   UNL A   1      44.599  27.087  26.694  1.00  0.00     0.049 A 
ATOM     46  H   UNL A   1      43.184  28.008  27.917  1.00  0.00     0.167 HD
ATOM     47  C   UNL A   1      39.925  30.022  30.012  1.00  0.00     0.034 A 
ATOM     48  C   UNL A   1      45.599  27.971  26.498  1.00  0.00     0.034 A 
ATOM     49  C   UNL A   1      41.010  30.965  30.010  1.00  0.00     0.049 A 
ATOM     50  C   UNL A   1      45.517  29.328  27.142  1.00  0.00     0.074 A 
ATOM     51  C   UNL A   1      41.068  32.210  30.613  1.00  0.00     0.029 A 
ATOM     52  N   UNL A   1      42.226  30.771  29.377  1.00  0.00    -0.354 N 
ATOM     53  N   UNL A   1      44.568  29.825  27.898  1.00  0.00    -0.248 NA
ATOM     54  C   UNL A   1      46.655  30.235  26.934  1.00  0.00     0.031 C 
ATOM     55  C   UNL A   1      42.321  32.771  30.338  1.00  0.00     0.029 A 
ATOM     56  C   UNL A   1      43.043  31.873  29.568  1.00  0.00     0.049 A 
ATOM     57  H   UNL A   1      42.475  29.967  28.865  1.00  0.00     0.167 HD
ATOM     58  C   UNL A   1      45.005  31.089  28.277  1.00  0.00     0.074 A 
ATOM     59  C   UNL A   1      46.316  31.271  27.689  1.00  0.00     0.031 C 
ATOM     60  C   UNL A   1      44.369  32.021  29.027  1.00  0.00     0.034 A 
BRANCH  47  61
ATOM     61  C   UNL A   1      38.642  30.415  30.694  1.00  0.00     0.023 A 
ATOM     62  C   UNL A   1      38.452  30.077  32.050  1.00  0.00     0.012 A 
ATOM     63  C   UNL A   1      37.651  31.155  30.021  1.00  0.00     0.148 A 
ATOM     64  C   UNL A   1      37.282  30.438  32.716  1.00  0.00     0.002 A 
ATOM     65  C   UNL A   1      36.504  31.546  30.703  1.00  0.00     0.091 A 
ATOM     66  F   UNL A   1      37.839  31.450  28.727  1.00  0.00    -0.205 F 
ATOM     67  C   UNL A   1      36.313  31.179  32.046  1.00  0.00     0.022 A 
BRANCH  65  68
ATOM     68  S   UNL A   1      35.230  32.564  29.948  1.00  0.00     0.127 S 
ATOM     69  O   UNL A   1      35.997  33.734  29.527  1.00  0.00    -0.237 OA
ATOM     70  O   UNL A   1      34.763  31.714  28.852  1.00  0.00    -0.237 OA
ATOM     71  O   UNL A   1      34.242  32.801  30.991  1.00  0.00    -0.744 OA
ENDBRANCH  65  68
ENDBRANCH  47  61
BRANCH  48  72
ATOM     72  C   UNL A   1      46.807  27.568  25.721  1.00  0.00     0.023 A 
ATOM     73  C   UNL A   1      46.838  27.810  24.333  1.00  0.00     0.012 A 
ATOM     74  C   UNL A   1      47.929  26.985  26.341  1.00  0.00     0.148 A 
ATOM     75  C   UNL A   1      47.951  27.452  23.572  1.00  0.00     0.002 A 
ATOM     76  C   UNL A   1      49.056  26.677  25.584  1.00  0.00     0.091 A 
ATOM     77  F   UNL A   1      47.876  26.748  27.659  1.00  0.00    -0.205 F 
ATOM     78  C   UNL A   1      49.063  26.897  24.199  1.00  0.00     0.022 A 
BRANCH  76  79
ATOM     79  S   UNL A   1      50.578  26.082  26.331  1.00  0.00     0.127 S 
ATOM     80  O   UNL A   1      51.443  25.929  25.165  1.00  0.00    -0.237 OA
ATOM     81  O   UNL A   1      50.934  27.186  27.223  1.00  0.00    -0.237 OA
ATOM     82  O   UNL A   1      50.214  24.852  27.023  1.00  0.00    -0.744 OA
ENDBRANCH  76  79
ENDBRANCH  48  72
BRANCH  60  83
ATOM     83  C   UNL A   1      45.079  33.325  29.274  1.00  0.00     0.023 A 
ATOM     84  C   UNL A   1      45.897  33.462  30.412  1.00  0.00     0.012 A 
ATOM     85  C   UNL A   1      45.010  34.376  28.340  1.00  0.00     0.148 A 
ATOM     86  C   UNL A   1      46.619  34.634  30.629  1.00  0.00     0.002 A 
ATOM     87  C   UNL A   1      45.765  35.527  28.540  1.00  0.00     0.091 A 
ATOM     88  F   UNL A   1      44.209  34.235  27.274  1.00  0.00    -0.205 F 
ATOM     89  C   UNL A   1      46.564  35.660  29.687  1.00  0.00     0.022 A 
BRANCH  87  90
ATOM     90  S   UNL A   1      45.824  36.860  27.337  1.00  0.00     0.127 S 
ATOM     91  O   UNL A   1      46.704  37.820  27.999  1.00  0.00    -0.237 OA
ATOM     92  O   UNL A   1      46.409  36.201  26.168  1.00  0.00    -0.237 OA
ATOM     93  O   UNL A   1      44.445  37.293  27.155  1.00  0.00    -0.744 OA
ENDBRANCH  87  90
ENDBRANCH  60  83
ENDBRANCH  34  35
ENDBRANCH  26  29
ENDBRANCH  24  25
ENDBRANCH   1  24
TORSDOF 15
ENDMDL
MODEL 3
REMARK VINA RESULT:     -12.6      5.543      8.739
REMARK SMILES Cn1c(-c2ccccc2)c(C(=O)NCCCCNC(=O)c2ccc(-c3c4nc(c(-c5cccc(S(=O)(=O)[O-])c5F)c5ccc([nH]5)c(-c5cccc(S(=O)(=O)[O-])c5F)c5nc(c(-c6cccc(S(=O)(=O)[O-])c6F)c6ccc3[nH]6)C=C5)C=C4)cc2)c2ccccc21
REMARK SMILES IDX 16 1 15 2 14 3 13 4 11 5 12 6 10 8 1 9 2 10 3 11 89 12 84 13
REMARK SMILES IDX 88 14 85 15 87 16 86 17 4 18 5 19 9 20 6 21 8 22 7 23 17 24
REMARK SMILES IDX 18 25 19 26 20 28 21 29 22 30 83 31 23 32 82 33 24 34 25 35
REMARK SMILES IDX 26 36 76 37 27 38 81 39 75 40 77 41 28 42 80 43 74 44 73 45
REMARK SMILES IDX 29 47 61 48 41 49 60 50 42 51 45 52 59 53 78 54 43 55 44 56
REMARK SMILES IDX 58 58 79 59 46 60 30 61 31 62 39 63 32 64 34 65 40 66 33 67
REMARK SMILES IDX 35 68 36 69 37 70 38 71 62 72 63 73 71 74 64 75 66 76 72 77
REMARK SMILES IDX 65 78 67 79 68 80 69 81 70 82 47 83 48 84 56 85 49 86 51 87
REMARK SMILES IDX 57 88 50 89 52 90 53 91 54 92 55 93
REMARK H PARENT 13 7 18 27 77 46 45 57
REMARK Flexibility Score: inf
ROOT
ATOM      1  C   UNL A   1      32.290  30.644  26.970  1.00  0.00     0.023 C 
ENDROOT
BRANCH   1   2
ATOM      2  C   UNL A   1      32.443  29.909  25.641  1.00  0.00     0.023 C 
BRANCH   2   3
ATOM      3  C   UNL A   1      33.770  29.213  25.379  1.00  0.00     0.116 C 
BRANCH   3   4
ATOM      4  N   UNL A   1      34.136  29.003  24.005  1.00  0.00    -0.352 N 
ATOM      5  C   UNL A   1      33.612  28.131  23.076  1.00  0.00     0.254 C 
ATOM      6  O   UNL A   1      34.090  28.212  21.940  1.00  0.00    -0.269 OA
ATOM      7  H   UNL A   1      34.875  29.567  23.678  1.00  0.00     0.163 HD
BRANCH   5   8
ATOM      8  C   UNL A   1      32.598  27.103  23.389  1.00  0.00     0.073 A 
ATOM      9  C   UNL A   1      31.080  23.953  24.477  1.00  0.00     0.150 C 
ATOM     10  N   UNL A   1      31.434  25.279  24.009  1.00  0.00    -0.343 N 
ATOM     11  C   UNL A   1      32.717  25.768  23.810  1.00  0.00     0.062 A 
ATOM     12  C   UNL A   1      30.486  26.241  23.737  1.00  0.00     0.049 A 
ATOM     13  C   UNL A   1      31.175  27.392  23.369  1.00  0.00     0.013 A 
ATOM     14  C   UNL A   1      29.081  26.188  23.801  1.00  0.00     0.027 A 
ATOM     15  C   UNL A   1      30.414  28.547  23.060  1.00  0.00     0.011 A 
ATOM     16  C   UNL A   1      28.359  27.341  23.490  1.00  0.00     0.002 A 
ATOM     17  C   UNL A   1      29.016  28.509  23.127  1.00  0.00     0.001 A 
BRANCH  11  18
ATOM     18  C   UNL A   1      33.891  24.931  24.069  1.00  0.00    -0.001 A 
ATOM     19  C   UNL A   1      34.368  24.042  23.102  1.00  0.00     0.010 A 
ATOM     20  C   UNL A   1      34.521  24.985  25.326  1.00  0.00     0.010 A 
ATOM     21  C   UNL A   1      35.431  23.186  23.405  1.00  0.00     0.001 A 
ATOM     22  C   UNL A   1      35.574  24.122  25.628  1.00  0.00     0.001 A 
ATOM     23  C   UNL A   1      36.024  23.217  24.669  1.00  0.00     0.000 A 
ENDBRANCH  11  18
ENDBRANCH   5   8
ENDBRANCH   3   4
ENDBRANCH   2   3
ENDBRANCH   1   2
BRANCH   1  24
ATOM     24  C   UNL A   1      33.300  31.741  27.293  1.00  0.00     0.116 C 
BRANCH  24  25
ATOM     25  N   UNL A   1      32.728  33.065  27.507  1.00  0.00    -0.352 N 
ATOM     26  C   UNL A   1      33.122  34.080  28.356  1.00  0.00     0.251 C 
ATOM     27  H   UNL A   1      31.936  33.268  26.959  1.00  0.00     0.163 HD
ATOM     28  O   UNL A   1      32.494  35.133  28.388  1.00  0.00    -0.269 OA
BRANCH  26  29
ATOM     29  C   UNL A   1      34.272  33.877  29.269  1.00  0.00     0.039 A 
ATOM     30  C   UNL A   1      34.069  33.194  30.472  1.00  0.00     0.014 A 
ATOM     31  C   UNL A   1      35.555  34.295  28.915  1.00  0.00     0.014 A 
ATOM     32  C   UNL A   1      35.169  32.809  31.247  1.00  0.00     0.010 A 
ATOM     33  C   UNL A   1      36.652  33.836  29.638  1.00  0.00     0.010 A 
ATOM     34  C   UNL A   1      36.475  33.065  30.798  1.00  0.00    -0.014 A 
BRANCH  34  35
ATOM     35  C   UNL A   1      37.666  32.478  31.471  1.00  0.00     0.031 A 
ATOM     36  C   UNL A   1      38.430  31.351  30.830  1.00  0.00     0.074 A 
ATOM     37  C   UNL A   1      37.977  32.865  32.727  1.00  0.00     0.049 A 
ATOM     38  N   UNL A   1      39.412  30.637  31.318  1.00  0.00    -0.248 NA
ATOM     39  C   UNL A   1      38.014  30.949  29.477  1.00  0.00     0.031 C 
ATOM     40  C   UNL A   1      37.257  33.875  33.506  1.00  0.00     0.029 A 
ATOM     41  N   UNL A   1      38.958  32.428  33.585  1.00  0.00    -0.354 N 
ATOM     42  C   UNL A   1      39.695  29.671  30.359  1.00  0.00     0.074 A 
ATOM     43  C   UNL A   1      38.762  29.875  29.271  1.00  0.00     0.031 C 
ATOM     44  C   UNL A   1      37.820  33.983  34.720  1.00  0.00     0.029 A 
ATOM     45  C   UNL A   1      38.922  33.033  34.821  1.00  0.00     0.049 A 
ATOM     46  H   UNL A   1      39.624  31.747  33.339  1.00  0.00     0.167 HD
ATOM     47  C   UNL A   1      40.662  28.724  30.364  1.00  0.00     0.034 A 
ATOM     48  C   UNL A   1      39.684  32.842  35.918  1.00  0.00     0.034 A 
ATOM     49  C   UNL A   1      41.636  28.571  31.411  1.00  0.00     0.049 A 
ATOM     50  C   UNL A   1      40.799  31.832  35.869  1.00  0.00     0.074 A 
ATOM     51  C   UNL A   1      42.728  27.722  31.451  1.00  0.00     0.029 A 
ATOM     52  N   UNL A   1      41.637  29.280  32.600  1.00  0.00    -0.354 N 
ATOM     53  N   UNL A   1      41.163  31.054  34.879  1.00  0.00    -0.248 NA
ATOM     54  C   UNL A   1      41.628  31.696  37.075  1.00  0.00     0.031 C 
ATOM     55  C   UNL A   1      43.388  27.915  32.670  1.00  0.00     0.029 A 
ATOM     56  C   UNL A   1      42.707  28.887  33.386  1.00  0.00     0.049 A 
ATOM     57  H   UNL A   1      40.974  29.963  32.851  1.00  0.00     0.167 HD
ATOM     58  C   UNL A   1      42.277  30.356  35.332  1.00  0.00     0.074 A 
ATOM     59  C   UNL A   1      42.544  30.824  36.677  1.00  0.00     0.031 C 
ATOM     60  C   UNL A   1      42.999  29.400  34.699  1.00  0.00     0.034 A 
BRANCH  47  61
ATOM     61  C   UNL A   1      40.765  27.827  29.159  1.00  0.00     0.023 A 
ATOM     62  C   UNL A   1      39.961  26.670  29.092  1.00  0.00     0.012 A 
ATOM     63  C   UNL A   1      41.610  28.146  28.079  1.00  0.00     0.148 A 
ATOM     64  C   UNL A   1      40.021  25.826  27.985  1.00  0.00     0.002 A 
ATOM     65  C   UNL A   1      41.635  27.320  26.960  1.00  0.00     0.091 A 
ATOM     66  F   UNL A   1      42.383  29.237  28.169  1.00  0.00    -0.205 F 
ATOM     67  C   UNL A   1      40.851  26.154  26.917  1.00  0.00     0.022 A 
BRANCH  65  68
ATOM     68  S   UNL A   1      42.617  27.695  25.503  1.00  0.00     0.127 S 
ATOM     69  O   UNL A   1      42.359  26.526  24.664  1.00  0.00    -0.237 OA
ATOM     70  O   UNL A   1      42.003  28.935  25.026  1.00  0.00    -0.237 OA
ATOM     71  O   UNL A   1      43.987  27.843  25.974  1.00  0.00    -0.744 OA
ENDBRANCH  65  68
ENDBRANCH  47  61
BRANCH  48  72
ATOM     72  C   UNL A   1      39.472  33.685  37.129  1.00  0.00     0.023 A 
ATOM     73  C   UNL A   1      39.953  35.009  37.132  1.00  0.00     0.012 A 
ATOM     74  C   UNL A   1      38.774  33.206  38.255  1.00  0.00     0.148 A 
ATOM     75  C   UNL A   1      39.770  35.831  38.244  1.00  0.00     0.002 A 
ATOM     76  C   UNL A   1      38.550  34.048  39.340  1.00  0.00     0.091 A 
ATOM     77  F   UNL A   1      38.337  31.939  38.241  1.00  0.00    -0.205 F 
ATOM     78  C   UNL A   1      39.059  35.355  39.342  1.00  0.00     0.022 A 
BRANCH  76  79
ATOM     79  S   UNL A   1      37.534  33.559  40.739  1.00  0.00     0.127 S 
ATOM     80  O   UNL A   1      36.330  33.067  40.076  1.00  0.00    -0.237 OA
ATOM     81  O   UNL A   1      38.357  32.525  41.369  1.00  0.00    -0.237 OA
ATOM     82  O   UNL A   1      37.374  34.764  41.542  1.00  0.00    -0.744 OA
ENDBRANCH  76  79
ENDBRANCH  48  72
BRANCH  60  83
ATOM     83  C   UNL A   1      44.163  28.797  35.439  1.00  0.00     0.023 A 
ATOM     84  C   UNL A   1      45.443  29.366  35.296  1.00  0.00     0.012 A 
ATOM     85  C   UNL A   1      43.975  27.731  36.340  1.00  0.00     0.148 A 
ATOM     86  C   UNL A   1      46.525  28.870  36.022  1.00  0.00     0.002 A 
ATOM     87  C   UNL A   1      45.049  27.267  37.092  1.00  0.00     0.091 A 
ATOM     88  F   UNL A   1      42.753  27.189  36.445  1.00  0.00    -0.205 F 
ATOM     89  C   UNL A   1      46.325  27.831  36.929  1.00  0.00     0.022 A 
BRANCH  87  90
ATOM     90  S   UNL A   1      44.865  25.994  38.347  1.00  0.00     0.127 S 
ATOM     91  O   UNL A   1      46.221  25.909  38.885  1.00  0.00    -0.237 OA
ATOM     92  O   UNL A   1      43.884  26.590  39.255  1.00  0.00    -0.237 OA
ATOM     93  O   UNL A   1      44.392  24.809  37.644  1.00  0.00    -0.744 OA
ENDBRANCH  87  90
ENDBRANCH  60  83
ENDBRANCH  34  35
ENDBRANCH  26  29
ENDBRANCH  24  25
ENDBRANCH   1  24
TORSDOF 15
ENDMDL
