MODEL 1
REMARK VINA RESULT:     -12.9      0.000      0.000
REMARK SMILES Cc1cc2c(c(C)c1Cl)C=C(C(=O)NCCCCNC(=O)c1ccc(-c3c4nc(c(-c5cccc(S(=O)(=O)[O-])c5F)c5ccc([nH]5)c(-c5cccc(S(=O)(=O)[O-])c5F)c5nc(c(-c6cccc(S(=O)(=O)[O-])c6F)c6ccc3[nH]6)C=C5)C=C4)cc1)[C@@H](C(F)(F)F)O2
REMARK SMILES IDX 17 1 16 2 15 3 14 4 12 5 13 6 11 8 1 9 2 10 3 11 8 12 4 13
REMARK SMILES IDX 6 14 9 15 5 16 90 17 7 18 10 19 85 20 86 21 87 22 88 23
REMARK SMILES IDX 89 24 18 25 19 26 20 27 21 29 22 30 23 31 84 32 24 33 83 34
REMARK SMILES IDX 25 35 26 36 27 37 77 38 28 39 82 40 76 41 78 42 29 43 81 44
REMARK SMILES IDX 75 45 74 46 30 48 62 49 42 50 61 51 43 52 46 53 60 54 79 55
REMARK SMILES IDX 44 56 45 57 59 59 80 60 47 61 31 62 32 63 40 64 33 65 35 66
REMARK SMILES IDX 41 67 34 68 36 69 37 70 38 71 39 72 63 73 64 74 72 75 65 76
REMARK SMILES IDX 67 77 73 78 66 79 68 80 69 81 70 82 71 83 48 84 49 85 57 86
REMARK SMILES IDX 50 87 52 88 58 89 51 90 53 91 54 92 55 93 56 94
REMARK H PARENT 14 7 19 28 78 47 46 58
REMARK Flexibility Score: inf
ROOT
ATOM      1  C   UNL A   1      32.163  29.701  25.121  1.00  0.00     0.023 C 
ENDROOT
BRANCH   1   2
ATOM      2  C   UNL A   1      33.038  28.899  24.152  1.00  0.00     0.023 C 
BRANCH   2   3
ATOM      3  C   UNL A   1      33.086  27.401  24.443  1.00  0.00     0.116 C 
BRANCH   3   4
ATOM      4  N   UNL A   1      32.115  27.007  25.448  1.00  0.00    -0.352 N 
ATOM      5  C   UNL A   1      31.666  25.853  25.991  1.00  0.00     0.251 C 
ATOM      6  O   UNL A   1      30.802  25.981  26.864  1.00  0.00    -0.270 OA
ATOM      7  H   UNL A   1      31.663  27.791  25.838  1.00  0.00     0.163 HD
BRANCH   5   8
ATOM      8  C   UNL A   1      32.135  24.483  25.624  1.00  0.00     0.067 C 
ATOM      9  C   UNL A   1      35.370  18.914  24.621  1.00  0.00     0.046 C 
ATOM     10  C   UNL A   1      34.929  20.316  24.946  1.00  0.00    -0.028 A 
ATOM     11  C   UNL A   1      33.565  20.619  24.886  1.00  0.00     0.052 A 
ATOM     12  C   UNL A   1      35.839  21.334  25.297  1.00  0.00     0.047 A 
ATOM     13  C   UNL A   1      33.114  21.904  25.173  1.00  0.00     0.128 A 
ATOM     14  C   UNL A   1      35.392  22.644  25.597  1.00  0.00    -0.021 A 
ATOM     15  Cl  UNL A   1      37.531  20.939  25.360  1.00  0.00    -0.084 Cl
ATOM     16  C   UNL A   1      34.002  22.918  25.543  1.00  0.00     0.022 A 
ATOM     17  O   UNL A   1      31.760  22.079  25.112  1.00  0.00    -0.475 OA
ATOM     18  C   UNL A   1      36.351  23.745  25.987  1.00  0.00     0.047 C 
ATOM     19  C   UNL A   1      33.426  24.218  25.900  1.00  0.00     0.026 C 
ATOM     20  C   UNL A   1      31.289  23.445  24.952  1.00  0.00     0.314 C 
BRANCH  20  21
ATOM     21  C   UNL A   1      31.067  23.734  23.455  1.00  0.00     0.429 C 
ATOM     22  F   UNL A   1      31.005  22.574  22.753  1.00  0.00    -0.167 F 
ATOM     23  F   UNL A   1      29.909  24.391  23.215  1.00  0.00    -0.167 F 
ATOM     24  F   UNL A   1      32.061  24.477  22.916  1.00  0.00    -0.167 F 
ENDBRANCH  20  21
ENDBRANCH   5   8
ENDBRANCH   3   4
ENDBRANCH   2   3
ENDBRANCH   1   2
BRANCH   1  25
ATOM     25  C   UNL A   1      32.807  30.044  26.463  1.00  0.00     0.116 C 
BRANCH  25  26
ATOM     26  N   UNL A   1      32.640  31.435  26.864  1.00  0.00    -0.352 N 
ATOM     27  C   UNL A   1      33.540  32.226  27.543  1.00  0.00     0.251 C 
ATOM     28  H   UNL A   1      31.785  31.859  26.621  1.00  0.00     0.163 HD
ATOM     29  O   UNL A   1      33.250  33.371  27.871  1.00  0.00    -0.269 OA
BRANCH  27  30
ATOM     30  C   UNL A   1      34.842  31.642  27.910  1.00  0.00     0.039 A 
ATOM     31  C   UNL A   1      35.950  32.485  28.013  1.00  0.00     0.014 A 
ATOM     32  C   UNL A   1      34.931  30.293  28.263  1.00  0.00     0.014 A 
ATOM     33  C   UNL A   1      37.134  31.989  28.558  1.00  0.00     0.010 A 
ATOM     34  C   UNL A   1      36.093  29.819  28.862  1.00  0.00     0.010 A 
ATOM     35  C   UNL A   1      37.199  30.666  29.027  1.00  0.00    -0.014 A 
BRANCH  35  36
ATOM     36  C   UNL A   1      38.401  30.171  29.739  1.00  0.00     0.031 A 
ATOM     37  C   UNL A   1      38.715  30.655  31.125  1.00  0.00     0.074 A 
ATOM     38  C   UNL A   1      39.250  29.341  29.099  1.00  0.00     0.049 A 
ATOM     39  N   UNL A   1      39.714  30.327  31.899  1.00  0.00    -0.248 NA
ATOM     40  C   UNL A   1      37.802  31.651  31.708  1.00  0.00     0.031 C 
ATOM     41  C   UNL A   1      39.096  28.876  27.719  1.00  0.00     0.029 A 
ATOM     42  N   UNL A   1      40.415  28.749  29.520  1.00  0.00    -0.354 N 
ATOM     43  C   UNL A   1      39.564  31.087  33.051  1.00  0.00     0.074 A 
ATOM     44  C   UNL A   1      38.402  31.926  32.858  1.00  0.00     0.031 C 
ATOM     45  C   UNL A   1      40.113  28.053  27.416  1.00  0.00     0.029 A 
ATOM     46  C   UNL A   1      40.999  27.942  28.571  1.00  0.00     0.049 A 
ATOM     47  H   UNL A   1      40.797  28.889  30.416  1.00  0.00     0.167 HD
ATOM     48  C   UNL A   1      40.301  31.055  34.186  1.00  0.00     0.034 A 
ATOM     49  C   UNL A   1      42.109  27.180  28.634  1.00  0.00     0.034 A 
ATOM     50  C   UNL A   1      41.418  30.177  34.392  1.00  0.00     0.049 A 
ATOM     51  C   UNL A   1      42.882  27.125  29.924  1.00  0.00     0.074 A 
ATOM     52  C   UNL A   1      42.176  30.009  35.536  1.00  0.00     0.029 A 
ATOM     53  N   UNL A   1      41.935  29.318  33.436  1.00  0.00    -0.354 N 
ATOM     54  N   UNL A   1      42.628  27.726  31.061  1.00  0.00    -0.248 NA
ATOM     55  C   UNL A   1      44.074  26.264  29.955  1.00  0.00     0.031 C 
ATOM     56  C   UNL A   1      43.154  29.046  35.271  1.00  0.00     0.029 A 
ATOM     57  C   UNL A   1      43.003  28.615  33.962  1.00  0.00     0.049 A 
ATOM     58  H   UNL A   1      41.594  29.223  32.517  1.00  0.00     0.167 HD
ATOM     59  C   UNL A   1      43.605  27.294  31.950  1.00  0.00     0.074 A 
ATOM     60  C   UNL A   1      44.448  26.366  31.225  1.00  0.00     0.031 C 
ATOM     61  C   UNL A   1      43.794  27.647  33.245  1.00  0.00     0.034 A 
BRANCH  48  62
ATOM     62  C   UNL A   1      39.861  31.928  35.328  1.00  0.00     0.023 A 
ATOM     63  C   UNL A   1      40.257  33.281  35.343  1.00  0.00     0.012 A 
ATOM     64  C   UNL A   1      39.009  31.445  36.339  1.00  0.00     0.148 A 
ATOM     65  C   UNL A   1      39.833  34.135  36.359  1.00  0.00     0.002 A 
ATOM     66  C   UNL A   1      38.560  32.313  37.329  1.00  0.00     0.091 A 
ATOM     67  F   UNL A   1      38.663  30.151  36.321  1.00  0.00    -0.205 F 
ATOM     68  C   UNL A   1      38.977  33.655  37.344  1.00  0.00     0.022 A 
BRANCH  66  69
ATOM     69  S   UNL A   1      37.399  31.807  38.604  1.00  0.00     0.127 S 
ATOM     70  O   UNL A   1      38.208  31.951  39.813  1.00  0.00    -0.237 OA
ATOM     71  O   UNL A   1      36.332  32.798  38.464  1.00  0.00    -0.237 OA
ATOM     72  O   UNL A   1      37.009  30.445  38.269  1.00  0.00    -0.744 OA
ENDBRANCH  66  69
ENDBRANCH  48  62
BRANCH  49  73
ATOM     73  C   UNL A   1      42.474  26.315  27.476  1.00  0.00     0.023 A 
ATOM     74  C   UNL A   1      43.343  26.826  26.492  1.00  0.00     0.012 A 
ATOM     75  C   UNL A   1      42.034  24.981  27.376  1.00  0.00     0.148 A 
ATOM     76  C   UNL A   1      43.753  26.032  25.421  1.00  0.00     0.002 A 
ATOM     77  C   UNL A   1      42.486  24.179  26.333  1.00  0.00     0.091 A 
ATOM     78  F   UNL A   1      41.195  24.515  28.313  1.00  0.00    -0.205 F 
ATOM     79  C   UNL A   1      43.336  24.706  25.348  1.00  0.00     0.022 A 
BRANCH  77  80
ATOM     80  S   UNL A   1      42.110  22.424  26.239  1.00  0.00     0.127 S 
ATOM     81  O   UNL A   1      42.859  22.020  25.053  1.00  0.00    -0.237 OA
ATOM     82  O   UNL A   1      42.644  21.927  27.507  1.00  0.00    -0.237 OA
ATOM     83  O   UNL A   1      40.658  22.345  26.133  1.00  0.00    -0.744 OA
ENDBRANCH  77  80
ENDBRANCH  49  73
BRANCH  61  84
ATOM     84  C   UNL A   1      44.949  27.034  33.987  1.00  0.00     0.023 A 
ATOM     85  C   UNL A   1      46.185  27.707  34.013  1.00  0.00     0.012 A 
ATOM     86  C   UNL A   1      44.767  25.881  34.778  1.00  0.00     0.148 A 
ATOM     87  C   UNL A   1      47.228  27.241  34.810  1.00  0.00     0.002 A 
ATOM     88  C   UNL A   1      45.798  25.447  35.603  1.00  0.00     0.091 A 
ATOM     89  F   UNL A   1      43.586  25.250  34.725  1.00  0.00    -0.205 F 
ATOM     90  C   UNL A   1      47.030  26.122  35.616  1.00  0.00     0.022 A 
BRANCH  88  91
ATOM     91  S   UNL A   1      45.606  24.075  36.748  1.00  0.00     0.127 S 
ATOM     92  O   UNL A   1      45.356  22.960  35.838  1.00  0.00    -0.237 OA
ATOM     93  O   UNL A   1      46.909  24.042  37.413  1.00  0.00    -0.237 OA
ATOM     94  O   UNL A   1      44.493  24.431  37.618  1.00  0.00    -0.744 OA
ENDBRANCH  88  91
ENDBRANCH  61  84
ENDBRANCH  35  36
ENDBRANCH  27  30
ENDBRANCH  25  26
ENDBRANCH   1  25
TORSDOF 15
ENDMDL
MODEL 2
REMARK VINA RESULT:     -12.9      1.401      1.982
REMARK SMILES Cc1cc2c(c(C)c1Cl)C=C(C(=O)NCCCCNC(=O)c1ccc(-c3c4nc(c(-c5cccc(S(=O)(=O)[O-])c5F)c5ccc([nH]5)c(-c5cccc(S(=O)(=O)[O-])c5F)c5nc(c(-c6cccc(S(=O)(=O)[O-])c6F)c6ccc3[nH]6)C=C5)C=C4)cc1)[C@@H](C(F)(F)F)O2
REMARK SMILES IDX 17 1 16 2 15 3 14 4 12 5 13 6 11 8 1 9 2 10 3 11 8 12 4 13
REMARK SMILES IDX 6 14 9 15 5 16 90 17 7 18 10 19 85 20 86 21 87 22 88 23
REMARK SMILES IDX 89 24 18 25 19 26 20 27 21 29 22 30 23 31 84 32 24 33 83 34
REMARK SMILES IDX 25 35 26 36 27 37 77 38 28 39 82 40 76 41 78 42 29 43 81 44
REMARK SMILES IDX 75 45 74 46 30 48 62 49 42 50 61 51 43 52 46 53 60 54 79 55
REMARK SMILES IDX 44 56 45 57 59 59 80 60 47 61 31 62 32 63 40 64 33 65 35 66
REMARK SMILES IDX 41 67 34 68 36 69 37 70 38 71 39 72 63 73 64 74 72 75 65 76
REMARK SMILES IDX 67 77 73 78 66 79 68 80 69 81 70 82 71 83 48 84 49 85 57 86
REMARK SMILES IDX 50 87 52 88 58 89 51 90 53 91 54 92 55 93 56 94
REMARK H PARENT 14 7 19 28 78 47 46 58
REMARK Flexibility Score: inf
ROOT
ATOM      1  C   UNL A   1      32.256  30.058  25.142  1.00  0.00     0.023 C 
ENDROOT
BRANCH   1   2
ATOM      2  C   UNL A   1      30.938  29.603  24.508  1.00  0.00     0.023 C 
BRANCH   2   3
ATOM      3  C   UNL A   1      31.107  28.757  23.249  1.00  0.00     0.116 C 
BRANCH   3   4
ATOM      4  N   UNL A   1      30.340  27.525  23.311  1.00  0.00    -0.352 N 
ATOM      5  C   UNL A   1      30.557  26.242  23.680  1.00  0.00     0.251 C 
ATOM      6  O   UNL A   1      29.582  25.491  23.579  1.00  0.00    -0.270 OA
ATOM      7  H   UNL A   1      29.415  27.661  23.002  1.00  0.00     0.163 HD
BRANCH   5   8
ATOM      8  C   UNL A   1      31.850  25.694  24.190  1.00  0.00     0.067 C 
ATOM      9  C   UNL A   1      37.109  22.159  25.719  1.00  0.00     0.046 C 
ATOM     10  C   UNL A   1      35.777  22.680  25.247  1.00  0.00    -0.028 A 
ATOM     11  C   UNL A   1      35.529  24.053  25.328  1.00  0.00     0.052 A 
ATOM     12  C   UNL A   1      34.772  21.833  24.736  1.00  0.00     0.047 A 
ATOM     13  C   UNL A   1      34.310  24.576  24.907  1.00  0.00     0.128 A 
ATOM     14  C   UNL A   1      33.529  22.354  24.300  1.00  0.00    -0.021 A 
ATOM     15  Cl  UNL A   1      35.098  20.128  24.649  1.00  0.00    -0.084 Cl
ATOM     16  C   UNL A   1      33.311  23.752  24.380  1.00  0.00     0.022 A 
ATOM     17  O   UNL A   1      34.187  25.934  25.005  1.00  0.00    -0.475 OA
ATOM     18  C   UNL A   1      32.444  21.465  23.738  1.00  0.00     0.047 C 
ATOM     19  C   UNL A   1      32.091  24.403  23.893  1.00  0.00     0.026 C 
ATOM     20  C   UNL A   1      32.833  26.464  25.019  1.00  0.00     0.314 C 
BRANCH  20  21
ATOM     21  C   UNL A   1      32.373  26.643  26.477  1.00  0.00     0.429 C 
ATOM     22  F   UNL A   1      32.268  25.438  27.092  1.00  0.00    -0.167 F 
ATOM     23  F   UNL A   1      33.240  27.376  27.213  1.00  0.00    -0.167 F 
ATOM     24  F   UNL A   1      31.167  27.248  26.572  1.00  0.00    -0.167 F 
ENDBRANCH  20  21
ENDBRANCH   5   8
ENDBRANCH   3   4
ENDBRANCH   2   3
ENDBRANCH   1   2
BRANCH   1  25
ATOM     25  C   UNL A   1      32.195  30.378  26.635  1.00  0.00     0.116 C 
BRANCH  25  26
ATOM     26  N   UNL A   1      32.078  31.799  26.934  1.00  0.00    -0.352 N 
ATOM     27  C   UNL A   1      33.020  32.614  27.520  1.00  0.00     0.251 C 
ATOM     28  H   UNL A   1      31.225  32.227  26.689  1.00  0.00     0.163 HD
ATOM     29  O   UNL A   1      32.771  33.788  27.769  1.00  0.00    -0.269 OA
BRANCH  27  30
ATOM     30  C   UNL A   1      34.320  32.023  27.885  1.00  0.00     0.039 A 
ATOM     31  C   UNL A   1      35.432  32.861  27.989  1.00  0.00     0.014 A 
ATOM     32  C   UNL A   1      34.403  30.673  28.238  1.00  0.00     0.014 A 
ATOM     33  C   UNL A   1      36.614  32.359  28.533  1.00  0.00     0.010 A 
ATOM     34  C   UNL A   1      35.563  30.193  28.835  1.00  0.00     0.010 A 
ATOM     35  C   UNL A   1      36.673  31.036  29.001  1.00  0.00    -0.014 A 
BRANCH  35  36
ATOM     36  C   UNL A   1      37.873  30.534  29.712  1.00  0.00     0.031 A 
ATOM     37  C   UNL A   1      38.163  30.978  31.116  1.00  0.00     0.074 A 
ATOM     38  C   UNL A   1      38.741  29.735  29.057  1.00  0.00     0.049 A 
ATOM     39  N   UNL A   1      39.157  30.639  31.892  1.00  0.00    -0.248 NA
ATOM     40  C   UNL A   1      37.230  31.944  31.719  1.00  0.00     0.031 C 
ATOM     41  C   UNL A   1      38.610  29.313  27.661  1.00  0.00     0.029 A 
ATOM     42  N   UNL A   1      39.908  29.146  29.473  1.00  0.00    -0.354 N 
ATOM     43  C   UNL A   1      38.983  31.360  33.065  1.00  0.00     0.074 A 
ATOM     44  C   UNL A   1      37.812  32.190  32.884  1.00  0.00     0.031 C 
ATOM     45  C   UNL A   1      39.641  28.513  27.345  1.00  0.00     0.029 A 
ATOM     46  C   UNL A   1      40.515  28.377  28.508  1.00  0.00     0.049 A 
ATOM     47  H   UNL A   1      40.278  29.263  30.379  1.00  0.00     0.167 HD
ATOM     48  C   UNL A   1      39.706  31.302  34.208  1.00  0.00     0.034 A 
ATOM     49  C   UNL A   1      41.634  27.629  28.560  1.00  0.00     0.034 A 
ATOM     50  C   UNL A   1      40.833  30.433  34.401  1.00  0.00     0.049 A 
ATOM     51  C   UNL A   1      42.392  27.543  29.857  1.00  0.00     0.074 A 
ATOM     52  C   UNL A   1      41.579  30.239  35.548  1.00  0.00     0.029 A 
ATOM     53  N   UNL A   1      41.373  29.612  33.424  1.00  0.00    -0.354 N 
ATOM     54  N   UNL A   1      42.116  28.105  31.009  1.00  0.00    -0.248 NA
ATOM     55  C   UNL A   1      43.595  26.697  29.876  1.00  0.00     0.031 C 
ATOM     56  C   UNL A   1      42.573  29.298  35.265  1.00  0.00     0.029 A 
ATOM     57  C   UNL A   1      42.444  28.906  33.941  1.00  0.00     0.049 A 
ATOM     58  H   UNL A   1      41.044  29.541  32.498  1.00  0.00     0.167 HD
ATOM     59  C   UNL A   1      43.088  27.658  31.896  1.00  0.00     0.074 A 
ATOM     60  C   UNL A   1      43.952  26.764  31.153  1.00  0.00     0.031 C 
ATOM     61  C   UNL A   1      43.257  27.973  33.204  1.00  0.00     0.034 A 
BRANCH  48  62
ATOM     62  C   UNL A   1      39.241  32.133  35.372  1.00  0.00     0.023 A 
ATOM     63  C   UNL A   1      39.460  33.526  35.344  1.00  0.00     0.012 A 
ATOM     64  C   UNL A   1      38.533  31.564  36.447  1.00  0.00     0.148 A 
ATOM     65  C   UNL A   1      39.003  34.337  36.381  1.00  0.00     0.002 A 
ATOM     66  C   UNL A   1      38.048  32.385  37.459  1.00  0.00     0.091 A 
ATOM     67  F   UNL A   1      38.356  30.236  36.466  1.00  0.00    -0.205 F 
ATOM     68  C   UNL A   1      38.289  33.770  37.431  1.00  0.00     0.022 A 
BRANCH  66  69
ATOM     69  S   UNL A   1      37.057  31.759  38.821  1.00  0.00     0.127 S 
ATOM     70  O   UNL A   1      35.876  32.617  38.745  1.00  0.00    -0.237 OA
ATOM     71  O   UNL A   1      36.828  30.370  38.424  1.00  0.00    -0.237 OA
ATOM     72  O   UNL A   1      37.874  31.921  40.015  1.00  0.00    -0.744 OA
ENDBRANCH  66  69
ENDBRANCH  48  62
BRANCH  49  73
ATOM     73  C   UNL A   1      42.025  26.805  27.381  1.00  0.00     0.023 A 
ATOM     74  C   UNL A   1      42.720  27.421  26.322  1.00  0.00     0.012 A 
ATOM     75  C   UNL A   1      41.783  25.419  27.328  1.00  0.00     0.148 A 
ATOM     76  C   UNL A   1      43.152  26.676  25.224  1.00  0.00     0.002 A 
ATOM     77  C   UNL A   1      42.260  24.673  26.254  1.00  0.00     0.091 A 
ATOM     78  F   UNL A   1      41.107  24.852  28.337  1.00  0.00    -0.205 F 
ATOM     79  C   UNL A   1      42.934  25.302  25.196  1.00  0.00     0.022 A 
BRANCH  77  80
ATOM     80  S   UNL A   1      42.144  22.880  26.205  1.00  0.00     0.127 S 
ATOM     81  O   UNL A   1      42.891  22.498  27.400  1.00  0.00    -0.237 OA
ATOM     82  O   UNL A   1      40.699  22.663  26.284  1.00  0.00    -0.237 OA
ATOM     83  O   UNL A   1      42.736  22.490  24.931  1.00  0.00    -0.744 OA
ENDBRANCH  77  80
ENDBRANCH  49  73
BRANCH  61  84
ATOM     84  C   UNL A   1      44.410  27.351  33.942  1.00  0.00     0.023 A 
ATOM     85  C   UNL A   1      45.648  28.022  33.972  1.00  0.00     0.012 A 
ATOM     86  C   UNL A   1      44.227  26.193  34.723  1.00  0.00     0.148 A 
ATOM     87  C   UNL A   1      46.690  27.548  34.765  1.00  0.00     0.002 A 
ATOM     88  C   UNL A   1      45.257  25.750  35.545  1.00  0.00     0.091 A 
ATOM     89  F   UNL A   1      43.045  25.564  34.666  1.00  0.00    -0.205 F 
ATOM     90  C   UNL A   1      46.490  26.423  35.563  1.00  0.00     0.022 A 
BRANCH  88  91
ATOM     91  S   UNL A   1      45.063  24.370  36.679  1.00  0.00     0.127 S 
ATOM     92  O   UNL A   1      46.407  24.256  37.243  1.00  0.00    -0.237 OA
ATOM     93  O   UNL A   1      44.051  24.872  37.608  1.00  0.00    -0.237 OA
ATOM     94  O   UNL A   1      44.632  23.240  35.867  1.00  0.00    -0.744 OA
ENDBRANCH  88  91
ENDBRANCH  61  84
ENDBRANCH  35  36
ENDBRANCH  27  30
ENDBRANCH  25  26
ENDBRANCH   1  25
TORSDOF 15
ENDMDL
MODEL 3
REMARK VINA RESULT:     -12.9      1.665      2.044
REMARK SMILES Cc1cc2c(c(C)c1Cl)C=C(C(=O)NCCCCNC(=O)c1ccc(-c3c4nc(c(-c5cccc(S(=O)(=O)[O-])c5F)c5ccc([nH]5)c(-c5cccc(S(=O)(=O)[O-])c5F)c5nc(c(-c6cccc(S(=O)(=O)[O-])c6F)c6ccc3[nH]6)C=C5)C=C4)cc1)[C@@H](C(F)(F)F)O2
REMARK SMILES IDX 17 1 16 2 15 3 14 4 12 5 13 6 11 8 1 9 2 10 3 11 8 12 4 13
REMARK SMILES IDX 6 14 9 15 5 16 90 17 7 18 10 19 85 20 86 21 87 22 88 23
REMARK SMILES IDX 89 24 18 25 19 26 20 27 21 29 22 30 23 31 84 32 24 33 83 34
REMARK SMILES IDX 25 35 26 36 27 37 77 38 28 39 82 40 76 41 78 42 29 43 81 44
REMARK SMILES IDX 75 45 74 46 30 48 62 49 42 50 61 51 43 52 46 53 60 54 79 55
REMARK SMILES IDX 44 56 45 57 59 59 80 60 47 61 31 62 32 63 40 64 33 65 35 66
REMARK SMILES IDX 41 67 34 68 36 69 37 70 38 71 39 72 63 73 64 74 72 75 65 76
REMARK SMILES IDX 67 77 73 78 66 79 68 80 69 81 70 82 71 83 48 84 49 85 57 86
REMARK SMILES IDX 50 87 52 88 58 89 51 90 53 91 54 92 55 93 56 94
REMARK H PARENT 14 7 19 28 78 47 46 58
REMARK Flexibility Score: inf
ROOT
ATOM      1  C   UNL A   1      31.561  29.174  25.269  1.00  0.00     0.023 C 
ENDROOT
BRANCH   1   2
ATOM      2  C   UNL A   1      31.684  29.293  23.747  1.00  0.00     0.023 C 
BRANCH   2   3
ATOM      3  C   UNL A   1      33.117  29.215  23.225  1.00  0.00     0.116 C 
BRANCH   3   4
ATOM      4  N   UNL A   1      33.256  28.247  22.151  1.00  0.00    -0.352 N 
ATOM      5  C   UNL A   1      33.314  26.901  22.033  1.00  0.00     0.251 C 
ATOM      6  O   UNL A   1      33.430  26.477  20.879  1.00  0.00    -0.270 OA
ATOM      7  H   UNL A   1      33.327  28.691  21.274  1.00  0.00     0.163 HD
BRANCH   5   8
ATOM      8  C   UNL A   1      33.243  25.929  23.165  1.00  0.00     0.067 C 
ATOM      9  C   UNL A   1      34.191  21.295  27.649  1.00  0.00     0.046 C 
ATOM     10  C   UNL A   1      34.250  22.231  26.472  1.00  0.00    -0.028 A 
ATOM     11  C   UNL A   1      33.337  23.288  26.410  1.00  0.00     0.052 A 
ATOM     12  C   UNL A   1      35.184  22.075  25.427  1.00  0.00     0.047 A 
ATOM     13  C   UNL A   1      33.353  24.173  25.337  1.00  0.00     0.128 A 
ATOM     14  C   UNL A   1      35.214  22.973  24.332  1.00  0.00    -0.021 A 
ATOM     15  Cl  UNL A   1      36.307  20.751  25.518  1.00  0.00    -0.084 Cl
ATOM     16  C   UNL A   1      34.286  24.043  24.304  1.00  0.00     0.022 A 
ATOM     17  O   UNL A   1      32.436  25.184  25.395  1.00  0.00    -0.475 OA
ATOM     18  C   UNL A   1      36.215  22.829  23.209  1.00  0.00     0.047 C 
ATOM     19  C   UNL A   1      34.275  25.068  23.256  1.00  0.00     0.026 C 
ATOM     20  C   UNL A   1      32.107  25.836  24.138  1.00  0.00     0.314 C 
BRANCH  20  21
ATOM     21  C   UNL A   1      30.855  25.173  23.533  1.00  0.00     0.429 C 
ATOM     22  F   UNL A   1      29.933  26.113  23.205  1.00  0.00    -0.167 F 
ATOM     23  F   UNL A   1      31.125  24.486  22.399  1.00  0.00    -0.167 F 
ATOM     24  F   UNL A   1      30.261  24.308  24.386  1.00  0.00    -0.167 F 
ENDBRANCH  20  21
ENDBRANCH   5   8
ENDBRANCH   3   4
ENDBRANCH   2   3
ENDBRANCH   1   2
BRANCH   1  25
ATOM     25  C   UNL A   1      32.695  29.806  26.074  1.00  0.00     0.116 C 
BRANCH  25  26
ATOM     26  N   UNL A   1      32.422  31.167  26.518  1.00  0.00    -0.352 N 
ATOM     27  C   UNL A   1      33.237  31.983  27.270  1.00  0.00     0.251 C 
ATOM     28  H   UNL A   1      31.554  31.547  26.250  1.00  0.00     0.163 HD
ATOM     29  O   UNL A   1      32.860  33.094  27.626  1.00  0.00    -0.269 OA
BRANCH  27  30
ATOM     30  C   UNL A   1      34.556  31.466  27.678  1.00  0.00     0.039 A 
ATOM     31  C   UNL A   1      35.597  32.372  27.884  1.00  0.00     0.014 A 
ATOM     32  C   UNL A   1      34.717  30.108  27.968  1.00  0.00     0.014 A 
ATOM     33  C   UNL A   1      36.783  31.925  28.467  1.00  0.00     0.010 A 
ATOM     34  C   UNL A   1      35.876  29.679  28.605  1.00  0.00     0.010 A 
ATOM     35  C   UNL A   1      36.912  30.586  28.873  1.00  0.00    -0.014 A 
BRANCH  35  36
ATOM     36  C   UNL A   1      38.107  30.132  29.624  1.00  0.00     0.031 A 
ATOM     37  C   UNL A   1      38.361  30.630  31.017  1.00  0.00     0.074 A 
ATOM     38  C   UNL A   1      39.002  29.328  29.015  1.00  0.00     0.049 A 
ATOM     39  N   UNL A   1      39.345  30.337  31.824  1.00  0.00    -0.248 NA
ATOM     40  C   UNL A   1      37.398  31.598  31.568  1.00  0.00     0.031 C 
ATOM     41  C   UNL A   1      38.907  28.855  27.632  1.00  0.00     0.029 A 
ATOM     42  N   UNL A   1      40.171  28.775  29.474  1.00  0.00    -0.354 N 
ATOM     43  C   UNL A   1      39.134  31.095  32.967  1.00  0.00     0.074 A 
ATOM     44  C   UNL A   1      37.952  31.896  32.735  1.00  0.00     0.031 C 
ATOM     45  C   UNL A   1      39.958  28.064  27.365  1.00  0.00     0.029 A 
ATOM     46  C   UNL A   1      40.811  27.985  28.548  1.00  0.00     0.049 A 
ATOM     47  H   UNL A   1      40.520  28.931  30.382  1.00  0.00     0.167 HD
ATOM     48  C   UNL A   1      39.835  31.090  34.125  1.00  0.00     0.034 A 
ATOM     49  C   UNL A   1      41.942  27.260  28.648  1.00  0.00     0.034 A 
ATOM     50  C   UNL A   1      40.973  30.250  34.370  1.00  0.00     0.049 A 
ATOM     51  C   UNL A   1      42.676  27.234  29.962  1.00  0.00     0.074 A 
ATOM     52  C   UNL A   1      41.699  30.109  35.538  1.00  0.00     0.029 A 
ATOM     53  N   UNL A   1      41.548  29.405  33.434  1.00  0.00    -0.354 N 
ATOM     54  N   UNL A   1      42.366  27.830  31.088  1.00  0.00    -0.248 NA
ATOM     55  C   UNL A   1      43.893  26.412  30.034  1.00  0.00     0.031 C 
ATOM     56  C   UNL A   1      42.716  29.178  35.308  1.00  0.00     0.029 A 
ATOM     57  C   UNL A   1      42.621  28.738  33.996  1.00  0.00     0.049 A 
ATOM     58  H   UNL A   1      41.239  29.296  32.505  1.00  0.00     0.167 HD
ATOM     59  C   UNL A   1      43.328  27.432  32.009  1.00  0.00     0.074 A 
ATOM     60  C   UNL A   1      44.223  26.530  31.314  1.00  0.00     0.031 C 
ATOM     61  C   UNL A   1      43.465  27.795  33.308  1.00  0.00     0.034 A 
BRANCH  48  62
ATOM     62  C   UNL A   1      39.331  31.952  35.250  1.00  0.00     0.023 A 
ATOM     63  C   UNL A   1      38.393  31.411  36.154  1.00  0.00     0.012 A 
ATOM     64  C   UNL A   1      39.825  33.253  35.461  1.00  0.00     0.148 A 
ATOM     65  C   UNL A   1      37.935  32.160  37.236  1.00  0.00     0.002 A 
ATOM     66  C   UNL A   1      39.391  33.980  36.563  1.00  0.00     0.091 A 
ATOM     67  F   UNL A   1      40.697  33.757  34.577  1.00  0.00    -0.205 F 
ATOM     68  C   UNL A   1      38.442  33.438  37.446  1.00  0.00     0.022 A 
BRANCH  66  69
ATOM     69  S   UNL A   1      40.035  35.609  36.961  1.00  0.00     0.127 S 
ATOM     70  O   UNL A   1      39.563  36.399  35.825  1.00  0.00    -0.237 OA
ATOM     71  O   UNL A   1      39.368  35.907  38.228  1.00  0.00    -0.237 OA
ATOM     72  O   UNL A   1      41.480  35.454  37.059  1.00  0.00    -0.744 OA
ENDBRANCH  66  69
ENDBRANCH  48  62
BRANCH  49  73
ATOM     73  C   UNL A   1      42.372  26.404  27.506  1.00  0.00     0.023 A 
ATOM     74  C   UNL A   1      43.270  26.933  26.560  1.00  0.00     0.012 A 
ATOM     75  C   UNL A   1      41.961  25.062  27.387  1.00  0.00     0.148 A 
ATOM     76  C   UNL A   1      43.740  26.148  25.506  1.00  0.00     0.002 A 
ATOM     77  C   UNL A   1      42.472  24.270  26.363  1.00  0.00     0.091 A 
ATOM     78  F   UNL A   1      41.094  24.579  28.288  1.00  0.00    -0.205 F 
ATOM     79  C   UNL A   1      43.351  24.815  25.415  1.00  0.00     0.022 A 
BRANCH  77  80
ATOM     80  S   UNL A   1      42.133  22.508  26.252  1.00  0.00     0.127 S 
ATOM     81  O   UNL A   1      42.828  22.146  25.020  1.00  0.00    -0.237 OA
ATOM     82  O   UNL A   1      42.747  22.000  27.480  1.00  0.00    -0.237 OA
ATOM     83  O   UNL A   1      40.680  22.395  26.221  1.00  0.00    -0.744 OA
ENDBRANCH  77  80
ENDBRANCH  49  73
BRANCH  61  84
ATOM     84  C   UNL A   1      44.615  27.221  34.089  1.00  0.00     0.023 A 
ATOM     85  C   UNL A   1      45.790  27.983  34.241  1.00  0.00     0.012 A 
ATOM     86  C   UNL A   1      44.475  26.008  34.792  1.00  0.00     0.148 A 
ATOM     87  C   UNL A   1      46.813  27.544  35.078  1.00  0.00     0.002 A 
ATOM     88  C   UNL A   1      45.482  25.598  35.658  1.00  0.00     0.091 A 
ATOM     89  F   UNL A   1      43.353  25.295  34.620  1.00  0.00    -0.205 F 
ATOM     90  C   UNL A   1      46.653  26.361  35.798  1.00  0.00     0.022 A 
BRANCH  88  91
ATOM     91  S   UNL A   1      45.327  24.142  36.700  1.00  0.00     0.127 S 
ATOM     92  O   UNL A   1      44.463  23.286  35.890  1.00  0.00    -0.237 OA
ATOM     93  O   UNL A   1      46.714  23.687  36.805  1.00  0.00    -0.237 OA
ATOM     94  O   UNL A   1      44.746  24.605  37.954  1.00  0.00    -0.744 OA
ENDBRANCH  88  91
ENDBRANCH  61  84
ENDBRANCH  35  36
ENDBRANCH  27  30
ENDBRANCH  25  26
ENDBRANCH   1  25
TORSDOF 15
ENDMDL
