MODEL 1
REMARK VINA RESULT:     -12.5      0.000      0.000
REMARK SMILES C=Cc1cc(Cl)cc2c1O[C@H](C(F)(F)F)C(C(=O)NCCCCNC(=O)c1ccc(-c3c4nc(c(-c5cccc(S(=O)(=O)[O-])c5F)c5ccc([nH]5)c(-c5cccc(S(=O)(=O)[O-])c5F)c5nc(c(-c6cccc(S(=O)(=O)[O-])c6F)c6ccc3[nH]6)C=C5)C=C4)cc1)=C2
REMARK SMILES IDX 22 1 21 2 20 3 19 4 17 5 18 6 16 8 3 9 4 10 9 11 5 12 8 13
REMARK SMILES IDX 10 14 6 15 7 16 90 17 11 18 2 19 1 20 12 21 13 22 14 23
REMARK SMILES IDX 15 24 23 25 24 26 25 27 26 29 27 30 28 31 89 32 29 33 88 34
REMARK SMILES IDX 30 35 31 36 32 37 82 38 33 39 87 40 81 41 83 42 34 43 86 44
REMARK SMILES IDX 80 45 79 46 35 48 67 49 47 50 66 51 48 52 51 53 65 54 84 55
REMARK SMILES IDX 49 56 50 57 64 59 85 60 52 61 36 62 37 63 45 64 38 65 40 66
REMARK SMILES IDX 46 67 39 68 41 69 42 70 43 71 44 72 68 73 69 74 77 75 70 76
REMARK SMILES IDX 72 77 78 78 71 79 73 80 74 81 75 82 76 83 53 84 54 85 62 86
REMARK SMILES IDX 55 87 57 88 63 89 56 90 58 91 59 92 60 93 61 94
REMARK H PARENT 19 7 24 28 83 47 51 58
REMARK Flexibility Score: inf
ROOT
ATOM      1  C   UNL A   1      35.962  21.297  25.781  1.00  0.00     0.023 C 
ENDROOT
BRANCH   1   2
ATOM      2  C   UNL A   1      35.112  20.260  25.042  1.00  0.00     0.023 C 
BRANCH   2   3
ATOM      3  C   UNL A   1      33.608  20.420  25.247  1.00  0.00     0.116 C 
BRANCH   3   4
ATOM      4  N   UNL A   1      32.901  20.609  23.993  1.00  0.00    -0.352 N 
ATOM      5  C   UNL A   1      32.305  21.635  23.341  1.00  0.00     0.251 C 
ATOM      6  O   UNL A   1      31.800  21.350  22.250  1.00  0.00    -0.270 OA
ATOM      7  H   UNL A   1      32.837  19.770  23.482  1.00  0.00     0.163 HD
BRANCH   5   8
ATOM      8  C   UNL A   1      32.223  23.042  23.838  1.00  0.00     0.067 C 
ATOM      9  C   UNL A   1      31.693  26.951  25.329  1.00  0.00     0.018 A 
ATOM     10  C   UNL A   1      30.704  27.763  24.757  1.00  0.00     0.032 A 
ATOM     11  C   UNL A   1      31.839  25.632  24.862  1.00  0.00     0.135 A 
ATOM     12  C   UNL A   1      29.867  27.254  23.765  1.00  0.00     0.042 A 
ATOM     13  C   UNL A   1      30.989  25.120  23.875  1.00  0.00     0.019 A 
ATOM     14  O   UNL A   1      32.798  24.847  25.448  1.00  0.00    -0.475 OA
ATOM     15  Cl  UNL A   1      28.654  28.264  23.077  1.00  0.00    -0.084 Cl
ATOM     16  C   UNL A   1      29.997  25.937  23.326  1.00  0.00     0.032 A 
ATOM     17  C   UNL A   1      31.129  23.730  23.460  1.00  0.00     0.025 C 
ATOM     18  C   UNL A   1      33.277  23.718  24.667  1.00  0.00     0.314 C 
BRANCH   9  19
ATOM     19  C   UNL A   1      32.602  27.485  26.355  1.00  0.00     0.004 C 
ATOM     20  C   UNL A   1      32.187  28.045  27.497  1.00  0.00     0.009 C 
ENDBRANCH   9  19
BRANCH  18  21
ATOM     21  C   UNL A   1      34.497  24.157  23.835  1.00  0.00     0.429 C 
ATOM     22  F   UNL A   1      35.504  24.562  24.650  1.00  0.00    -0.167 F 
ATOM     23  F   UNL A   1      34.995  23.156  23.073  1.00  0.00    -0.167 F 
ATOM     24  F   UNL A   1      34.216  25.185  23.002  1.00  0.00    -0.167 F 
ENDBRANCH  18  21
ENDBRANCH   5   8
ENDBRANCH   3   4
ENDBRANCH   2   3
ENDBRANCH   1   2
BRANCH   1  25
ATOM     25  C   UNL A   1      37.313  21.617  25.145  1.00  0.00     0.116 C 
BRANCH  25  26
ATOM     26  N   UNL A   1      38.334  20.598  25.359  1.00  0.00    -0.352 N 
ATOM     27  C   UNL A   1      39.493  20.719  26.097  1.00  0.00     0.251 C 
ATOM     28  H   UNL A   1      38.178  19.728  24.929  1.00  0.00     0.163 HD
ATOM     29  O   UNL A   1      40.296  19.797  26.163  1.00  0.00    -0.269 OA
BRANCH  27  30
ATOM     30  C   UNL A   1      39.758  22.013  26.754  1.00  0.00     0.039 A 
ATOM     31  C   UNL A   1      39.193  23.180  26.237  1.00  0.00     0.014 A 
ATOM     32  C   UNL A   1      40.700  22.065  27.784  1.00  0.00     0.014 A 
ATOM     33  C   UNL A   1      39.702  24.411  26.630  1.00  0.00     0.010 A 
ATOM     34  C   UNL A   1      41.164  23.307  28.222  1.00  0.00     0.010 A 
ATOM     35  C   UNL A   1      40.716  24.484  27.602  1.00  0.00    -0.014 A 
BRANCH  35  36
ATOM     36  C   UNL A   1      41.331  25.798  27.914  1.00  0.00     0.031 A 
ATOM     37  C   UNL A   1      42.707  26.140  27.406  1.00  0.00     0.074 A 
ATOM     38  C   UNL A   1      40.623  26.708  28.607  1.00  0.00     0.049 A 
ATOM     39  N   UNL A   1      43.390  27.243  27.570  1.00  0.00    -0.248 NA
ATOM     40  C   UNL A   1      43.408  25.118  26.610  1.00  0.00     0.031 C 
ATOM     41  C   UNL A   1      39.281  26.489  29.152  1.00  0.00     0.029 A 
ATOM     42  N   UNL A   1      40.921  27.999  28.956  1.00  0.00    -0.354 N 
ATOM     43  C   UNL A   1      44.611  27.035  26.941  1.00  0.00     0.074 A 
ATOM     44  C   UNL A   1      44.578  25.701  26.384  1.00  0.00     0.031 C 
ATOM     45  C   UNL A   1      38.855  27.622  29.730  1.00  0.00     0.029 A 
ATOM     46  C   UNL A   1      39.907  28.630  29.635  1.00  0.00     0.049 A 
ATOM     47  H   UNL A   1      41.778  28.433  28.741  1.00  0.00     0.167 HD
ATOM     48  C   UNL A   1      45.656  27.887  26.818  1.00  0.00     0.034 A 
ATOM     49  C   UNL A   1      39.829  29.881  30.129  1.00  0.00     0.034 A 
ATOM     50  C   UNL A   1      45.668  29.235  27.316  1.00  0.00     0.049 A 
ATOM     51  C   UNL A   1      40.988  30.816  29.950  1.00  0.00     0.074 A 
ATOM     52  C   UNL A   1      46.680  30.174  27.227  1.00  0.00     0.029 A 
ATOM     53  N   UNL A   1      44.613  29.842  27.980  1.00  0.00    -0.354 N 
ATOM     54  N   UNL A   1      42.116  30.611  29.315  1.00  0.00    -0.248 NA
ATOM     55  C   UNL A   1      40.863  32.155  30.542  1.00  0.00     0.031 C 
ATOM     56  C   UNL A   1      46.231  31.356  27.825  1.00  0.00     0.029 A 
ATOM     57  C   UNL A   1      44.944  31.147  28.293  1.00  0.00     0.049 A 
ATOM     58  H   UNL A   1      43.756  29.407  28.195  1.00  0.00     0.167 HD
ATOM     59  C   UNL A   1      42.838  31.792  29.433  1.00  0.00     0.074 A 
ATOM     60  C   UNL A   1      42.007  32.720  30.172  1.00  0.00     0.031 C 
ATOM     61  C   UNL A   1      44.088  32.071  28.990  1.00  0.00     0.034 A 
BRANCH  48  62
ATOM     62  C   UNL A   1      46.864  27.413  26.060  1.00  0.00     0.023 A 
ATOM     63  C   UNL A   1      46.957  27.690  24.682  1.00  0.00     0.012 A 
ATOM     64  C   UNL A   1      47.937  26.779  26.716  1.00  0.00     0.148 A 
ATOM     65  C   UNL A   1      48.098  27.339  23.964  1.00  0.00     0.002 A 
ATOM     66  C   UNL A   1      49.082  26.452  25.998  1.00  0.00     0.091 A 
ATOM     67  F   UNL A   1      47.813  26.507  28.023  1.00  0.00    -0.205 F 
ATOM     68  C   UNL A   1      49.164  26.729  24.624  1.00  0.00     0.022 A 
BRANCH  66  69
ATOM     69  S   UNL A   1      50.526  25.705  26.763  1.00  0.00     0.127 S 
ATOM     70  O   UNL A   1      49.972  24.455  27.279  1.00  0.00    -0.237 OA
ATOM     71  O   UNL A   1      51.432  25.549  25.624  1.00  0.00    -0.237 OA
ATOM     72  O   UNL A   1      50.979  26.652  27.773  1.00  0.00    -0.744 OA
ENDBRANCH  66  69
ENDBRANCH  48  62
BRANCH  49  73
ATOM     73  C   UNL A   1      38.568  30.317  30.783  1.00  0.00     0.023 A 
ATOM     74  C   UNL A   1      38.421  30.149  32.172  1.00  0.00     0.012 A 
ATOM     75  C   UNL A   1      37.568  30.994  30.057  1.00  0.00     0.148 A 
ATOM     76  C   UNL A   1      37.299  30.652  32.831  1.00  0.00     0.002 A 
ATOM     77  C   UNL A   1      36.478  31.535  30.727  1.00  0.00     0.091 A 
ATOM     78  F   UNL A   1      37.729  31.129  28.733  1.00  0.00    -0.205 F 
ATOM     79  C   UNL A   1      36.337  31.357  32.112  1.00  0.00     0.022 A 
BRANCH  77  80
ATOM     80  S   UNL A   1      35.263  32.573  29.905  1.00  0.00     0.127 S 
ATOM     81  O   UNL A   1      34.761  31.678  28.866  1.00  0.00    -0.237 OA
ATOM     82  O   UNL A   1      34.320  32.848  30.991  1.00  0.00    -0.237 OA
ATOM     83  O   UNL A   1      35.996  33.740  29.435  1.00  0.00    -0.744 OA
ENDBRANCH  77  80
ENDBRANCH  49  73
BRANCH  61  84
ATOM     84  C   UNL A   1      44.651  33.427  29.303  1.00  0.00     0.023 A 
ATOM     85  C   UNL A   1      45.426  33.589  30.468  1.00  0.00     0.012 A 
ATOM     86  C   UNL A   1      44.507  34.501  28.405  1.00  0.00     0.148 A 
ATOM     87  C   UNL A   1      46.045  34.806  30.740  1.00  0.00     0.002 A 
ATOM     88  C   UNL A   1      45.150  35.704  28.670  1.00  0.00     0.091 A 
ATOM     89  F   UNL A   1      43.751  34.324  27.313  1.00  0.00    -0.205 F 
ATOM     90  C   UNL A   1      45.917  35.859  29.838  1.00  0.00     0.022 A 
BRANCH  88  91
ATOM     91  S   UNL A   1      45.094  37.095  27.535  1.00  0.00     0.127 S 
ATOM     92  O   UNL A   1      45.553  38.192  28.385  1.00  0.00    -0.237 OA
ATOM     93  O   UNL A   1      46.042  36.690  26.496  1.00  0.00    -0.237 OA
ATOM     94  O   UNL A   1      43.711  37.188  27.085  1.00  0.00    -0.744 OA
ENDBRANCH  88  91
ENDBRANCH  61  84
ENDBRANCH  35  36
ENDBRANCH  27  30
ENDBRANCH  25  26
ENDBRANCH   1  25
TORSDOF 16
ENDMDL
MODEL 2
REMARK VINA RESULT:     -12.4      4.937     10.091
REMARK SMILES C=Cc1cc(Cl)cc2c1O[C@H](C(F)(F)F)C(C(=O)NCCCCNC(=O)c1ccc(-c3c4nc(c(-c5cccc(S(=O)(=O)[O-])c5F)c5ccc([nH]5)c(-c5cccc(S(=O)(=O)[O-])c5F)c5nc(c(-c6cccc(S(=O)(=O)[O-])c6F)c6ccc3[nH]6)C=C5)C=C4)cc1)=C2
REMARK SMILES IDX 22 1 21 2 20 3 19 4 17 5 18 6 16 8 3 9 4 10 9 11 5 12 8 13
REMARK SMILES IDX 10 14 6 15 7 16 90 17 11 18 2 19 1 20 12 21 13 22 14 23
REMARK SMILES IDX 15 24 23 25 24 26 25 27 26 29 27 30 28 31 89 32 29 33 88 34
REMARK SMILES IDX 30 35 31 36 32 37 82 38 33 39 87 40 81 41 83 42 34 43 86 44
REMARK SMILES IDX 80 45 79 46 35 48 67 49 47 50 66 51 48 52 51 53 65 54 84 55
REMARK SMILES IDX 49 56 50 57 64 59 85 60 52 61 36 62 37 63 45 64 38 65 40 66
REMARK SMILES IDX 46 67 39 68 41 69 42 70 43 71 44 72 68 73 69 74 77 75 70 76
REMARK SMILES IDX 72 77 78 78 71 79 73 80 74 81 75 82 76 83 53 84 54 85 62 86
REMARK SMILES IDX 55 87 57 88 63 89 56 90 58 91 59 92 60 93 61 94
REMARK H PARENT 19 7 24 28 83 47 51 58
REMARK Flexibility Score: inf
ROOT
ATOM      1  C   UNL A   1      31.721  29.813  25.232  1.00  0.00     0.023 C 
ENDROOT
BRANCH   1   2
ATOM      2  C   UNL A   1      32.518  29.029  24.186  1.00  0.00     0.023 C 
BRANCH   2   3
ATOM      3  C   UNL A   1      32.106  27.567  24.047  1.00  0.00     0.116 C 
BRANCH   3   4
ATOM      4  N   UNL A   1      31.288  27.120  25.162  1.00  0.00    -0.352 N 
ATOM      5  C   UNL A   1      31.095  25.967  25.843  1.00  0.00     0.251 C 
ATOM      6  O   UNL A   1      30.271  26.025  26.762  1.00  0.00    -0.270 OA
ATOM      7  H   UNL A   1      30.726  27.847  25.514  1.00  0.00     0.163 HD
BRANCH   5   8
ATOM      8  C   UNL A   1      31.789  24.673  25.565  1.00  0.00     0.067 C 
ATOM      9  C   UNL A   1      33.862  21.033  25.079  1.00  0.00     0.018 A 
ATOM     10  C   UNL A   1      35.256  21.027  25.214  1.00  0.00     0.032 A 
ATOM     11  C   UNL A   1      33.167  22.238  25.286  1.00  0.00     0.135 A 
ATOM     12  C   UNL A   1      35.930  22.193  25.577  1.00  0.00     0.042 A 
ATOM     13  C   UNL A   1      33.844  23.403  25.661  1.00  0.00     0.019 A 
ATOM     14  O   UNL A   1      31.802  22.219  25.169  1.00  0.00    -0.475 OA
ATOM     15  Cl  UNL A   1      37.644  22.167  25.744  1.00  0.00    -0.084 Cl
ATOM     16  C   UNL A   1      35.234  23.378  25.809  1.00  0.00     0.032 A 
ATOM     17  C   UNL A   1      33.085  24.620  25.929  1.00  0.00     0.025 C 
ATOM     18  C   UNL A   1      31.157  23.492  24.888  1.00  0.00     0.314 C 
BRANCH   9  19
ATOM     19  C   UNL A   1      33.142  19.817  24.668  1.00  0.00     0.004 C 
ATOM     20  C   UNL A   1      32.802  18.834  25.510  1.00  0.00     0.009 C 
ENDBRANCH   9  19
BRANCH  18  21
ATOM     21  C   UNL A   1      31.038  23.675  23.363  1.00  0.00     0.429 C 
ATOM     22  F   UNL A   1      32.071  24.418  22.893  1.00  0.00    -0.167 F 
ATOM     23  F   UNL A   1      31.070  22.500  22.693  1.00  0.00    -0.167 F 
ATOM     24  F   UNL A   1      29.895  24.304  23.003  1.00  0.00    -0.167 F 
ENDBRANCH  18  21
ENDBRANCH   5   8
ENDBRANCH   3   4
ENDBRANCH   2   3
ENDBRANCH   1   2
BRANCH   1  25
ATOM     25  C   UNL A   1      32.498  30.227  26.480  1.00  0.00     0.116 C 
BRANCH  25  26
ATOM     26  N   UNL A   1      32.293  31.611  26.884  1.00  0.00    -0.352 N 
ATOM     27  C   UNL A   1      33.209  32.453  27.479  1.00  0.00     0.251 C 
ATOM     28  H   UNL A   1      31.400  31.988  26.713  1.00  0.00     0.163 HD
ATOM     29  O   UNL A   1      32.898  33.589  27.813  1.00  0.00    -0.269 OA
BRANCH  27  30
ATOM     30  C   UNL A   1      34.557  31.919  27.752  1.00  0.00     0.039 A 
ATOM     31  C   UNL A   1      34.725  30.554  27.989  1.00  0.00     0.014 A 
ATOM     32  C   UNL A   1      35.614  32.815  27.929  1.00  0.00     0.014 A 
ATOM     33  C   UNL A   1      35.904  30.107  28.573  1.00  0.00     0.010 A 
ATOM     34  C   UNL A   1      36.820  32.351  28.456  1.00  0.00     0.010 A 
ATOM     35  C   UNL A   1      36.950  31.008  28.842  1.00  0.00    -0.014 A 
BRANCH  35  36
ATOM     36  C   UNL A   1      38.147  30.533  29.579  1.00  0.00     0.031 A 
ATOM     37  C   UNL A   1      38.361  30.914  31.021  1.00  0.00     0.074 A 
ATOM     38  C   UNL A   1      39.013  29.707  28.965  1.00  0.00     0.049 A 
ATOM     39  N   UNL A   1      39.340  30.579  31.820  1.00  0.00    -0.248 NA
ATOM     40  C   UNL A   1      37.349  31.781  31.649  1.00  0.00     0.031 C 
ATOM     41  C   UNL A   1      38.910  29.270  27.571  1.00  0.00     0.029 A 
ATOM     42  N   UNL A   1      40.134  29.074  29.434  1.00  0.00    -0.354 N 
ATOM     43  C   UNL A   1      39.089  31.223  33.025  1.00  0.00     0.074 A 
ATOM     44  C   UNL A   1      37.861  31.968  32.858  1.00  0.00     0.031 C 
ATOM     45  C   UNL A   1      39.903  28.407  27.310  1.00  0.00     0.029 A 
ATOM     46  C   UNL A   1      40.735  28.264  28.501  1.00  0.00     0.049 A 
ATOM     47  H   UNL A   1      40.476  29.189  30.350  1.00  0.00     0.167 HD
ATOM     48  C   UNL A   1      39.804  31.179  34.174  1.00  0.00     0.034 A 
ATOM     49  C   UNL A   1      41.835  27.492  28.591  1.00  0.00     0.034 A 
ATOM     50  C   UNL A   1      40.991  30.390  34.362  1.00  0.00     0.049 A 
ATOM     51  C   UNL A   1      42.591  27.435  29.885  1.00  0.00     0.074 A 
ATOM     52  C   UNL A   1      41.774  30.276  35.496  1.00  0.00     0.029 A 
ATOM     53  N   UNL A   1      41.554  29.568  33.399  1.00  0.00    -0.354 N 
ATOM     54  N   UNL A   1      42.311  28.020  31.024  1.00  0.00    -0.248 NA
ATOM     55  C   UNL A   1      43.804  26.606  29.914  1.00  0.00     0.031 C 
ATOM     56  C   UNL A   1      42.806  29.372  35.224  1.00  0.00     0.029 A 
ATOM     57  C   UNL A   1      42.667  28.932  33.917  1.00  0.00     0.049 A 
ATOM     58  H   UNL A   1      41.212  29.454  32.483  1.00  0.00     0.167 HD
ATOM     59  C   UNL A   1      43.313  27.634  31.906  1.00  0.00     0.074 A 
ATOM     60  C   UNL A   1      44.189  26.739  31.178  1.00  0.00     0.031 C 
ATOM     61  C   UNL A   1      43.502  28.010  33.193  1.00  0.00     0.034 A 
BRANCH  48  62
ATOM     62  C   UNL A   1      39.292  31.961  35.351  1.00  0.00     0.023 A 
ATOM     63  C   UNL A   1      38.396  31.343  36.244  1.00  0.00     0.012 A 
ATOM     64  C   UNL A   1      39.759  33.262  35.623  1.00  0.00     0.148 A 
ATOM     65  C   UNL A   1      37.965  32.008  37.390  1.00  0.00     0.002 A 
ATOM     66  C   UNL A   1      39.344  33.911  36.780  1.00  0.00     0.091 A 
ATOM     67  F   UNL A   1      40.595  33.836  34.745  1.00  0.00    -0.205 F 
ATOM     68  C   UNL A   1      38.446  33.288  37.662  1.00  0.00     0.022 A 
BRANCH  66  69
ATOM     69  S   UNL A   1      39.939  35.541  37.245  1.00  0.00     0.127 S 
ATOM     70  O   UNL A   1      39.538  36.341  36.090  1.00  0.00    -0.237 OA
ATOM     71  O   UNL A   1      39.180  35.809  38.467  1.00  0.00    -0.237 OA
ATOM     72  O   UNL A   1      41.376  35.402  37.440  1.00  0.00    -0.744 OA
ENDBRANCH  66  69
ENDBRANCH  48  62
BRANCH  49  73
ATOM     73  C   UNL A   1      42.231  26.667  27.419  1.00  0.00     0.023 A 
ATOM     74  C   UNL A   1      43.015  27.248  26.405  1.00  0.00     0.012 A 
ATOM     75  C   UNL A   1      41.930  25.293  27.362  1.00  0.00     0.148 A 
ATOM     76  C   UNL A   1      43.497  26.471  25.352  1.00  0.00     0.002 A 
ATOM     77  C   UNL A   1      42.454  24.516  26.337  1.00  0.00     0.091 A 
ATOM     78  F   UNL A   1      41.170  24.770  28.334  1.00  0.00    -0.205 F 
ATOM     79  C   UNL A   1      43.231  25.104  25.326  1.00  0.00     0.022 A 
BRANCH  77  80
ATOM     80  S   UNL A   1      42.276  22.728  26.298  1.00  0.00     0.127 S 
ATOM     81  O   UNL A   1      43.055  22.326  27.466  1.00  0.00    -0.237 OA
ATOM     82  O   UNL A   1      40.828  22.567  26.437  1.00  0.00    -0.237 OA
ATOM     83  O   UNL A   1      42.806  22.307  25.009  1.00  0.00    -0.744 OA
ENDBRANCH  77  80
ENDBRANCH  49  73
BRANCH  61  84
ATOM     84  C   UNL A   1      44.711  27.474  33.905  1.00  0.00     0.023 A 
ATOM     85  C   UNL A   1      45.895  28.237  33.902  1.00  0.00     0.012 A 
ATOM     86  C   UNL A   1      44.647  26.286  34.656  1.00  0.00     0.148 A 
ATOM     87  C   UNL A   1      47.004  27.819  34.633  1.00  0.00     0.002 A 
ATOM     88  C   UNL A   1      45.750  25.889  35.403  1.00  0.00     0.091 A 
ATOM     89  F   UNL A   1      43.514  25.571  34.627  1.00  0.00    -0.205 F 
ATOM     90  C   UNL A   1      46.930  26.653  35.390  1.00  0.00     0.022 A 
BRANCH  88  91
ATOM     91  S   UNL A   1      45.725  24.436  36.459  1.00  0.00     0.127 S 
ATOM     92  O   UNL A   1      47.075  24.452  37.019  1.00  0.00    -0.237 OA
ATOM     93  O   UNL A   1      44.663  24.762  37.413  1.00  0.00    -0.237 OA
ATOM     94  O   UNL A   1      45.424  23.312  35.583  1.00  0.00    -0.744 OA
ENDBRANCH  88  91
ENDBRANCH  61  84
ENDBRANCH  35  36
ENDBRANCH  27  30
ENDBRANCH  25  26
ENDBRANCH   1  25
TORSDOF 16
ENDMDL
MODEL 3
REMARK VINA RESULT:     -12.4      1.853      2.351
REMARK SMILES C=Cc1cc(Cl)cc2c1O[C@H](C(F)(F)F)C(C(=O)NCCCCNC(=O)c1ccc(-c3c4nc(c(-c5cccc(S(=O)(=O)[O-])c5F)c5ccc([nH]5)c(-c5cccc(S(=O)(=O)[O-])c5F)c5nc(c(-c6cccc(S(=O)(=O)[O-])c6F)c6ccc3[nH]6)C=C5)C=C4)cc1)=C2
REMARK SMILES IDX 22 1 21 2 20 3 19 4 17 5 18 6 16 8 3 9 4 10 9 11 5 12 8 13
REMARK SMILES IDX 10 14 6 15 7 16 90 17 11 18 2 19 1 20 12 21 13 22 14 23
REMARK SMILES IDX 15 24 23 25 24 26 25 27 26 29 27 30 28 31 89 32 29 33 88 34
REMARK SMILES IDX 30 35 31 36 32 37 82 38 33 39 87 40 81 41 83 42 34 43 86 44
REMARK SMILES IDX 80 45 79 46 35 48 67 49 47 50 66 51 48 52 51 53 65 54 84 55
REMARK SMILES IDX 49 56 50 57 64 59 85 60 52 61 36 62 37 63 45 64 38 65 40 66
REMARK SMILES IDX 46 67 39 68 41 69 42 70 43 71 44 72 68 73 69 74 77 75 70 76
REMARK SMILES IDX 72 77 78 78 71 79 73 80 74 81 75 82 76 83 53 84 54 85 62 86
REMARK SMILES IDX 55 87 57 88 63 89 56 90 58 91 59 92 60 93 61 94
REMARK H PARENT 19 7 24 28 83 47 51 58
REMARK Flexibility Score: inf
ROOT
ATOM      1  C   UNL A   1      36.030  20.961  25.171  1.00  0.00     0.023 C 
ENDROOT
BRANCH   1   2
ATOM      2  C   UNL A   1      35.001  21.598  26.110  1.00  0.00     0.023 C 
BRANCH   2   3
ATOM      3  C   UNL A   1      34.319  22.841  25.545  1.00  0.00     0.116 C 
BRANCH   3   4
ATOM      4  N   UNL A   1      34.371  22.882  24.094  1.00  0.00    -0.352 N 
ATOM      5  C   UNL A   1      33.918  23.699  23.114  1.00  0.00     0.251 C 
ATOM      6  O   UNL A   1      34.196  23.350  21.962  1.00  0.00    -0.270 OA
ATOM      7  H   UNL A   1      34.865  22.115  23.727  1.00  0.00     0.163 HD
BRANCH   5   8
ATOM      8  C   UNL A   1      33.133  24.952  23.329  1.00  0.00     0.067 C 
ATOM      9  C   UNL A   1      31.181  28.651  23.863  1.00  0.00     0.018 A 
ATOM     10  C   UNL A   1      31.652  29.526  24.851  1.00  0.00     0.032 A 
ATOM     11  C   UNL A   1      31.860  27.437  23.655  1.00  0.00     0.135 A 
ATOM     12  C   UNL A   1      32.791  29.204  25.588  1.00  0.00     0.042 A 
ATOM     13  C   UNL A   1      33.010  27.122  24.387  1.00  0.00     0.019 A 
ATOM     14  O   UNL A   1      31.396  26.604  22.671  1.00  0.00    -0.475 OA
ATOM     15  Cl  UNL A   1      33.359  30.293  26.794  1.00  0.00    -0.084 Cl
ATOM     16  C   UNL A   1      33.477  28.013  25.357  1.00  0.00     0.032 A 
ATOM     17  C   UNL A   1      33.725  25.883  24.101  1.00  0.00     0.025 C 
ATOM     18  C   UNL A   1      31.754  25.200  22.789  1.00  0.00     0.314 C 
BRANCH   9  19
ATOM     19  C   UNL A   1      29.963  28.966  23.100  1.00  0.00     0.004 C 
ATOM     20  C   UNL A   1      29.951  29.728  22.000  1.00  0.00     0.009 C 
ENDBRANCH   9  19
BRANCH  18  21
ATOM     21  C   UNL A   1      30.662  24.461  23.585  1.00  0.00     0.429 C 
ATOM     22  F   UNL A   1      30.300  23.320  22.946  1.00  0.00    -0.167 F 
ATOM     23  F   UNL A   1      31.074  24.097  24.821  1.00  0.00    -0.167 F 
ATOM     24  F   UNL A   1      29.543  25.204  23.744  1.00  0.00    -0.167 F 
ENDBRANCH  18  21
ENDBRANCH   5   8
ENDBRANCH   3   4
ENDBRANCH   2   3
ENDBRANCH   1   2
BRANCH   1  25
ATOM     25  C   UNL A   1      37.441  21.539  25.251  1.00  0.00     0.116 C 
BRANCH  25  26
ATOM     26  N   UNL A   1      38.491  20.541  25.403  1.00  0.00    -0.352 N 
ATOM     27  C   UNL A   1      39.673  20.671  26.102  1.00  0.00     0.251 C 
ATOM     28  H   UNL A   1      38.341  19.677  24.958  1.00  0.00     0.163 HD
ATOM     29  O   UNL A   1      40.500  19.768  26.117  1.00  0.00    -0.269 OA
BRANCH  27  30
ATOM     30  C   UNL A   1      39.933  21.956  26.781  1.00  0.00     0.039 A 
ATOM     31  C   UNL A   1      39.342  23.125  26.298  1.00  0.00     0.014 A 
ATOM     32  C   UNL A   1      40.894  22.001  27.793  1.00  0.00     0.014 A 
ATOM     33  C   UNL A   1      39.840  24.355  26.707  1.00  0.00     0.010 A 
ATOM     34  C   UNL A   1      41.348  23.240  28.248  1.00  0.00     0.010 A 
ATOM     35  C   UNL A   1      40.871  24.423  27.661  1.00  0.00    -0.014 A 
BRANCH  35  36
ATOM     36  C   UNL A   1      41.474  25.739  27.988  1.00  0.00     0.031 A 
ATOM     37  C   UNL A   1      42.846  26.101  27.485  1.00  0.00     0.074 A 
ATOM     38  C   UNL A   1      40.756  26.634  28.691  1.00  0.00     0.049 A 
ATOM     39  N   UNL A   1      43.518  27.209  27.662  1.00  0.00    -0.248 NA
ATOM     40  C   UNL A   1      43.558  25.094  26.678  1.00  0.00     0.031 C 
ATOM     41  C   UNL A   1      39.416  26.397  29.233  1.00  0.00     0.029 A 
ATOM     42  N   UNL A   1      41.041  27.925  29.054  1.00  0.00    -0.354 N 
ATOM     43  C   UNL A   1      44.742  27.019  27.031  1.00  0.00     0.074 A 
ATOM     44  C   UNL A   1      44.722  25.691  26.459  1.00  0.00     0.031 C 
ATOM     45  C   UNL A   1      38.978  27.518  29.822  1.00  0.00     0.029 A 
ATOM     46  C   UNL A   1      40.020  28.538  29.739  1.00  0.00     0.049 A 
ATOM     47  H   UNL A   1      41.894  28.369  28.844  1.00  0.00     0.167 HD
ATOM     48  C   UNL A   1      45.778  27.883  26.918  1.00  0.00     0.034 A 
ATOM     49  C   UNL A   1      39.931  29.782  30.247  1.00  0.00     0.034 A 
ATOM     50  C   UNL A   1      45.777  29.225  27.432  1.00  0.00     0.049 A 
ATOM     51  C   UNL A   1      41.080  30.730  30.080  1.00  0.00     0.074 A 
ATOM     52  C   UNL A   1      46.780  30.175  27.354  1.00  0.00     0.029 A 
ATOM     53  N   UNL A   1      44.716  29.814  28.101  1.00  0.00    -0.354 N 
ATOM     54  N   UNL A   1      42.211  30.543  29.444  1.00  0.00    -0.248 NA
ATOM     55  C   UNL A   1      40.942  32.061  30.687  1.00  0.00     0.031 C 
ATOM     56  C   UNL A   1      46.319  31.345  27.965  1.00  0.00     0.029 A 
ATOM     57  C   UNL A   1      45.034  31.119  28.429  1.00  0.00     0.049 A 
ATOM     58  H   UNL A   1      43.863  29.369  28.311  1.00  0.00     0.167 HD
ATOM     59  C   UNL A   1      42.921  31.730  29.575  1.00  0.00     0.074 A 
ATOM     60  C   UNL A   1      42.080  32.641  30.324  1.00  0.00     0.031 C 
ATOM     61  C   UNL A   1      44.168  32.026  29.136  1.00  0.00     0.034 A 
BRANCH  48  62
ATOM     62  C   UNL A   1      46.991  27.429  26.155  1.00  0.00     0.023 A 
ATOM     63  C   UNL A   1      47.910  26.567  26.785  1.00  0.00     0.012 A 
ATOM     64  C   UNL A   1      47.178  27.777  24.804  1.00  0.00     0.148 A 
ATOM     65  C   UNL A   1      49.002  26.060  26.083  1.00  0.00     0.002 A 
ATOM     66  C   UNL A   1      48.256  27.250  24.103  1.00  0.00     0.091 A 
ATOM     67  F   UNL A   1      46.301  28.617  24.235  1.00  0.00    -0.205 F 
ATOM     68  C   UNL A   1      49.169  26.393  24.740  1.00  0.00     0.022 A 
BRANCH  66  69
ATOM     69  S   UNL A   1      48.536  27.581  22.359  1.00  0.00     0.127 S 
ATOM     70  O   UNL A   1      48.604  26.228  21.810  1.00  0.00    -0.237 OA
ATOM     71  O   UNL A   1      47.335  28.330  21.991  1.00  0.00    -0.237 OA
ATOM     72  O   UNL A   1      49.774  28.345  22.290  1.00  0.00    -0.744 OA
ENDBRANCH  66  69
ENDBRANCH  48  62
BRANCH  49  73
ATOM     73  C   UNL A   1      38.665  30.199  30.905  1.00  0.00     0.023 A 
ATOM     74  C   UNL A   1      38.478  29.921  32.272  1.00  0.00     0.012 A 
ATOM     75  C   UNL A   1      37.702  30.961  30.215  1.00  0.00     0.148 A 
ATOM     76  C   UNL A   1      37.353  30.399  32.943  1.00  0.00     0.002 A 
ATOM     77  C   UNL A   1      36.610  31.475  30.902  1.00  0.00     0.091 A 
ATOM     78  F   UNL A   1      37.900  31.199  28.911  1.00  0.00    -0.205 F 
ATOM     79  C   UNL A   1      36.429  31.188  32.263  1.00  0.00     0.022 A 
BRANCH  77  80
ATOM     80  S   UNL A   1      35.444  32.611  30.140  1.00  0.00     0.127 S 
ATOM     81  O   UNL A   1      34.990  31.842  28.985  1.00  0.00    -0.237 OA
ATOM     82  O   UNL A   1      34.449  32.777  31.201  1.00  0.00    -0.237 OA
ATOM     83  O   UNL A   1      36.207  33.815  29.839  1.00  0.00    -0.744 OA
ENDBRANCH  77  80
ENDBRANCH  49  73
BRANCH  61  84
ATOM     84  C   UNL A   1      44.718  33.384  29.464  1.00  0.00     0.023 A 
ATOM     85  C   UNL A   1      45.491  33.540  30.632  1.00  0.00     0.012 A 
ATOM     86  C   UNL A   1      44.564  34.466  28.579  1.00  0.00     0.148 A 
ATOM     87  C   UNL A   1      46.098  34.760  30.917  1.00  0.00     0.002 A 
ATOM     88  C   UNL A   1      45.195  35.673  28.858  1.00  0.00     0.091 A 
ATOM     89  F   UNL A   1      43.810  34.295  27.484  1.00  0.00    -0.205 F 
ATOM     90  C   UNL A   1      45.960  35.822  30.028  1.00  0.00     0.022 A 
BRANCH  88  91
ATOM     91  S   UNL A   1      45.125  37.076  27.738  1.00  0.00     0.127 S 
ATOM     92  O   UNL A   1      45.900  38.078  28.468  1.00  0.00    -0.237 OA
ATOM     93  O   UNL A   1      45.780  36.552  26.539  1.00  0.00    -0.237 OA
ATOM     94  O   UNL A   1      43.711  37.382  27.568  1.00  0.00    -0.744 OA
ENDBRANCH  88  91
ENDBRANCH  61  84
ENDBRANCH  35  36
ENDBRANCH  27  30
ENDBRANCH  25  26
ENDBRANCH   1  25
TORSDOF 16
ENDMDL
