MODEL 1
REMARK VINA RESULT:     -11.9      0.000      0.000
REMARK SMILES [NH3+]Cc1ccc(C(=O)N2[C@@H](C(=O)NCCCCNC(=O)c3ccc(-c4c5nc(c(-c6cccc(S(=O)(=O)[O-])c6F)c6ccc([nH]6)c(-c6cccc(S(=O)(=O)[O-])c6F)c6nc(c(-c7cccc(S(=O)(=O)[O-])c7F)c7ccc4[nH]7)C=C6)C=C5)cc3)C[C@H]3CCCC[C@@H]32)o1
REMARK SMILES IDX 15 1 14 2 13 3 11 4 12 5 10 7 9 8 90 9 84 10 85 11 89 12
REMARK SMILES IDX 86 13 88 14 87 15 7 16 8 17 6 18 3 19 4 20 91 21 5 22 2 23
REMARK SMILES IDX 1 24 16 28 17 29 18 30 19 31 20 33 21 34 22 35 83 36 23 37
REMARK SMILES IDX 82 38 24 39 25 40 26 41 76 42 27 43 81 44 75 45 77 46 28 47
REMARK SMILES IDX 80 48 74 49 73 50 29 52 61 53 41 54 60 55 42 56 45 57 59 58
REMARK SMILES IDX 78 59 43 60 44 61 58 63 79 64 46 65 30 66 31 67 39 68 32 69
REMARK SMILES IDX 34 70 40 71 33 72 35 73 36 74 37 75 38 76 62 77 63 78 71 79
REMARK SMILES IDX 64 80 66 81 72 82 65 83 67 84 68 85 69 86 70 87 47 88 48 89
REMARK SMILES IDX 56 90 49 91 51 92 57 93 50 94 52 95 53 96 54 97 55 98
REMARK H PARENT 13 6 1 25 1 26 1 27 18 32 77 51 45 62
REMARK Flexibility Score: inf
ROOT
ATOM      1  C   UNL A   1      33.530  28.226  24.853  1.00  0.00     0.023 C 
ENDROOT
BRANCH   1   2
ATOM      2  C   UNL A   1      33.786  27.455  26.143  1.00  0.00     0.116 C 
BRANCH   2   3
ATOM      3  N   UNL A   1      32.641  26.678  26.577  1.00  0.00    -0.354 N 
ATOM      4  C   UNL A   1      32.369  25.354  26.340  1.00  0.00     0.242 C 
ATOM      5  O   UNL A   1      31.360  24.866  26.846  1.00  0.00    -0.273 OA
ATOM      6  H   UNL A   1      31.972  27.164  27.111  1.00  0.00     0.163 HD
BRANCH   4   7
ATOM      7  C   UNL A   1      33.342  24.546  25.449  1.00  0.00     0.175 C 
ATOM      8  N   UNL A   1      32.777  24.221  24.120  1.00  0.00    -0.321 N 
ATOM      9  C   UNL A   1      32.355  22.833  24.089  1.00  0.00     0.089 C 
ATOM     10  C   UNL A   1      33.590  23.162  26.098  1.00  0.00     0.041 C 
ATOM     11  C   UNL A   1      33.473  22.204  24.924  1.00  0.00     0.014 C 
ATOM     12  C   UNL A   1      32.286  22.109  22.744  1.00  0.00     0.025 C 
ATOM     13  C   UNL A   1      33.200  20.746  25.234  1.00  0.00     0.006 C 
ATOM     14  C   UNL A   1      32.072  20.604  22.956  1.00  0.00     0.002 C 
ATOM     15  C   UNL A   1      33.092  19.977  23.913  1.00  0.00     0.000 C 
BRANCH   8  16
ATOM     16  C   UNL A   1      32.540  25.092  23.070  1.00  0.00     0.290 C 
ATOM     17  O   UNL A   1      33.419  25.296  22.222  1.00  0.00    -0.265 OA
BRANCH  16  18
ATOM     18  C   UNL A   1      31.330  25.902  23.113  1.00  0.00     0.192 A 
ATOM     19  C   UNL A   1      30.259  27.842  23.015  1.00  0.00     0.159 A 
ATOM     20  C   UNL A   1      29.369  26.940  23.551  1.00  0.00     0.052 A 
ATOM     21  O   UNL A   1      31.433  27.217  22.722  1.00  0.00    -0.450 OA
ATOM     22  C   UNL A   1      30.062  25.707  23.639  1.00  0.00     0.057 A 
BRANCH  19  23
ATOM     23  C   UNL A   1      30.197  29.307  22.773  1.00  0.00     0.335 C 
BRANCH  23  24
ATOM     24  N   UNL A   1      31.079  29.712  21.684  1.00  0.00    -0.351 N 
ATOM     25  H   UNL A   1      31.853  30.259  22.060  1.00  0.00     0.344 HD
ATOM     26  H   UNL A   1      30.557  30.278  21.015  1.00  0.00     0.344 HD
ATOM     27  H   UNL A   1      31.444  28.883  21.216  1.00  0.00     0.344 HD
ENDBRANCH  23  24
ENDBRANCH  19  23
ENDBRANCH  16  18
ENDBRANCH   8  16
ENDBRANCH   4   7
ENDBRANCH   2   3
ENDBRANCH   1   2
BRANCH   1  28
ATOM     28  C   UNL A   1      33.161  29.699  25.024  1.00  0.00     0.023 C 
BRANCH  28  29
ATOM     29  C   UNL A   1      32.340  30.044  26.264  1.00  0.00     0.116 C 
BRANCH  29  30
ATOM     30  N   UNL A   1      32.253  31.475  26.518  1.00  0.00    -0.352 N 
ATOM     31  C   UNL A   1      33.065  32.281  27.280  1.00  0.00     0.251 C 
ATOM     32  H   UNL A   1      31.501  31.933  26.078  1.00  0.00     0.163 HD
ATOM     33  O   UNL A   1      32.752  33.456  27.456  1.00  0.00    -0.269 OA
BRANCH  31  34
ATOM     34  C   UNL A   1      34.290  31.738  27.910  1.00  0.00     0.039 A 
ATOM     35  C   UNL A   1      35.401  32.575  28.056  1.00  0.00     0.014 A 
ATOM     36  C   UNL A   1      34.356  30.411  28.341  1.00  0.00     0.014 A 
ATOM     37  C   UNL A   1      36.554  32.099  28.688  1.00  0.00     0.010 A 
ATOM     38  C   UNL A   1      35.478  29.960  29.032  1.00  0.00     0.010 A 
ATOM     39  C   UNL A   1      36.592  30.795  29.205  1.00  0.00    -0.014 A 
BRANCH  39  40
ATOM     40  C   UNL A   1      37.791  30.273  29.910  1.00  0.00     0.031 A 
ATOM     41  C   UNL A   1      38.094  30.730  31.313  1.00  0.00     0.074 A 
ATOM     42  C   UNL A   1      38.655  29.468  29.261  1.00  0.00     0.049 A 
ATOM     43  N   UNL A   1      39.130  30.457  32.063  1.00  0.00    -0.248 NA
ATOM     44  C   UNL A   1      37.123  31.639  31.943  1.00  0.00     0.031 C 
ATOM     45  C   UNL A   1      38.521  29.022  27.873  1.00  0.00     0.029 A 
ATOM     46  N   UNL A   1      39.837  28.905  29.676  1.00  0.00    -0.354 N 
ATOM     47  C   UNL A   1      38.962  31.197  33.228  1.00  0.00     0.074 A 
ATOM     48  C   UNL A   1      37.736  31.949  33.077  1.00  0.00     0.031 C 
ATOM     49  C   UNL A   1      39.578  28.258  27.552  1.00  0.00     0.029 A 
ATOM     50  C   UNL A   1      40.472  28.170  28.702  1.00  0.00     0.049 A 
ATOM     51  H   UNL A   1      40.197  29.018  30.586  1.00  0.00     0.167 HD
ATOM     52  C   UNL A   1      39.736  31.222  34.338  1.00  0.00     0.034 A 
ATOM     53  C   UNL A   1      41.639  27.497  28.735  1.00  0.00     0.034 A 
ATOM     54  C   UNL A   1      40.910  30.413  34.519  1.00  0.00     0.049 A 
ATOM     55  C   UNL A   1      42.427  27.460  30.019  1.00  0.00     0.074 A 
ATOM     56  C   UNL A   1      41.712  30.298  35.641  1.00  0.00     0.029 A 
ATOM     57  N   UNL A   1      41.442  29.569  33.557  1.00  0.00    -0.354 N 
ATOM     58  N   UNL A   1      42.163  28.039  31.164  1.00  0.00    -0.248 NA
ATOM     59  C   UNL A   1      43.649  26.642  30.028  1.00  0.00     0.031 C 
ATOM     60  C   UNL A   1      42.725  29.376  35.360  1.00  0.00     0.029 A 
ATOM     61  C   UNL A   1      42.553  28.918  34.064  1.00  0.00     0.049 A 
ATOM     62  H   UNL A   1      41.082  29.449  32.649  1.00  0.00     0.167 HD
ATOM     63  C   UNL A   1      43.159  27.624  32.040  1.00  0.00     0.074 A 
ATOM     64  C   UNL A   1      44.023  26.729  31.297  1.00  0.00     0.031 C 
ATOM     65  C   UNL A   1      43.353  27.967  33.337  1.00  0.00     0.034 A 
BRANCH  52  66
ATOM     66  C   UNL A   1      39.294  32.097  35.479  1.00  0.00     0.023 A 
ATOM     67  C   UNL A   1      38.418  31.570  36.449  1.00  0.00     0.012 A 
ATOM     68  C   UNL A   1      39.783  33.410  35.627  1.00  0.00     0.148 A 
ATOM     69  C   UNL A   1      38.012  32.344  37.535  1.00  0.00     0.002 A 
ATOM     70  C   UNL A   1      39.403  34.162  36.733  1.00  0.00     0.091 A 
ATOM     71  F   UNL A   1      40.595  33.902  34.681  1.00  0.00    -0.205 F 
ATOM     72  C   UNL A   1      38.512  33.634  37.682  1.00  0.00     0.022 A 
BRANCH  70  73
ATOM     73  S   UNL A   1      40.047  35.810  37.048  1.00  0.00     0.127 S 
ATOM     74  O   UNL A   1      39.369  36.157  38.297  1.00  0.00    -0.237 OA
ATOM     75  O   UNL A   1      41.483  35.562  37.183  1.00  0.00    -0.237 OA
ATOM     76  O   UNL A   1      39.677  36.610  35.889  1.00  0.00    -0.744 OA
ENDBRANCH  70  73
ENDBRANCH  52  66
BRANCH  53  77
ATOM     77  C   UNL A   1      42.083  26.716  27.546  1.00  0.00     0.023 A 
ATOM     78  C   UNL A   1      42.799  27.371  26.525  1.00  0.00     0.012 A 
ATOM     79  C   UNL A   1      41.831  25.336  27.430  1.00  0.00     0.148 A 
ATOM     80  C   UNL A   1      43.226  26.674  25.394  1.00  0.00     0.002 A 
ATOM     81  C   UNL A   1      42.303  24.636  26.324  1.00  0.00     0.091 A 
ATOM     82  F   UNL A   1      41.134  24.730  28.402  1.00  0.00    -0.205 F 
ATOM     83  C   UNL A   1      42.988  25.307  25.298  1.00  0.00     0.022 A 
BRANCH  81  84
ATOM     84  S   UNL A   1      42.148  22.851  26.195  1.00  0.00     0.127 S 
ATOM     85  O   UNL A   1      42.783  22.586  24.908  1.00  0.00    -0.237 OA
ATOM     86  O   UNL A   1      42.901  22.387  27.361  1.00  0.00    -0.237 OA
ATOM     87  O   UNL A   1      40.716  22.590  26.273  1.00  0.00    -0.744 OA
ENDBRANCH  81  84
ENDBRANCH  53  77
BRANCH  65  88
ATOM     88  C   UNL A   1      44.516  27.345  34.060  1.00  0.00     0.023 A 
ATOM     89  C   UNL A   1      45.775  27.976  34.023  1.00  0.00     0.012 A 
ATOM     90  C   UNL A   1      44.342  26.190  34.846  1.00  0.00     0.148 A 
ATOM     91  C   UNL A   1      46.850  27.451  34.740  1.00  0.00     0.002 A 
ATOM     92  C   UNL A   1      45.407  25.696  35.590  1.00  0.00     0.091 A 
ATOM     93  F   UNL A   1      43.142  25.590  34.851  1.00  0.00    -0.205 F 
ATOM     94  C   UNL A   1      46.663  26.321  35.532  1.00  0.00     0.022 A 
BRANCH  92  95
ATOM     95  S   UNL A   1      45.217  24.298  36.703  1.00  0.00     0.127 S 
ATOM     96  O   UNL A   1      44.242  24.811  37.664  1.00  0.00    -0.237 OA
ATOM     97  O   UNL A   1      44.705  23.252  35.815  1.00  0.00    -0.237 OA
ATOM     98  O   UNL A   1      46.549  24.034  37.230  1.00  0.00    -0.744 OA
ENDBRANCH  92  95
ENDBRANCH  65  88
ENDBRANCH  39  40
ENDBRANCH  31  34
ENDBRANCH  29  30
ENDBRANCH  28  29
ENDBRANCH   1  28
TORSDOF 18
ENDMDL
MODEL 2
REMARK VINA RESULT:     -11.9      5.367      8.947
REMARK SMILES [NH3+]Cc1ccc(C(=O)N2[C@@H](C(=O)NCCCCNC(=O)c3ccc(-c4c5nc(c(-c6cccc(S(=O)(=O)[O-])c6F)c6ccc([nH]6)c(-c6cccc(S(=O)(=O)[O-])c6F)c6nc(c(-c7cccc(S(=O)(=O)[O-])c7F)c7ccc4[nH]7)C=C6)C=C5)cc3)C[C@H]3CCCC[C@@H]32)o1
REMARK SMILES IDX 15 1 14 2 13 3 11 4 12 5 10 7 9 8 90 9 84 10 85 11 89 12
REMARK SMILES IDX 86 13 88 14 87 15 7 16 8 17 6 18 3 19 4 20 91 21 5 22 2 23
REMARK SMILES IDX 1 24 16 28 17 29 18 30 19 31 20 33 21 34 22 35 83 36 23 37
REMARK SMILES IDX 82 38 24 39 25 40 26 41 76 42 27 43 81 44 75 45 77 46 28 47
REMARK SMILES IDX 80 48 74 49 73 50 29 52 61 53 41 54 60 55 42 56 45 57 59 58
REMARK SMILES IDX 78 59 43 60 44 61 58 63 79 64 46 65 30 66 31 67 39 68 32 69
REMARK SMILES IDX 34 70 40 71 33 72 35 73 36 74 37 75 38 76 62 77 63 78 71 79
REMARK SMILES IDX 64 80 66 81 72 82 65 83 67 84 68 85 69 86 70 87 47 88 48 89
REMARK SMILES IDX 56 90 49 91 51 92 57 93 50 94 52 95 53 96 54 97 55 98
REMARK H PARENT 13 6 1 25 1 26 1 27 18 32 77 51 45 62
REMARK Flexibility Score: inf
ROOT
ATOM      1  C   UNL A   1      36.606  20.047  24.991  1.00  0.00     0.023 C 
ENDROOT
BRANCH   1   2
ATOM      2  C   UNL A   1      36.651  21.571  25.009  1.00  0.00     0.116 C 
BRANCH   2   3
ATOM      3  N   UNL A   1      35.993  22.172  23.864  1.00  0.00    -0.354 N 
ATOM      4  C   UNL A   1      35.125  23.234  23.839  1.00  0.00     0.242 C 
ATOM      5  O   UNL A   1      34.715  23.626  22.748  1.00  0.00    -0.273 OA
ATOM      6  H   UNL A   1      36.195  21.762  22.991  1.00  0.00     0.163 HD
BRANCH   4   7
ATOM      7  C   UNL A   1      34.707  23.881  25.181  1.00  0.00     0.175 C 
ATOM      8  N   UNL A   1      33.430  23.349  25.708  1.00  0.00    -0.321 N 
ATOM      9  C   UNL A   1      32.363  24.302  25.467  1.00  0.00     0.089 C 
ATOM     10  C   UNL A   1      34.418  25.385  24.948  1.00  0.00     0.041 C 
ATOM     11  C   UNL A   1      33.122  25.609  25.708  1.00  0.00     0.014 C 
ATOM     12  C   UNL A   1      31.132  24.279  26.373  1.00  0.00     0.025 C 
ATOM     13  C   UNL A   1      32.294  26.823  25.339  1.00  0.00     0.006 C 
ATOM     14  C   UNL A   1      30.254  25.513  26.117  1.00  0.00     0.002 C 
ATOM     15  C   UNL A   1      31.028  26.833  26.201  1.00  0.00     0.000 C 
BRANCH   8  16
ATOM     16  C   UNL A   1      33.198  22.094  26.243  1.00  0.00     0.290 C 
ATOM     17  O   UNL A   1      33.450  21.869  27.434  1.00  0.00    -0.265 OA
BRANCH  16  18
ATOM     18  C   UNL A   1      32.855  21.014  25.327  1.00  0.00     0.192 A 
ATOM     19  C   UNL A   1      32.979  18.909  24.634  1.00  0.00     0.159 A 
ATOM     20  C   UNL A   1      32.435  19.624  23.593  1.00  0.00     0.052 A 
ATOM     21  O   UNL A   1      33.209  19.735  25.694  1.00  0.00    -0.450 OA
ATOM     22  C   UNL A   1      32.381  20.973  24.025  1.00  0.00     0.057 A 
BRANCH  19  23
ATOM     23  C   UNL A   1      33.400  17.492  24.783  1.00  0.00     0.335 C 
BRANCH  23  24
ATOM     24  N   UNL A   1      33.046  16.958  26.094  1.00  0.00    -0.351 N 
ATOM     25  H   UNL A   1      33.781  16.327  26.413  1.00  0.00     0.344 HD
ATOM     26  H   UNL A   1      32.166  16.447  26.027  1.00  0.00     0.344 HD
ATOM     27  H   UNL A   1      32.944  17.725  26.757  1.00  0.00     0.344 HD
ENDBRANCH  23  24
ENDBRANCH  19  23
ENDBRANCH  16  18
ENDBRANCH   8  16
ENDBRANCH   4   7
ENDBRANCH   2   3
ENDBRANCH   1   2
BRANCH   1  28
ATOM     28  C   UNL A   1      37.965  19.346  24.989  1.00  0.00     0.023 C 
BRANCH  28  29
ATOM     29  C   UNL A   1      39.101  20.086  25.689  1.00  0.00     0.116 C 
BRANCH  29  30
ATOM     30  N   UNL A   1      40.222  19.224  26.037  1.00  0.00    -0.352 N 
ATOM     31  C   UNL A   1      41.488  19.558  26.455  1.00  0.00     0.251 C 
ATOM     32  H   UNL A   1      40.046  18.258  25.960  1.00  0.00     0.163 HD
ATOM     33  O   UNL A   1      42.329  18.673  26.593  1.00  0.00    -0.269 OA
BRANCH  31  34
ATOM     34  C   UNL A   1      41.849  20.970  26.713  1.00  0.00     0.039 A 
ATOM     35  C   UNL A   1      42.227  21.344  28.007  1.00  0.00     0.014 A 
ATOM     36  C   UNL A   1      41.803  21.926  25.696  1.00  0.00     0.014 A 
ATOM     37  C   UNL A   1      42.617  22.662  28.266  1.00  0.00     0.010 A 
ATOM     38  C   UNL A   1      42.257  23.221  25.939  1.00  0.00     0.010 A 
ATOM     39  C   UNL A   1      42.660  23.605  27.227  1.00  0.00    -0.014 A 
BRANCH  39  40
ATOM     40  C   UNL A   1      43.101  25.004  27.465  1.00  0.00     0.031 A 
ATOM     41  C   UNL A   1      42.160  25.989  28.107  1.00  0.00     0.074 A 
ATOM     42  C   UNL A   1      44.305  25.414  27.019  1.00  0.00     0.049 A 
ATOM     43  N   UNL A   1      42.326  27.268  28.322  1.00  0.00    -0.248 NA
ATOM     44  C   UNL A   1      40.847  25.477  28.534  1.00  0.00     0.031 C 
ATOM     45  C   UNL A   1      45.274  24.581  26.305  1.00  0.00     0.029 A 
ATOM     46  N   UNL A   1      44.907  26.647  27.076  1.00  0.00    -0.354 N 
ATOM     47  C   UNL A   1      41.127  27.722  28.860  1.00  0.00     0.074 A 
ATOM     48  C   UNL A   1      40.233  26.587  28.917  1.00  0.00     0.031 C 
ATOM     49  C   UNL A   1      46.347  25.325  25.989  1.00  0.00     0.029 A 
ATOM     50  C   UNL A   1      46.138  26.690  26.462  1.00  0.00     0.049 A 
ATOM     51  H   UNL A   1      44.496  27.427  27.513  1.00  0.00     0.167 HD
ATOM     52  C   UNL A   1      40.808  28.962  29.299  1.00  0.00     0.034 A 
ATOM     53  C   UNL A   1      47.002  27.712  26.305  1.00  0.00     0.034 A 
ATOM     54  C   UNL A   1      41.724  30.070  29.317  1.00  0.00     0.049 A 
ATOM     55  C   UNL A   1      46.662  29.055  26.897  1.00  0.00     0.074 A 
ATOM     56  C   UNL A   1      41.527  31.341  29.827  1.00  0.00     0.029 A 
ATOM     57  N   UNL A   1      43.015  30.033  28.817  1.00  0.00    -0.354 N 
ATOM     58  N   UNL A   1      45.584  29.420  27.547  1.00  0.00    -0.248 NA
ATOM     59  C   UNL A   1      47.675  30.114  26.773  1.00  0.00     0.031 C 
ATOM     60  C   UNL A   1      42.706  32.072  29.641  1.00  0.00     0.029 A 
ATOM     61  C   UNL A   1      43.634  31.255  29.017  1.00  0.00     0.049 A 
ATOM     62  H   UNL A   1      43.432  29.254  28.383  1.00  0.00     0.167 HD
ATOM     63  C   UNL A   1      45.806  30.733  27.945  1.00  0.00     0.074 A 
ATOM     64  C   UNL A   1      47.128  31.095  27.478  1.00  0.00     0.031 C 
ATOM     65  C   UNL A   1      44.981  31.571  28.619  1.00  0.00     0.034 A 
BRANCH  52  66
ATOM     66  C   UNL A   1      39.433  29.168  29.874  1.00  0.00     0.023 A 
ATOM     67  C   UNL A   1      39.172  28.754  31.196  1.00  0.00     0.012 A 
ATOM     68  C   UNL A   1      38.423  29.818  29.139  1.00  0.00     0.148 A 
ATOM     69  C   UNL A   1      37.917  28.956  31.769  1.00  0.00     0.002 A 
ATOM     70  C   UNL A   1      37.186  30.050  29.731  1.00  0.00     0.091 A 
ATOM     71  F   UNL A   1      38.682  30.183  27.875  1.00  0.00    -0.205 F 
ATOM     72  C   UNL A   1      36.929  29.613  31.041  1.00  0.00     0.022 A 
BRANCH  70  73
ATOM     73  S   UNL A   1      35.871  30.949  28.900  1.00  0.00     0.127 S 
ATOM     74  O   UNL A   1      35.041  31.368  30.029  1.00  0.00    -0.237 OA
ATOM     75  O   UNL A   1      36.602  32.035  28.245  1.00  0.00    -0.237 OA
ATOM     76  O   UNL A   1      35.254  29.998  27.986  1.00  0.00    -0.744 OA
ENDBRANCH  70  73
ENDBRANCH  52  66
BRANCH  53  77
ATOM     77  C   UNL A   1      48.318  27.481  25.647  1.00  0.00     0.023 A 
ATOM     78  C   UNL A   1      49.422  27.106  26.436  1.00  0.00     0.012 A 
ATOM     79  C   UNL A   1      48.482  27.602  24.253  1.00  0.00     0.148 A 
ATOM     80  C   UNL A   1      50.673  26.887  25.857  1.00  0.00     0.002 A 
ATOM     81  C   UNL A   1      49.719  27.334  23.675  1.00  0.00     0.091 A 
ATOM     82  F   UNL A   1      47.427  27.977  23.517  1.00  0.00    -0.205 F 
ATOM     83  C   UNL A   1      50.819  26.990  24.477  1.00  0.00     0.022 A 
BRANCH  81  84
ATOM     84  S   UNL A   1      49.949  27.319  21.894  1.00  0.00     0.127 S 
ATOM     85  O   UNL A   1      49.661  28.706  21.542  1.00  0.00    -0.237 OA
ATOM     86  O   UNL A   1      51.353  26.929  21.763  1.00  0.00    -0.237 OA
ATOM     87  O   UNL A   1      49.008  26.321  21.400  1.00  0.00    -0.744 OA
ENDBRANCH  81  84
ENDBRANCH  53  77
BRANCH  65  88
ATOM     88  C   UNL A   1      45.490  32.950  28.938  1.00  0.00     0.023 A 
ATOM     89  C   UNL A   1      46.206  33.169  30.131  1.00  0.00     0.012 A 
ATOM     90  C   UNL A   1      45.336  34.006  28.018  1.00  0.00     0.148 A 
ATOM     91  C   UNL A   1      46.741  34.425  30.415  1.00  0.00     0.002 A 
ATOM     92  C   UNL A   1      45.908  35.243  28.289  1.00  0.00     0.091 A 
ATOM     93  F   UNL A   1      44.631  33.785  26.899  1.00  0.00    -0.205 F 
ATOM     94  C   UNL A   1      46.604  35.457  29.489  1.00  0.00     0.022 A 
BRANCH  92  95
ATOM     95  S   UNL A   1      45.849  36.592  27.103  1.00  0.00     0.127 S 
ATOM     96  O   UNL A   1      46.456  35.980  25.923  1.00  0.00    -0.237 OA
ATOM     97  O   UNL A   1      44.412  36.850  26.985  1.00  0.00    -0.237 OA
ATOM     98  O   UNL A   1      46.602  37.681  27.712  1.00  0.00    -0.744 OA
ENDBRANCH  92  95
ENDBRANCH  65  88
ENDBRANCH  39  40
ENDBRANCH  31  34
ENDBRANCH  29  30
ENDBRANCH  28  29
ENDBRANCH   1  28
TORSDOF 18
ENDMDL
MODEL 3
REMARK VINA RESULT:     -11.9      2.365      7.876
REMARK SMILES [NH3+]Cc1ccc(C(=O)N2[C@@H](C(=O)NCCCCNC(=O)c3ccc(-c4c5nc(c(-c6cccc(S(=O)(=O)[O-])c6F)c6ccc([nH]6)c(-c6cccc(S(=O)(=O)[O-])c6F)c6nc(c(-c7cccc(S(=O)(=O)[O-])c7F)c7ccc4[nH]7)C=C6)C=C5)cc3)C[C@H]3CCCC[C@@H]32)o1
REMARK SMILES IDX 15 1 14 2 13 3 11 4 12 5 10 7 9 8 90 9 84 10 85 11 89 12
REMARK SMILES IDX 86 13 88 14 87 15 7 16 8 17 6 18 3 19 4 20 91 21 5 22 2 23
REMARK SMILES IDX 1 24 16 28 17 29 18 30 19 31 20 33 21 34 22 35 83 36 23 37
REMARK SMILES IDX 82 38 24 39 25 40 26 41 76 42 27 43 81 44 75 45 77 46 28 47
REMARK SMILES IDX 80 48 74 49 73 50 29 52 61 53 41 54 60 55 42 56 45 57 59 58
REMARK SMILES IDX 78 59 43 60 44 61 58 63 79 64 46 65 30 66 31 67 39 68 32 69
REMARK SMILES IDX 34 70 40 71 33 72 35 73 36 74 37 75 38 76 62 77 63 78 71 79
REMARK SMILES IDX 64 80 66 81 72 82 65 83 67 84 68 85 69 86 70 87 47 88 48 89
REMARK SMILES IDX 56 90 49 91 51 92 57 93 50 94 52 95 53 96 54 97 55 98
REMARK H PARENT 13 6 1 25 1 26 1 27 18 32 77 51 45 62
REMARK Flexibility Score: inf
ROOT
ATOM      1  C   UNL A   1      31.647  30.554  25.988  1.00  0.00     0.023 C 
ENDROOT
BRANCH   1   2
ATOM      2  C   UNL A   1      32.489  29.614  26.844  1.00  0.00     0.116 C 
BRANCH   2   3
ATOM      3  N   UNL A   1      31.787  28.398  27.210  1.00  0.00    -0.354 N 
ATOM      4  C   UNL A   1      31.819  27.175  26.590  1.00  0.00     0.242 C 
ATOM      5  O   UNL A   1      31.187  26.249  27.095  1.00  0.00    -0.273 OA
ATOM      6  H   UNL A   1      31.213  28.460  28.007  1.00  0.00     0.163 HD
BRANCH   4   7
ATOM      7  C   UNL A   1      32.646  27.024  25.291  1.00  0.00     0.175 C 
ATOM      8  N   UNL A   1      32.070  26.037  24.350  1.00  0.00    -0.321 N 
ATOM      9  C   UNL A   1      32.828  24.801  24.407  1.00  0.00     0.089 C 
ATOM     10  C   UNL A   1      34.036  26.438  25.642  1.00  0.00     0.041 C 
ATOM     11  C   UNL A   1      34.238  25.369  24.582  1.00  0.00     0.014 C 
ATOM     12  C   UNL A   1      32.824  23.873  23.191  1.00  0.00     0.025 C 
ATOM     13  C   UNL A   1      35.257  24.284  24.866  1.00  0.00     0.006 C 
ATOM     14  C   UNL A   1      33.876  22.767  23.358  1.00  0.00     0.002 C 
ATOM     15  C   UNL A   1      35.273  23.306  23.687  1.00  0.00     0.000 C 
BRANCH   8  16
ATOM     16  C   UNL A   1      30.915  26.165  23.598  1.00  0.00     0.290 C 
ATOM     17  O   UNL A   1      30.343  25.157  23.160  1.00  0.00    -0.265 OA
BRANCH  16  18
ATOM     18  C   UNL A   1      30.523  27.501  23.169  1.00  0.00     0.192 A 
ATOM     19  C   UNL A   1      29.019  29.098  22.842  1.00  0.00     0.159 A 
ATOM     20  C   UNL A   1      30.140  29.478  22.141  1.00  0.00     0.052 A 
ATOM     21  O   UNL A   1      29.252  27.921  23.488  1.00  0.00    -0.450 OA
ATOM     22  C   UNL A   1      31.091  28.445  22.328  1.00  0.00     0.057 A 
BRANCH  19  23
ATOM     23  C   UNL A   1      27.653  29.673  22.963  1.00  0.00     0.335 C 
BRANCH  23  24
ATOM     24  N   UNL A   1      26.625  28.643  22.880  1.00  0.00    -0.351 N 
ATOM     25  H   UNL A   1      25.704  29.076  22.947  1.00  0.00     0.344 HD
ATOM     26  H   UNL A   1      26.744  27.980  23.645  1.00  0.00     0.344 HD
ATOM     27  H   UNL A   1      26.706  28.152  21.990  1.00  0.00     0.344 HD
ENDBRANCH  23  24
ENDBRANCH  19  23
ENDBRANCH  16  18
ENDBRANCH   8  16
ENDBRANCH   4   7
ENDBRANCH   2   3
ENDBRANCH   1   2
BRANCH   1  28
ATOM     28  C   UNL A   1      31.444  31.960  26.554  1.00  0.00     0.023 C 
BRANCH  28  29
ATOM     29  C   UNL A   1      32.641  32.569  27.278  1.00  0.00     0.116 C 
BRANCH  29  30
ATOM     30  N   UNL A   1      32.459  33.975  27.611  1.00  0.00    -0.352 N 
ATOM     31  C   UNL A   1      33.119  34.750  28.534  1.00  0.00     0.251 C 
ATOM     32  H   UNL A   1      31.757  34.438  27.098  1.00  0.00     0.163 HD
ATOM     33  O   UNL A   1      32.735  35.900  28.739  1.00  0.00    -0.269 OA
BRANCH  31  34
ATOM     34  C   UNL A   1      34.265  34.204  29.296  1.00  0.00     0.039 A 
ATOM     35  C   UNL A   1      34.011  33.415  30.422  1.00  0.00     0.014 A 
ATOM     36  C   UNL A   1      35.581  34.477  28.918  1.00  0.00     0.014 A 
ATOM     37  C   UNL A   1      35.075  32.851  31.132  1.00  0.00     0.010 A 
ATOM     38  C   UNL A   1      36.637  33.858  29.583  1.00  0.00     0.010 A 
ATOM     39  C   UNL A   1      36.397  33.046  30.702  1.00  0.00    -0.014 A 
BRANCH  39  40
ATOM     40  C   UNL A   1      37.545  32.432  31.416  1.00  0.00     0.031 A 
ATOM     41  C   UNL A   1      38.305  31.297  30.781  1.00  0.00     0.074 A 
ATOM     42  C   UNL A   1      37.846  32.825  32.670  1.00  0.00     0.049 A 
ATOM     43  N   UNL A   1      39.278  30.577  31.275  1.00  0.00    -0.248 NA
ATOM     44  C   UNL A   1      37.896  30.898  29.424  1.00  0.00     0.031 C 
ATOM     45  C   UNL A   1      37.133  33.854  33.430  1.00  0.00     0.029 A 
ATOM     46  N   UNL A   1      38.813  32.384  33.539  1.00  0.00    -0.354 N 
ATOM     47  C   UNL A   1      39.562  29.612  30.316  1.00  0.00     0.074 A 
ATOM     48  C   UNL A   1      38.643  29.823  29.220  1.00  0.00     0.031 C 
ATOM     49  C   UNL A   1      37.685  33.963  34.650  1.00  0.00     0.029 A 
ATOM     50  C   UNL A   1      38.780  33.004  34.767  1.00  0.00     0.049 A 
ATOM     51  H   UNL A   1      39.469  31.688  33.305  1.00  0.00     0.167 HD
ATOM     52  C   UNL A   1      40.522  28.658  30.329  1.00  0.00     0.034 A 
ATOM     53  C   UNL A   1      39.548  32.825  35.859  1.00  0.00     0.034 A 
ATOM     54  C   UNL A   1      41.487  28.501  31.382  1.00  0.00     0.049 A 
ATOM     55  C   UNL A   1      40.676  31.827  35.804  1.00  0.00     0.074 A 
ATOM     56  C   UNL A   1      42.557  27.626  31.447  1.00  0.00     0.029 A 
ATOM     57  N   UNL A   1      41.509  29.248  32.549  1.00  0.00    -0.354 N 
ATOM     58  N   UNL A   1      41.028  31.035  34.822  1.00  0.00    -0.248 NA
ATOM     59  C   UNL A   1      41.539  31.730  36.992  1.00  0.00     0.031 C 
ATOM     60  C   UNL A   1      43.231  27.850  32.652  1.00  0.00     0.029 A 
ATOM     61  C   UNL A   1      42.582  28.864  33.335  1.00  0.00     0.049 A 
ATOM     62  H   UNL A   1      40.858  29.949  32.784  1.00  0.00     0.167 HD
ATOM     63  C   UNL A   1      42.174  30.378  35.254  1.00  0.00     0.074 A 
ATOM     64  C   UNL A   1      42.468  30.878  36.582  1.00  0.00     0.031 C 
ATOM     65  C   UNL A   1      42.907  29.431  34.618  1.00  0.00     0.034 A 
BRANCH  52  66
ATOM     66  C   UNL A   1      40.629  27.758  29.128  1.00  0.00     0.023 A 
ATOM     67  C   UNL A   1      39.761  26.652  29.020  1.00  0.00     0.012 A 
ATOM     68  C   UNL A   1      41.537  28.031  28.087  1.00  0.00     0.148 A 
ATOM     69  C   UNL A   1      39.814  25.815  27.906  1.00  0.00     0.002 A 
ATOM     70  C   UNL A   1      41.557  27.213  26.962  1.00  0.00     0.091 A 
ATOM     71  F   UNL A   1      42.371  29.072  28.219  1.00  0.00    -0.205 F 
ATOM     72  C   UNL A   1      40.703  26.101  26.875  1.00  0.00     0.022 A 
BRANCH  70  73
ATOM     73  S   UNL A   1      42.618  27.539  25.549  1.00  0.00     0.127 S 
ATOM     74  O   UNL A   1      42.063  28.795  25.047  1.00  0.00    -0.237 OA
ATOM     75  O   UNL A   1      43.937  27.662  26.172  1.00  0.00    -0.237 OA
ATOM     76  O   UNL A   1      42.470  26.390  24.667  1.00  0.00    -0.744 OA
ENDBRANCH  70  73
ENDBRANCH  52  66
BRANCH  53  77
ATOM     77  C   UNL A   1      39.346  33.680  37.062  1.00  0.00     0.023 A 
ATOM     78  C   UNL A   1      39.800  35.014  37.038  1.00  0.00     0.012 A 
ATOM     79  C   UNL A   1      38.690  33.200  38.211  1.00  0.00     0.148 A 
ATOM     80  C   UNL A   1      39.634  35.843  38.147  1.00  0.00     0.002 A 
ATOM     81  C   UNL A   1      38.483  34.047  39.295  1.00  0.00     0.091 A 
ATOM     82  F   UNL A   1      38.279  31.924  38.225  1.00  0.00    -0.205 F 
ATOM     83  C   UNL A   1      38.967  35.365  39.271  1.00  0.00     0.022 A 
BRANCH  81  84
ATOM     84  S   UNL A   1      37.518  33.540  40.723  1.00  0.00     0.127 S 
ATOM     85  O   UNL A   1      38.381  32.531  41.326  1.00  0.00    -0.237 OA
ATOM     86  O   UNL A   1      37.403  34.786  41.481  1.00  0.00    -0.237 OA
ATOM     87  O   UNL A   1      36.255  33.062  40.174  1.00  0.00    -0.744 OA
ENDBRANCH  81  84
ENDBRANCH  53  77
BRANCH  65  88
ATOM     88  C   UNL A   1      44.125  28.898  35.320  1.00  0.00     0.023 A 
ATOM     89  C   UNL A   1      45.372  29.522  35.121  1.00  0.00     0.012 A 
ATOM     90  C   UNL A   1      44.020  27.838  36.242  1.00  0.00     0.148 A 
ATOM     91  C   UNL A   1      46.501  29.084  35.811  1.00  0.00     0.002 A 
ATOM     92  C   UNL A   1      45.141  27.434  36.957  1.00  0.00     0.091 A 
ATOM     93  F   UNL A   1      42.830  27.241  36.401  1.00  0.00    -0.205 F 
ATOM     94  C   UNL A   1      46.383  28.050  36.737  1.00  0.00     0.022 A 
BRANCH  92  95
ATOM     95  S   UNL A   1      45.045  26.170  38.231  1.00  0.00     0.127 S 
ATOM     96  O   UNL A   1      46.431  26.103  38.691  1.00  0.00    -0.237 OA
ATOM     97  O   UNL A   1      44.112  26.759  39.194  1.00  0.00    -0.237 OA
ATOM     98  O   UNL A   1      44.540  24.979  37.562  1.00  0.00    -0.744 OA
ENDBRANCH  92  95
ENDBRANCH  65  88
ENDBRANCH  39  40
ENDBRANCH  31  34
ENDBRANCH  29  30
ENDBRANCH  28  29
ENDBRANCH   1  28
TORSDOF 18
ENDMDL
