MODEL 1
REMARK VINA RESULT:     -10.6      0.000      0.000
REMARK SMILES C[C@H](C(=O)NCCCCNC(=O)c1ccc(-c2c3nc(c(-c4cccc(S(=O)(=O)[O-])c4F)c4ccc([nH]4)c(-c4cccc(S(=O)(=O)[O-])c4F)c4nc(c(-c5cccc(S(=O)(=O)[O-])c5F)c5ccc2[nH]5)C=C4)C=C3)cc1)[C@H](C)[S@@](=O)C(C)(C)C
REMARK SMILES IDX 7 1 6 2 5 3 3 4 4 5 2 7 1 8 76 9 77 10 78 11 79 12 80 13
REMARK SMILES IDX 81 14 82 15 83 16 8 17 9 18 10 19 11 20 12 22 13 23 14 24
REMARK SMILES IDX 75 25 15 26 74 27 16 28 17 29 18 30 68 31 19 32 73 33 67 34
REMARK SMILES IDX 69 35 20 36 72 37 66 38 65 39 21 41 53 42 33 43 52 44 34 45
REMARK SMILES IDX 37 46 51 47 70 48 35 49 36 50 50 52 71 53 38 54 22 55 23 56
REMARK SMILES IDX 31 57 24 58 26 59 32 60 25 61 27 62 28 63 29 64 30 65 54 66
REMARK SMILES IDX 55 67 63 68 56 69 58 70 64 71 57 72 59 73 60 74 61 75 62 76
REMARK SMILES IDX 39 77 40 78 48 79 41 80 43 81 49 82 42 83 44 84 45 85 46 86
REMARK SMILES IDX 47 87
REMARK H PARENT 5 6 10 21 69 40 37 51
REMARK Flexibility Score: inf
ROOT
ATOM      1  C   UNL A   1      31.075  28.201  25.925  1.00  0.00     0.023 C 
ENDROOT
BRANCH   1   2
ATOM      2  C   UNL A   1      30.980  26.837  25.253  1.00  0.00     0.116 C 
BRANCH   2   3
ATOM      3  N   UNL A   1      30.992  25.731  26.195  1.00  0.00    -0.356 N 
ATOM      4  C   UNL A   1      31.898  24.715  26.336  1.00  0.00     0.224 C 
ATOM      5  O   UNL A   1      31.777  23.948  27.290  1.00  0.00    -0.275 OA
ATOM      6  H   UNL A   1      30.236  25.708  26.824  1.00  0.00     0.163 HD
BRANCH   4   7
ATOM      7  C   UNL A   1      33.048  24.608  25.337  1.00  0.00     0.090 C 
ATOM      8  C   UNL A   1      34.167  25.551  25.793  1.00  0.00     0.019 C 
BRANCH   7   9
ATOM      9  C   UNL A   1      33.392  23.148  24.922  1.00  0.00     0.089 C 
ATOM     10  C   UNL A   1      32.258  22.296  24.347  1.00  0.00     0.023 C 
BRANCH   9  11
ATOM     11  S   UNL A   1      34.619  22.152  25.798  1.00  0.00     0.030 S 
ATOM     12  O   UNL A   1      34.225  20.707  25.773  1.00  0.00    -0.259 OA
BRANCH  11  13
ATOM     13  C   UNL A   1      36.276  22.370  25.059  1.00  0.00     0.038 C 
ATOM     14  C   UNL A   1      37.131  23.427  25.746  1.00  0.00     0.025 C 
ATOM     15  C   UNL A   1      37.038  21.046  24.985  1.00  0.00     0.025 C 
ATOM     16  C   UNL A   1      36.019  22.849  23.608  1.00  0.00     0.025 C 
ENDBRANCH  11  13
ENDBRANCH   9  11
ENDBRANCH   7   9
ENDBRANCH   4   7
ENDBRANCH   2   3
ENDBRANCH   1   2
BRANCH   1  17
ATOM     17  C   UNL A   1      32.369  28.452  26.698  1.00  0.00     0.023 C 
BRANCH  17  18
ATOM     18  C   UNL A   1      33.329  29.446  26.055  1.00  0.00     0.116 C 
BRANCH  18  19
ATOM     19  N   UNL A   1      33.065  30.825  26.434  1.00  0.00    -0.352 N 
ATOM     20  C   UNL A   1      33.729  31.611  27.341  1.00  0.00     0.251 C 
ATOM     21  H   UNL A   1      32.305  31.253  25.976  1.00  0.00     0.163 HD
ATOM     22  O   UNL A   1      33.283  32.723  27.624  1.00  0.00    -0.269 OA
BRANCH  20  23
ATOM     23  C   UNL A   1      34.961  31.116  27.993  1.00  0.00     0.039 A 
ATOM     24  C   UNL A   1      36.092  31.934  28.005  1.00  0.00     0.014 A 
ATOM     25  C   UNL A   1      35.005  29.850  28.584  1.00  0.00     0.014 A 
ATOM     26  C   UNL A   1      37.257  31.494  28.637  1.00  0.00     0.010 A 
ATOM     27  C   UNL A   1      36.136  29.452  29.290  1.00  0.00     0.010 A 
ATOM     28  C   UNL A   1      37.286  30.254  29.298  1.00  0.00    -0.014 A 
BRANCH  28  29
ATOM     29  C   UNL A   1      38.525  29.767  29.955  1.00  0.00     0.031 A 
ATOM     30  C   UNL A   1      38.912  30.287  31.315  1.00  0.00     0.074 A 
ATOM     31  C   UNL A   1      39.327  28.893  29.314  1.00  0.00     0.049 A 
ATOM     32  N   UNL A   1      39.944  29.973  32.056  1.00  0.00    -0.248 NA
ATOM     33  C   UNL A   1      38.043  31.315  31.913  1.00  0.00     0.031 C 
ATOM     34  C   UNL A   1      39.107  28.376  27.961  1.00  0.00     0.029 A 
ATOM     35  N   UNL A   1      40.497  28.297  29.711  1.00  0.00    -0.354 N 
ATOM     36  C   UNL A   1      39.869  30.788  33.180  1.00  0.00     0.074 A 
ATOM     37  C   UNL A   1      38.717  31.642  33.006  1.00  0.00     0.031 C 
ATOM     38  C   UNL A   1      40.097  27.524  27.650  1.00  0.00     0.029 A 
ATOM     39  C   UNL A   1      41.034  27.452  28.767  1.00  0.00     0.049 A 
ATOM     40  H   UNL A   1      40.912  28.456  30.588  1.00  0.00     0.167 HD
ATOM     41  C   UNL A   1      40.667  30.805  34.273  1.00  0.00     0.034 A 
ATOM     42  C   UNL A   1      42.151  26.700  28.802  1.00  0.00     0.034 A 
ATOM     43  C   UNL A   1      41.785  29.922  34.464  1.00  0.00     0.049 A 
ATOM     44  C   UNL A   1      42.989  26.694  30.053  1.00  0.00     0.074 A 
ATOM     45  C   UNL A   1      42.600  29.793  35.574  1.00  0.00     0.029 A 
ATOM     46  N   UNL A   1      42.249  29.020  33.519  1.00  0.00    -0.354 N 
ATOM     47  N   UNL A   1      42.809  27.354  31.172  1.00  0.00    -0.248 NA
ATOM     48  C   UNL A   1      44.159  25.804  30.064  1.00  0.00     0.031 C 
ATOM     49  C   UNL A   1      43.579  28.836  35.287  1.00  0.00     0.029 A 
ATOM     50  C   UNL A   1      43.345  28.337  34.016  1.00  0.00     0.049 A 
ATOM     51  H   UNL A   1      41.857  28.887  32.626  1.00  0.00     0.167 HD
ATOM     52  C   UNL A   1      43.809  26.923  32.035  1.00  0.00     0.074 A 
ATOM     53  C   UNL A   1      44.582  25.933  31.314  1.00  0.00     0.031 C 
ATOM     54  C   UNL A   1      44.069  27.313  33.307  1.00  0.00     0.034 A 
BRANCH  41  55
ATOM     55  C   UNL A   1      40.332  31.784  35.370  1.00  0.00     0.023 A 
ATOM     56  C   UNL A   1      41.116  32.944  35.539  1.00  0.00     0.012 A 
ATOM     57  C   UNL A   1      39.212  31.583  36.200  1.00  0.00     0.148 A 
ATOM     58  C   UNL A   1      40.818  33.865  36.543  1.00  0.00     0.002 A 
ATOM     59  C   UNL A   1      38.890  32.531  37.165  1.00  0.00     0.091 A 
ATOM     60  F   UNL A   1      38.490  30.465  36.040  1.00  0.00    -0.205 F 
ATOM     61  C   UNL A   1      39.700  33.663  37.346  1.00  0.00     0.022 A 
BRANCH  59  62
ATOM     62  S   UNL A   1      37.423  32.407  38.192  1.00  0.00     0.127 S 
ATOM     63  O   UNL A   1      37.820  33.180  39.368  1.00  0.00    -0.237 OA
ATOM     64  O   UNL A   1      36.408  33.048  37.355  1.00  0.00    -0.237 OA
ATOM     65  O   UNL A   1      37.211  30.985  38.422  1.00  0.00    -0.744 OA
ENDBRANCH  59  62
ENDBRANCH  41  55
BRANCH  42  66
ATOM     66  C   UNL A   1      42.500  25.823  27.648  1.00  0.00     0.023 A 
ATOM     67  C   UNL A   1      43.365  26.307  26.646  1.00  0.00     0.012 A 
ATOM     68  C   UNL A   1      41.992  24.514  27.542  1.00  0.00     0.148 A 
ATOM     69  C   UNL A   1      43.684  25.519  25.540  1.00  0.00     0.002 A 
ATOM     70  C   UNL A   1      42.359  23.714  26.467  1.00  0.00     0.091 A 
ATOM     71  F   UNL A   1      41.165  24.076  28.503  1.00  0.00    -0.205 F 
ATOM     72  C   UNL A   1      43.189  24.220  25.455  1.00  0.00     0.022 A 
BRANCH  70  73
ATOM     73  S   UNL A   1      41.873  21.990  26.338  1.00  0.00     0.127 S 
ATOM     74  O   UNL A   1      42.689  21.533  25.215  1.00  0.00    -0.237 OA
ATOM     75  O   UNL A   1      42.274  21.466  27.644  1.00  0.00    -0.237 OA
ATOM     76  O   UNL A   1      40.435  22.002  26.111  1.00  0.00    -0.744 OA
ENDBRANCH  70  73
ENDBRANCH  42  66
BRANCH  54  77
ATOM     77  C   UNL A   1      45.197  26.627  34.033  1.00  0.00     0.023 A 
ATOM     78  C   UNL A   1      46.482  27.204  34.060  1.00  0.00     0.012 A 
ATOM     79  C   UNL A   1      44.963  25.431  34.740  1.00  0.00     0.148 A 
ATOM     80  C   UNL A   1      47.526  26.578  34.741  1.00  0.00     0.002 A 
ATOM     81  C   UNL A   1      45.993  24.843  35.463  1.00  0.00     0.091 A 
ATOM     82  F   UNL A   1      43.739  24.885  34.688  1.00  0.00    -0.205 F 
ATOM     83  C   UNL A   1      47.279  25.405  35.451  1.00  0.00     0.022 A 
BRANCH  81  84
ATOM     84  S   UNL A   1      45.735  23.391  36.489  1.00  0.00     0.127 S 
ATOM     85  O   UNL A   1      47.041  22.738  36.415  1.00  0.00    -0.237 OA
ATOM     86  O   UNL A   1      45.422  23.982  37.790  1.00  0.00    -0.237 OA
ATOM     87  O   UNL A   1      44.632  22.661  35.878  1.00  0.00    -0.744 OA
ENDBRANCH  81  84
ENDBRANCH  54  77
ENDBRANCH  28  29
ENDBRANCH  20  23
ENDBRANCH  18  19
ENDBRANCH  17  18
ENDBRANCH   1  17
TORSDOF 17
ENDMDL
MODEL 2
REMARK VINA RESULT:     -10.5      2.383      2.874
REMARK SMILES C[C@H](C(=O)NCCCCNC(=O)c1ccc(-c2c3nc(c(-c4cccc(S(=O)(=O)[O-])c4F)c4ccc([nH]4)c(-c4cccc(S(=O)(=O)[O-])c4F)c4nc(c(-c5cccc(S(=O)(=O)[O-])c5F)c5ccc2[nH]5)C=C4)C=C3)cc1)[C@H](C)[S@@](=O)C(C)(C)C
REMARK SMILES IDX 7 1 6 2 5 3 3 4 4 5 2 7 1 8 76 9 77 10 78 11 79 12 80 13
REMARK SMILES IDX 81 14 82 15 83 16 8 17 9 18 10 19 11 20 12 22 13 23 14 24
REMARK SMILES IDX 75 25 15 26 74 27 16 28 17 29 18 30 68 31 19 32 73 33 67 34
REMARK SMILES IDX 69 35 20 36 72 37 66 38 65 39 21 41 53 42 33 43 52 44 34 45
REMARK SMILES IDX 37 46 51 47 70 48 35 49 36 50 50 52 71 53 38 54 22 55 23 56
REMARK SMILES IDX 31 57 24 58 26 59 32 60 25 61 27 62 28 63 29 64 30 65 54 66
REMARK SMILES IDX 55 67 63 68 56 69 58 70 64 71 57 72 59 73 60 74 61 75 62 76
REMARK SMILES IDX 39 77 40 78 48 79 41 80 43 81 49 82 42 83 44 84 45 85 46 86
REMARK SMILES IDX 47 87
REMARK H PARENT 5 6 10 21 69 40 37 51
REMARK Flexibility Score: inf
ROOT
ATOM      1  C   UNL A   1      33.653  26.456  25.738  1.00  0.00     0.023 C 
ENDROOT
BRANCH   1   2
ATOM      2  C   UNL A   1      34.019  25.843  24.391  1.00  0.00     0.116 C 
BRANCH   2   3
ATOM      3  N   UNL A   1      32.863  25.392  23.633  1.00  0.00    -0.356 N 
ATOM      4  C   UNL A   1      32.090  24.276  23.806  1.00  0.00     0.224 C 
ATOM      5  O   UNL A   1      31.076  24.153  23.120  1.00  0.00    -0.275 OA
ATOM      6  H   UNL A   1      32.599  25.974  22.886  1.00  0.00     0.163 HD
BRANCH   4   7
ATOM      7  C   UNL A   1      32.488  23.260  24.874  1.00  0.00     0.090 C 
ATOM      8  C   UNL A   1      31.276  23.022  25.782  1.00  0.00     0.019 C 
BRANCH   7   9
ATOM      9  C   UNL A   1      33.288  22.044  24.324  1.00  0.00     0.089 C 
ATOM     10  C   UNL A   1      32.494  20.942  23.617  1.00  0.00     0.023 C 
BRANCH   9  11
ATOM     11  S   UNL A   1      34.768  21.404  25.140  1.00  0.00     0.030 S 
ATOM     12  O   UNL A   1      34.956  19.955  24.808  1.00  0.00    -0.259 OA
BRANCH  11  13
ATOM     13  C   UNL A   1      36.243  22.363  24.650  1.00  0.00     0.038 C 
ATOM     14  C   UNL A   1      36.143  23.000  23.270  1.00  0.00     0.025 C 
ATOM     15  C   UNL A   1      36.596  23.425  25.693  1.00  0.00     0.025 C 
ATOM     16  C   UNL A   1      37.404  21.339  24.607  1.00  0.00     0.025 C 
ENDBRANCH  11  13
ENDBRANCH   9  11
ENDBRANCH   7   9
ENDBRANCH   4   7
ENDBRANCH   2   3
ENDBRANCH   1   2
BRANCH   1  17
ATOM     17  C   UNL A   1      33.786  27.976  25.813  1.00  0.00     0.023 C 
BRANCH  17  18
ATOM     18  C   UNL A   1      33.559  28.581  27.193  1.00  0.00     0.116 C 
BRANCH  18  19
ATOM     19  N   UNL A   1      33.585  30.035  27.192  1.00  0.00    -0.352 N 
ATOM     20  C   UNL A   1      34.553  30.880  27.674  1.00  0.00     0.251 C 
ATOM     21  H   UNL A   1      32.799  30.473  26.790  1.00  0.00     0.163 HD
ATOM     22  O   UNL A   1      34.344  32.093  27.700  1.00  0.00    -0.269 OA
BRANCH  20  23
ATOM     23  C   UNL A   1      35.830  30.334  28.183  1.00  0.00     0.039 A 
ATOM     24  C   UNL A   1      35.859  29.768  29.459  1.00  0.00     0.014 A 
ATOM     25  C   UNL A   1      36.994  30.385  27.412  1.00  0.00     0.014 A 
ATOM     26  C   UNL A   1      37.050  29.225  29.947  1.00  0.00     0.010 A 
ATOM     27  C   UNL A   1      38.155  29.764  27.864  1.00  0.00     0.010 A 
ATOM     28  C   UNL A   1      38.206  29.206  29.148  1.00  0.00    -0.014 A 
BRANCH  28  29
ATOM     29  C   UNL A   1      39.483  28.650  29.665  1.00  0.00     0.031 A 
ATOM     30  C   UNL A   1      40.125  29.249  30.889  1.00  0.00     0.074 A 
ATOM     31  C   UNL A   1      40.090  27.640  29.010  1.00  0.00     0.049 A 
ATOM     32  N   UNL A   1      41.227  28.895  31.499  1.00  0.00    -0.248 NA
ATOM     33  C   UNL A   1      39.460  30.416  31.494  1.00  0.00     0.031 C 
ATOM     34  C   UNL A   1      39.614  27.028  27.768  1.00  0.00     0.029 A 
ATOM     35  N   UNL A   1      41.248  26.960  29.292  1.00  0.00    -0.354 N 
ATOM     36  C   UNL A   1      41.406  29.813  32.527  1.00  0.00     0.074 A 
ATOM     37  C   UNL A   1      40.324  30.767  32.435  1.00  0.00     0.031 C 
ATOM     38  C   UNL A   1      40.459  26.049  27.408  1.00  0.00     0.029 A 
ATOM     39  C   UNL A   1      41.549  25.979  28.376  1.00  0.00     0.049 A 
ATOM     40  H   UNL A   1      41.809  27.154  30.077  1.00  0.00     0.167 HD
ATOM     41  C   UNL A   1      42.364  29.845  33.483  1.00  0.00     0.034 A 
ATOM     42  C   UNL A   1      42.584  25.118  28.326  1.00  0.00     0.034 A 
ATOM     43  C   UNL A   1      43.411  28.868  33.602  1.00  0.00     0.049 A 
ATOM     44  C   UNL A   1      43.603  25.137  29.434  1.00  0.00     0.074 A 
ATOM     45  C   UNL A   1      44.376  28.755  34.587  1.00  0.00     0.029 A 
ATOM     46  N   UNL A   1      43.635  27.839  32.701  1.00  0.00    -0.354 N 
ATOM     47  N   UNL A   1      43.663  25.913  30.490  1.00  0.00    -0.248 NA
ATOM     48  C   UNL A   1      44.673  24.131  29.369  1.00  0.00     0.031 C 
ATOM     49  C   UNL A   1      45.204  27.675  34.263  1.00  0.00     0.029 A 
ATOM     50  C   UNL A   1      44.728  27.090  33.102  1.00  0.00     0.049 A 
ATOM     51  H   UNL A   1      43.098  27.666  31.895  1.00  0.00     0.167 HD
ATOM     52  C   UNL A   1      44.743  25.457  31.238  1.00  0.00     0.074 A 
ATOM     53  C   UNL A   1      45.298  24.328  30.521  1.00  0.00     0.031 C 
ATOM     54  C   UNL A   1      45.235  25.933  32.408  1.00  0.00     0.034 A 
BRANCH  41  55
ATOM     55  C   UNL A   1      42.297  30.952  34.506  1.00  0.00     0.023 A 
ATOM     56  C   UNL A   1      41.616  30.744  35.723  1.00  0.00     0.012 A 
ATOM     57  C   UNL A   1      42.952  32.179  34.284  1.00  0.00     0.148 A 
ATOM     58  C   UNL A   1      41.549  31.753  36.683  1.00  0.00     0.002 A 
ATOM     59  C   UNL A   1      42.927  33.161  35.267  1.00  0.00     0.091 A 
ATOM     60  F   UNL A   1      43.578  32.368  33.113  1.00  0.00    -0.205 F 
ATOM     61  C   UNL A   1      42.214  32.955  36.460  1.00  0.00     0.022 A 
BRANCH  59  62
ATOM     62  S   UNL A   1      43.822  34.710  35.113  1.00  0.00     0.127 S 
ATOM     63  O   UNL A   1      45.208  34.245  35.061  1.00  0.00    -0.237 OA
ATOM     64  O   UNL A   1      43.309  35.235  33.847  1.00  0.00    -0.237 OA
ATOM     65  O   UNL A   1      43.470  35.498  36.285  1.00  0.00    -0.744 OA
ENDBRANCH  59  62
ENDBRANCH  41  55
BRANCH  42  66
ATOM     66  C   UNL A   1      42.664  24.106  27.235  1.00  0.00     0.023 A 
ATOM     67  C   UNL A   1      43.351  24.422  26.046  1.00  0.00     0.012 A 
ATOM     68  C   UNL A   1      42.077  22.833  27.371  1.00  0.00     0.148 A 
ATOM     69  C   UNL A   1      43.416  23.505  24.996  1.00  0.00     0.002 A 
ATOM     70  C   UNL A   1      42.194  21.904  26.343  1.00  0.00     0.091 A 
ATOM     71  F   UNL A   1      41.422  22.555  28.507  1.00  0.00    -0.205 F 
ATOM     72  C   UNL A   1      42.846  22.244  25.148  1.00  0.00     0.022 A 
BRANCH  70  73
ATOM     73  S   UNL A   1      41.603  20.216  26.499  1.00  0.00     0.127 S 
ATOM     74  O   UNL A   1      42.123  19.604  25.279  1.00  0.00    -0.237 OA
ATOM     75  O   UNL A   1      42.257  19.781  27.734  1.00  0.00    -0.237 OA
ATOM     76  O   UNL A   1      40.153  20.312  26.589  1.00  0.00    -0.744 OA
ENDBRANCH  70  73
ENDBRANCH  42  66
BRANCH  54  77
ATOM     77  C   UNL A   1      46.394  25.199  33.030  1.00  0.00     0.023 A 
ATOM     78  C   UNL A   1      47.714  25.644  32.818  1.00  0.00     0.012 A 
ATOM     79  C   UNL A   1      46.165  24.095  33.876  1.00  0.00     0.148 A 
ATOM     80  C   UNL A   1      48.789  24.974  33.401  1.00  0.00     0.002 A 
ATOM     81  C   UNL A   1      47.237  23.468  34.499  1.00  0.00     0.091 A 
ATOM     82  F   UNL A   1      44.904  23.673  34.051  1.00  0.00    -0.205 F 
ATOM     83  C   UNL A   1      48.550  23.895  34.249  1.00  0.00     0.022 A 
BRANCH  81  84
ATOM     84  S   UNL A   1      47.010  22.140  35.686  1.00  0.00     0.127 S 
ATOM     85  O   UNL A   1      45.997  22.706  36.576  1.00  0.00    -0.237 OA
ATOM     86  O   UNL A   1      46.535  21.044  34.840  1.00  0.00    -0.237 OA
ATOM     87  O   UNL A   1      48.317  21.913  36.287  1.00  0.00    -0.744 OA
ENDBRANCH  81  84
ENDBRANCH  54  77
ENDBRANCH  28  29
ENDBRANCH  20  23
ENDBRANCH  18  19
ENDBRANCH  17  18
ENDBRANCH   1  17
TORSDOF 17
ENDMDL
MODEL 3
REMARK VINA RESULT:     -10.4      2.569      8.508
REMARK SMILES C[C@H](C(=O)NCCCCNC(=O)c1ccc(-c2c3nc(c(-c4cccc(S(=O)(=O)[O-])c4F)c4ccc([nH]4)c(-c4cccc(S(=O)(=O)[O-])c4F)c4nc(c(-c5cccc(S(=O)(=O)[O-])c5F)c5ccc2[nH]5)C=C4)C=C3)cc1)[C@H](C)[S@@](=O)C(C)(C)C
REMARK SMILES IDX 7 1 6 2 5 3 3 4 4 5 2 7 1 8 76 9 77 10 78 11 79 12 80 13
REMARK SMILES IDX 81 14 82 15 83 16 8 17 9 18 10 19 11 20 12 22 13 23 14 24
REMARK SMILES IDX 75 25 15 26 74 27 16 28 17 29 18 30 68 31 19 32 73 33 67 34
REMARK SMILES IDX 69 35 20 36 72 37 66 38 65 39 21 41 53 42 33 43 52 44 34 45
REMARK SMILES IDX 37 46 51 47 70 48 35 49 36 50 50 52 71 53 38 54 22 55 23 56
REMARK SMILES IDX 31 57 24 58 26 59 32 60 25 61 27 62 28 63 29 64 30 65 54 66
REMARK SMILES IDX 55 67 63 68 56 69 58 70 64 71 57 72 59 73 60 74 61 75 62 76
REMARK SMILES IDX 39 77 40 78 48 79 41 80 43 81 49 82 42 83 44 84 45 85 46 86
REMARK SMILES IDX 47 87
REMARK H PARENT 5 6 10 21 69 40 37 51
REMARK Flexibility Score: inf
ROOT
ATOM      1  C   UNL A   1      31.398  30.742  25.736  1.00  0.00     0.023 C 
ENDROOT
BRANCH   1   2
ATOM      2  C   UNL A   1      32.477  29.677  25.895  1.00  0.00     0.116 C 
BRANCH   2   3
ATOM      3  N   UNL A   1      33.330  29.545  24.726  1.00  0.00    -0.356 N 
ATOM      4  C   UNL A   1      33.107  28.873  23.556  1.00  0.00     0.224 C 
ATOM      5  O   UNL A   1      33.921  28.998  22.642  1.00  0.00    -0.275 OA
ATOM      6  H   UNL A   1      34.196  30.008  24.785  1.00  0.00     0.163 HD
BRANCH   4   7
ATOM      7  C   UNL A   1      31.836  28.038  23.415  1.00  0.00     0.090 C 
ATOM      8  C   UNL A   1      30.856  28.807  22.522  1.00  0.00     0.019 C 
BRANCH   7   9
ATOM      9  C   UNL A   1      32.097  26.527  23.149  1.00  0.00     0.089 C 
ATOM     10  C   UNL A   1      32.261  26.090  21.691  1.00  0.00     0.023 C 
BRANCH   9  11
ATOM     11  S   UNL A   1      31.391  25.222  24.179  1.00  0.00     0.030 S 
ATOM     12  O   UNL A   1      30.719  24.193  23.322  1.00  0.00    -0.259 OA
BRANCH  11  13
ATOM     13  C   UNL A   1      32.681  24.442  25.211  1.00  0.00     0.038 C 
ATOM     14  C   UNL A   1      33.258  23.160  24.625  1.00  0.00     0.025 C 
ATOM     15  C   UNL A   1      33.808  25.423  25.538  1.00  0.00     0.025 C 
ATOM     16  C   UNL A   1      31.977  24.072  26.540  1.00  0.00     0.025 C 
ENDBRANCH  11  13
ENDBRANCH   9  11
ENDBRANCH   7   9
ENDBRANCH   4   7
ENDBRANCH   2   3
ENDBRANCH   1   2
BRANCH   1  17
ATOM     17  C   UNL A   1      31.380  31.811  26.827  1.00  0.00     0.023 C 
BRANCH  17  18
ATOM     18  C   UNL A   1      32.696  32.549  27.037  1.00  0.00     0.116 C 
BRANCH  18  19
ATOM     19  N   UNL A   1      32.519  33.922  27.482  1.00  0.00    -0.352 N 
ATOM     20  C   UNL A   1      33.160  34.588  28.496  1.00  0.00     0.251 C 
ATOM     21  H   UNL A   1      31.847  34.445  26.988  1.00  0.00     0.163 HD
ATOM     22  O   UNL A   1      32.787  35.718  28.812  1.00  0.00    -0.269 OA
BRANCH  20  23
ATOM     23  C   UNL A   1      34.276  33.942  29.222  1.00  0.00     0.039 A 
ATOM     24  C   UNL A   1      33.990  32.903  30.109  1.00  0.00     0.014 A 
ATOM     25  C   UNL A   1      35.596  34.362  29.036  1.00  0.00     0.014 A 
ATOM     26  C   UNL A   1      35.031  32.265  30.785  1.00  0.00     0.010 A 
ATOM     27  C   UNL A   1      36.638  33.666  29.641  1.00  0.00     0.010 A 
ATOM     28  C   UNL A   1      36.367  32.631  30.547  1.00  0.00    -0.014 A 
BRANCH  28  29
ATOM     29  C   UNL A   1      37.482  31.974  31.275  1.00  0.00     0.031 A 
ATOM     30  C   UNL A   1      38.268  30.871  30.615  1.00  0.00     0.074 A 
ATOM     31  C   UNL A   1      37.759  32.332  32.545  1.00  0.00     0.049 A 
ATOM     32  N   UNL A   1      39.282  30.188  31.081  1.00  0.00    -0.248 NA
ATOM     33  C   UNL A   1      37.845  30.460  29.265  1.00  0.00     0.031 C 
ATOM     34  C   UNL A   1      37.019  33.327  33.325  1.00  0.00     0.029 A 
ATOM     35  N   UNL A   1      38.730  31.890  33.407  1.00  0.00    -0.354 N 
ATOM     36  C   UNL A   1      39.590  29.248  30.103  1.00  0.00     0.074 A 
ATOM     37  C   UNL A   1      38.630  29.417  29.037  1.00  0.00     0.031 C 
ATOM     38  C   UNL A   1      37.577  33.435  34.542  1.00  0.00     0.029 A 
ATOM     39  C   UNL A   1      38.695  32.501  34.639  1.00  0.00     0.049 A 
ATOM     40  H   UNL A   1      39.389  31.201  33.167  1.00  0.00     0.167 HD
ATOM     41  C   UNL A   1      40.599  28.346  30.078  1.00  0.00     0.034 A 
ATOM     42  C   UNL A   1      39.480  32.333  35.720  1.00  0.00     0.034 A 
ATOM     43  C   UNL A   1      41.581  28.212  31.119  1.00  0.00     0.049 A 
ATOM     44  C   UNL A   1      40.631  31.365  35.644  1.00  0.00     0.074 A 
ATOM     45  C   UNL A   1      42.697  27.395  31.149  1.00  0.00     0.029 A 
ATOM     46  N   UNL A   1      41.561  28.909  32.317  1.00  0.00    -0.354 N 
ATOM     47  N   UNL A   1      41.003  30.600  34.646  1.00  0.00    -0.248 NA
ATOM     48  C   UNL A   1      41.498  31.271  36.828  1.00  0.00     0.031 C 
ATOM     49  C   UNL A   1      43.335  27.574  32.382  1.00  0.00     0.029 A 
ATOM     50  C   UNL A   1      42.641  28.535  33.098  1.00  0.00     0.049 A 
ATOM     51  H   UNL A   1      40.880  29.571  32.574  1.00  0.00     0.167 HD
ATOM     52  C   UNL A   1      42.172  29.973  35.061  1.00  0.00     0.074 A 
ATOM     53  C   UNL A   1      42.455  30.461  36.395  1.00  0.00     0.031 C 
ATOM     54  C   UNL A   1      42.940  29.072  34.402  1.00  0.00     0.034 A 
BRANCH  41  55
ATOM     55  C   UNL A   1      40.717  27.460  28.864  1.00  0.00     0.023 A 
ATOM     56  C   UNL A   1      39.818  26.387  28.687  1.00  0.00     0.012 A 
ATOM     57  C   UNL A   1      41.683  27.718  27.872  1.00  0.00     0.148 A 
ATOM     58  C   UNL A   1      39.906  25.561  27.568  1.00  0.00     0.002 A 
ATOM     59  C   UNL A   1      41.732  26.923  26.733  1.00  0.00     0.091 A 
ATOM     60  F   UNL A   1      42.543  28.729  28.065  1.00  0.00    -0.205 F 
ATOM     61  C   UNL A   1      40.855  25.836  26.587  1.00  0.00     0.022 A 
BRANCH  59  62
ATOM     62  S   UNL A   1      42.859  27.247  25.374  1.00  0.00     0.127 S 
ATOM     63  O   UNL A   1      42.793  25.989  24.630  1.00  0.00    -0.237 OA
ATOM     64  O   UNL A   1      42.218  28.382  24.708  1.00  0.00    -0.237 OA
ATOM     65  O   UNL A   1      44.147  27.547  25.981  1.00  0.00    -0.744 OA
ENDBRANCH  59  62
ENDBRANCH  41  55
BRANCH  42  66
ATOM     66  C   UNL A   1      39.261  33.161  36.941  1.00  0.00     0.023 A 
ATOM     67  C   UNL A   1      39.843  34.441  37.024  1.00  0.00     0.012 A 
ATOM     68  C   UNL A   1      38.475  32.694  38.012  1.00  0.00     0.148 A 
ATOM     69  C   UNL A   1      39.681  35.225  38.166  1.00  0.00     0.002 A 
ATOM     70  C   UNL A   1      38.269  33.504  39.123  1.00  0.00     0.091 A 
ATOM     71  F   UNL A   1      37.935  31.471  37.916  1.00  0.00    -0.205 F 
ATOM     72  C   UNL A   1      38.887  34.760  39.212  1.00  0.00     0.022 A 
BRANCH  70  73
ATOM     73  S   UNL A   1      37.163  33.042  40.460  1.00  0.00     0.127 S 
ATOM     74  O   UNL A   1      35.910  32.813  39.744  1.00  0.00    -0.237 OA
ATOM     75  O   UNL A   1      37.806  31.835  40.980  1.00  0.00    -0.237 OA
ATOM     76  O   UNL A   1      37.166  34.170  41.382  1.00  0.00    -0.744 OA
ENDBRANCH  70  73
ENDBRANCH  42  66
BRANCH  54  77
ATOM     77  C   UNL A   1      44.200  28.596  35.079  1.00  0.00     0.023 A 
ATOM     78  C   UNL A   1      45.440  29.191  34.774  1.00  0.00     0.012 A 
ATOM     79  C   UNL A   1      44.140  27.591  36.064  1.00  0.00     0.148 A 
ATOM     80  C   UNL A   1      46.606  28.761  35.406  1.00  0.00     0.002 A 
ATOM     81  C   UNL A   1      45.297  27.208  36.731  1.00  0.00     0.091 A 
ATOM     82  F   UNL A   1      42.954  27.022  36.329  1.00  0.00    -0.205 F 
ATOM     83  C   UNL A   1      46.533  27.779  36.392  1.00  0.00     0.022 A 
BRANCH  81  84
ATOM     84  S   UNL A   1      45.275  26.028  38.085  1.00  0.00     0.127 S 
ATOM     85  O   UNL A   1      46.688  25.972  38.455  1.00  0.00    -0.237 OA
ATOM     86  O   UNL A   1      44.414  26.694  39.064  1.00  0.00    -0.237 OA
ATOM     87  O   UNL A   1      44.720  24.798  37.535  1.00  0.00    -0.744 OA
ENDBRANCH  81  84
ENDBRANCH  54  77
ENDBRANCH  28  29
ENDBRANCH  20  23
ENDBRANCH  18  19
ENDBRANCH  17  18
ENDBRANCH   1  17
TORSDOF 17
ENDMDL
