MODEL 1
REMARK VINA RESULT:     -12.3      0.000      0.000
REMARK SMILES Cc1[nH]c2ccc(Br)cc2c(=O)c1CCC(=O)NCCCCNC(=O)c1ccc(-c2c3nc(c(-c4cccc(S(=O)(=O)[O-])c4F)c4ccc([nH]4)c(-c4cccc(S(=O)(=O)[O-])c4F)c4nc(c(-c5cccc(S(=O)(=O)[O-])c5F)c5ccc2[nH]5)C=C4)C=C3)cc1
REMARK SMILES IDX 21 1 20 2 19 3 18 4 16 5 17 6 15 8 14 9 13 10 1 11 2 12 3 13
REMARK SMILES IDX 4 14 11 16 5 17 10 18 12 19 6 20 9 21 7 22 8 23 22 24 23 25
REMARK SMILES IDX 24 26 25 28 26 29 27 30 88 31 28 32 87 33 29 34 30 35 31 36
REMARK SMILES IDX 81 37 32 38 86 39 80 40 82 41 33 42 85 43 79 44 78 45 34 47
REMARK SMILES IDX 66 48 46 49 65 50 47 51 50 52 64 53 83 54 48 55 49 56 63 58
REMARK SMILES IDX 84 59 51 60 35 61 36 62 44 63 37 64 39 65 45 66 38 67 40 68
REMARK SMILES IDX 41 69 42 70 43 71 67 72 68 73 76 74 69 75 71 76 77 77 70 78
REMARK SMILES IDX 72 79 73 80 74 81 75 82 52 83 53 84 61 85 54 86 56 87 62 88
REMARK SMILES IDX 55 89 57 90 58 91 59 92 60 93
REMARK H PARENT 18 7 3 15 23 27 82 46 50 57
REMARK Flexibility Score: inf
ROOT
ATOM      1  C   UNL A   1      35.978  22.345  23.751  1.00  0.00     0.023 C 
ENDROOT
BRANCH   1   2
ATOM      2  C   UNL A   1      35.161  23.624  23.687  1.00  0.00     0.023 C 
BRANCH   2   3
ATOM      3  C   UNL A   1      35.114  24.434  24.973  1.00  0.00     0.116 C 
BRANCH   3   4
ATOM      4  N   UNL A   1      34.208  25.557  24.822  1.00  0.00    -0.356 N 
ATOM      5  C   UNL A   1      32.974  25.742  25.376  1.00  0.00     0.220 C 
ATOM      6  O   UNL A   1      32.295  26.700  25.001  1.00  0.00    -0.275 OA
ATOM      7  H   UNL A   1      34.526  26.285  24.242  1.00  0.00     0.163 HD
BRANCH   5   8
ATOM      8  C   UNL A   1      32.475  24.816  26.473  1.00  0.00     0.105 C 
BRANCH   8   9
ATOM      9  C   UNL A   1      31.357  23.858  26.025  1.00  0.00     0.051 C 
BRANCH   9  10
ATOM     10  C   UNL A   1      31.753  22.925  24.898  1.00  0.00     0.020 A 
ATOM     11  C   UNL A   1      30.805  24.317  23.026  1.00  0.00     0.064 C 
ATOM     12  C   UNL A   1      31.465  23.079  23.584  1.00  0.00     0.019 A 
ATOM     13  N   UNL A   1      31.722  22.096  22.647  1.00  0.00    -0.358 N 
ATOM     14  C   UNL A   1      32.182  20.824  23.003  1.00  0.00     0.050 A 
ATOM     15  H   UNL A   1      31.578  22.299  21.694  1.00  0.00     0.166 HD
ATOM     16  C   UNL A   1      32.545  21.701  25.288  1.00  0.00     0.192 A 
ATOM     17  C   UNL A   1      32.113  19.753  22.109  1.00  0.00     0.028 A 
ATOM     18  C   UNL A   1      32.611  20.583  24.313  1.00  0.00     0.047 A 
ATOM     19  O   UNL A   1      33.056  21.591  26.389  1.00  0.00    -0.289 OA
ATOM     20  C   UNL A   1      32.454  18.463  22.526  1.00  0.00     0.018 A 
ATOM     21  C   UNL A   1      32.980  19.302  24.733  1.00  0.00     0.030 A 
ATOM     22  C   UNL A   1      32.882  18.243  23.836  1.00  0.00     0.018 A 
ATOM     23  Br  UNL A   1      33.268  16.484  24.413  1.00  0.00    -0.051 Br
ENDBRANCH   9  10
ENDBRANCH   8   9
ENDBRANCH   5   8
ENDBRANCH   3   4
ENDBRANCH   2   3
ENDBRANCH   1   2
BRANCH   1  24
ATOM     24  C   UNL A   1      36.506  22.008  25.134  1.00  0.00     0.116 C 
BRANCH  24  25
ATOM     25  N   UNL A   1      37.524  20.957  25.149  1.00  0.00    -0.352 N 
ATOM     26  C   UNL A   1      38.782  20.932  25.714  1.00  0.00     0.251 C 
ATOM     27  H   UNL A   1      37.268  20.132  24.677  1.00  0.00     0.163 HD
ATOM     28  O   UNL A   1      39.502  19.950  25.547  1.00  0.00    -0.269 OA
BRANCH  26  29
ATOM     29  C   UNL A   1      39.280  22.105  26.466  1.00  0.00     0.039 A 
ATOM     30  C   UNL A   1      38.706  23.356  26.273  1.00  0.00     0.014 A 
ATOM     31  C   UNL A   1      40.388  21.972  27.307  1.00  0.00     0.014 A 
ATOM     32  C   UNL A   1      39.403  24.488  26.666  1.00  0.00     0.010 A 
ATOM     33  C   UNL A   1      41.003  23.115  27.835  1.00  0.00     0.010 A 
ATOM     34  C   UNL A   1      40.563  24.390  27.452  1.00  0.00    -0.014 A 
BRANCH  34  35
ATOM     35  C   UNL A   1      41.267  25.644  27.839  1.00  0.00     0.031 A 
ATOM     36  C   UNL A   1      42.631  25.989  27.295  1.00  0.00     0.074 A 
ATOM     37  C   UNL A   1      40.611  26.536  28.610  1.00  0.00     0.049 A 
ATOM     38  N   UNL A   1      43.321  27.089  27.465  1.00  0.00    -0.248 NA
ATOM     39  C   UNL A   1      43.317  24.982  26.468  1.00  0.00     0.031 C 
ATOM     40  C   UNL A   1      39.296  26.309  29.219  1.00  0.00     0.029 A 
ATOM     41  N   UNL A   1      40.920  27.823  28.971  1.00  0.00    -0.354 N 
ATOM     42  C   UNL A   1      44.536  26.886  26.819  1.00  0.00     0.074 A 
ATOM     43  C   UNL A   1      44.491  25.561  26.245  1.00  0.00     0.031 C 
ATOM     44  C   UNL A   1      38.867  27.445  29.781  1.00  0.00     0.029 A 
ATOM     45  C   UNL A   1      39.907  28.459  29.651  1.00  0.00     0.049 A 
ATOM     46  H   UNL A   1      41.783  28.250  28.762  1.00  0.00     0.167 HD
ATOM     47  C   UNL A   1      45.584  27.735  26.701  1.00  0.00     0.034 A 
ATOM     48  C   UNL A   1      39.814  29.716  30.124  1.00  0.00     0.034 A 
ATOM     49  C   UNL A   1      45.598  29.082  27.205  1.00  0.00     0.049 A 
ATOM     50  C   UNL A   1      40.969  30.651  29.935  1.00  0.00     0.074 A 
ATOM     51  C   UNL A   1      46.602  30.028  27.093  1.00  0.00     0.029 A 
ATOM     52  N   UNL A   1      44.559  29.680  27.899  1.00  0.00    -0.354 N 
ATOM     53  N   UNL A   1      42.084  30.451  29.277  1.00  0.00    -0.248 NA
ATOM     54  C   UNL A   1      40.861  31.978  30.555  1.00  0.00     0.031 C 
ATOM     55  C   UNL A   1      46.169  31.200  27.720  1.00  0.00     0.029 A 
ATOM     56  C   UNL A   1      44.897  30.983  28.221  1.00  0.00     0.049 A 
ATOM     57  H   UNL A   1      43.707  29.244  28.129  1.00  0.00     0.167 HD
ATOM     58  C   UNL A   1      42.816  31.621  29.409  1.00  0.00     0.074 A 
ATOM     59  C   UNL A   1      42.004  32.541  30.181  1.00  0.00     0.031 C 
ATOM     60  C   UNL A   1      44.062  31.896  28.956  1.00  0.00     0.034 A 
BRANCH  47  61
ATOM     61  C   UNL A   1      46.804  27.264  25.955  1.00  0.00     0.023 A 
ATOM     62  C   UNL A   1      46.916  27.536  24.578  1.00  0.00     0.012 A 
ATOM     63  C   UNL A   1      47.882  26.665  26.636  1.00  0.00     0.148 A 
ATOM     64  C   UNL A   1      48.083  27.215  23.886  1.00  0.00     0.002 A 
ATOM     65  C   UNL A   1      49.053  26.373  25.945  1.00  0.00     0.091 A 
ATOM     66  F   UNL A   1      47.746  26.408  27.944  1.00  0.00    -0.205 F 
ATOM     67  C   UNL A   1      49.153  26.645  24.571  1.00  0.00     0.022 A 
BRANCH  65  68
ATOM     68  S   UNL A   1      50.512  25.693  26.744  1.00  0.00     0.127 S 
ATOM     69  O   UNL A   1      51.427  25.547  25.611  1.00  0.00    -0.237 OA
ATOM     70  O   UNL A   1      50.871  26.753  27.684  1.00  0.00    -0.237 OA
ATOM     71  O   UNL A   1      50.089  24.444  27.362  1.00  0.00    -0.744 OA
ENDBRANCH  65  68
ENDBRANCH  47  61
BRANCH  48  72
ATOM     72  C   UNL A   1      38.552  30.151  30.780  1.00  0.00     0.023 A 
ATOM     73  C   UNL A   1      38.403  29.983  32.169  1.00  0.00     0.012 A 
ATOM     74  C   UNL A   1      37.555  30.832  30.055  1.00  0.00     0.148 A 
ATOM     75  C   UNL A   1      37.285  30.495  32.827  1.00  0.00     0.002 A 
ATOM     76  C   UNL A   1      36.472  31.388  30.725  1.00  0.00     0.091 A 
ATOM     77  F   UNL A   1      37.715  30.965  28.730  1.00  0.00    -0.205 F 
ATOM     78  C   UNL A   1      36.329  31.211  32.109  1.00  0.00     0.022 A 
BRANCH  76  79
ATOM     79  S   UNL A   1      35.281  32.454  29.905  1.00  0.00     0.127 S 
ATOM     80  O   UNL A   1      34.332  32.722  30.982  1.00  0.00    -0.237 OA
ATOM     81  O   UNL A   1      36.114  33.593  29.518  1.00  0.00    -0.237 OA
ATOM     82  O   UNL A   1      34.764  31.680  28.786  1.00  0.00    -0.744 OA
ENDBRANCH  76  79
ENDBRANCH  48  72
BRANCH  60  83
ATOM     83  C   UNL A   1      44.645  33.239  29.291  1.00  0.00     0.023 A 
ATOM     84  C   UNL A   1      45.371  33.388  30.488  1.00  0.00     0.012 A 
ATOM     85  C   UNL A   1      44.570  34.309  28.379  1.00  0.00     0.148 A 
ATOM     86  C   UNL A   1      46.011  34.591  30.778  1.00  0.00     0.002 A 
ATOM     87  C   UNL A   1      45.235  35.495  28.662  1.00  0.00     0.091 A 
ATOM     88  F   UNL A   1      43.863  34.140  27.254  1.00  0.00    -0.205 F 
ATOM     89  C   UNL A   1      45.952  35.639  29.863  1.00  0.00     0.022 A 
BRANCH  87  90
ATOM     90  S   UNL A   1      45.276  36.878  27.517  1.00  0.00     0.127 S 
ATOM     91  O   UNL A   1      46.018  37.876  28.286  1.00  0.00    -0.237 OA
ATOM     92  O   UNL A   1      46.006  36.317  26.380  1.00  0.00    -0.237 OA
ATOM     93  O   UNL A   1      43.887  37.215  27.241  1.00  0.00    -0.744 OA
ENDBRANCH  87  90
ENDBRANCH  60  83
ENDBRANCH  34  35
ENDBRANCH  26  29
ENDBRANCH  24  25
ENDBRANCH   1  24
TORSDOF 16
ENDMDL
MODEL 2
REMARK VINA RESULT:     -12.1      4.779      9.816
REMARK SMILES Cc1[nH]c2ccc(Br)cc2c(=O)c1CCC(=O)NCCCCNC(=O)c1ccc(-c2c3nc(c(-c4cccc(S(=O)(=O)[O-])c4F)c4ccc([nH]4)c(-c4cccc(S(=O)(=O)[O-])c4F)c4nc(c(-c5cccc(S(=O)(=O)[O-])c5F)c5ccc2[nH]5)C=C4)C=C3)cc1
REMARK SMILES IDX 21 1 20 2 19 3 18 4 16 5 17 6 15 8 14 9 13 10 1 11 2 12 3 13
REMARK SMILES IDX 4 14 11 16 5 17 10 18 12 19 6 20 9 21 7 22 8 23 22 24 23 25
REMARK SMILES IDX 24 26 25 28 26 29 27 30 88 31 28 32 87 33 29 34 30 35 31 36
REMARK SMILES IDX 81 37 32 38 86 39 80 40 82 41 33 42 85 43 79 44 78 45 34 47
REMARK SMILES IDX 66 48 46 49 65 50 47 51 50 52 64 53 83 54 48 55 49 56 63 58
REMARK SMILES IDX 84 59 51 60 35 61 36 62 44 63 37 64 39 65 45 66 38 67 40 68
REMARK SMILES IDX 41 69 42 70 43 71 67 72 68 73 76 74 69 75 71 76 77 77 70 78
REMARK SMILES IDX 72 79 73 80 74 81 75 82 52 83 53 84 61 85 54 86 56 87 62 88
REMARK SMILES IDX 55 89 57 90 58 91 59 92 60 93
REMARK H PARENT 18 7 3 15 23 27 82 46 50 57
REMARK Flexibility Score: inf
ROOT
ATOM      1  C   UNL A   1      31.598  28.064  26.521  1.00  0.00     0.023 C 
ENDROOT
BRANCH   1   2
ATOM      2  C   UNL A   1      31.328  26.984  25.486  1.00  0.00     0.023 C 
BRANCH   2   3
ATOM      3  C   UNL A   1      30.547  25.780  25.987  1.00  0.00     0.116 C 
BRANCH   3   4
ATOM      4  N   UNL A   1      31.396  24.945  26.816  1.00  0.00    -0.356 N 
ATOM      5  C   UNL A   1      31.473  23.583  26.864  1.00  0.00     0.220 C 
ATOM      6  O   UNL A   1      32.152  23.060  27.750  1.00  0.00    -0.275 OA
ATOM      7  H   UNL A   1      31.999  25.426  27.427  1.00  0.00     0.163 HD
BRANCH   5   8
ATOM      8  C   UNL A   1      30.780  22.734  25.812  1.00  0.00     0.105 C 
BRANCH   8   9
ATOM      9  C   UNL A   1      31.429  22.809  24.418  1.00  0.00     0.051 C 
BRANCH   9  10
ATOM     10  C   UNL A   1      32.866  22.328  24.375  1.00  0.00     0.020 A 
ATOM     11  C   UNL A   1      32.344  19.901  23.956  1.00  0.00     0.064 C 
ATOM     12  C   UNL A   1      33.284  21.048  24.237  1.00  0.00     0.019 A 
ATOM     13  N   UNL A   1      34.609  20.682  24.375  1.00  0.00    -0.358 N 
ATOM     14  C   UNL A   1      35.596  21.581  24.792  1.00  0.00     0.050 A 
ATOM     15  H   UNL A   1      34.870  19.754  24.172  1.00  0.00     0.166 HD
ATOM     16  C   UNL A   1      33.931  23.389  24.506  1.00  0.00     0.192 A 
ATOM     17  C   UNL A   1      36.838  21.133  25.250  1.00  0.00     0.028 A 
ATOM     18  C   UNL A   1      35.303  22.947  24.865  1.00  0.00     0.047 A 
ATOM     19  O   UNL A   1      33.673  24.575  24.396  1.00  0.00    -0.289 OA
ATOM     20  C   UNL A   1      37.759  22.038  25.785  1.00  0.00     0.018 A 
ATOM     21  C   UNL A   1      36.228  23.864  25.373  1.00  0.00     0.030 A 
ATOM     22  C   UNL A   1      37.450  23.397  25.847  1.00  0.00     0.018 A 
ATOM     23  Br  UNL A   1      38.671  24.601  26.642  1.00  0.00    -0.051 Br
ENDBRANCH   9  10
ENDBRANCH   8   9
ENDBRANCH   5   8
ENDBRANCH   3   4
ENDBRANCH   2   3
ENDBRANCH   1   2
BRANCH   1  24
ATOM     24  C   UNL A   1      32.590  29.123  26.075  1.00  0.00     0.116 C 
BRANCH  24  25
ATOM     25  N   UNL A   1      32.254  30.480  26.506  1.00  0.00    -0.352 N 
ATOM     26  C   UNL A   1      33.012  31.430  27.158  1.00  0.00     0.251 C 
ATOM     27  H   UNL A   1      31.335  30.762  26.296  1.00  0.00     0.163 HD
ATOM     28  O   UNL A   1      32.498  32.499  27.482  1.00  0.00    -0.269 OA
BRANCH  26  29
ATOM     29  C   UNL A   1      34.418  31.137  27.517  1.00  0.00     0.039 A 
ATOM     30  C   UNL A   1      34.830  29.826  27.726  1.00  0.00     0.014 A 
ATOM     31  C   UNL A   1      35.313  32.188  27.733  1.00  0.00     0.014 A 
ATOM     32  C   UNL A   1      36.004  29.588  28.422  1.00  0.00     0.010 A 
ATOM     33  C   UNL A   1      36.570  31.928  28.296  1.00  0.00     0.010 A 
ATOM     34  C   UNL A   1      36.895  30.633  28.721  1.00  0.00    -0.014 A 
BRANCH  34  35
ATOM     35  C   UNL A   1      38.140  30.311  29.473  1.00  0.00     0.031 A 
ATOM     36  C   UNL A   1      38.310  30.690  30.923  1.00  0.00     0.074 A 
ATOM     37  C   UNL A   1      39.084  29.568  28.862  1.00  0.00     0.049 A 
ATOM     38  N   UNL A   1      39.294  30.390  31.733  1.00  0.00    -0.248 NA
ATOM     39  C   UNL A   1      37.260  31.513  31.549  1.00  0.00     0.031 C 
ATOM     40  C   UNL A   1      39.048  29.159  27.454  1.00  0.00     0.029 A 
ATOM     41  N   UNL A   1      40.224  28.975  29.344  1.00  0.00    -0.354 N 
ATOM     42  C   UNL A   1      39.014  31.029  32.936  1.00  0.00     0.074 A 
ATOM     43  C   UNL A   1      37.763  31.729  32.758  1.00  0.00     0.031 C 
ATOM     44  C   UNL A   1      40.047  28.302  27.216  1.00  0.00     0.029 A 
ATOM     45  C   UNL A   1      40.850  28.164  28.426  1.00  0.00     0.049 A 
ATOM     46  H   UNL A   1      40.561  29.116  30.259  1.00  0.00     0.167 HD
ATOM     47  C   UNL A   1      39.725  31.017  34.088  1.00  0.00     0.034 A 
ATOM     48  C   UNL A   1      41.947  27.391  28.533  1.00  0.00     0.034 A 
ATOM     49  C   UNL A   1      40.930  30.256  34.289  1.00  0.00     0.049 A 
ATOM     50  C   UNL A   1      42.688  27.356  29.834  1.00  0.00     0.074 A 
ATOM     51  C   UNL A   1      41.694  30.150  35.438  1.00  0.00     0.029 A 
ATOM     52  N   UNL A   1      41.536  29.461  33.329  1.00  0.00    -0.354 N 
ATOM     53  N   UNL A   1      42.373  27.929  30.970  1.00  0.00    -0.248 NA
ATOM     54  C   UNL A   1      43.934  26.580  29.872  1.00  0.00     0.031 C 
ATOM     55  C   UNL A   1      42.763  29.290  35.173  1.00  0.00     0.029 A 
ATOM     56  C   UNL A   1      42.664  28.860  33.860  1.00  0.00     0.049 A 
ATOM     57  H   UNL A   1      41.212  29.340  32.408  1.00  0.00     0.167 HD
ATOM     58  C   UNL A   1      43.384  27.590  31.857  1.00  0.00     0.074 A 
ATOM     59  C   UNL A   1      44.305  26.732  31.137  1.00  0.00     0.031 C 
ATOM     60  C   UNL A   1      43.547  27.980  33.143  1.00  0.00     0.034 A 
BRANCH  47  61
ATOM     61  C   UNL A   1      39.207  31.811  35.256  1.00  0.00     0.023 A 
ATOM     62  C   UNL A   1      38.344  31.192  36.181  1.00  0.00     0.012 A 
ATOM     63  C   UNL A   1      39.667  33.120  35.501  1.00  0.00     0.148 A 
ATOM     64  C   UNL A   1      37.941  31.866  37.334  1.00  0.00     0.002 A 
ATOM     65  C   UNL A   1      39.282  33.776  36.666  1.00  0.00     0.091 A 
ATOM     66  F   UNL A   1      40.479  33.690  34.600  1.00  0.00    -0.205 F 
ATOM     67  C   UNL A   1      38.418  33.151  37.580  1.00  0.00     0.022 A 
BRANCH  65  68
ATOM     68  S   UNL A   1      39.886  35.409  37.110  1.00  0.00     0.127 S 
ATOM     69  O   UNL A   1      39.225  35.628  38.397  1.00  0.00    -0.237 OA
ATOM     70  O   UNL A   1      41.329  35.192  37.195  1.00  0.00    -0.237 OA
ATOM     71  O   UNL A   1      39.463  36.301  36.039  1.00  0.00    -0.744 OA
ENDBRANCH  65  68
ENDBRANCH  47  61
BRANCH  48  72
ATOM     72  C   UNL A   1      42.365  26.563  27.370  1.00  0.00     0.023 A 
ATOM     73  C   UNL A   1      43.096  27.159  26.326  1.00  0.00     0.012 A 
ATOM     74  C   UNL A   1      42.144  25.172  27.353  1.00  0.00     0.148 A 
ATOM     75  C   UNL A   1      43.607  26.382  25.287  1.00  0.00     0.002 A 
ATOM     76  C   UNL A   1      42.704  24.397  26.345  1.00  0.00     0.091 A 
ATOM     77  F   UNL A   1      41.432  24.632  28.352  1.00  0.00    -0.205 F 
ATOM     78  C   UNL A   1      43.426  25.001  25.305  1.00  0.00     0.022 A 
BRANCH  76  79
ATOM     79  S   UNL A   1      42.652  22.601  26.376  1.00  0.00     0.127 S 
ATOM     80  O   UNL A   1      42.913  22.272  24.977  1.00  0.00    -0.237 OA
ATOM     81  O   UNL A   1      43.743  22.285  27.299  1.00  0.00    -0.237 OA
ATOM     82  O   UNL A   1      41.328  22.253  26.870  1.00  0.00    -0.744 OA
ENDBRANCH  76  79
ENDBRANCH  48  72
BRANCH  60  83
ATOM     83  C   UNL A   1      44.775  27.504  33.865  1.00  0.00     0.023 A 
ATOM     84  C   UNL A   1      45.912  28.334  33.899  1.00  0.00     0.012 A 
ATOM     85  C   UNL A   1      44.765  26.300  34.594  1.00  0.00     0.148 A 
ATOM     86  C   UNL A   1      47.029  27.968  34.645  1.00  0.00     0.002 A 
ATOM     87  C   UNL A   1      45.872  25.956  35.359  1.00  0.00     0.091 A 
ATOM     88  F   UNL A   1      43.673  25.526  34.533  1.00  0.00    -0.205 F 
ATOM     89  C   UNL A   1      47.006  26.786  35.383  1.00  0.00     0.022 A 
BRANCH  87  90
ATOM     90  S   UNL A   1      45.913  24.491  36.397  1.00  0.00     0.127 S 
ATOM     91  O   UNL A   1      45.502  23.450  35.455  1.00  0.00    -0.237 OA
ATOM     92  O   UNL A   1      47.319  24.433  36.796  1.00  0.00    -0.237 OA
ATOM     93  O   UNL A   1      44.982  24.743  37.488  1.00  0.00    -0.744 OA
ENDBRANCH  87  90
ENDBRANCH  60  83
ENDBRANCH  34  35
ENDBRANCH  26  29
ENDBRANCH  24  25
ENDBRANCH   1  24
TORSDOF 16
ENDMDL
MODEL 3
REMARK VINA RESULT:     -11.9      2.462      3.821
REMARK SMILES Cc1[nH]c2ccc(Br)cc2c(=O)c1CCC(=O)NCCCCNC(=O)c1ccc(-c2c3nc(c(-c4cccc(S(=O)(=O)[O-])c4F)c4ccc([nH]4)c(-c4cccc(S(=O)(=O)[O-])c4F)c4nc(c(-c5cccc(S(=O)(=O)[O-])c5F)c5ccc2[nH]5)C=C4)C=C3)cc1
REMARK SMILES IDX 21 1 20 2 19 3 18 4 16 5 17 6 15 8 14 9 13 10 1 11 2 12 3 13
REMARK SMILES IDX 4 14 11 16 5 17 10 18 12 19 6 20 9 21 7 22 8 23 22 24 23 25
REMARK SMILES IDX 24 26 25 28 26 29 27 30 88 31 28 32 87 33 29 34 30 35 31 36
REMARK SMILES IDX 81 37 32 38 86 39 80 40 82 41 33 42 85 43 79 44 78 45 34 47
REMARK SMILES IDX 66 48 46 49 65 50 47 51 50 52 64 53 83 54 48 55 49 56 63 58
REMARK SMILES IDX 84 59 51 60 35 61 36 62 44 63 37 64 39 65 45 66 38 67 40 68
REMARK SMILES IDX 41 69 42 70 43 71 67 72 68 73 76 74 69 75 71 76 77 77 70 78
REMARK SMILES IDX 72 79 73 80 74 81 75 82 52 83 53 84 61 85 54 86 56 87 62 88
REMARK SMILES IDX 55 89 57 90 58 91 59 92 60 93
REMARK H PARENT 18 7 3 15 23 27 82 46 50 57
REMARK Flexibility Score: inf
ROOT
ATOM      1  C   UNL A   1      35.601  22.172  23.958  1.00  0.00     0.023 C 
ENDROOT
BRANCH   1   2
ATOM      2  C   UNL A   1      34.622  21.609  24.974  1.00  0.00     0.023 C 
BRANCH   2   3
ATOM      3  C   UNL A   1      33.280  21.167  24.414  1.00  0.00     0.116 C 
BRANCH   3   4
ATOM      4  N   UNL A   1      32.206  21.900  25.056  1.00  0.00    -0.356 N 
ATOM      5  C   UNL A   1      31.451  22.925  24.561  1.00  0.00     0.220 C 
ATOM      6  O   UNL A   1      30.686  23.518  25.324  1.00  0.00    -0.275 OA
ATOM      7  H   UNL A   1      31.991  21.620  25.975  1.00  0.00     0.163 HD
BRANCH   5   8
ATOM      8  C   UNL A   1      31.516  23.286  23.087  1.00  0.00     0.105 C 
BRANCH   8   9
ATOM      9  C   UNL A   1      32.718  24.170  22.709  1.00  0.00     0.051 C 
BRANCH   9  10
ATOM     10  C   UNL A   1      32.582  25.618  23.137  1.00  0.00     0.020 A 
ATOM     11  C   UNL A   1      34.107  25.470  25.135  1.00  0.00     0.064 C 
ATOM     12  C   UNL A   1      33.134  26.189  24.233  1.00  0.00     0.019 A 
ATOM     13  N   UNL A   1      32.823  27.474  24.636  1.00  0.00    -0.358 N 
ATOM     14  C   UNL A   1      31.824  28.233  24.017  1.00  0.00     0.050 A 
ATOM     15  H   UNL A   1      33.323  27.872  25.386  1.00  0.00     0.166 HD
ATOM     16  C   UNL A   1      31.743  26.503  22.249  1.00  0.00     0.192 A 
ATOM     17  C   UNL A   1      31.291  29.369  24.631  1.00  0.00     0.028 A 
ATOM     18  C   UNL A   1      31.260  27.788  22.816  1.00  0.00     0.047 A 
ATOM     19  O   UNL A   1      31.406  26.156  21.131  1.00  0.00    -0.289 OA
ATOM     20  C   UNL A   1      30.204  30.035  24.059  1.00  0.00     0.018 A 
ATOM     21  C   UNL A   1      30.190  28.463  22.220  1.00  0.00     0.030 A 
ATOM     22  C   UNL A   1      29.657  29.578  22.859  1.00  0.00     0.018 A 
ATOM     23  Br  UNL A   1      28.140  30.441  22.132  1.00  0.00    -0.051 Br
ENDBRANCH   9  10
ENDBRANCH   8   9
ENDBRANCH   5   8
ENDBRANCH   3   4
ENDBRANCH   2   3
ENDBRANCH   1   2
BRANCH   1  24
ATOM     24  C   UNL A   1      36.967  22.513  24.527  1.00  0.00     0.116 C 
BRANCH  24  25
ATOM     25  N   UNL A   1      37.782  21.348  24.872  1.00  0.00    -0.352 N 
ATOM     26  C   UNL A   1      38.849  21.221  25.736  1.00  0.00     0.251 C 
ATOM     27  H   UNL A   1      37.526  20.517  24.409  1.00  0.00     0.163 HD
ATOM     28  O   UNL A   1      39.433  20.143  25.825  1.00  0.00    -0.269 OA
BRANCH  26  29
ATOM     29  C   UNL A   1      39.322  22.393  26.506  1.00  0.00     0.039 A 
ATOM     30  C   UNL A   1      38.785  23.652  26.266  1.00  0.00     0.014 A 
ATOM     31  C   UNL A   1      40.374  22.249  27.414  1.00  0.00     0.014 A 
ATOM     32  C   UNL A   1      39.477  24.776  26.690  1.00  0.00     0.010 A 
ATOM     33  C   UNL A   1      40.977  23.386  27.968  1.00  0.00     0.010 A 
ATOM     34  C   UNL A   1      40.585  24.664  27.547  1.00  0.00    -0.014 A 
BRANCH  34  35
ATOM     35  C   UNL A   1      41.287  25.910  27.965  1.00  0.00     0.031 A 
ATOM     36  C   UNL A   1      42.669  26.247  27.465  1.00  0.00     0.074 A 
ATOM     37  C   UNL A   1      40.615  26.801  28.722  1.00  0.00     0.049 A 
ATOM     38  N   UNL A   1      43.364  27.340  27.664  1.00  0.00    -0.248 NA
ATOM     39  C   UNL A   1      43.373  25.241  26.651  1.00  0.00     0.031 C 
ATOM     40  C   UNL A   1      39.281  26.582  29.289  1.00  0.00     0.029 A 
ATOM     41  N   UNL A   1      40.924  28.083  29.102  1.00  0.00    -0.354 N 
ATOM     42  C   UNL A   1      44.596  27.131  27.054  1.00  0.00     0.074 A 
ATOM     43  C   UNL A   1      44.557  25.811  26.469  1.00  0.00     0.031 C 
ATOM     44  C   UNL A   1      38.844  27.717  29.846  1.00  0.00     0.029 A 
ATOM     45  C   UNL A   1      39.896  28.723  29.756  1.00  0.00     0.049 A 
ATOM     46  H   UNL A   1      41.796  28.505  28.923  1.00  0.00     0.167 HD
ATOM     47  C   UNL A   1      45.654  27.972  26.974  1.00  0.00     0.034 A 
ATOM     48  C   UNL A   1      39.799  29.978  30.235  1.00  0.00     0.034 A 
ATOM     49  C   UNL A   1      45.664  29.316  27.488  1.00  0.00     0.049 A 
ATOM     50  C   UNL A   1      40.967  30.904  30.088  1.00  0.00     0.074 A 
ATOM     51  C   UNL A   1      46.678  30.254  27.413  1.00  0.00     0.029 A 
ATOM     52  N   UNL A   1      44.609  29.918  28.155  1.00  0.00    -0.354 N 
ATOM     53  N   UNL A   1      42.100  30.699  29.462  1.00  0.00    -0.248 NA
ATOM     54  C   UNL A   1      40.851  32.227  30.715  1.00  0.00     0.031 C 
ATOM     55  C   UNL A   1      46.236  31.425  28.036  1.00  0.00     0.029 A 
ATOM     56  C   UNL A   1      44.947  31.215  28.497  1.00  0.00     0.049 A 
ATOM     57  H   UNL A   1      43.747  29.487  28.355  1.00  0.00     0.167 HD
ATOM     58  C   UNL A   1      42.837  31.863  29.625  1.00  0.00     0.074 A 
ATOM     59  C   UNL A   1      42.009  32.783  30.379  1.00  0.00     0.031 C 
ATOM     60  C   UNL A   1      44.098  32.130  29.213  1.00  0.00     0.034 A 
BRANCH  47  61
ATOM     61  C   UNL A   1      46.892  27.497  26.261  1.00  0.00     0.023 A 
ATOM     62  C   UNL A   1      47.766  26.610  26.917  1.00  0.00     0.012 A 
ATOM     63  C   UNL A   1      47.123  27.831  24.912  1.00  0.00     0.148 A 
ATOM     64  C   UNL A   1      48.857  26.063  26.243  1.00  0.00     0.002 A 
ATOM     65  C   UNL A   1      48.197  27.260  24.237  1.00  0.00     0.091 A 
ATOM     66  F   UNL A   1      46.281  28.686  24.314  1.00  0.00    -0.205 F 
ATOM     67  C   UNL A   1      49.066  26.379  24.903  1.00  0.00     0.022 A 
BRANCH  65  68
ATOM     68  S   UNL A   1      48.521  27.554  22.495  1.00  0.00     0.127 S 
ATOM     69  O   UNL A   1      49.774  28.307  22.551  1.00  0.00    -0.237 OA
ATOM     70  O   UNL A   1      48.650  26.195  21.972  1.00  0.00    -0.237 OA
ATOM     71  O   UNL A   1      47.375  28.298  21.990  1.00  0.00    -0.744 OA
ENDBRANCH  65  68
ENDBRANCH  47  61
BRANCH  48  72
ATOM     72  C   UNL A   1      38.521  30.418  30.855  1.00  0.00     0.023 A 
ATOM     73  C   UNL A   1      38.360  30.317  32.250  1.00  0.00     0.012 A 
ATOM     74  C   UNL A   1      37.519  31.042  30.088  1.00  0.00     0.148 A 
ATOM     75  C   UNL A   1      37.225  30.837  32.870  1.00  0.00     0.002 A 
ATOM     76  C   UNL A   1      36.418  31.608  30.718  1.00  0.00     0.091 A 
ATOM     77  F   UNL A   1      37.691  31.112  28.760  1.00  0.00    -0.205 F 
ATOM     78  C   UNL A   1      36.263  31.497  32.108  1.00  0.00     0.022 A 
BRANCH  76  79
ATOM     79  S   UNL A   1      35.215  32.607  29.834  1.00  0.00     0.127 S 
ATOM     80  O   UNL A   1      34.699  31.654  28.855  1.00  0.00    -0.237 OA
ATOM     81  O   UNL A   1      34.279  32.964  30.901  1.00  0.00    -0.237 OA
ATOM     82  O   UNL A   1      35.960  33.732  29.289  1.00  0.00    -0.744 OA
ENDBRANCH  76  79
ENDBRANCH  48  72
BRANCH  60  83
ATOM     83  C   UNL A   1      44.682  33.465  29.575  1.00  0.00     0.023 A 
ATOM     84  C   UNL A   1      45.453  33.577  30.748  1.00  0.00     0.012 A 
ATOM     85  C   UNL A   1      44.562  34.567  28.708  1.00  0.00     0.148 A 
ATOM     86  C   UNL A   1      46.093  34.775  31.058  1.00  0.00     0.002 A 
ATOM     87  C   UNL A   1      45.227  35.749  29.009  1.00  0.00     0.091 A 
ATOM     88  F   UNL A   1      43.813  34.433  27.605  1.00  0.00    -0.205 F 
ATOM     89  C   UNL A   1      45.989  35.856  30.186  1.00  0.00     0.022 A 
BRANCH  87  90
ATOM     90  S   UNL A   1      45.211  37.174  27.916  1.00  0.00     0.127 S 
ATOM     91  O   UNL A   1      43.799  37.553  27.945  1.00  0.00    -0.237 OA
ATOM     92  O   UNL A   1      46.107  38.103  28.605  1.00  0.00    -0.237 OA
ATOM     93  O   UNL A   1      45.700  36.700  26.629  1.00  0.00    -0.744 OA
ENDBRANCH  87  90
ENDBRANCH  60  83
ENDBRANCH  34  35
ENDBRANCH  26  29
ENDBRANCH  24  25
ENDBRANCH   1  24
TORSDOF 16
ENDMDL
