MODEL 1
REMARK VINA RESULT:     -11.8      0.000      0.000
REMARK SMILES Cc1nc(-c2ccco2)nc(S)c1C(=O)NCCCCNC(=O)c1ccc(-c2c3nc(c(-c4cccc(S(=O)(=O)[O-])c4F)c4ccc([nH]4)c(-c4cccc(S(=O)(=O)[O-])c4F)c4nc(c(-c5cccc(S(=O)(=O)[O-])c5F)c5ccc2[nH]5)C=C4)C=C3)cc1
REMARK SMILES IDX 19 1 18 2 17 3 16 4 14 5 15 6 13 8 1 9 2 10 3 11 4 12 11 13
REMARK SMILES IDX 10 14 5 15 6 16 9 17 7 18 8 19 12 20 20 22 21 23 22 24 23 26
REMARK SMILES IDX 24 27 25 28 86 29 26 30 85 31 27 32 28 33 29 34 79 35 30 36
REMARK SMILES IDX 84 37 78 38 80 39 31 40 83 41 77 42 76 43 32 45 64 46 44 47
REMARK SMILES IDX 63 48 45 49 48 50 62 51 81 52 46 53 47 54 61 56 82 57 49 58
REMARK SMILES IDX 33 59 34 60 42 61 35 62 37 63 43 64 36 65 38 66 39 67 40 68
REMARK SMILES IDX 41 69 65 70 66 71 74 72 67 73 69 74 75 75 68 76 70 77 71 78
REMARK SMILES IDX 72 79 73 80 50 81 51 82 59 83 52 84 54 85 60 86 53 87 55 88
REMARK SMILES IDX 56 89 57 90 58 91
REMARK H PARENT 16 7 12 21 21 25 80 44 48 55
REMARK Flexibility Score: inf
ROOT
ATOM      1  C   UNL A   1      31.672  28.926  26.486  1.00  0.00     0.023 C 
ENDROOT
BRANCH   1   2
ATOM      2  C   UNL A   1      32.343  27.587  26.753  1.00  0.00     0.023 C 
BRANCH   2   3
ATOM      3  C   UNL A   1      33.740  27.415  26.145  1.00  0.00     0.116 C 
BRANCH   3   4
ATOM      4  N   UNL A   1      33.713  26.317  25.199  1.00  0.00    -0.352 N 
ATOM      5  C   UNL A   1      32.892  26.020  24.144  1.00  0.00     0.255 C 
ATOM      6  O   UNL A   1      32.989  24.890  23.663  1.00  0.00    -0.269 OA
ATOM      7  H   UNL A   1      34.425  25.653  25.345  1.00  0.00     0.163 HD
BRANCH   5   8
ATOM      8  C   UNL A   1      31.955  26.965  23.495  1.00  0.00     0.093 A 
ATOM      9  C   UNL A   1      33.685  28.574  22.485  1.00  0.00     0.068 C 
ATOM     10  C   UNL A   1      32.304  28.111  22.791  1.00  0.00     0.055 A 
ATOM     11  N   UNL A   1      31.388  29.007  22.363  1.00  0.00    -0.230 NA
ATOM     12  C   UNL A   1      30.115  28.821  22.721  1.00  0.00     0.196 A 
ATOM     13  C   UNL A   1      30.586  26.860  23.787  1.00  0.00     0.110 A 
ATOM     14  N   UNL A   1      29.662  27.790  23.434  1.00  0.00    -0.218 NA
BRANCH  12  15
ATOM     15  C   UNL A   1      29.263  29.973  22.535  1.00  0.00     0.171 A 
ATOM     16  C   UNL A   1      28.833  30.978  23.378  1.00  0.00     0.054 A 
ATOM     17  O   UNL A   1      28.873  30.243  21.253  1.00  0.00    -0.461 OA
ATOM     18  C   UNL A   1      28.167  31.926  22.565  1.00  0.00     0.043 A 
ATOM     19  C   UNL A   1      28.207  31.425  21.284  1.00  0.00     0.196 A 
ENDBRANCH  12  15
BRANCH  13  20
ATOM     20  S   UNL A   1      29.843  25.478  24.656  1.00  0.00    -0.123 SA
ATOM     21  H   UNL A   1      28.720  25.082  24.000  1.00  0.00     0.110 HD
ENDBRANCH  13  20
ENDBRANCH   5   8
ENDBRANCH   3   4
ENDBRANCH   2   3
ENDBRANCH   1   2
BRANCH   1  22
ATOM     22  C   UNL A   1      32.613  29.994  25.965  1.00  0.00     0.116 C 
BRANCH  22  23
ATOM     23  N   UNL A   1      32.302  31.335  26.446  1.00  0.00    -0.352 N 
ATOM     24  C   UNL A   1      33.074  32.143  27.251  1.00  0.00     0.251 C 
ATOM     25  H   UNL A   1      31.435  31.707  26.163  1.00  0.00     0.163 HD
ATOM     26  O   UNL A   1      32.657  33.229  27.636  1.00  0.00    -0.269 OA
BRANCH  24  27
ATOM     27  C   UNL A   1      34.387  31.629  27.679  1.00  0.00     0.039 A 
ATOM     28  C   UNL A   1      34.516  30.285  28.033  1.00  0.00     0.014 A 
ATOM     29  C   UNL A   1      35.433  32.531  27.881  1.00  0.00     0.014 A 
ATOM     30  C   UNL A   1      35.620  29.884  28.771  1.00  0.00     0.010 A 
ATOM     31  C   UNL A   1      36.586  32.098  28.536  1.00  0.00     0.010 A 
ATOM     32  C   UNL A   1      36.664  30.787  29.033  1.00  0.00    -0.014 A 
BRANCH  32  33
ATOM     33  C   UNL A   1      37.842  30.334  29.810  1.00  0.00     0.031 A 
ATOM     34  C   UNL A   1      38.865  29.413  29.204  1.00  0.00     0.074 A 
ATOM     35  C   UNL A   1      37.989  30.780  31.071  1.00  0.00     0.049 A 
ATOM     36  N   UNL A   1      39.918  28.875  29.762  1.00  0.00    -0.248 NA
ATOM     37  C   UNL A   1      38.686  29.042  27.789  1.00  0.00     0.031 C 
ATOM     38  C   UNL A   1      37.057  31.680  31.755  1.00  0.00     0.029 A 
ATOM     39  N   UNL A   1      38.971  30.550  31.998  1.00  0.00    -0.354 N 
ATOM     40  C   UNL A   1      40.500  28.070  28.791  1.00  0.00     0.074 A 
ATOM     41  C   UNL A   1      39.685  28.189  27.601  1.00  0.00     0.031 C 
ATOM     42  C   UNL A   1      37.529  31.956  32.977  1.00  0.00     0.029 A 
ATOM     43  C   UNL A   1      38.755  31.196  33.193  1.00  0.00     0.049 A 
ATOM     44  H   UNL A   1      39.754  29.978  31.827  1.00  0.00     0.167 HD
ATOM     45  C   UNL A   1      41.619  27.313  28.882  1.00  0.00     0.034 A 
ATOM     46  C   UNL A   1      39.450  31.163  34.344  1.00  0.00     0.034 A 
ATOM     47  C   UNL A   1      42.446  27.239  30.058  1.00  0.00     0.049 A 
ATOM     48  C   UNL A   1      40.691  30.323  34.413  1.00  0.00     0.074 A 
ATOM     49  C   UNL A   1      43.605  26.507  30.249  1.00  0.00     0.029 A 
ATOM     50  N   UNL A   1      42.211  27.929  31.239  1.00  0.00    -0.354 N 
ATOM     51  N   UNL A   1      41.247  29.601  33.471  1.00  0.00    -0.248 NA
ATOM     52  C   UNL A   1      41.408  30.303  35.694  1.00  0.00     0.031 C 
ATOM     53  C   UNL A   1      44.070  26.756  31.545  1.00  0.00     0.029 A 
ATOM     54  C   UNL A   1      43.206  27.649  32.158  1.00  0.00     0.049 A 
ATOM     55  H   UNL A   1      41.448  28.531  31.398  1.00  0.00     0.167 HD
ATOM     56  C   UNL A   1      42.389  29.052  34.037  1.00  0.00     0.074 A 
ATOM     57  C   UNL A   1      42.460  29.549  35.398  1.00  0.00     0.031 C 
ATOM     58  C   UNL A   1      43.284  28.192  33.490  1.00  0.00     0.034 A 
BRANCH  45  59
ATOM     59  C   UNL A   1      42.052  26.536  27.667  1.00  0.00     0.023 A 
ATOM     60  C   UNL A   1      42.825  27.175  26.677  1.00  0.00     0.012 A 
ATOM     61  C   UNL A   1      41.779  25.158  27.546  1.00  0.00     0.148 A 
ATOM     62  C   UNL A   1      43.307  26.462  25.580  1.00  0.00     0.002 A 
ATOM     63  C   UNL A   1      42.293  24.446  26.467  1.00  0.00     0.091 A 
ATOM     64  F   UNL A   1      41.020  24.572  28.483  1.00  0.00    -0.205 F 
ATOM     65  C   UNL A   1      43.052  25.097  25.482  1.00  0.00     0.022 A 
BRANCH  63  66
ATOM     66  S   UNL A   1      42.080  22.669  26.295  1.00  0.00     0.127 S 
ATOM     67  O   UNL A   1      40.623  22.547  26.290  1.00  0.00    -0.237 OA
ATOM     68  O   UNL A   1      42.717  22.402  25.005  1.00  0.00    -0.237 OA
ATOM     69  O   UNL A   1      42.758  22.076  27.438  1.00  0.00    -0.744 OA
ENDBRANCH  63  66
ENDBRANCH  45  59
BRANCH  46  70
ATOM     70  C   UNL A   1      38.998  32.003  35.487  1.00  0.00     0.023 A 
ATOM     71  C   UNL A   1      38.180  31.431  36.479  1.00  0.00     0.012 A 
ATOM     72  C   UNL A   1      39.465  33.322  35.656  1.00  0.00     0.148 A 
ATOM     73  C   UNL A   1      37.835  32.156  37.619  1.00  0.00     0.002 A 
ATOM     74  C   UNL A   1      39.174  34.014  36.825  1.00  0.00     0.091 A 
ATOM     75  F   UNL A   1      40.225  33.857  34.690  1.00  0.00    -0.205 F 
ATOM     76  C   UNL A   1      38.347  33.438  37.802  1.00  0.00     0.022 A 
BRANCH  74  77
ATOM     77  S   UNL A   1      39.940  35.592  37.213  1.00  0.00     0.127 S 
ATOM     78  O   UNL A   1      39.276  35.948  38.464  1.00  0.00    -0.237 OA
ATOM     79  O   UNL A   1      41.351  35.223  37.347  1.00  0.00    -0.237 OA
ATOM     80  O   UNL A   1      39.657  36.452  36.072  1.00  0.00    -0.744 OA
ENDBRANCH  74  77
ENDBRANCH  46  70
BRANCH  58  81
ATOM     81  C   UNL A   1      44.425  27.739  34.359  1.00  0.00     0.023 A 
ATOM     82  C   UNL A   1      45.632  28.464  34.346  1.00  0.00     0.012 A 
ATOM     83  C   UNL A   1      44.276  26.651  35.239  1.00  0.00     0.148 A 
ATOM     84  C   UNL A   1      46.686  28.096  35.182  1.00  0.00     0.002 A 
ATOM     85  C   UNL A   1      45.317  26.315  36.098  1.00  0.00     0.091 A 
ATOM     86  F   UNL A   1      43.128  25.959  35.219  1.00  0.00    -0.205 F 
ATOM     87  C   UNL A   1      46.524  27.031  36.066  1.00  0.00     0.022 A 
BRANCH  85  88
ATOM     88  S   UNL A   1      45.148  25.014  37.325  1.00  0.00     0.127 S 
ATOM     89  O   UNL A   1      44.017  25.492  38.116  1.00  0.00    -0.237 OA
ATOM     90  O   UNL A   1      44.864  23.836  36.503  1.00  0.00    -0.237 OA
ATOM     91  O   UNL A   1      46.430  24.962  38.016  1.00  0.00    -0.744 OA
ENDBRANCH  85  88
ENDBRANCH  58  81
ENDBRANCH  32  33
ENDBRANCH  24  27
ENDBRANCH  22  23
ENDBRANCH   1  22
TORSDOF 16
ENDMDL
MODEL 2
REMARK VINA RESULT:     -11.8      5.603     10.745
REMARK SMILES Cc1nc(-c2ccco2)nc(S)c1C(=O)NCCCCNC(=O)c1ccc(-c2c3nc(c(-c4cccc(S(=O)(=O)[O-])c4F)c4ccc([nH]4)c(-c4cccc(S(=O)(=O)[O-])c4F)c4nc(c(-c5cccc(S(=O)(=O)[O-])c5F)c5ccc2[nH]5)C=C4)C=C3)cc1
REMARK SMILES IDX 19 1 18 2 17 3 16 4 14 5 15 6 13 8 1 9 2 10 3 11 4 12 11 13
REMARK SMILES IDX 10 14 5 15 6 16 9 17 7 18 8 19 12 20 20 22 21 23 22 24 23 26
REMARK SMILES IDX 24 27 25 28 86 29 26 30 85 31 27 32 28 33 29 34 79 35 30 36
REMARK SMILES IDX 84 37 78 38 80 39 31 40 83 41 77 42 76 43 32 45 64 46 44 47
REMARK SMILES IDX 63 48 45 49 48 50 62 51 81 52 46 53 47 54 61 56 82 57 49 58
REMARK SMILES IDX 33 59 34 60 42 61 35 62 37 63 43 64 36 65 38 66 39 67 40 68
REMARK SMILES IDX 41 69 65 70 66 71 74 72 67 73 69 74 75 75 68 76 70 77 71 78
REMARK SMILES IDX 72 79 73 80 50 81 51 82 59 83 52 84 54 85 60 86 53 87 55 88
REMARK SMILES IDX 56 89 57 90 58 91
REMARK H PARENT 16 7 12 21 21 25 80 44 48 55
REMARK Flexibility Score: inf
ROOT
ATOM      1  C   UNL A   1      36.835  22.066  23.996  1.00  0.00     0.023 C 
ENDROOT
BRANCH   1   2
ATOM      2  C   UNL A   1      36.168  23.432  23.944  1.00  0.00     0.023 C 
BRANCH   2   3
ATOM      3  C   UNL A   1      35.929  24.103  25.302  1.00  0.00     0.116 C 
BRANCH   3   4
ATOM      4  N   UNL A   1      34.561  24.579  25.360  1.00  0.00    -0.352 N 
ATOM      5  C   UNL A   1      33.354  23.959  25.181  1.00  0.00     0.255 C 
ATOM      6  O   UNL A   1      32.364  24.685  25.077  1.00  0.00    -0.269 OA
ATOM      7  H   UNL A   1      34.486  25.538  25.569  1.00  0.00     0.163 HD
BRANCH   5   8
ATOM      8  C   UNL A   1      33.134  22.494  25.175  1.00  0.00     0.093 A 
ATOM      9  C   UNL A   1      33.668  22.026  27.645  1.00  0.00     0.068 C 
ATOM     10  C   UNL A   1      33.306  21.637  26.255  1.00  0.00     0.055 A 
ATOM     11  N   UNL A   1      33.240  20.293  26.131  1.00  0.00    -0.230 NA
ATOM     12  C   UNL A   1      33.101  19.783  24.905  1.00  0.00     0.196 A 
ATOM     13  C   UNL A   1      32.966  21.846  23.942  1.00  0.00     0.110 A 
ATOM     14  N   UNL A   1      32.976  20.497  23.787  1.00  0.00    -0.218 NA
BRANCH  12  15
ATOM     15  C   UNL A   1      33.386  18.370  24.805  1.00  0.00     0.171 A 
ATOM     16  C   UNL A   1      34.239  17.630  24.011  1.00  0.00     0.054 A 
ATOM     17  O   UNL A   1      32.814  17.564  25.749  1.00  0.00    -0.461 OA
ATOM     18  C   UNL A   1      34.206  16.307  24.512  1.00  0.00     0.043 A 
ATOM     19  C   UNL A   1      33.315  16.316  25.560  1.00  0.00     0.196 A 
ENDBRANCH  12  15
BRANCH  13  20
ATOM     20  S   UNL A   1      32.695  22.695  22.385  1.00  0.00    -0.123 SA
ATOM     21  H   UNL A   1      31.575  23.461  22.476  1.00  0.00     0.110 HD
ENDBRANCH  13  20
ENDBRANCH   5   8
ENDBRANCH   3   4
ENDBRANCH   2   3
ENDBRANCH   1   2
BRANCH   1  22
ATOM     22  C   UNL A   1      37.044  21.535  25.401  1.00  0.00     0.116 C 
BRANCH  22  23
ATOM     23  N   UNL A   1      38.074  20.506  25.491  1.00  0.00    -0.352 N 
ATOM     24  C   UNL A   1      39.331  20.616  26.044  1.00  0.00     0.251 C 
ATOM     25  H   UNL A   1      37.844  19.628  25.110  1.00  0.00     0.163 HD
ATOM     26  O   UNL A   1      40.124  19.683  25.992  1.00  0.00    -0.269 OA
BRANCH  24  27
ATOM     27  C   UNL A   1      39.704  21.909  26.644  1.00  0.00     0.039 A 
ATOM     28  C   UNL A   1      39.181  23.089  26.111  1.00  0.00     0.014 A 
ATOM     29  C   UNL A   1      40.701  21.940  27.620  1.00  0.00     0.014 A 
ATOM     30  C   UNL A   1      39.794  24.296  26.413  1.00  0.00     0.010 A 
ATOM     31  C   UNL A   1      41.246  23.167  27.996  1.00  0.00     0.010 A 
ATOM     32  C   UNL A   1      40.835  24.347  27.355  1.00  0.00    -0.014 A 
BRANCH  32  33
ATOM     33  C   UNL A   1      41.466  25.650  27.676  1.00  0.00     0.031 A 
ATOM     34  C   UNL A   1      40.729  26.695  28.467  1.00  0.00     0.074 A 
ATOM     35  C   UNL A   1      42.725  25.872  27.257  1.00  0.00     0.049 A 
ATOM     36  N   UNL A   1      41.111  27.906  28.781  1.00  0.00    -0.248 NA
ATOM     37  C   UNL A   1      39.390  26.343  28.971  1.00  0.00     0.031 C 
ATOM     38  C   UNL A   1      43.532  24.923  26.486  1.00  0.00     0.029 A 
ATOM     39  N   UNL A   1      43.550  26.953  27.424  1.00  0.00    -0.354 N 
ATOM     40  C   UNL A   1      40.050  28.476  29.474  1.00  0.00     0.074 A 
ATOM     41  C   UNL A   1      39.005  27.478  29.540  1.00  0.00     0.031 C 
ATOM     42  C   UNL A   1      44.746  25.446  26.278  1.00  0.00     0.029 A 
ATOM     43  C   UNL A   1      44.782  26.794  26.833  1.00  0.00     0.049 A 
ATOM     44  H   UNL A   1      43.288  27.764  27.917  1.00  0.00     0.167 HD
ATOM     45  C   UNL A   1      39.965  29.714  30.017  1.00  0.00     0.034 A 
ATOM     46  C   UNL A   1      45.819  27.646  26.727  1.00  0.00     0.034 A 
ATOM     47  C   UNL A   1      41.031  30.681  29.984  1.00  0.00     0.049 A 
ATOM     48  C   UNL A   1      45.700  29.007  27.347  1.00  0.00     0.074 A 
ATOM     49  C   UNL A   1      41.047  31.961  30.511  1.00  0.00     0.029 A 
ATOM     50  N   UNL A   1      42.273  30.474  29.402  1.00  0.00    -0.354 N 
ATOM     51  N   UNL A   1      44.704  29.512  28.033  1.00  0.00    -0.248 NA
ATOM     52  C   UNL A   1      46.847  29.909  27.191  1.00  0.00     0.031 C 
ATOM     53  C   UNL A   1      42.299  32.526  30.249  1.00  0.00     0.029 A 
ATOM     54  C   UNL A   1      43.067  31.596  29.566  1.00  0.00     0.049 A 
ATOM     55  H   UNL A   1      42.549  29.649  28.942  1.00  0.00     0.167 HD
ATOM     56  C   UNL A   1      45.108  30.786  28.406  1.00  0.00     0.074 A 
ATOM     57  C   UNL A   1      46.453  30.964  27.894  1.00  0.00     0.031 C 
ATOM     58  C   UNL A   1      44.419  31.734  29.090  1.00  0.00     0.034 A 
BRANCH  45  59
ATOM     59  C   UNL A   1      38.697  30.088  30.739  1.00  0.00     0.023 A 
ATOM     60  C   UNL A   1      38.543  29.733  32.094  1.00  0.00     0.012 A 
ATOM     61  C   UNL A   1      37.703  30.866  30.112  1.00  0.00     0.148 A 
ATOM     62  C   UNL A   1      37.415  30.133  32.810  1.00  0.00     0.002 A 
ATOM     63  C   UNL A   1      36.598  31.291  30.843  1.00  0.00     0.091 A 
ATOM     64  F   UNL A   1      37.853  31.172  28.815  1.00  0.00    -0.205 F 
ATOM     65  C   UNL A   1      36.450  30.921  32.189  1.00  0.00     0.022 A 
BRANCH  63  66
ATOM     66  S   UNL A   1      35.341  32.372  30.149  1.00  0.00     0.127 S 
ATOM     67  O   UNL A   1      34.412  32.502  31.270  1.00  0.00    -0.237 OA
ATOM     68  O   UNL A   1      36.104  33.584  29.846  1.00  0.00    -0.237 OA
ATOM     69  O   UNL A   1      34.822  31.678  28.979  1.00  0.00    -0.744 OA
ENDBRANCH  63  66
ENDBRANCH  45  59
BRANCH  46  70
ATOM     70  C   UNL A   1      47.064  27.189  26.052  1.00  0.00     0.023 A 
ATOM     71  C   UNL A   1      47.309  27.582  24.723  1.00  0.00     0.012 A 
ATOM     72  C   UNL A   1      48.055  26.471  26.752  1.00  0.00     0.148 A 
ATOM     73  C   UNL A   1      48.517  27.267  24.102  1.00  0.00     0.002 A 
ATOM     74  C   UNL A   1      49.282  26.220  26.150  1.00  0.00     0.091 A 
ATOM     75  F   UNL A   1      47.794  26.086  28.009  1.00  0.00    -0.205 F 
ATOM     76  C   UNL A   1      49.510  26.605  24.820  1.00  0.00     0.022 A 
BRANCH  74  77
ATOM     77  S   UNL A   1      50.669  25.536  27.065  1.00  0.00     0.127 S 
ATOM     78  O   UNL A   1      50.952  26.603  28.021  1.00  0.00    -0.237 OA
ATOM     79  O   UNL A   1      50.085  24.326  27.646  1.00  0.00    -0.237 OA
ATOM     80  O   UNL A   1      51.700  25.278  26.070  1.00  0.00    -0.744 OA
ENDBRANCH  74  77
ENDBRANCH  46  70
BRANCH  58  81
ATOM     81  C   UNL A   1      45.109  33.048  29.331  1.00  0.00     0.023 A 
ATOM     82  C   UNL A   1      45.886  33.216  30.494  1.00  0.00     0.012 A 
ATOM     83  C   UNL A   1      45.053  34.082  28.377  1.00  0.00     0.148 A 
ATOM     84  C   UNL A   1      46.579  34.405  30.715  1.00  0.00     0.002 A 
ATOM     85  C   UNL A   1      45.779  35.249  28.586  1.00  0.00     0.091 A 
ATOM     86  F   UNL A   1      44.288  33.912  27.289  1.00  0.00    -0.205 F 
ATOM     87  C   UNL A   1      46.536  35.416  29.756  1.00  0.00     0.022 A 
BRANCH  85  88
ATOM     88  S   UNL A   1      45.843  36.555  27.355  1.00  0.00     0.127 S 
ATOM     89  O   UNL A   1      44.446  36.978  27.295  1.00  0.00    -0.237 OA
ATOM     90  O   UNL A   1      46.749  37.528  27.967  1.00  0.00    -0.237 OA
ATOM     91  O   UNL A   1      46.368  35.928  26.149  1.00  0.00    -0.744 OA
ENDBRANCH  85  88
ENDBRANCH  58  81
ENDBRANCH  32  33
ENDBRANCH  24  27
ENDBRANCH  22  23
ENDBRANCH   1  22
TORSDOF 16
ENDMDL
MODEL 3
REMARK VINA RESULT:     -11.7      2.385      3.966
REMARK SMILES Cc1nc(-c2ccco2)nc(S)c1C(=O)NCCCCNC(=O)c1ccc(-c2c3nc(c(-c4cccc(S(=O)(=O)[O-])c4F)c4ccc([nH]4)c(-c4cccc(S(=O)(=O)[O-])c4F)c4nc(c(-c5cccc(S(=O)(=O)[O-])c5F)c5ccc2[nH]5)C=C4)C=C3)cc1
REMARK SMILES IDX 19 1 18 2 17 3 16 4 14 5 15 6 13 8 1 9 2 10 3 11 4 12 11 13
REMARK SMILES IDX 10 14 5 15 6 16 9 17 7 18 8 19 12 20 20 22 21 23 22 24 23 26
REMARK SMILES IDX 24 27 25 28 86 29 26 30 85 31 27 32 28 33 29 34 79 35 30 36
REMARK SMILES IDX 84 37 78 38 80 39 31 40 83 41 77 42 76 43 32 45 64 46 44 47
REMARK SMILES IDX 63 48 45 49 48 50 62 51 81 52 46 53 47 54 61 56 82 57 49 58
REMARK SMILES IDX 33 59 34 60 42 61 35 62 37 63 43 64 36 65 38 66 39 67 40 68
REMARK SMILES IDX 41 69 65 70 66 71 74 72 67 73 69 74 75 75 68 76 70 77 71 78
REMARK SMILES IDX 72 79 73 80 50 81 51 82 59 83 52 84 54 85 60 86 53 87 55 88
REMARK SMILES IDX 56 89 57 90 58 91
REMARK H PARENT 16 7 12 21 21 25 80 44 48 55
REMARK Flexibility Score: inf
ROOT
ATOM      1  C   UNL A   1      31.772  28.474  25.934  1.00  0.00     0.023 C 
ENDROOT
BRANCH   1   2
ATOM      2  C   UNL A   1      32.263  27.249  26.692  1.00  0.00     0.023 C 
BRANCH   2   3
ATOM      3  C   UNL A   1      32.690  26.061  25.823  1.00  0.00     0.116 C 
BRANCH   3   4
ATOM      4  N   UNL A   1      31.587  25.682  24.963  1.00  0.00    -0.352 N 
ATOM      5  C   UNL A   1      31.293  24.532  24.281  1.00  0.00     0.255 C 
ATOM      6  O   UNL A   1      30.386  24.592  23.450  1.00  0.00    -0.269 OA
ATOM      7  H   UNL A   1      30.917  26.394  24.845  1.00  0.00     0.163 HD
BRANCH   5   8
ATOM      8  C   UNL A   1      31.925  23.213  24.513  1.00  0.00     0.093 A 
ATOM      9  C   UNL A   1      33.511  23.198  22.491  1.00  0.00     0.068 C 
ATOM     10  C   UNL A   1      32.880  22.609  23.704  1.00  0.00     0.055 A 
ATOM     11  N   UNL A   1      33.293  21.337  23.894  1.00  0.00    -0.230 NA
ATOM     12  C   UNL A   1      32.683  20.615  24.836  1.00  0.00     0.196 A 
ATOM     13  C   UNL A   1      31.376  22.367  25.488  1.00  0.00     0.110 A 
ATOM     14  N   UNL A   1      31.722  21.063  25.643  1.00  0.00    -0.218 NA
BRANCH  12  15
ATOM     15  C   UNL A   1      32.921  19.192  24.753  1.00  0.00     0.171 A 
ATOM     16  C   UNL A   1      33.907  18.430  24.159  1.00  0.00     0.054 A 
ATOM     17  O   UNL A   1      32.103  18.392  25.501  1.00  0.00    -0.461 OA
ATOM     18  C   UNL A   1      33.696  17.098  24.586  1.00  0.00     0.043 A 
ATOM     19  C   UNL A   1      32.579  17.126  25.389  1.00  0.00     0.196 A 
ENDBRANCH  12  15
BRANCH  13  20
ATOM     20  S   UNL A   1      30.146  22.878  26.690  1.00  0.00    -0.123 SA
ATOM     21  H   UNL A   1      29.155  21.948  26.748  1.00  0.00     0.110 HD
ENDBRANCH  13  20
ENDBRANCH   5   8
ENDBRANCH   3   4
ENDBRANCH   2   3
ENDBRANCH   1   2
BRANCH   1  22
ATOM     22  C   UNL A   1      32.820  29.557  25.770  1.00  0.00     0.116 C 
BRANCH  22  23
ATOM     23  N   UNL A   1      32.413  30.851  26.306  1.00  0.00    -0.352 N 
ATOM     24  C   UNL A   1      33.119  31.671  27.159  1.00  0.00     0.251 C 
ATOM     25  H   UNL A   1      31.528  31.178  26.025  1.00  0.00     0.163 HD
ATOM     26  O   UNL A   1      32.625  32.708  27.585  1.00  0.00    -0.269 OA
BRANCH  24  27
ATOM     27  C   UNL A   1      34.457  31.226  27.585  1.00  0.00     0.039 A 
ATOM     28  C   UNL A   1      34.654  29.892  27.948  1.00  0.00     0.014 A 
ATOM     29  C   UNL A   1      35.457  32.179  27.779  1.00  0.00     0.014 A 
ATOM     30  C   UNL A   1      35.778  29.551  28.684  1.00  0.00     0.010 A 
ATOM     31  C   UNL A   1      36.632  31.808  28.432  1.00  0.00     0.010 A 
ATOM     32  C   UNL A   1      36.777  30.506  28.937  1.00  0.00    -0.014 A 
BRANCH  32  33
ATOM     33  C   UNL A   1      37.979  30.117  29.713  1.00  0.00     0.031 A 
ATOM     34  C   UNL A   1      39.028  29.218  29.120  1.00  0.00     0.074 A 
ATOM     35  C   UNL A   1      38.122  30.603  30.960  1.00  0.00     0.049 A 
ATOM     36  N   UNL A   1      40.106  28.734  29.681  1.00  0.00    -0.248 NA
ATOM     37  C   UNL A   1      38.849  28.803  27.717  1.00  0.00     0.031 C 
ATOM     38  C   UNL A   1      37.165  31.486  31.630  1.00  0.00     0.029 A 
ATOM     39  N   UNL A   1      39.121  30.433  31.882  1.00  0.00    -0.354 N 
ATOM     40  C   UNL A   1      40.707  27.925  28.726  1.00  0.00     0.074 A 
ATOM     41  C   UNL A   1      39.877  27.983  27.542  1.00  0.00     0.031 C 
ATOM     42  C   UNL A   1      37.638  31.811  32.839  1.00  0.00     0.029 A 
ATOM     43  C   UNL A   1      38.893  31.103  33.061  1.00  0.00     0.049 A 
ATOM     44  H   UNL A   1      39.922  29.886  31.717  1.00  0.00     0.167 HD
ATOM     45  C   UNL A   1      41.855  27.212  28.824  1.00  0.00     0.034 A 
ATOM     46  C   UNL A   1      39.601  31.126  34.206  1.00  0.00     0.034 A 
ATOM     47  C   UNL A   1      42.695  27.199  29.993  1.00  0.00     0.049 A 
ATOM     48  C   UNL A   1      40.872  30.334  34.283  1.00  0.00     0.074 A 
ATOM     49  C   UNL A   1      43.882  26.516  30.191  1.00  0.00     0.029 A 
ATOM     50  N   UNL A   1      42.447  27.913  31.157  1.00  0.00    -0.354 N 
ATOM     51  N   UNL A   1      41.445  29.608  33.354  1.00  0.00    -0.248 NA
ATOM     52  C   UNL A   1      41.602  30.375  35.556  1.00  0.00     0.031 C 
ATOM     53  C   UNL A   1      44.351  26.816  31.474  1.00  0.00     0.029 A 
ATOM     54  C   UNL A   1      43.461  27.694  32.073  1.00  0.00     0.049 A 
ATOM     55  H   UNL A   1      41.664  28.490  31.308  1.00  0.00     0.167 HD
ATOM     56  C   UNL A   1      42.611  29.116  33.923  1.00  0.00     0.074 A 
ATOM     57  C   UNL A   1      42.678  29.652  35.269  1.00  0.00     0.031 C 
ATOM     58  C   UNL A   1      43.532  28.275  33.389  1.00  0.00     0.034 A 
BRANCH  45  59
ATOM     59  C   UNL A   1      42.304  26.419  27.626  1.00  0.00     0.023 A 
ATOM     60  C   UNL A   1      43.145  27.025  26.672  1.00  0.00     0.012 A 
ATOM     61  C   UNL A   1      41.975  25.055  27.488  1.00  0.00     0.148 A 
ATOM     62  C   UNL A   1      43.641  26.293  25.593  1.00  0.00     0.002 A 
ATOM     63  C   UNL A   1      42.502  24.322  26.429  1.00  0.00     0.091 A 
ATOM     64  F   UNL A   1      41.152  24.501  28.390  1.00  0.00    -0.205 F 
ATOM     65  C   UNL A   1      43.330  24.940  25.479  1.00  0.00     0.022 A 
BRANCH  63  66
ATOM     66  S   UNL A   1      42.217  22.557  26.242  1.00  0.00     0.127 S 
ATOM     67  O   UNL A   1      42.897  22.282  24.977  1.00  0.00    -0.237 OA
ATOM     68  O   UNL A   1      42.884  22.006  27.423  1.00  0.00    -0.237 OA
ATOM     69  O   UNL A   1      40.772  22.387  26.230  1.00  0.00    -0.744 OA
ENDBRANCH  63  66
ENDBRANCH  45  59
BRANCH  46  70
ATOM     70  C   UNL A   1      39.129  31.980  35.331  1.00  0.00     0.023 A 
ATOM     71  C   UNL A   1      38.325  31.410  36.335  1.00  0.00     0.012 A 
ATOM     72  C   UNL A   1      39.566  33.312  35.472  1.00  0.00     0.148 A 
ATOM     73  C   UNL A   1      37.963  32.151  37.460  1.00  0.00     0.002 A 
ATOM     74  C   UNL A   1      39.258  34.022  36.625  1.00  0.00     0.091 A 
ATOM     75  F   UNL A   1      40.313  33.844  34.493  1.00  0.00    -0.205 F 
ATOM     76  C   UNL A   1      38.445  33.448  37.615  1.00  0.00     0.022 A 
BRANCH  74  77
ATOM     77  S   UNL A   1      39.988  35.626  36.979  1.00  0.00     0.127 S 
ATOM     78  O   UNL A   1      39.334  35.982  38.236  1.00  0.00    -0.237 OA
ATOM     79  O   UNL A   1      41.410  35.296  37.096  1.00  0.00    -0.237 OA
ATOM     80  O   UNL A   1      39.665  36.461  35.831  1.00  0.00    -0.744 OA
ENDBRANCH  74  77
ENDBRANCH  46  70
BRANCH  58  81
ATOM     81  C   UNL A   1      44.697  27.887  34.257  1.00  0.00     0.023 A 
ATOM     82  C   UNL A   1      45.825  28.728  34.314  1.00  0.00     0.012 A 
ATOM     83  C   UNL A   1      44.643  26.739  35.070  1.00  0.00     0.148 A 
ATOM     84  C   UNL A   1      46.896  28.418  35.152  1.00  0.00     0.002 A 
ATOM     85  C   UNL A   1      45.697  26.459  35.932  1.00  0.00     0.091 A 
ATOM     86  F   UNL A   1      43.572  25.938  34.983  1.00  0.00    -0.205 F 
ATOM     87  C   UNL A   1      46.827  27.292  35.970  1.00  0.00     0.022 A 
BRANCH  85  88
ATOM     88  S   UNL A   1      45.639  25.076  37.078  1.00  0.00     0.127 S 
ATOM     89  O   UNL A   1      46.890  25.244  37.813  1.00  0.00    -0.237 OA
ATOM     90  O   UNL A   1      44.432  25.356  37.856  1.00  0.00    -0.237 OA
ATOM     91  O   UNL A   1      45.548  23.884  36.245  1.00  0.00    -0.744 OA
ENDBRANCH  85  88
ENDBRANCH  58  81
ENDBRANCH  32  33
ENDBRANCH  24  27
ENDBRANCH  22  23
ENDBRANCH   1  22
TORSDOF 16
ENDMDL
