MODEL 1
REMARK VINA RESULT:     -12.0      0.000      0.000
REMARK SMILES C/C(=N/OCc1ccccc1Nc1c(Cl)cccc1Cl)C(=O)NCCCCNC(=O)c1ccc(-c2c3nc(c(-c4cccc(S(=O)(=O)[O-])c4F)c4ccc([nH]4)c(-c4cccc(S(=O)(=O)[O-])c4F)c4nc(c(-c5cccc(S(=O)(=O)[O-])c5F)c5ccc2[nH]5)C=C4)C=C3)cc1
REMARK SMILES IDX 24 1 23 2 21 3 22 4 2 6 1 7 3 8 4 9 5 10 6 11 7 12 11 13
REMARK SMILES IDX 8 14 10 15 9 16 12 17 13 19 14 20 19 21 15 22 16 23 18 24
REMARK SMILES IDX 20 25 17 26 25 27 26 28 27 29 28 30 29 31 30 33 31 34 32 35
REMARK SMILES IDX 93 36 33 37 92 38 34 39 35 40 36 41 86 42 37 43 91 44 85 45
REMARK SMILES IDX 87 46 38 47 90 48 84 49 83 50 39 52 71 53 51 54 70 55 52 56
REMARK SMILES IDX 55 57 69 58 88 59 53 60 54 61 68 63 89 64 56 65 40 66 41 67
REMARK SMILES IDX 49 68 42 69 44 70 50 71 43 72 45 73 46 74 47 75 48 76 72 77
REMARK SMILES IDX 73 78 81 79 74 80 76 81 82 82 75 83 77 84 78 85 79 86 80 87
REMARK SMILES IDX 57 88 58 89 66 90 59 91 61 92 67 93 60 94 62 95 63 96 64 97
REMARK SMILES IDX 65 98
REMARK H PARENT 23 5 12 18 28 32 87 51 55 62
REMARK Flexibility Score: inf
ROOT
ATOM      1  C   UNL A   1      35.743  23.959  24.973  1.00  0.00     0.116 C 
ENDROOT
BRANCH   1   2
ATOM      2  N   UNL A   1      34.397  23.433  24.936  1.00  0.00    -0.351 N 
ATOM      3  C   UNL A   1      33.311  23.783  24.171  1.00  0.00     0.268 C 
ATOM      4  O   UNL A   1      32.209  23.337  24.496  1.00  0.00    -0.268 OA
ATOM      5  H   UNL A   1      34.230  22.697  25.568  1.00  0.00     0.163 HD
BRANCH   3   6
ATOM      6  C   UNL A   1      33.361  24.564  22.864  1.00  0.00     0.141 C 
ATOM      7  C   UNL A   1      33.017  23.727  21.651  1.00  0.00     0.077 C 
ATOM      8  N   UNL A   1      33.579  25.828  22.642  1.00  0.00    -0.086 NA
BRANCH   8   9
ATOM      9  O   UNL A   1      33.855  26.566  23.780  1.00  0.00    -0.390 OA
BRANCH   9  10
ATOM     10  C   UNL A   1      33.623  27.968  23.577  1.00  0.00     0.302 C 
BRANCH  10  11
ATOM     11  C   UNL A   1      33.278  28.792  24.805  1.00  0.00     0.016 A 
ATOM     12  C   UNL A   1      34.130  28.739  25.925  1.00  0.00     0.009 A 
ATOM     13  C   UNL A   1      32.098  29.563  24.860  1.00  0.00     0.045 A 
ATOM     14  C   UNL A   1      33.787  29.383  27.111  1.00  0.00     0.001 A 
ATOM     15  C   UNL A   1      31.732  30.131  26.090  1.00  0.00     0.026 A 
ATOM     16  C   UNL A   1      32.576  30.058  27.201  1.00  0.00     0.002 A 
BRANCH  13  17
ATOM     17  N   UNL A   1      31.269  29.652  23.724  1.00  0.00    -0.353 N 
ATOM     18  H   UNL A   1      31.742  29.852  22.884  1.00  0.00     0.167 HD
BRANCH  17  19
ATOM     19  C   UNL A   1      29.874  29.502  23.594  1.00  0.00     0.076 A 
ATOM     20  C   UNL A   1      29.332  28.222  23.354  1.00  0.00     0.066 A 
ATOM     21  C   UNL A   1      29.004  30.603  23.502  1.00  0.00     0.066 A 
ATOM     22  Cl  UNL A   1      30.340  26.811  23.332  1.00  0.00    -0.082 Cl
ATOM     23  C   UNL A   1      27.966  28.042  23.117  1.00  0.00     0.023 A 
ATOM     24  C   UNL A   1      27.635  30.422  23.271  1.00  0.00     0.023 A 
ATOM     25  Cl  UNL A   1      29.575  32.234  23.610  1.00  0.00    -0.082 Cl
ATOM     26  C   UNL A   1      27.115  29.143  23.086  1.00  0.00     0.003 A 
ENDBRANCH  17  19
ENDBRANCH  13  17
ENDBRANCH  10  11
ENDBRANCH   9  10
ENDBRANCH   8   9
ENDBRANCH   3   6
ENDBRANCH   1   2
BRANCH   1  27
ATOM     27  C   UNL A   1      36.633  23.175  23.998  1.00  0.00     0.023 C 
BRANCH  27  28
ATOM     28  C   UNL A   1      36.771  21.686  24.295  1.00  0.00     0.023 C 
BRANCH  28  29
ATOM     29  C   UNL A   1      37.277  21.381  25.699  1.00  0.00     0.116 C 
BRANCH  29  30
ATOM     30  N   UNL A   1      38.430  20.485  25.735  1.00  0.00    -0.352 N 
ATOM     31  C   UNL A   1      39.692  20.752  26.220  1.00  0.00     0.251 C 
ATOM     32  H   UNL A   1      38.288  19.581  25.370  1.00  0.00     0.163 HD
ATOM     33  O   UNL A   1      40.588  19.927  26.147  1.00  0.00    -0.269 OA
BRANCH  31  34
ATOM     34  C   UNL A   1      39.940  22.095  26.779  1.00  0.00     0.039 A 
ATOM     35  C   UNL A   1      40.903  22.237  27.780  1.00  0.00     0.014 A 
ATOM     36  C   UNL A   1      39.335  23.211  26.198  1.00  0.00     0.014 A 
ATOM     37  C   UNL A   1      41.337  23.516  28.130  1.00  0.00     0.010 A 
ATOM     38  C   UNL A   1      39.822  24.476  26.494  1.00  0.00     0.010 A 
ATOM     39  C   UNL A   1      40.839  24.639  27.448  1.00  0.00    -0.014 A 
BRANCH  39  40
ATOM     40  C   UNL A   1      41.395  25.995  27.672  1.00  0.00     0.031 A 
ATOM     41  C   UNL A   1      42.797  26.307  27.236  1.00  0.00     0.074 A 
ATOM     42  C   UNL A   1      40.684  26.895  28.381  1.00  0.00     0.049 A 
ATOM     43  N   UNL A   1      43.502  27.387  27.444  1.00  0.00    -0.248 NA
ATOM     44  C   UNL A   1      43.513  25.254  26.497  1.00  0.00     0.031 C 
ATOM     45  C   UNL A   1      39.344  26.675  28.930  1.00  0.00     0.029 A 
ATOM     46  N   UNL A   1      41.004  28.164  28.791  1.00  0.00    -0.354 N 
ATOM     47  C   UNL A   1      44.752  27.132  26.899  1.00  0.00     0.074 A 
ATOM     48  C   UNL A   1      44.722  25.782  26.381  1.00  0.00     0.031 C 
ATOM     49  C   UNL A   1      38.955  27.774  29.598  1.00  0.00     0.029 A 
ATOM     50  C   UNL A   1      40.027  28.763  29.553  1.00  0.00     0.049 A 
ATOM     51  H   UNL A   1      41.853  28.607  28.560  1.00  0.00     0.167 HD
ATOM     52  C   UNL A   1      45.819  27.958  26.805  1.00  0.00     0.034 A 
ATOM     53  C   UNL A   1      40.001  29.969  30.151  1.00  0.00     0.034 A 
ATOM     54  C   UNL A   1      45.824  29.318  27.269  1.00  0.00     0.049 A 
ATOM     55  C   UNL A   1      41.187  30.884  29.999  1.00  0.00     0.074 A 
ATOM     56  C   UNL A   1      46.819  30.270  27.133  1.00  0.00     0.029 A 
ATOM     57  N   UNL A   1      44.783  29.921  27.958  1.00  0.00    -0.354 N 
ATOM     58  N   UNL A   1      42.302  30.683  29.339  1.00  0.00    -0.248 NA
ATOM     59  C   UNL A   1      41.102  32.199  30.649  1.00  0.00     0.031 C 
ATOM     60  C   UNL A   1      46.381  31.448  27.748  1.00  0.00     0.029 A 
ATOM     61  C   UNL A   1      45.112  31.230  28.260  1.00  0.00     0.049 A 
ATOM     62  H   UNL A   1      43.935  29.481  28.197  1.00  0.00     0.167 HD
ATOM     63  C   UNL A   1      43.037  31.856  29.468  1.00  0.00     0.074 A 
ATOM     64  C   UNL A   1      42.231  32.769  30.253  1.00  0.00     0.031 C 
ATOM     65  C   UNL A   1      44.273  32.144  28.993  1.00  0.00     0.034 A 
BRANCH  52  66
ATOM     66  C   UNL A   1      47.042  27.432  26.106  1.00  0.00     0.023 A 
ATOM     67  C   UNL A   1      47.172  27.618  24.714  1.00  0.00     0.012 A 
ATOM     68  C   UNL A   1      48.073  26.791  26.817  1.00  0.00     0.148 A 
ATOM     69  C   UNL A   1      48.293  27.144  24.034  1.00  0.00     0.002 A 
ATOM     70  C   UNL A   1      49.206  26.355  26.139  1.00  0.00     0.091 A 
ATOM     71  F   UNL A   1      47.920  26.596  28.135  1.00  0.00    -0.205 F 
ATOM     72  C   UNL A   1      49.313  26.523  24.748  1.00  0.00     0.022 A 
BRANCH  70  73
ATOM     73  S   UNL A   1      50.603  25.605  26.984  1.00  0.00     0.127 S 
ATOM     74  O   UNL A   1      49.979  24.435  27.601  1.00  0.00    -0.237 OA
ATOM     75  O   UNL A   1      51.510  25.299  25.878  1.00  0.00    -0.237 OA
ATOM     76  O   UNL A   1      51.097  26.617  27.907  1.00  0.00    -0.744 OA
ENDBRANCH  70  73
ENDBRANCH  52  66
BRANCH  53  77
ATOM     77  C   UNL A   1      38.779  30.414  30.878  1.00  0.00     0.023 A 
ATOM     78  C   UNL A   1      38.676  30.158  32.260  1.00  0.00     0.012 A 
ATOM     79  C   UNL A   1      37.744  31.114  30.231  1.00  0.00     0.148 A 
ATOM     80  C   UNL A   1      37.555  30.571  32.979  1.00  0.00     0.002 A 
ATOM     81  C   UNL A   1      36.651  31.567  30.964  1.00  0.00     0.091 A 
ATOM     82  F   UNL A   1      37.852  31.334  28.914  1.00  0.00    -0.205 F 
ATOM     83  C   UNL A   1      36.548  31.284  32.335  1.00  0.00     0.022 A 
BRANCH  81  84
ATOM     84  S   UNL A   1      35.374  32.602  30.240  1.00  0.00     0.127 S 
ATOM     85  O   UNL A   1      34.935  31.789  29.110  1.00  0.00    -0.237 OA
ATOM     86  O   UNL A   1      34.409  32.709  31.334  1.00  0.00    -0.237 OA
ATOM     87  O   UNL A   1      36.036  33.856  29.904  1.00  0.00    -0.744 OA
ENDBRANCH  81  84
ENDBRANCH  53  77
BRANCH  65  88
ATOM     88  C   UNL A   1      44.834  33.509  29.289  1.00  0.00     0.023 A 
ATOM     89  C   UNL A   1      45.561  33.715  30.477  1.00  0.00     0.012 A 
ATOM     90  C   UNL A   1      44.722  34.554  28.352  1.00  0.00     0.148 A 
ATOM     91  C   UNL A   1      46.153  34.950  30.739  1.00  0.00     0.002 A 
ATOM     92  C   UNL A   1      45.351  35.769  28.600  1.00  0.00     0.091 A 
ATOM     93  F   UNL A   1      44.009  34.341  27.237  1.00  0.00    -0.205 F 
ATOM     94  C   UNL A   1      46.059  35.971  29.796  1.00  0.00     0.022 A 
BRANCH  92  95
ATOM     95  S   UNL A   1      45.360  37.109  27.403  1.00  0.00     0.127 S 
ATOM     96  O   UNL A   1      46.036  36.488  26.265  1.00  0.00    -0.237 OA
ATOM     97  O   UNL A   1      43.932  37.359  27.202  1.00  0.00    -0.237 OA
ATOM     98  O   UNL A   1      46.080  38.206  28.037  1.00  0.00    -0.744 OA
ENDBRANCH  92  95
ENDBRANCH  65  88
ENDBRANCH  39  40
ENDBRANCH  31  34
ENDBRANCH  29  30
ENDBRANCH  28  29
ENDBRANCH  27  28
ENDBRANCH   1  27
TORSDOF 19
ENDMDL
MODEL 2
REMARK VINA RESULT:     -11.7      1.801      7.856
REMARK SMILES C/C(=N/OCc1ccccc1Nc1c(Cl)cccc1Cl)C(=O)NCCCCNC(=O)c1ccc(-c2c3nc(c(-c4cccc(S(=O)(=O)[O-])c4F)c4ccc([nH]4)c(-c4cccc(S(=O)(=O)[O-])c4F)c4nc(c(-c5cccc(S(=O)(=O)[O-])c5F)c5ccc2[nH]5)C=C4)C=C3)cc1
REMARK SMILES IDX 24 1 23 2 21 3 22 4 2 6 1 7 3 8 4 9 5 10 6 11 7 12 11 13
REMARK SMILES IDX 8 14 10 15 9 16 12 17 13 19 14 20 19 21 15 22 16 23 18 24
REMARK SMILES IDX 20 25 17 26 25 27 26 28 27 29 28 30 29 31 30 33 31 34 32 35
REMARK SMILES IDX 93 36 33 37 92 38 34 39 35 40 36 41 86 42 37 43 91 44 85 45
REMARK SMILES IDX 87 46 38 47 90 48 84 49 83 50 39 52 71 53 51 54 70 55 52 56
REMARK SMILES IDX 55 57 69 58 88 59 53 60 54 61 68 63 89 64 56 65 40 66 41 67
REMARK SMILES IDX 49 68 42 69 44 70 50 71 43 72 45 73 46 74 47 75 48 76 72 77
REMARK SMILES IDX 73 78 81 79 74 80 76 81 82 82 75 83 77 84 78 85 79 86 80 87
REMARK SMILES IDX 57 88 58 89 66 90 59 91 61 92 67 93 60 94 62 95 63 96 64 97
REMARK SMILES IDX 65 98
REMARK H PARENT 23 5 12 18 28 32 87 51 55 62
REMARK Flexibility Score: inf
ROOT
ATOM      1  C   UNL A   1      34.593  24.585  23.948  1.00  0.00     0.116 C 
ENDROOT
BRANCH   1   2
ATOM      2  N   UNL A   1      33.925  24.466  25.225  1.00  0.00    -0.351 N 
ATOM      3  C   UNL A   1      32.649  24.070  25.543  1.00  0.00     0.268 C 
ATOM      4  O   UNL A   1      32.248  24.280  26.690  1.00  0.00    -0.268 OA
ATOM      5  H   UNL A   1      34.480  24.711  26.000  1.00  0.00     0.163 HD
BRANCH   3   6
ATOM      6  C   UNL A   1      31.722  23.261  24.645  1.00  0.00     0.141 C 
ATOM      7  C   UNL A   1      31.763  21.774  24.923  1.00  0.00     0.077 C 
ATOM      8  N   UNL A   1      30.865  23.649  23.744  1.00  0.00    -0.086 NA
BRANCH   8   9
ATOM      9  O   UNL A   1      30.832  25.018  23.543  1.00  0.00    -0.390 OA
BRANCH   9  10
ATOM     10  C   UNL A   1      29.548  25.575  23.861  1.00  0.00     0.302 C 
BRANCH  10  11
ATOM     11  C   UNL A   1      29.381  27.072  23.671  1.00  0.00     0.016 A 
ATOM     12  C   UNL A   1      28.104  27.583  23.366  1.00  0.00     0.009 A 
ATOM     13  C   UNL A   1      30.485  27.946  23.741  1.00  0.00     0.045 A 
ATOM     14  C   UNL A   1      27.931  28.931  23.066  1.00  0.00     0.001 A 
ATOM     15  C   UNL A   1      30.302  29.281  23.352  1.00  0.00     0.026 A 
ATOM     16  C   UNL A   1      29.034  29.776  23.034  1.00  0.00     0.002 A 
BRANCH  13  17
ATOM     17  N   UNL A   1      31.753  27.441  24.091  1.00  0.00    -0.353 N 
ATOM     18  H   UNL A   1      32.043  26.657  23.570  1.00  0.00     0.167 HD
BRANCH  17  19
ATOM     19  C   UNL A   1      32.673  27.874  25.067  1.00  0.00     0.076 A 
ATOM     20  C   UNL A   1      32.306  27.849  26.429  1.00  0.00     0.066 A 
ATOM     21  C   UNL A   1      33.881  28.514  24.731  1.00  0.00     0.066 A 
ATOM     22  Cl  UNL A   1      30.787  27.187  26.936  1.00  0.00    -0.082 Cl
ATOM     23  C   UNL A   1      33.147  28.365  27.419  1.00  0.00     0.023 A 
ATOM     24  C   UNL A   1      34.726  29.023  25.724  1.00  0.00     0.023 A 
ATOM     25  Cl  UNL A   1      34.362  28.757  23.086  1.00  0.00    -0.082 Cl
ATOM     26  C   UNL A   1      34.364  28.943  27.067  1.00  0.00     0.003 A 
ENDBRANCH  17  19
ENDBRANCH  13  17
ENDBRANCH  10  11
ENDBRANCH   9  10
ENDBRANCH   8   9
ENDBRANCH   3   6
ENDBRANCH   1   2
BRANCH   1  27
ATOM     27  C   UNL A   1      35.886  23.757  23.961  1.00  0.00     0.023 C 
BRANCH  27  28
ATOM     28  C   UNL A   1      35.727  22.307  24.406  1.00  0.00     0.023 C 
BRANCH  28  29
ATOM     29  C   UNL A   1      36.505  21.961  25.670  1.00  0.00     0.116 C 
BRANCH  29  30
ATOM     30  N   UNL A   1      37.555  20.965  25.469  1.00  0.00    -0.352 N 
ATOM     31  C   UNL A   1      38.880  21.049  25.841  1.00  0.00     0.251 C 
ATOM     32  H   UNL A   1      37.284  20.135  25.013  1.00  0.00     0.163 HD
ATOM     33  O   UNL A   1      39.672  20.161  25.569  1.00  0.00    -0.269 OA
BRANCH  31  34
ATOM     34  C   UNL A   1      39.322  22.276  26.530  1.00  0.00     0.039 A 
ATOM     35  C   UNL A   1      40.326  22.179  27.494  1.00  0.00     0.014 A 
ATOM     36  C   UNL A   1      38.851  23.519  26.102  1.00  0.00     0.014 A 
ATOM     37  C   UNL A   1      40.936  23.344  27.960  1.00  0.00     0.010 A 
ATOM     38  C   UNL A   1      39.511  24.669  26.510  1.00  0.00     0.010 A 
ATOM     39  C   UNL A   1      40.571  24.591  27.428  1.00  0.00    -0.014 A 
BRANCH  39  40
ATOM     40  C   UNL A   1      41.308  25.830  27.771  1.00  0.00     0.031 A 
ATOM     41  C   UNL A   1      40.615  26.924  28.531  1.00  0.00     0.074 A 
ATOM     42  C   UNL A   1      42.552  26.019  27.286  1.00  0.00     0.049 A 
ATOM     43  N   UNL A   1      41.046  28.122  28.824  1.00  0.00    -0.248 NA
ATOM     44  C   UNL A   1      39.246  26.646  28.994  1.00  0.00     0.031 C 
ATOM     45  C   UNL A   1      43.296  25.061  26.463  1.00  0.00     0.029 A 
ATOM     46  N   UNL A   1      43.398  27.094  27.386  1.00  0.00    -0.354 N 
ATOM     47  C   UNL A   1      39.992  28.754  29.469  1.00  0.00     0.074 A 
ATOM     48  C   UNL A   1      38.888  27.819  29.495  1.00  0.00     0.031 C 
ATOM     49  C   UNL A   1      44.488  25.590  26.140  1.00  0.00     0.029 A 
ATOM     50  C   UNL A   1      44.582  26.933  26.703  1.00  0.00     0.049 A 
ATOM     51  H   UNL A   1      43.179  27.906  27.899  1.00  0.00     0.167 HD
ATOM     52  C   UNL A   1      39.956  29.988  30.023  1.00  0.00     0.034 A 
ATOM     53  C   UNL A   1      45.621  27.774  26.545  1.00  0.00     0.034 A 
ATOM     54  C   UNL A   1      41.074  30.890  30.046  1.00  0.00     0.049 A 
ATOM     55  C   UNL A   1      45.571  29.127  27.204  1.00  0.00     0.074 A 
ATOM     56  C   UNL A   1      41.173  32.122  30.667  1.00  0.00     0.029 A 
ATOM     57  N   UNL A   1      42.289  30.657  29.420  1.00  0.00    -0.354 N 
ATOM     58  N   UNL A   1      44.624  29.645  27.948  1.00  0.00    -0.248 NA
ATOM     59  C   UNL A   1      46.739  30.000  27.023  1.00  0.00     0.031 C 
ATOM     60  C   UNL A   1      42.448  32.638  30.410  1.00  0.00     0.029 A 
ATOM     61  C   UNL A   1      43.143  31.724  29.635  1.00  0.00     0.049 A 
ATOM     62  H   UNL A   1      42.511  29.851  28.901  1.00  0.00     0.167 HD
ATOM     63  C   UNL A   1      45.095  30.889  28.351  1.00  0.00     0.074 A 
ATOM     64  C   UNL A   1      46.420  31.038  27.783  1.00  0.00     0.031 C 
ATOM     65  C   UNL A   1      44.480  31.830  29.109  1.00  0.00     0.034 A 
BRANCH  52  66
ATOM     66  C   UNL A   1      38.686  30.398  30.715  1.00  0.00     0.023 A 
ATOM     67  C   UNL A   1      38.500  30.056  32.071  1.00  0.00     0.012 A 
ATOM     68  C   UNL A   1      37.697  31.147  30.049  1.00  0.00     0.148 A 
ATOM     69  C   UNL A   1      37.335  30.422  32.743  1.00  0.00     0.002 A 
ATOM     70  C   UNL A   1      36.555  31.541  30.737  1.00  0.00     0.091 A 
ATOM     71  F   UNL A   1      37.877  31.438  28.752  1.00  0.00    -0.205 F 
ATOM     72  C   UNL A   1      36.369  31.172  32.080  1.00  0.00     0.022 A 
BRANCH  70  73
ATOM     73  S   UNL A   1      35.287  32.568  29.986  1.00  0.00     0.127 S 
ATOM     74  O   UNL A   1      34.363  32.760  31.103  1.00  0.00    -0.237 OA
ATOM     75  O   UNL A   1      36.039  33.764  29.604  1.00  0.00    -0.237 OA
ATOM     76  O   UNL A   1      34.769  31.798  28.863  1.00  0.00    -0.744 OA
ENDBRANCH  70  73
ENDBRANCH  52  66
BRANCH  53  77
ATOM     77  C   UNL A   1      46.832  27.329  25.800  1.00  0.00     0.023 A 
ATOM     78  C   UNL A   1      47.739  26.454  26.431  1.00  0.00     0.012 A 
ATOM     79  C   UNL A   1      47.076  27.728  24.472  1.00  0.00     0.148 A 
ATOM     80  C   UNL A   1      48.877  26.004  25.763  1.00  0.00     0.002 A 
ATOM     81  C   UNL A   1      48.187  27.236  23.794  1.00  0.00     0.091 A 
ATOM     82  F   UNL A   1      46.211  28.573  23.894  1.00  0.00    -0.205 F 
ATOM     83  C   UNL A   1      49.096  26.386  24.442  1.00  0.00     0.022 A 
BRANCH  81  84
ATOM     84  S   UNL A   1      48.474  27.574  22.054  1.00  0.00     0.127 S 
ATOM     85  O   UNL A   1      49.645  28.445  22.107  1.00  0.00    -0.237 OA
ATOM     86  O   UNL A   1      48.725  26.236  21.519  1.00  0.00    -0.237 OA
ATOM     87  O   UNL A   1      47.244  28.189  21.570  1.00  0.00    -0.744 OA
ENDBRANCH  81  84
ENDBRANCH  53  77
BRANCH  65  88
ATOM     88  C   UNL A   1      45.233  33.102  29.389  1.00  0.00     0.023 A 
ATOM     89  C   UNL A   1      46.069  33.177  30.520  1.00  0.00     0.012 A 
ATOM     90  C   UNL A   1      45.185  34.183  28.487  1.00  0.00     0.148 A 
ATOM     91  C   UNL A   1      46.834  34.317  30.760  1.00  0.00     0.002 A 
ATOM     92  C   UNL A   1      45.982  35.300  28.711  1.00  0.00     0.091 A 
ATOM     93  F   UNL A   1      44.368  34.098  27.429  1.00  0.00    -0.205 F 
ATOM     94  C   UNL A   1      46.801  35.372  29.851  1.00  0.00     0.022 A 
BRANCH  92  95
ATOM     95  S   UNL A   1      46.072  36.666  27.548  1.00  0.00     0.127 S 
ATOM     96  O   UNL A   1      46.471  35.985  26.318  1.00  0.00    -0.237 OA
ATOM     97  O   UNL A   1      44.698  37.169  27.549  1.00  0.00    -0.237 OA
ATOM     98  O   UNL A   1      47.054  37.593  28.096  1.00  0.00    -0.744 OA
ENDBRANCH  92  95
ENDBRANCH  65  88
ENDBRANCH  39  40
ENDBRANCH  31  34
ENDBRANCH  29  30
ENDBRANCH  28  29
ENDBRANCH  27  28
ENDBRANCH   1  27
TORSDOF 19
ENDMDL
MODEL 3
REMARK VINA RESULT:     -11.6      4.801     10.382
REMARK SMILES C/C(=N/OCc1ccccc1Nc1c(Cl)cccc1Cl)C(=O)NCCCCNC(=O)c1ccc(-c2c3nc(c(-c4cccc(S(=O)(=O)[O-])c4F)c4ccc([nH]4)c(-c4cccc(S(=O)(=O)[O-])c4F)c4nc(c(-c5cccc(S(=O)(=O)[O-])c5F)c5ccc2[nH]5)C=C4)C=C3)cc1
REMARK SMILES IDX 24 1 23 2 21 3 22 4 2 6 1 7 3 8 4 9 5 10 6 11 7 12 11 13
REMARK SMILES IDX 8 14 10 15 9 16 12 17 13 19 14 20 19 21 15 22 16 23 18 24
REMARK SMILES IDX 20 25 17 26 25 27 26 28 27 29 28 30 29 31 30 33 31 34 32 35
REMARK SMILES IDX 93 36 33 37 92 38 34 39 35 40 36 41 86 42 37 43 91 44 85 45
REMARK SMILES IDX 87 46 38 47 90 48 84 49 83 50 39 52 71 53 51 54 70 55 52 56
REMARK SMILES IDX 55 57 69 58 88 59 53 60 54 61 68 63 89 64 56 65 40 66 41 67
REMARK SMILES IDX 49 68 42 69 44 70 50 71 43 72 45 73 46 74 47 75 48 76 72 77
REMARK SMILES IDX 73 78 81 79 74 80 76 81 82 82 75 83 77 84 78 85 79 86 80 87
REMARK SMILES IDX 57 88 58 89 66 90 59 91 61 92 67 93 60 94 62 95 63 96 64 97
REMARK SMILES IDX 65 98
REMARK H PARENT 23 5 12 18 28 32 87 51 55 62
REMARK Flexibility Score: inf
ROOT
ATOM      1  C   UNL A   1      31.784  27.159  26.348  1.00  0.00     0.116 C 
ENDROOT
BRANCH   1   2
ATOM      2  N   UNL A   1      30.933  27.630  25.279  1.00  0.00    -0.351 N 
ATOM      3  C   UNL A   1      31.187  27.839  23.946  1.00  0.00     0.268 C 
ATOM      4  O   UNL A   1      30.355  28.469  23.291  1.00  0.00    -0.268 OA
ATOM      5  H   UNL A   1      30.010  27.836  25.554  1.00  0.00     0.163 HD
BRANCH   3   6
ATOM      6  C   UNL A   1      32.347  27.239  23.160  1.00  0.00     0.141 C 
ATOM      7  C   UNL A   1      33.548  28.155  23.068  1.00  0.00     0.077 C 
ATOM      8  N   UNL A   1      32.489  26.058  22.630  1.00  0.00    -0.086 NA
BRANCH   8   9
ATOM      9  O   UNL A   1      31.382  25.237  22.766  1.00  0.00    -0.390 OA
BRANCH   9  10
ATOM     10  C   UNL A   1      31.754  23.885  23.072  1.00  0.00     0.302 C 
BRANCH  10  11
ATOM     11  C   UNL A   1      31.563  23.428  24.507  1.00  0.00     0.016 A 
ATOM     12  C   UNL A   1      30.500  23.963  25.259  1.00  0.00     0.009 A 
ATOM     13  C   UNL A   1      32.460  22.522  25.112  1.00  0.00     0.045 A 
ATOM     14  C   UNL A   1      30.362  23.663  26.612  1.00  0.00     0.001 A 
ATOM     15  C   UNL A   1      32.352  22.302  26.493  1.00  0.00     0.026 A 
ATOM     16  C   UNL A   1      31.303  22.852  27.235  1.00  0.00     0.002 A 
BRANCH  13  17
ATOM     17  N   UNL A   1      33.496  21.952  24.346  1.00  0.00    -0.353 N 
ATOM     18  H   UNL A   1      33.230  21.659  23.445  1.00  0.00     0.167 HD
BRANCH  17  19
ATOM     19  C   UNL A   1      34.852  21.733  24.661  1.00  0.00     0.076 A 
ATOM     20  C   UNL A   1      35.749  22.822  24.667  1.00  0.00     0.066 A 
ATOM     21  C   UNL A   1      35.398  20.442  24.782  1.00  0.00     0.066 A 
ATOM     22  Cl  UNL A   1      35.193  24.443  24.409  1.00  0.00    -0.082 Cl
ATOM     23  C   UNL A   1      37.120  22.635  24.871  1.00  0.00     0.023 A 
ATOM     24  C   UNL A   1      36.769  20.256  24.995  1.00  0.00     0.023 A 
ATOM     25  Cl  UNL A   1      34.425  19.017  24.623  1.00  0.00    -0.082 Cl
ATOM     26  C   UNL A   1      37.628  21.351  25.047  1.00  0.00     0.003 A 
ENDBRANCH  17  19
ENDBRANCH  13  17
ENDBRANCH  10  11
ENDBRANCH   9  10
ENDBRANCH   8   9
ENDBRANCH   3   6
ENDBRANCH   1   2
BRANCH   1  27
ATOM     27  C   UNL A   1      32.166  28.332  27.262  1.00  0.00     0.023 C 
BRANCH  27  28
ATOM     28  C   UNL A   1      31.625  29.693  26.837  1.00  0.00     0.023 C 
BRANCH  28  29
ATOM     29  C   UNL A   1      32.694  30.647  26.320  1.00  0.00     0.116 C 
BRANCH  29  30
ATOM     30  N   UNL A   1      32.587  32.005  26.850  1.00  0.00    -0.352 N 
ATOM     31  C   UNL A   1      33.512  32.691  27.606  1.00  0.00     0.251 C 
ATOM     32  H   UNL A   1      31.753  32.487  26.641  1.00  0.00     0.163 HD
ATOM     33  O   UNL A   1      33.280  33.812  28.031  1.00  0.00    -0.269 OA
BRANCH  31  34
ATOM     34  C   UNL A   1      34.776  32.003  27.934  1.00  0.00     0.039 A 
ATOM     35  C   UNL A   1      35.935  32.764  28.087  1.00  0.00     0.014 A 
ATOM     36  C   UNL A   1      34.763  30.641  28.239  1.00  0.00     0.014 A 
ATOM     37  C   UNL A   1      37.067  32.175  28.649  1.00  0.00     0.010 A 
ATOM     38  C   UNL A   1      35.864  30.078  28.868  1.00  0.00     0.010 A 
ATOM     39  C   UNL A   1      37.019  30.844  29.096  1.00  0.00    -0.014 A 
BRANCH  39  40
ATOM     40  C   UNL A   1      38.141  30.234  29.849  1.00  0.00     0.031 A 
ATOM     41  C   UNL A   1      38.423  30.679  31.255  1.00  0.00     0.074 A 
ATOM     42  C   UNL A   1      38.977  29.383  29.222  1.00  0.00     0.049 A 
ATOM     43  N   UNL A   1      39.420  30.357  32.035  1.00  0.00    -0.248 NA
ATOM     44  C   UNL A   1      37.478  31.638  31.850  1.00  0.00     0.031 C 
ATOM     45  C   UNL A   1      38.852  28.942  27.830  1.00  0.00     0.029 A 
ATOM     46  N   UNL A   1      40.116  28.760  29.663  1.00  0.00    -0.354 N 
ATOM     47  C   UNL A   1      39.247  31.098  33.194  1.00  0.00     0.074 A 
ATOM     48  C   UNL A   1      38.067  31.914  33.004  1.00  0.00     0.031 C 
ATOM     49  C   UNL A   1      39.871  28.117  27.535  1.00  0.00     0.029 A 
ATOM     50  C   UNL A   1      40.737  27.994  28.703  1.00  0.00     0.049 A 
ATOM     51  H   UNL A   1      40.459  28.852  30.582  1.00  0.00     0.167 HD
ATOM     52  C   UNL A   1      39.980  31.077  34.331  1.00  0.00     0.034 A 
ATOM     53  C   UNL A   1      41.876  27.279  28.757  1.00  0.00     0.034 A 
ATOM     54  C   UNL A   1      41.116  30.222  34.536  1.00  0.00     0.049 A 
ATOM     55  C   UNL A   1      42.654  27.242  30.045  1.00  0.00     0.074 A 
ATOM     56  C   UNL A   1      41.869  30.051  35.685  1.00  0.00     0.029 A 
ATOM     57  N   UNL A   1      41.664  29.391  33.571  1.00  0.00    -0.354 N 
ATOM     58  N   UNL A   1      42.383  27.827  31.187  1.00  0.00    -0.248 NA
ATOM     59  C   UNL A   1      43.877  26.428  30.062  1.00  0.00     0.031 C 
ATOM     60  C   UNL A   1      42.878  29.121  35.410  1.00  0.00     0.029 A 
ATOM     61  C   UNL A   1      42.749  28.709  34.093  1.00  0.00     0.049 A 
ATOM     62  H   UNL A   1      41.330  29.300  32.649  1.00  0.00     0.167 HD
ATOM     63  C   UNL A   1      43.382  27.428  32.066  1.00  0.00     0.074 A 
ATOM     64  C   UNL A   1      44.254  26.535  31.330  1.00  0.00     0.031 C 
ATOM     65  C   UNL A   1      43.571  27.781  33.361  1.00  0.00     0.034 A 
BRANCH  52  66
ATOM     66  C   UNL A   1      39.525  31.954  35.465  1.00  0.00     0.023 A 
ATOM     67  C   UNL A   1      38.579  31.454  36.384  1.00  0.00     0.012 A 
ATOM     68  C   UNL A   1      40.051  33.246  35.647  1.00  0.00     0.148 A 
ATOM     69  C   UNL A   1      38.136  32.239  37.446  1.00  0.00     0.002 A 
ATOM     70  C   UNL A   1      39.634  34.009  36.732  1.00  0.00     0.091 A 
ATOM     71  F   UNL A   1      40.928  33.716  34.748  1.00  0.00    -0.205 F 
ATOM     72  C   UNL A   1      38.671  33.512  37.626  1.00  0.00     0.022 A 
BRANCH  70  73
ATOM     73  S   UNL A   1      40.317  35.634  37.084  1.00  0.00     0.127 S 
ATOM     74  O   UNL A   1      39.657  36.456  36.071  1.00  0.00    -0.237 OA
ATOM     75  O   UNL A   1      39.863  35.873  38.454  1.00  0.00    -0.237 OA
ATOM     76  O   UNL A   1      41.760  35.494  36.943  1.00  0.00    -0.744 OA
ENDBRANCH  70  73
ENDBRANCH  52  66
BRANCH  53  77
ATOM     77  C   UNL A   1      42.306  26.473  27.580  1.00  0.00     0.023 A 
ATOM     78  C   UNL A   1      43.079  27.088  26.576  1.00  0.00     0.012 A 
ATOM     79  C   UNL A   1      41.993  25.105  27.463  1.00  0.00     0.148 A 
ATOM     80  C   UNL A   1      43.513  26.364  25.466  1.00  0.00     0.002 A 
ATOM     81  C   UNL A   1      42.470  24.376  26.378  1.00  0.00     0.091 A 
ATOM     82  F   UNL A   1      41.243  24.540  28.419  1.00  0.00    -0.205 F 
ATOM     83  C   UNL A   1      43.218  25.007  25.371  1.00  0.00     0.022 A 
BRANCH  81  84
ATOM     84  S   UNL A   1      42.247  22.599  26.244  1.00  0.00     0.127 S 
ATOM     85  O   UNL A   1      42.811  22.325  24.926  1.00  0.00    -0.237 OA
ATOM     86  O   UNL A   1      43.040  22.104  27.370  1.00  0.00    -0.237 OA
ATOM     87  O   UNL A   1      40.813  22.378  26.382  1.00  0.00    -0.744 OA
ENDBRANCH  81  84
ENDBRANCH  53  77
BRANCH  65  88
ATOM     88  C   UNL A   1      44.754  27.191  34.081  1.00  0.00     0.023 A 
ATOM     89  C   UNL A   1      46.002  27.838  34.006  1.00  0.00     0.012 A 
ATOM     90  C   UNL A   1      44.607  26.056  34.902  1.00  0.00     0.148 A 
ATOM     91  C   UNL A   1      47.095  27.353  34.723  1.00  0.00     0.002 A 
ATOM     92  C   UNL A   1      45.690  25.603  35.647  1.00  0.00     0.091 A 
ATOM     93  F   UNL A   1      43.416  25.445  34.942  1.00  0.00    -0.205 F 
ATOM     94  C   UNL A   1      46.936  26.246  35.552  1.00  0.00     0.022 A 
BRANCH  92  95
ATOM     95  S   UNL A   1      45.555  24.240  36.809  1.00  0.00     0.127 S 
ATOM     96  O   UNL A   1      45.168  23.137  35.932  1.00  0.00    -0.237 OA
ATOM     97  O   UNL A   1      46.915  24.148  37.342  1.00  0.00    -0.237 OA
ATOM     98  O   UNL A   1      44.552  24.645  37.785  1.00  0.00    -0.744 OA
ENDBRANCH  92  95
ENDBRANCH  65  88
ENDBRANCH  39  40
ENDBRANCH  31  34
ENDBRANCH  29  30
ENDBRANCH  28  29
ENDBRANCH  27  28
ENDBRANCH   1  27
TORSDOF 19
ENDMDL
