MODEL 1
REMARK VINA RESULT:     -12.0      0.000      0.000
REMARK SMILES COc1ccc(F)c(Nc2ccc(C(=O)NCCCCNC(=O)c3ccc(-c4c5nc(c(-c6cccc(S(=O)(=O)[O-])c6F)c6ccc([nH]6)c(-c6cccc(S(=O)(=O)[O-])c6F)c6nc(c(-c7cccc(S(=O)(=O)[O-])c7F)c7ccc4[nH]7)C=C6)C=C5)cc3)cc2)c1
REMARK SMILES IDX 18 1 17 2 16 3 14 4 15 5 13 7 10 8 11 9 88 10 12 11 87 12
REMARK SMILES IDX 9 13 8 15 3 16 4 17 89 18 5 19 6 20 7 21 2 22 1 23 19 24
REMARK SMILES IDX 20 25 21 26 22 27 23 29 24 30 25 31 86 32 26 33 85 34 27 35
REMARK SMILES IDX 28 36 29 37 79 38 30 39 84 40 78 41 80 42 31 43 83 44 77 45
REMARK SMILES IDX 76 46 32 48 64 49 44 50 63 51 45 52 48 53 62 54 81 55 46 56
REMARK SMILES IDX 47 57 61 59 82 60 49 61 33 62 34 63 42 64 35 65 37 66 43 67
REMARK SMILES IDX 36 68 38 69 39 70 40 71 41 72 65 73 66 74 74 75 67 76 69 77
REMARK SMILES IDX 75 78 68 79 70 80 71 81 72 82 73 83 50 84 51 85 59 86 52 87
REMARK SMILES IDX 54 88 60 89 53 90 55 91 56 92 57 93 58 94
REMARK H PARENT 16 6 9 14 21 28 80 47 48 58
REMARK Flexibility Score: inf
ROOT
ATOM      1  C   UNL A   1      35.372  21.976  25.484  1.00  0.00     0.023 C 
ENDROOT
BRANCH   1   2
ATOM      2  C   UNL A   1      33.960  21.638  25.972  1.00  0.00     0.116 C 
BRANCH   2   3
ATOM      3  N   UNL A   1      33.293  20.754  25.035  1.00  0.00    -0.352 N 
ATOM      4  C   UNL A   1      32.565  21.002  23.898  1.00  0.00     0.251 C 
ATOM      5  O   UNL A   1      32.142  20.037  23.261  1.00  0.00    -0.269 OA
ATOM      6  H   UNL A   1      33.378  19.799  25.255  1.00  0.00     0.163 HD
BRANCH   4   7
ATOM      7  C   UNL A   1      32.318  22.373  23.368  1.00  0.00     0.039 A 
ATOM      8  C   UNL A   1      32.080  25.010  22.389  1.00  0.00     0.038 A 
ATOM      9  C   UNL A   1      33.209  24.248  22.088  1.00  0.00     0.027 A 
ATOM     10  C   UNL A   1      31.046  24.421  23.124  1.00  0.00     0.027 A 
ATOM     11  C   UNL A   1      33.333  22.946  22.584  1.00  0.00     0.016 A 
ATOM     12  C   UNL A   1      31.148  23.103  23.576  1.00  0.00     0.016 A 
BRANCH   8  13
ATOM     13  N   UNL A   1      32.014  26.357  22.017  1.00  0.00    -0.353 N 
ATOM     14  H   UNL A   1      32.386  26.581  21.134  1.00  0.00     0.167 HD
BRANCH  13  15
ATOM     15  C   UNL A   1      31.480  27.432  22.755  1.00  0.00     0.078 A 
ATOM     16  C   UNL A   1      29.729  29.081  23.182  1.00  0.00     0.121 A 
ATOM     17  C   UNL A   1      30.486  29.632  24.216  1.00  0.00     0.049 A 
ATOM     18  C   UNL A   1      30.229  27.990  22.462  1.00  0.00     0.075 A 
ATOM     19  C   UNL A   1      31.741  29.099  24.514  1.00  0.00     0.045 A 
ATOM     20  C   UNL A   1      32.225  28.015  23.786  1.00  0.00     0.146 A 
ATOM     21  F   UNL A   1      33.434  27.517  24.095  1.00  0.00    -0.205 F 
BRANCH  16  22
ATOM     22  O   UNL A   1      28.473  29.485  22.823  1.00  0.00    -0.497 OA
ATOM     23  C   UNL A   1      28.409  30.547  21.880  1.00  0.00     0.278 C 
ENDBRANCH  16  22
ENDBRANCH  13  15
ENDBRANCH   8  13
ENDBRANCH   4   7
ENDBRANCH   2   3
ENDBRANCH   1   2
BRANCH   1  24
ATOM     24  C   UNL A   1      36.291  20.761  25.327  1.00  0.00     0.023 C 
BRANCH  24  25
ATOM     25  C   UNL A   1      37.758  21.091  25.072  1.00  0.00     0.116 C 
BRANCH  25  26
ATOM     26  N   UNL A   1      38.668  20.061  25.553  1.00  0.00    -0.352 N 
ATOM     27  C   UNL A   1      39.844  20.216  26.250  1.00  0.00     0.251 C 
ATOM     28  H   UNL A   1      38.408  19.133  25.353  1.00  0.00     0.163 HD
ATOM     29  O   UNL A   1      40.552  19.248  26.489  1.00  0.00    -0.269 OA
BRANCH  27  30
ATOM     30  C   UNL A   1      40.260  21.572  26.670  1.00  0.00     0.039 A 
ATOM     31  C   UNL A   1      41.216  21.698  27.680  1.00  0.00     0.014 A 
ATOM     32  C   UNL A   1      39.735  22.706  26.047  1.00  0.00     0.014 A 
ATOM     33  C   UNL A   1      41.697  22.964  28.020  1.00  0.00     0.010 A 
ATOM     34  C   UNL A   1      40.260  23.960  26.342  1.00  0.00     0.010 A 
ATOM     35  C   UNL A   1      41.247  24.101  27.329  1.00  0.00    -0.014 A 
BRANCH  35  36
ATOM     36  C   UNL A   1      41.815  25.445  27.604  1.00  0.00     0.031 A 
ATOM     37  C   UNL A   1      40.999  26.481  28.325  1.00  0.00     0.074 A 
ATOM     38  C   UNL A   1      43.034  25.759  27.122  1.00  0.00     0.049 A 
ATOM     39  N   UNL A   1      41.303  27.723  28.597  1.00  0.00    -0.248 NA
ATOM     40  C   UNL A   1      39.655  26.080  28.774  1.00  0.00     0.031 C 
ATOM     41  C   UNL A   1      43.889  24.864  26.340  1.00  0.00     0.029 A 
ATOM     42  N   UNL A   1      43.755  26.924  27.197  1.00  0.00    -0.354 N 
ATOM     43  C   UNL A   1      40.183  28.260  29.218  1.00  0.00     0.074 A 
ATOM     44  C   UNL A   1      39.179  27.220  29.255  1.00  0.00     0.031 C 
ATOM     45  C   UNL A   1      45.020  25.509  26.014  1.00  0.00     0.029 A 
ATOM     46  C   UNL A   1      44.962  26.870  26.539  1.00  0.00     0.049 A 
ATOM     47  H   UNL A   1      43.439  27.724  27.676  1.00  0.00     0.167 HD
ATOM     48  C   UNL A   1      40.018  29.498  29.740  1.00  0.00     0.034 A 
ATOM     49  C   UNL A   1      45.915  27.809  26.375  1.00  0.00     0.034 A 
ATOM     50  C   UNL A   1      41.038  30.510  29.751  1.00  0.00     0.049 A 
ATOM     51  C   UNL A   1      45.728  29.160  27.010  1.00  0.00     0.074 A 
ATOM     52  C   UNL A   1      40.997  31.763  30.337  1.00  0.00     0.029 A 
ATOM     53  N   UNL A   1      42.282  30.388  29.151  1.00  0.00    -0.354 N 
ATOM     54  N   UNL A   1      44.722  29.599  27.727  1.00  0.00    -0.248 NA
ATOM     55  C   UNL A   1      46.817  30.134  26.845  1.00  0.00     0.031 C 
ATOM     56  C   UNL A   1      42.212  32.404  30.080  1.00  0.00     0.029 A 
ATOM     57  C   UNL A   1      43.017  31.544  29.349  1.00  0.00     0.049 A 
ATOM     58  H   UNL A   1      42.596  29.597  28.658  1.00  0.00     0.167 HD
ATOM     59  C   UNL A   1      45.068  30.886  28.123  1.00  0.00     0.074 A 
ATOM     60  C   UNL A   1      46.385  31.149  27.583  1.00  0.00     0.031 C 
ATOM     61  C   UNL A   1      44.350  31.774  28.855  1.00  0.00     0.034 A 
BRANCH  48  62
ATOM     62  C   UNL A   1      38.709  29.810  30.415  1.00  0.00     0.023 A 
ATOM     63  C   UNL A   1      38.467  29.311  31.711  1.00  0.00     0.012 A 
ATOM     64  C   UNL A   1      37.763  30.665  29.815  1.00  0.00     0.148 A 
ATOM     65  C   UNL A   1      37.295  29.637  32.391  1.00  0.00     0.002 A 
ATOM     66  C   UNL A   1      36.617  31.020  30.516  1.00  0.00     0.091 A 
ATOM     67  F   UNL A   1      38.003  31.112  28.574  1.00  0.00    -0.205 F 
ATOM     68  C   UNL A   1      36.377  30.500  31.799  1.00  0.00     0.022 A 
BRANCH  66  69
ATOM     69  S   UNL A   1      35.410  32.189  29.877  1.00  0.00     0.127 S 
ATOM     70  O   UNL A   1      34.828  31.432  28.769  1.00  0.00    -0.237 OA
ATOM     71  O   UNL A   1      34.521  32.372  31.024  1.00  0.00    -0.237 OA
ATOM     72  O   UNL A   1      36.163  33.375  29.495  1.00  0.00    -0.744 OA
ENDBRANCH  66  69
ENDBRANCH  48  62
BRANCH  49  73
ATOM     73  C   UNL A   1      47.172  27.461  25.653  1.00  0.00     0.023 A 
ATOM     74  C   UNL A   1      48.162  26.715  26.320  1.00  0.00     0.012 A 
ATOM     75  C   UNL A   1      47.362  27.800  24.299  1.00  0.00     0.148 A 
ATOM     76  C   UNL A   1      49.328  26.328  25.658  1.00  0.00     0.002 A 
ATOM     77  C   UNL A   1      48.500  27.363  23.630  1.00  0.00     0.091 A 
ATOM     78  F   UNL A   1      46.412  28.521  23.685  1.00  0.00    -0.205 F 
ATOM     79  C   UNL A   1      49.490  26.640  24.311  1.00  0.00     0.022 A 
BRANCH  77  80
ATOM     80  S   UNL A   1      48.730  27.596  21.864  1.00  0.00     0.127 S 
ATOM     81  O   UNL A   1      49.219  26.284  21.449  1.00  0.00    -0.237 OA
ATOM     82  O   UNL A   1      47.371  27.916  21.422  1.00  0.00    -0.237 OA
ATOM     83  O   UNL A   1      49.676  28.695  21.732  1.00  0.00    -0.744 OA
ENDBRANCH  77  80
ENDBRANCH  49  73
BRANCH  61  84
ATOM     84  C   UNL A   1      44.964  33.117  29.143  1.00  0.00     0.023 A 
ATOM     85  C   UNL A   1      45.817  33.266  30.254  1.00  0.00     0.012 A 
ATOM     86  C   UNL A   1      44.801  34.191  28.246  1.00  0.00     0.148 A 
ATOM     87  C   UNL A   1      46.487  34.468  30.476  1.00  0.00     0.002 A 
ATOM     88  C   UNL A   1      45.508  35.371  28.448  1.00  0.00     0.091 A 
ATOM     89  F   UNL A   1      43.971  34.034  27.204  1.00  0.00    -0.205 F 
ATOM     90  C   UNL A   1      46.344  35.513  29.567  1.00  0.00     0.022 A 
BRANCH  88  91
ATOM     91  S   UNL A   1      45.467  36.733  27.276  1.00  0.00     0.127 S 
ATOM     92  O   UNL A   1      46.235  36.187  26.158  1.00  0.00    -0.237 OA
ATOM     93  O   UNL A   1      44.034  36.880  27.018  1.00  0.00    -0.237 OA
ATOM     94  O   UNL A   1      46.077  37.867  27.957  1.00  0.00    -0.744 OA
ENDBRANCH  88  91
ENDBRANCH  61  84
ENDBRANCH  35  36
ENDBRANCH  27  30
ENDBRANCH  25  26
ENDBRANCH  24  25
ENDBRANCH   1  24
TORSDOF 17
ENDMDL
MODEL 2
REMARK VINA RESULT:     -12.0      6.068     10.936
REMARK SMILES COc1ccc(F)c(Nc2ccc(C(=O)NCCCCNC(=O)c3ccc(-c4c5nc(c(-c6cccc(S(=O)(=O)[O-])c6F)c6ccc([nH]6)c(-c6cccc(S(=O)(=O)[O-])c6F)c6nc(c(-c7cccc(S(=O)(=O)[O-])c7F)c7ccc4[nH]7)C=C6)C=C5)cc3)cc2)c1
REMARK SMILES IDX 18 1 17 2 16 3 14 4 15 5 13 7 10 8 11 9 88 10 12 11 87 12
REMARK SMILES IDX 9 13 8 15 3 16 4 17 89 18 5 19 6 20 7 21 2 22 1 23 19 24
REMARK SMILES IDX 20 25 21 26 22 27 23 29 24 30 25 31 86 32 26 33 85 34 27 35
REMARK SMILES IDX 28 36 29 37 79 38 30 39 84 40 78 41 80 42 31 43 83 44 77 45
REMARK SMILES IDX 76 46 32 48 64 49 44 50 63 51 45 52 48 53 62 54 81 55 46 56
REMARK SMILES IDX 47 57 61 59 82 60 49 61 33 62 34 63 42 64 35 65 37 66 43 67
REMARK SMILES IDX 36 68 38 69 39 70 40 71 41 72 65 73 66 74 74 75 67 76 69 77
REMARK SMILES IDX 75 78 68 79 70 80 71 81 72 82 73 83 50 84 51 85 59 86 52 87
REMARK SMILES IDX 54 88 60 89 53 90 55 91 56 92 57 93 58 94
REMARK H PARENT 16 6 9 14 21 28 80 47 48 58
REMARK Flexibility Score: inf
ROOT
ATOM      1  C   UNL A   1      33.540  34.720  29.284  1.00  0.00     0.023 C 
ENDROOT
BRANCH   1   2
ATOM      2  C   UNL A   1      33.173  36.185  29.532  1.00  0.00     0.116 C 
BRANCH   2   3
ATOM      3  N   UNL A   1      32.194  36.294  30.597  1.00  0.00    -0.352 N 
ATOM      4  C   UNL A   1      32.219  35.903  31.911  1.00  0.00     0.251 C 
ATOM      5  O   UNL A   1      31.242  36.166  32.613  1.00  0.00    -0.269 OA
ATOM      6  H   UNL A   1      31.355  36.731  30.325  1.00  0.00     0.163 HD
BRANCH   4   7
ATOM      7  C   UNL A   1      33.393  35.234  32.543  1.00  0.00     0.039 A 
ATOM      8  C   UNL A   1      35.751  34.117  33.621  1.00  0.00     0.038 A 
ATOM      9  C   UNL A   1      35.662  35.491  33.397  1.00  0.00     0.027 A 
ATOM     10  C   UNL A   1      34.631  33.320  33.365  1.00  0.00     0.027 A 
ATOM     11  C   UNL A   1      34.498  36.043  32.851  1.00  0.00     0.016 A 
ATOM     12  C   UNL A   1      33.451  33.878  32.867  1.00  0.00     0.016 A 
BRANCH   8  13
ATOM     13  N   UNL A   1      36.958  33.542  34.032  1.00  0.00    -0.353 N 
ATOM     14  H   UNL A   1      36.886  32.777  34.645  1.00  0.00     0.167 HD
BRANCH  13  15
ATOM     15  C   UNL A   1      38.265  33.929  33.674  1.00  0.00     0.078 A 
ATOM     16  C   UNL A   1      40.032  34.239  32.016  1.00  0.00     0.121 A 
ATOM     17  C   UNL A   1      40.914  34.645  33.017  1.00  0.00     0.049 A 
ATOM     18  C   UNL A   1      38.720  33.885  32.349  1.00  0.00     0.075 A 
ATOM     19  C   UNL A   1      40.485  34.682  34.344  1.00  0.00     0.045 A 
ATOM     20  C   UNL A   1      39.175  34.324  34.660  1.00  0.00     0.146 A 
ATOM     21  F   UNL A   1      38.785  34.372  35.944  1.00  0.00    -0.205 F 
BRANCH  16  22
ATOM     22  O   UNL A   1      40.319  34.202  30.679  1.00  0.00    -0.497 OA
ATOM     23  C   UNL A   1      41.532  33.550  30.324  1.00  0.00     0.278 C 
ENDBRANCH  16  22
ENDBRANCH  13  15
ENDBRANCH   8  13
ENDBRANCH   4   7
ENDBRANCH   2   3
ENDBRANCH   1   2
BRANCH   1  24
ATOM     24  C   UNL A   1      35.016  34.392  29.527  1.00  0.00     0.023 C 
BRANCH  24  25
ATOM     25  C   UNL A   1      35.620  33.381  28.557  1.00  0.00     0.116 C 
BRANCH  25  26
ATOM     26  N   UNL A   1      34.623  32.529  27.924  1.00  0.00    -0.352 N 
ATOM     27  C   UNL A   1      34.691  31.179  27.667  1.00  0.00     0.251 C 
ATOM     28  H   UNL A   1      33.792  32.976  27.644  1.00  0.00     0.163 HD
ATOM     29  O   UNL A   1      33.806  30.627  27.028  1.00  0.00    -0.269 OA
BRANCH  27  30
ATOM     30  C   UNL A   1      35.866  30.413  28.137  1.00  0.00     0.039 A 
ATOM     31  C   UNL A   1      37.023  30.412  27.355  1.00  0.00     0.014 A 
ATOM     32  C   UNL A   1      35.835  29.732  29.356  1.00  0.00     0.014 A 
ATOM     33  C   UNL A   1      38.175  29.780  27.829  1.00  0.00     0.010 A 
ATOM     34  C   UNL A   1      37.000  29.159  29.855  1.00  0.00     0.010 A 
ATOM     35  C   UNL A   1      38.181  29.179  29.098  1.00  0.00    -0.014 A 
BRANCH  35  36
ATOM     36  C   UNL A   1      39.420  28.590  29.665  1.00  0.00     0.031 A 
ATOM     37  C   UNL A   1      40.052  29.186  30.891  1.00  0.00     0.074 A 
ATOM     38  C   UNL A   1      40.025  27.573  29.019  1.00  0.00     0.049 A 
ATOM     39  N   UNL A   1      41.164  28.848  31.491  1.00  0.00    -0.248 NA
ATOM     40  C   UNL A   1      39.362  30.330  31.511  1.00  0.00     0.031 C 
ATOM     41  C   UNL A   1      39.550  26.961  27.776  1.00  0.00     0.029 A 
ATOM     42  N   UNL A   1      41.182  26.891  29.303  1.00  0.00    -0.354 N 
ATOM     43  C   UNL A   1      41.324  29.750  32.533  1.00  0.00     0.074 A 
ATOM     44  C   UNL A   1      40.212  30.674  32.468  1.00  0.00     0.031 C 
ATOM     45  C   UNL A   1      40.402  25.992  27.410  1.00  0.00     0.029 A 
ATOM     46  C   UNL A   1      41.497  25.928  28.373  1.00  0.00     0.049 A 
ATOM     47  H   UNL A   1      41.734  27.074  30.097  1.00  0.00     0.167 HD
ATOM     48  C   UNL A   1      42.291  29.787  33.480  1.00  0.00     0.034 A 
ATOM     49  C   UNL A   1      42.549  25.088  28.302  1.00  0.00     0.034 A 
ATOM     50  C   UNL A   1      43.362  28.834  33.573  1.00  0.00     0.049 A 
ATOM     51  C   UNL A   1      43.583  25.116  29.394  1.00  0.00     0.074 A 
ATOM     52  C   UNL A   1      44.338  28.734  34.549  1.00  0.00     0.029 A 
ATOM     53  N   UNL A   1      43.600  27.817  32.662  1.00  0.00    -0.354 N 
ATOM     54  N   UNL A   1      43.633  25.879  30.459  1.00  0.00    -0.248 NA
ATOM     55  C   UNL A   1      44.685  24.147  29.299  1.00  0.00     0.031 C 
ATOM     56  C   UNL A   1      45.175  27.664  34.220  1.00  0.00     0.029 A 
ATOM     57  C   UNL A   1      44.709  27.086  33.049  1.00  0.00     0.049 A 
ATOM     58  H   UNL A   1      43.060  27.640  31.858  1.00  0.00     0.167 HD
ATOM     59  C   UNL A   1      44.752  25.466  31.174  1.00  0.00     0.074 A 
ATOM     60  C   UNL A   1      45.340  24.371  30.432  1.00  0.00     0.031 C 
ATOM     61  C   UNL A   1      45.253  25.961  32.332  1.00  0.00     0.034 A 
BRANCH  48  62
ATOM     62  C   UNL A   1      42.198  30.850  34.542  1.00  0.00     0.023 A 
ATOM     63  C   UNL A   1      41.257  30.703  35.581  1.00  0.00     0.012 A 
ATOM     64  C   UNL A   1      43.093  31.938  34.567  1.00  0.00     0.148 A 
ATOM     65  C   UNL A   1      41.191  31.633  36.617  1.00  0.00     0.002 A 
ATOM     66  C   UNL A   1      43.051  32.837  35.626  1.00  0.00     0.091 A 
ATOM     67  F   UNL A   1      43.966  32.070  33.559  1.00  0.00    -0.205 F 
ATOM     68  C   UNL A   1      42.096  32.692  36.645  1.00  0.00     0.022 A 
BRANCH  66  69
ATOM     69  S   UNL A   1      44.222  34.189  35.799  1.00  0.00     0.127 S 
ATOM     70  O   UNL A   1      43.989  34.939  34.565  1.00  0.00    -0.237 OA
ATOM     71  O   UNL A   1      43.748  34.852  37.015  1.00  0.00    -0.237 OA
ATOM     72  O   UNL A   1      45.535  33.570  35.916  1.00  0.00    -0.744 OA
ENDBRANCH  66  69
ENDBRANCH  48  62
BRANCH  49  73
ATOM     73  C   UNL A   1      42.617  24.088  27.198  1.00  0.00     0.023 A 
ATOM     74  C   UNL A   1      43.355  24.397  26.040  1.00  0.00     0.012 A 
ATOM     75  C   UNL A   1      42.022  22.818  27.315  1.00  0.00     0.148 A 
ATOM     76  C   UNL A   1      43.485  23.465  25.009  1.00  0.00     0.002 A 
ATOM     77  C   UNL A   1      42.201  21.875  26.309  1.00  0.00     0.091 A 
ATOM     78  F   UNL A   1      41.314  22.548  28.421  1.00  0.00    -0.205 F 
ATOM     79  C   UNL A   1      42.920  22.202  25.149  1.00  0.00     0.022 A 
BRANCH  77  80
ATOM     80  S   UNL A   1      41.631  20.178  26.464  1.00  0.00     0.127 S 
ATOM     81  O   UNL A   1      40.182  20.341  26.387  1.00  0.00    -0.237 OA
ATOM     82  O   UNL A   1      42.244  19.547  25.295  1.00  0.00    -0.237 OA
ATOM     83  O   UNL A   1      42.148  19.705  27.741  1.00  0.00    -0.744 OA
ENDBRANCH  77  80
ENDBRANCH  49  73
BRANCH  61  84
ATOM     84  C   UNL A   1      46.493  25.324  32.898  1.00  0.00     0.023 A 
ATOM     85  C   UNL A   1      47.755  25.868  32.589  1.00  0.00     0.012 A 
ATOM     86  C   UNL A   1      46.401  24.274  33.834  1.00  0.00     0.148 A 
ATOM     87  C   UNL A   1      48.908  25.366  33.191  1.00  0.00     0.002 A 
ATOM     88  C   UNL A   1      47.550  23.811  34.463  1.00  0.00     0.091 A 
ATOM     89  F   UNL A   1      45.192  23.759  34.100  1.00  0.00    -0.205 F 
ATOM     90  C   UNL A   1      48.805  24.350  34.138  1.00  0.00     0.022 A 
BRANCH  88  91
ATOM     91  S   UNL A   1      47.503  22.577  35.770  1.00  0.00     0.127 S 
ATOM     92  O   UNL A   1      48.916  22.465  36.126  1.00  0.00    -0.237 OA
ATOM     93  O   UNL A   1      46.668  23.226  36.782  1.00  0.00    -0.237 OA
ATOM     94  O   UNL A   1      46.912  21.385  35.175  1.00  0.00    -0.744 OA
ENDBRANCH  88  91
ENDBRANCH  61  84
ENDBRANCH  35  36
ENDBRANCH  27  30
ENDBRANCH  25  26
ENDBRANCH  24  25
ENDBRANCH   1  24
TORSDOF 17
ENDMDL
MODEL 3
REMARK VINA RESULT:     -12.0      1.332      7.682
REMARK SMILES COc1ccc(F)c(Nc2ccc(C(=O)NCCCCNC(=O)c3ccc(-c4c5nc(c(-c6cccc(S(=O)(=O)[O-])c6F)c6ccc([nH]6)c(-c6cccc(S(=O)(=O)[O-])c6F)c6nc(c(-c7cccc(S(=O)(=O)[O-])c7F)c7ccc4[nH]7)C=C6)C=C5)cc3)cc2)c1
REMARK SMILES IDX 18 1 17 2 16 3 14 4 15 5 13 7 10 8 11 9 88 10 12 11 87 12
REMARK SMILES IDX 9 13 8 15 3 16 4 17 89 18 5 19 6 20 7 21 2 22 1 23 19 24
REMARK SMILES IDX 20 25 21 26 22 27 23 29 24 30 25 31 86 32 26 33 85 34 27 35
REMARK SMILES IDX 28 36 29 37 79 38 30 39 84 40 78 41 80 42 31 43 83 44 77 45
REMARK SMILES IDX 76 46 32 48 64 49 44 50 63 51 45 52 48 53 62 54 81 55 46 56
REMARK SMILES IDX 47 57 61 59 82 60 49 61 33 62 34 63 42 64 35 65 37 66 43 67
REMARK SMILES IDX 36 68 38 69 39 70 40 71 41 72 65 73 66 74 74 75 67 76 69 77
REMARK SMILES IDX 75 78 68 79 70 80 71 81 72 82 73 83 50 84 51 85 59 86 52 87
REMARK SMILES IDX 54 88 60 89 53 90 55 91 56 92 57 93 58 94
REMARK H PARENT 16 6 9 14 21 28 80 47 48 58
REMARK Flexibility Score: inf
ROOT
ATOM      1  C   UNL A   1      34.543  20.547  25.148  1.00  0.00     0.023 C 
ENDROOT
BRANCH   1   2
ATOM      2  C   UNL A   1      33.055  20.904  25.098  1.00  0.00     0.116 C 
BRANCH   2   3
ATOM      3  N   UNL A   1      32.608  21.413  26.381  1.00  0.00    -0.352 N 
ATOM      4  C   UNL A   1      32.282  22.676  26.804  1.00  0.00     0.251 C 
ATOM      5  O   UNL A   1      31.884  22.814  27.961  1.00  0.00    -0.269 OA
ATOM      6  H   UNL A   1      32.522  20.723  27.077  1.00  0.00     0.163 HD
BRANCH   4   7
ATOM      7  C   UNL A   1      32.326  23.873  25.917  1.00  0.00     0.039 A 
ATOM      8  C   UNL A   1      32.562  26.234  24.386  1.00  0.00     0.038 A 
ATOM      9  C   UNL A   1      33.672  25.714  25.053  1.00  0.00     0.027 A 
ATOM     10  C   UNL A   1      31.356  25.529  24.437  1.00  0.00     0.027 A 
ATOM     11  C   UNL A   1      33.552  24.551  25.822  1.00  0.00     0.016 A 
ATOM     12  C   UNL A   1      31.249  24.340  25.163  1.00  0.00     0.016 A 
BRANCH   8  13
ATOM     13  N   UNL A   1      32.641  27.470  23.735  1.00  0.00    -0.353 N 
ATOM     14  H   UNL A   1      33.473  27.646  23.241  1.00  0.00     0.167 HD
BRANCH  13  15
ATOM     15  C   UNL A   1      31.672  28.492  23.702  1.00  0.00     0.078 A 
ATOM     16  C   UNL A   1      30.630  30.491  24.643  1.00  0.00     0.121 A 
ATOM     17  C   UNL A   1      29.667  30.477  23.633  1.00  0.00     0.049 A 
ATOM     18  C   UNL A   1      31.621  29.503  24.671  1.00  0.00     0.075 A 
ATOM     19  C   UNL A   1      29.694  29.470  22.667  1.00  0.00     0.045 A 
ATOM     20  C   UNL A   1      30.686  28.492  22.710  1.00  0.00     0.146 A 
ATOM     21  F   UNL A   1      30.692  27.537  21.766  1.00  0.00    -0.205 F 
BRANCH  16  22
ATOM     22  O   UNL A   1      30.735  31.444  25.618  1.00  0.00    -0.497 OA
ATOM     23  C   UNL A   1      31.739  31.218  26.599  1.00  0.00     0.278 C 
ENDBRANCH  16  22
ENDBRANCH  13  15
ENDBRANCH   8  13
ENDBRANCH   4   7
ENDBRANCH   2   3
ENDBRANCH   1   2
BRANCH   1  24
ATOM     24  C   UNL A   1      35.461  21.587  24.500  1.00  0.00     0.023 C 
BRANCH  24  25
ATOM     25  C   UNL A   1      36.671  21.990  25.337  1.00  0.00     0.116 C 
BRANCH  25  26
ATOM     26  N   UNL A   1      37.643  20.917  25.491  1.00  0.00    -0.352 N 
ATOM     27  C   UNL A   1      38.936  20.994  25.955  1.00  0.00     0.251 C 
ATOM     28  H   UNL A   1      37.335  20.019  25.228  1.00  0.00     0.163 HD
ATOM     29  O   UNL A   1      39.662  20.011  25.923  1.00  0.00    -0.269 OA
BRANCH  27  30
ATOM     30  C   UNL A   1      39.447  22.289  26.456  1.00  0.00     0.039 A 
ATOM     31  C   UNL A   1      40.638  22.304  27.184  1.00  0.00     0.014 A 
ATOM     32  C   UNL A   1      38.771  23.479  26.178  1.00  0.00     0.014 A 
ATOM     33  C   UNL A   1      41.189  23.525  27.578  1.00  0.00     0.010 A 
ATOM     34  C   UNL A   1      39.354  24.697  26.515  1.00  0.00     0.010 A 
ATOM     35  C   UNL A   1      40.568  24.732  27.216  1.00  0.00    -0.014 A 
BRANCH  35  36
ATOM     36  C   UNL A   1      41.187  26.043  27.536  1.00  0.00     0.031 A 
ATOM     37  C   UNL A   1      42.597  26.341  27.110  1.00  0.00     0.074 A 
ATOM     38  C   UNL A   1      40.507  26.928  28.294  1.00  0.00     0.049 A 
ATOM     39  N   UNL A   1      43.322  27.402  27.353  1.00  0.00    -0.248 NA
ATOM     40  C   UNL A   1      43.294  25.304  26.332  1.00  0.00     0.031 C 
ATOM     41  C   UNL A   1      39.162  26.718  28.834  1.00  0.00     0.029 A 
ATOM     42  N   UNL A   1      40.863  28.168  28.760  1.00  0.00    -0.354 N 
ATOM     43  C   UNL A   1      44.565  27.149  26.790  1.00  0.00     0.074 A 
ATOM     44  C   UNL A   1      44.509  25.821  26.218  1.00  0.00     0.031 C 
ATOM     45  C   UNL A   1      38.805  27.795  29.551  1.00  0.00     0.029 A 
ATOM     46  C   UNL A   1      39.900  28.760  29.545  1.00  0.00     0.049 A 
ATOM     47  H   UNL A   1      41.725  28.595  28.553  1.00  0.00     0.167 HD
ATOM     48  C   UNL A   1      45.646  27.962  26.724  1.00  0.00     0.034 A 
ATOM     49  C   UNL A   1      39.898  29.944  30.188  1.00  0.00     0.034 A 
ATOM     50  C   UNL A   1      45.678  29.301  27.244  1.00  0.00     0.049 A 
ATOM     51  C   UNL A   1      41.092  30.850  30.057  1.00  0.00     0.074 A 
ATOM     52  C   UNL A   1      46.694  30.235  27.146  1.00  0.00     0.029 A 
ATOM     53  N   UNL A   1      44.651  29.900  27.957  1.00  0.00    -0.354 N 
ATOM     54  N   UNL A   1      42.203  30.654  29.388  1.00  0.00    -0.248 NA
ATOM     55  C   UNL A   1      41.023  32.152  30.736  1.00  0.00     0.031 C 
ATOM     56  C   UNL A   1      46.287  31.394  27.812  1.00  0.00     0.029 A 
ATOM     57  C   UNL A   1      45.009  31.189  28.310  1.00  0.00     0.049 A 
ATOM     58  H   UNL A   1      43.793  29.471  28.180  1.00  0.00     0.167 HD
ATOM     59  C   UNL A   1      42.951  31.816  29.541  1.00  0.00     0.074 A 
ATOM     60  C   UNL A   1      42.159  32.719  30.349  1.00  0.00     0.031 C 
ATOM     61  C   UNL A   1      44.189  32.100  29.067  1.00  0.00     0.034 A 
BRANCH  48  62
ATOM     62  C   UNL A   1      46.865  27.458  25.999  1.00  0.00     0.023 A 
ATOM     63  C   UNL A   1      47.739  26.569  26.658  1.00  0.00     0.012 A 
ATOM     64  C   UNL A   1      47.098  27.784  24.648  1.00  0.00     0.148 A 
ATOM     65  C   UNL A   1      48.839  26.031  25.993  1.00  0.00     0.002 A 
ATOM     66  C   UNL A   1      48.172  27.209  23.979  1.00  0.00     0.091 A 
ATOM     67  F   UNL A   1      46.267  28.646  24.047  1.00  0.00    -0.205 F 
ATOM     68  C   UNL A   1      49.048  26.340  24.652  1.00  0.00     0.022 A 
BRANCH  66  69
ATOM     69  S   UNL A   1      48.484  27.479  22.230  1.00  0.00     0.127 S 
ATOM     70  O   UNL A   1      49.696  28.296  22.271  1.00  0.00    -0.237 OA
ATOM     71  O   UNL A   1      48.684  26.115  21.739  1.00  0.00    -0.237 OA
ATOM     72  O   UNL A   1      47.298  28.145  21.709  1.00  0.00    -0.744 OA
ENDBRANCH  66  69
ENDBRANCH  48  62
BRANCH  49  73
ATOM     73  C   UNL A   1      38.682  30.372  30.936  1.00  0.00     0.023 A 
ATOM     74  C   UNL A   1      38.608  30.130  32.320  1.00  0.00     0.012 A 
ATOM     75  C   UNL A   1      37.637  31.075  30.305  1.00  0.00     0.148 A 
ATOM     76  C   UNL A   1      37.509  30.563  33.062  1.00  0.00     0.002 A 
ATOM     77  C   UNL A   1      36.571  31.552  31.059  1.00  0.00     0.091 A 
ATOM     78  F   UNL A   1      37.720  31.285  28.983  1.00  0.00    -0.205 F 
ATOM     79  C   UNL A   1      36.498  31.284  32.434  1.00  0.00     0.022 A 
BRANCH  77  80
ATOM     80  S   UNL A   1      35.295  32.609  30.365  1.00  0.00     0.127 S 
ATOM     81  O   UNL A   1      36.061  33.791  29.980  1.00  0.00    -0.237 OA
ATOM     82  O   UNL A   1      34.807  31.799  29.247  1.00  0.00    -0.237 OA
ATOM     83  O   UNL A   1      34.323  32.804  31.432  1.00  0.00    -0.744 OA
ENDBRANCH  77  80
ENDBRANCH  49  73
BRANCH  61  84
ATOM     84  C   UNL A   1      44.778  33.448  29.383  1.00  0.00     0.023 A 
ATOM     85  C   UNL A   1      45.491  33.629  30.584  1.00  0.00     0.012 A 
ATOM     86  C   UNL A   1      44.737  34.492  28.438  1.00  0.00     0.148 A 
ATOM     87  C   UNL A   1      46.142  34.833  30.847  1.00  0.00     0.002 A 
ATOM     88  C   UNL A   1      45.426  35.673  28.687  1.00  0.00     0.091 A 
ATOM     89  F   UNL A   1      44.038  34.306  27.309  1.00  0.00    -0.205 F 
ATOM     90  C   UNL A   1      46.122  35.848  29.893  1.00  0.00     0.022 A 
BRANCH  88  91
ATOM     91  S   UNL A   1      45.543  36.995  27.474  1.00  0.00     0.127 S 
ATOM     92  O   UNL A   1      46.501  37.898  28.109  1.00  0.00    -0.237 OA
ATOM     93  O   UNL A   1      46.055  36.293  26.296  1.00  0.00    -0.237 OA
ATOM     94  O   UNL A   1      44.193  37.523  27.324  1.00  0.00    -0.744 OA
ENDBRANCH  88  91
ENDBRANCH  61  84
ENDBRANCH  35  36
ENDBRANCH  27  30
ENDBRANCH  25  26
ENDBRANCH  24  25
ENDBRANCH   1  24
TORSDOF 17
ENDMDL
