MODEL 1
REMARK VINA RESULT:     -11.4      0.000      0.000
REMARK SMILES C[C@@H]1CN([C@@H](CCS(C)(=O)=O)C(=O)NCCCCNC(=O)c2ccc(-c3c4nc(c(-c5cccc(S(=O)(=O)[O-])c5F)c5ccc([nH]5)c(-c5cccc(S(=O)(=O)[O-])c5F)c5nc(c(-c6cccc(S(=O)(=O)[O-])c6F)c6ccc3[nH]6)C=C5)C=C4)cc2)S(=O)(=O)C1
REMARK SMILES IDX 16 1 15 2 14 3 12 4 13 5 5 7 4 8 1 9 2 10 3 11 88 12 85 13
REMARK SMILES IDX 86 14 87 15 6 16 7 17 8 18 9 19 10 20 11 21 17 22 18 23
REMARK SMILES IDX 19 24 20 25 21 27 22 28 23 29 84 30 24 31 83 32 25 33 26 34
REMARK SMILES IDX 27 35 77 36 28 37 82 38 76 39 78 40 29 41 81 42 75 43 74 44
REMARK SMILES IDX 30 46 62 47 42 48 61 49 43 50 46 51 60 52 79 53 44 54 45 55
REMARK SMILES IDX 59 57 80 58 47 59 31 60 32 61 40 62 33 63 35 64 41 65 34 66
REMARK SMILES IDX 36 67 37 68 38 69 39 70 63 71 64 72 72 73 65 74 67 75 73 76
REMARK SMILES IDX 66 77 68 78 69 79 70 80 71 81 48 82 49 83 57 84 50 85 52 86
REMARK SMILES IDX 58 87 51 88 53 89 54 90 55 91 56 92
REMARK H PARENT 14 6 19 26 78 45 46 56
REMARK Flexibility Score: inf
ROOT
ATOM      1  C   UNL A   1      31.366  27.711  25.183  1.00  0.00     0.023 C 
ENDROOT
BRANCH   1   2
ATOM      2  C   UNL A   1      31.829  26.261  25.094  1.00  0.00     0.116 C 
BRANCH   2   3
ATOM      3  N   UNL A   1      31.005  25.358  25.857  1.00  0.00    -0.355 N 
ATOM      4  C   UNL A   1      31.260  24.135  26.370  1.00  0.00     0.238 C 
ATOM      5  O   UNL A   1      30.472  23.729  27.239  1.00  0.00    -0.273 OA
ATOM      6  H   UNL A   1      30.097  25.692  26.037  1.00  0.00     0.163 HD
BRANCH   4   7
ATOM      7  C   UNL A   1      32.462  23.262  26.018  1.00  0.00     0.163 C 
BRANCH   7   8
ATOM      8  N   UNL A   1      32.650  22.463  24.769  1.00  0.00    -0.189 NA
ATOM      9  C   UNL A   1      32.389  18.989  23.297  1.00  0.00     0.010 C 
ATOM     10  C   UNL A   1      32.730  20.450  23.509  1.00  0.00     0.017 C 
ATOM     11  C   UNL A   1      32.367  21.004  24.895  1.00  0.00     0.107 C 
ATOM     12  C   UNL A   1      31.991  21.346  22.524  1.00  0.00     0.159 C 
ATOM     13  S   UNL A   1      32.046  22.965  23.259  1.00  0.00     0.215 S 
ATOM     14  O   UNL A   1      30.679  23.404  23.418  1.00  0.00    -0.212 OA
ATOM     15  O   UNL A   1      33.080  23.721  22.600  1.00  0.00    -0.212 OA
ENDBRANCH   7   8
BRANCH   7  16
ATOM     16  C   UNL A   1      33.820  23.850  26.497  1.00  0.00     0.046 C 
BRANCH  16  17
ATOM     17  C   UNL A   1      34.889  24.159  25.454  1.00  0.00     0.139 C 
BRANCH  17  18
ATOM     18  S   UNL A   1      36.299  23.047  25.459  1.00  0.00     0.147 S 
ATOM     19  C   UNL A   1      36.755  22.850  23.759  1.00  0.00     0.158 C 
ATOM     20  O   UNL A   1      37.387  23.739  26.120  1.00  0.00    -0.229 OA
ATOM     21  O   UNL A   1      35.873  21.738  25.903  1.00  0.00    -0.229 OA
ENDBRANCH  17  18
ENDBRANCH  16  17
ENDBRANCH   7  16
ENDBRANCH   4   7
ENDBRANCH   2   3
ENDBRANCH   1   2
BRANCH   1  22
ATOM     22  C   UNL A   1      32.050  28.465  26.312  1.00  0.00     0.023 C 
BRANCH  22  23
ATOM     23  C   UNL A   1      32.926  29.625  25.859  1.00  0.00     0.116 C 
BRANCH  23  24
ATOM     24  N   UNL A   1      32.549  30.920  26.415  1.00  0.00    -0.352 N 
ATOM     25  C   UNL A   1      33.293  31.698  27.274  1.00  0.00     0.251 C 
ATOM     26  H   UNL A   1      31.670  31.273  26.148  1.00  0.00     0.163 HD
ATOM     27  O   UNL A   1      32.861  32.747  27.737  1.00  0.00    -0.269 OA
BRANCH  25  28
ATOM     28  C   UNL A   1      34.623  31.189  27.670  1.00  0.00     0.039 A 
ATOM     29  C   UNL A   1      35.662  32.100  27.851  1.00  0.00     0.014 A 
ATOM     30  C   UNL A   1      34.768  29.849  28.039  1.00  0.00     0.014 A 
ATOM     31  C   UNL A   1      36.835  31.676  28.476  1.00  0.00     0.010 A 
ATOM     32  C   UNL A   1      35.887  29.466  28.767  1.00  0.00     0.010 A 
ATOM     33  C   UNL A   1      36.940  30.368  28.982  1.00  0.00    -0.014 A 
BRANCH  33  34
ATOM     34  C   UNL A   1      38.150  29.929  29.724  1.00  0.00     0.031 A 
ATOM     35  C   UNL A   1      38.386  30.420  31.129  1.00  0.00     0.074 A 
ATOM     36  C   UNL A   1      39.064  29.138  29.125  1.00  0.00     0.049 A 
ATOM     37  N   UNL A   1      39.375  30.150  31.941  1.00  0.00    -0.248 NA
ATOM     38  C   UNL A   1      37.398  31.361  31.686  1.00  0.00     0.031 C 
ATOM     39  C   UNL A   1      39.002  28.668  27.738  1.00  0.00     0.029 A 
ATOM     40  N   UNL A   1      40.233  28.599  29.602  1.00  0.00    -0.354 N 
ATOM     41  C   UNL A   1      39.146  30.910  33.081  1.00  0.00     0.074 A 
ATOM     42  C   UNL A   1      37.957  31.692  32.839  1.00  0.00     0.031 C 
ATOM     43  C   UNL A   1      40.070  27.892  27.487  1.00  0.00     0.029 A 
ATOM     44  C   UNL A   1      40.911  27.836  28.679  1.00  0.00     0.049 A 
ATOM     45  H   UNL A   1      40.557  28.745  30.521  1.00  0.00     0.167 HD
ATOM     46  C   UNL A   1      39.840  30.930  34.243  1.00  0.00     0.034 A 
ATOM     47  C   UNL A   1      42.078  27.169  28.779  1.00  0.00     0.034 A 
ATOM     48  C   UNL A   1      41.002  30.124  34.496  1.00  0.00     0.049 A 
ATOM     49  C   UNL A   1      42.812  27.178  30.094  1.00  0.00     0.074 A 
ATOM     50  C   UNL A   1      41.725  30.005  35.669  1.00  0.00     0.029 A 
ATOM     51  N   UNL A   1      41.618  29.310  33.559  1.00  0.00    -0.354 N 
ATOM     52  N   UNL A   1      42.489  27.775  31.216  1.00  0.00    -0.248 NA
ATOM     53  C   UNL A   1      44.051  26.392  30.169  1.00  0.00     0.031 C 
ATOM     54  C   UNL A   1      42.804  29.148  35.428  1.00  0.00     0.029 A 
ATOM     55  C   UNL A   1      42.723  28.696  34.121  1.00  0.00     0.049 A 
ATOM     56  H   UNL A   1      41.313  29.186  32.630  1.00  0.00     0.167 HD
ATOM     57  C   UNL A   1      43.462  27.405  32.139  1.00  0.00     0.074 A 
ATOM     58  C   UNL A   1      44.372  26.515  31.449  1.00  0.00     0.031 C 
ATOM     59  C   UNL A   1      43.594  27.776  33.437  1.00  0.00     0.034 A 
BRANCH  46  60
ATOM     60  C   UNL A   1      39.332  31.826  35.344  1.00  0.00     0.023 A 
ATOM     61  C   UNL A   1      38.409  31.324  36.286  1.00  0.00     0.012 A 
ATOM     62  C   UNL A   1      39.800  33.147  35.473  1.00  0.00     0.148 A 
ATOM     63  C   UNL A   1      37.928  32.136  37.311  1.00  0.00     0.002 A 
ATOM     64  C   UNL A   1      39.357  33.933  36.530  1.00  0.00     0.091 A 
ATOM     65  F   UNL A   1      40.661  33.613  34.557  1.00  0.00    -0.205 F 
ATOM     66  C   UNL A   1      38.412  33.435  37.441  1.00  0.00     0.022 A 
BRANCH  64  67
ATOM     67  S   UNL A   1      39.982  35.589  36.836  1.00  0.00     0.127 S 
ATOM     68  O   UNL A   1      39.351  35.911  38.115  1.00  0.00    -0.237 OA
ATOM     69  O   UNL A   1      41.426  35.362  36.906  1.00  0.00    -0.237 OA
ATOM     70  O   UNL A   1      39.548  36.399  35.707  1.00  0.00    -0.744 OA
ENDBRANCH  64  67
ENDBRANCH  46  60
BRANCH  47  71
ATOM     71  C   UNL A   1      42.598  26.385  27.622  1.00  0.00     0.023 A 
ATOM     72  C   UNL A   1      43.504  26.985  26.723  1.00  0.00     0.012 A 
ATOM     73  C   UNL A   1      42.209  25.049  27.411  1.00  0.00     0.148 A 
ATOM     74  C   UNL A   1      43.979  26.282  25.615  1.00  0.00     0.002 A 
ATOM     75  C   UNL A   1      42.730  24.336  26.337  1.00  0.00     0.091 A 
ATOM     76  F   UNL A   1      41.342  24.497  28.271  1.00  0.00    -0.205 F 
ATOM     77  C   UNL A   1      43.600  24.956  25.427  1.00  0.00     0.022 A 
BRANCH  75  78
ATOM     78  S   UNL A   1      42.396  22.589  26.083  1.00  0.00     0.127 S 
ATOM     79  O   UNL A   1      43.052  22.343  24.802  1.00  0.00    -0.237 OA
ATOM     80  O   UNL A   1      43.059  21.987  27.241  1.00  0.00    -0.237 OA
ATOM     81  O   UNL A   1      40.946  22.460  26.085  1.00  0.00    -0.744 OA
ENDBRANCH  75  78
ENDBRANCH  47  71
BRANCH  59  82
ATOM     82  C   UNL A   1      44.737  27.184  34.221  1.00  0.00     0.023 A 
ATOM     83  C   UNL A   1      45.989  27.832  34.247  1.00  0.00     0.012 A 
ATOM     84  C   UNL A   1      44.546  26.019  34.989  1.00  0.00     0.148 A 
ATOM     85  C   UNL A   1      47.043  27.304  34.992  1.00  0.00     0.002 A 
ATOM     86  C   UNL A   1      45.582  25.532  35.773  1.00  0.00     0.091 A 
ATOM     87  F   UNL A   1      43.351  25.409  34.940  1.00  0.00    -0.205 F 
ATOM     88  C   UNL A   1      46.836  26.163  35.764  1.00  0.00     0.022 A 
BRANCH  86  89
ATOM     89  S   UNL A   1      45.378  24.130  36.878  1.00  0.00     0.127 S 
ATOM     90  O   UNL A   1      46.724  23.988  37.430  1.00  0.00    -0.237 OA
ATOM     91  O   UNL A   1      44.380  24.626  37.825  1.00  0.00    -0.237 OA
ATOM     92  O   UNL A   1      44.926  23.023  36.046  1.00  0.00    -0.744 OA
ENDBRANCH  86  89
ENDBRANCH  59  82
ENDBRANCH  33  34
ENDBRANCH  25  28
ENDBRANCH  23  24
ENDBRANCH  22  23
ENDBRANCH   1  22
TORSDOF 18
ENDMDL
MODEL 2
REMARK VINA RESULT:     -11.3      2.382      3.465
REMARK SMILES C[C@@H]1CN([C@@H](CCS(C)(=O)=O)C(=O)NCCCCNC(=O)c2ccc(-c3c4nc(c(-c5cccc(S(=O)(=O)[O-])c5F)c5ccc([nH]5)c(-c5cccc(S(=O)(=O)[O-])c5F)c5nc(c(-c6cccc(S(=O)(=O)[O-])c6F)c6ccc3[nH]6)C=C5)C=C4)cc2)S(=O)(=O)C1
REMARK SMILES IDX 16 1 15 2 14 3 12 4 13 5 5 7 4 8 1 9 2 10 3 11 88 12 85 13
REMARK SMILES IDX 86 14 87 15 6 16 7 17 8 18 9 19 10 20 11 21 17 22 18 23
REMARK SMILES IDX 19 24 20 25 21 27 22 28 23 29 84 30 24 31 83 32 25 33 26 34
REMARK SMILES IDX 27 35 77 36 28 37 82 38 76 39 78 40 29 41 81 42 75 43 74 44
REMARK SMILES IDX 30 46 62 47 42 48 61 49 43 50 46 51 60 52 79 53 44 54 45 55
REMARK SMILES IDX 59 57 80 58 47 59 31 60 32 61 40 62 33 63 35 64 41 65 34 66
REMARK SMILES IDX 36 67 37 68 38 69 39 70 63 71 64 72 72 73 65 74 67 75 73 76
REMARK SMILES IDX 66 77 68 78 69 79 70 80 71 81 48 82 49 83 57 84 50 85 52 86
REMARK SMILES IDX 58 87 51 88 53 89 54 90 55 91 56 92
REMARK H PARENT 14 6 19 26 78 45 46 56
REMARK Flexibility Score: inf
ROOT
ATOM      1  C   UNL A   1      33.223  29.329  24.690  1.00  0.00     0.023 C 
ENDROOT
BRANCH   1   2
ATOM      2  C   UNL A   1      33.542  28.764  23.310  1.00  0.00     0.116 C 
BRANCH   2   3
ATOM      3  N   UNL A   1      32.363  28.420  22.554  1.00  0.00    -0.355 N 
ATOM      4  C   UNL A   1      31.544  27.349  22.619  1.00  0.00     0.238 C 
ATOM      5  O   UNL A   1      30.441  27.468  22.063  1.00  0.00    -0.273 OA
ATOM      6  H   UNL A   1      32.111  29.083  21.873  1.00  0.00     0.163 HD
BRANCH   4   7
ATOM      7  C   UNL A   1      31.840  26.053  23.370  1.00  0.00     0.163 C 
BRANCH   7   8
ATOM      8  N   UNL A   1      33.061  25.201  23.234  1.00  0.00    -0.189 NA
ATOM      9  C   UNL A   1      35.942  23.666  25.143  1.00  0.00     0.010 C 
ATOM     10  C   UNL A   1      35.048  24.170  24.027  1.00  0.00     0.017 C 
ATOM     11  C   UNL A   1      33.832  24.984  24.492  1.00  0.00     0.107 C 
ATOM     12  C   UNL A   1      34.464  23.021  23.216  1.00  0.00     0.159 C 
ATOM     13  S   UNL A   1      33.060  23.728  22.381  1.00  0.00     0.215 S 
ATOM     14  O   UNL A   1      31.904  22.955  22.772  1.00  0.00    -0.212 OA
ATOM     15  O   UNL A   1      33.441  24.005  21.021  1.00  0.00    -0.212 OA
ENDBRANCH   7   8
BRANCH   7  16
ATOM     16  C   UNL A   1      31.343  26.061  24.844  1.00  0.00     0.046 C 
BRANCH  16  17
ATOM     17  C   UNL A   1      30.219  25.109  25.239  1.00  0.00     0.139 C 
BRANCH  17  18
ATOM     18  S   UNL A   1      30.603  24.001  26.598  1.00  0.00     0.147 S 
ATOM     19  C   UNL A   1      31.109  22.480  25.843  1.00  0.00     0.158 C 
ATOM     20  O   UNL A   1      31.757  24.548  27.282  1.00  0.00    -0.229 OA
ATOM     21  O   UNL A   1      29.389  23.692  27.321  1.00  0.00    -0.229 OA
ENDBRANCH  17  18
ENDBRANCH  16  17
ENDBRANCH   7  16
ENDBRANCH   4   7
ENDBRANCH   2   3
ENDBRANCH   1   2
BRANCH   1  22
ATOM     22  C   UNL A   1      33.949  28.584  25.799  1.00  0.00     0.023 C 
BRANCH  22  23
ATOM     23  C   UNL A   1      33.462  28.910  27.204  1.00  0.00     0.116 C 
BRANCH  23  24
ATOM     24  N   UNL A   1      33.524  30.325  27.552  1.00  0.00    -0.352 N 
ATOM     25  C   UNL A   1      34.600  30.997  28.089  1.00  0.00     0.251 C 
ATOM     26  H   UNL A   1      32.711  30.854  27.386  1.00  0.00     0.163 HD
ATOM     27  O   UNL A   1      34.532  32.179  28.406  1.00  0.00    -0.269 OA
BRANCH  25  28
ATOM     28  C   UNL A   1      35.834  30.221  28.326  1.00  0.00     0.039 A 
ATOM     29  C   UNL A   1      36.912  30.395  27.460  1.00  0.00     0.014 A 
ATOM     30  C   UNL A   1      35.970  29.483  29.505  1.00  0.00     0.014 A 
ATOM     31  C   UNL A   1      38.160  29.883  27.818  1.00  0.00     0.010 A 
ATOM     32  C   UNL A   1      37.237  29.083  29.910  1.00  0.00     0.010 A 
ATOM     33  C   UNL A   1      38.344  29.264  29.067  1.00  0.00    -0.014 A 
BRANCH  33  34
ATOM     34  C   UNL A   1      39.686  28.790  29.495  1.00  0.00     0.031 A 
ATOM     35  C   UNL A   1      40.413  29.504  30.604  1.00  0.00     0.074 A 
ATOM     36  C   UNL A   1      40.276  27.757  28.858  1.00  0.00     0.049 A 
ATOM     37  N   UNL A   1      41.586  29.243  31.122  1.00  0.00    -0.248 NA
ATOM     38  C   UNL A   1      39.754  30.685  31.189  1.00  0.00     0.031 C 
ATOM     39  C   UNL A   1      39.719  27.037  27.709  1.00  0.00     0.029 A 
ATOM     40  N   UNL A   1      41.482  27.140  29.078  1.00  0.00    -0.354 N 
ATOM     41  C   UNL A   1      41.814  30.241  32.061  1.00  0.00     0.074 A 
ATOM     42  C   UNL A   1      40.688  31.143  32.007  1.00  0.00     0.031 C 
ATOM     43  C   UNL A   1      40.569  26.064  27.344  1.00  0.00     0.029 A 
ATOM     44  C   UNL A   1      41.746  26.109  28.206  1.00  0.00     0.049 A 
ATOM     45  H   UNL A   1      42.102  27.410  29.794  1.00  0.00     0.167 HD
ATOM     46  C   UNL A   1      42.850  30.378  32.921  1.00  0.00     0.034 A 
ATOM     47  C   UNL A   1      42.815  25.294  28.109  1.00  0.00     0.034 A 
ATOM     48  C   UNL A   1      43.952  29.459  33.001  1.00  0.00     0.049 A 
ATOM     49  C   UNL A   1      43.939  25.444  29.101  1.00  0.00     0.074 A 
ATOM     50  C   UNL A   1      45.006  29.459  33.896  1.00  0.00     0.029 A 
ATOM     51  N   UNL A   1      44.149  28.386  32.146  1.00  0.00    -0.354 N 
ATOM     52  N   UNL A   1      44.058  26.297  30.091  1.00  0.00    -0.248 NA
ATOM     53  C   UNL A   1      45.057  24.497  28.988  1.00  0.00     0.031 C 
ATOM     54  C   UNL A   1      45.863  28.408  33.556  1.00  0.00     0.029 A 
ATOM     55  C   UNL A   1      45.316  27.724  32.482  1.00  0.00     0.049 A 
ATOM     56  H   UNL A   1      43.546  28.132  31.410  1.00  0.00     0.167 HD
ATOM     57  C   UNL A   1      45.242  25.963  30.740  1.00  0.00     0.074 A 
ATOM     58  C   UNL A   1      45.790  24.818  30.045  1.00  0.00     0.031 C 
ATOM     59  C   UNL A   1      45.827  26.557  31.810  1.00  0.00     0.034 A 
BRANCH  46  60
ATOM     60  C   UNL A   1      42.815  31.545  33.875  1.00  0.00     0.023 A 
ATOM     61  C   UNL A   1      43.347  32.790  33.479  1.00  0.00     0.012 A 
ATOM     62  C   UNL A   1      42.217  31.422  35.144  1.00  0.00     0.148 A 
ATOM     63  C   UNL A   1      43.322  33.881  34.346  1.00  0.00     0.002 A 
ATOM     64  C   UNL A   1      42.148  32.528  35.981  1.00  0.00     0.091 A 
ATOM     65  F   UNL A   1      41.736  30.225  35.511  1.00  0.00    -0.205 F 
ATOM     66  C   UNL A   1      42.712  33.753  35.591  1.00  0.00     0.022 A 
BRANCH  64  67
ATOM     67  S   UNL A   1      41.308  32.492  37.569  1.00  0.00     0.127 S 
ATOM     68  O   UNL A   1      39.974  32.034  37.185  1.00  0.00    -0.237 OA
ATOM     69  O   UNL A   1      42.101  31.512  38.311  1.00  0.00    -0.237 OA
ATOM     70  O   UNL A   1      41.374  33.849  38.091  1.00  0.00    -0.744 OA
ENDBRANCH  64  67
ENDBRANCH  46  60
BRANCH  47  71
ATOM     71  C   UNL A   1      42.854  24.222  27.073  1.00  0.00     0.023 A 
ATOM     72  C   UNL A   1      43.543  24.444  25.864  1.00  0.00     0.012 A 
ATOM     73  C   UNL A   1      42.218  22.983  27.280  1.00  0.00     0.148 A 
ATOM     74  C   UNL A   1      43.565  23.469  24.865  1.00  0.00     0.002 A 
ATOM     75  C   UNL A   1      42.292  21.994  26.306  1.00  0.00     0.091 A 
ATOM     76  F   UNL A   1      41.561  22.792  28.433  1.00  0.00    -0.205 F 
ATOM     77  C   UNL A   1      42.948  22.242  25.090  1.00  0.00     0.022 A 
BRANCH  75  78
ATOM     78  S   UNL A   1      41.633  20.342  26.554  1.00  0.00     0.127 S 
ATOM     79  O   UNL A   1      40.193  20.585  26.517  1.00  0.00    -0.237 OA
ATOM     80  O   UNL A   1      42.168  19.629  25.394  1.00  0.00    -0.237 OA
ATOM     81  O   UNL A   1      42.164  19.893  27.834  1.00  0.00    -0.744 OA
ENDBRANCH  75  78
ENDBRANCH  47  71
BRANCH  59  82
ATOM     82  C   UNL A   1      47.105  25.954  32.334  1.00  0.00     0.023 A 
ATOM     83  C   UNL A   1      48.351  26.405  31.853  1.00  0.00     0.012 A 
ATOM     84  C   UNL A   1      47.069  24.986  33.357  1.00  0.00     0.148 A 
ATOM     85  C   UNL A   1      49.538  25.872  32.352  1.00  0.00     0.002 A 
ATOM     86  C   UNL A   1      48.255  24.501  33.890  1.00  0.00     0.091 A 
ATOM     87  F   UNL A   1      45.873  24.560  33.792  1.00  0.00    -0.205 F 
ATOM     88  C   UNL A   1      49.490  24.930  33.378  1.00  0.00     0.022 A 
BRANCH  86  89
ATOM     89  S   UNL A   1      48.293  23.365  35.281  1.00  0.00     0.127 S 
ATOM     90  O   UNL A   1      47.554  24.113  36.296  1.00  0.00    -0.237 OA
ATOM     91  O   UNL A   1      47.588  22.200  34.747  1.00  0.00    -0.237 OA
ATOM     92  O   UNL A   1      49.701  23.137  35.577  1.00  0.00    -0.744 OA
ENDBRANCH  86  89
ENDBRANCH  59  82
ENDBRANCH  33  34
ENDBRANCH  25  28
ENDBRANCH  23  24
ENDBRANCH  22  23
ENDBRANCH   1  22
TORSDOF 18
ENDMDL
MODEL 3
REMARK VINA RESULT:     -11.2      1.584      2.351
REMARK SMILES C[C@@H]1CN([C@@H](CCS(C)(=O)=O)C(=O)NCCCCNC(=O)c2ccc(-c3c4nc(c(-c5cccc(S(=O)(=O)[O-])c5F)c5ccc([nH]5)c(-c5cccc(S(=O)(=O)[O-])c5F)c5nc(c(-c6cccc(S(=O)(=O)[O-])c6F)c6ccc3[nH]6)C=C5)C=C4)cc2)S(=O)(=O)C1
REMARK SMILES IDX 16 1 15 2 14 3 12 4 13 5 5 7 4 8 1 9 2 10 3 11 88 12 85 13
REMARK SMILES IDX 86 14 87 15 6 16 7 17 8 18 9 19 10 20 11 21 17 22 18 23
REMARK SMILES IDX 19 24 20 25 21 27 22 28 23 29 84 30 24 31 83 32 25 33 26 34
REMARK SMILES IDX 27 35 77 36 28 37 82 38 76 39 78 40 29 41 81 42 75 43 74 44
REMARK SMILES IDX 30 46 62 47 42 48 61 49 43 50 46 51 60 52 79 53 44 54 45 55
REMARK SMILES IDX 59 57 80 58 47 59 31 60 32 61 40 62 33 63 35 64 41 65 34 66
REMARK SMILES IDX 36 67 37 68 38 69 39 70 63 71 64 72 72 73 65 74 67 75 73 76
REMARK SMILES IDX 66 77 68 78 69 79 70 80 71 81 48 82 49 83 57 84 50 85 52 86
REMARK SMILES IDX 58 87 51 88 53 89 54 90 55 91 56 92
REMARK H PARENT 14 6 19 26 78 45 46 56
REMARK Flexibility Score: inf
ROOT
ATOM      1  C   UNL A   1      31.969  28.183  27.525  1.00  0.00     0.023 C 
ENDROOT
BRANCH   1   2
ATOM      2  C   UNL A   1      32.216  26.868  26.792  1.00  0.00     0.116 C 
BRANCH   2   3
ATOM      3  N   UNL A   1      31.069  25.996  26.797  1.00  0.00    -0.355 N 
ATOM      4  C   UNL A   1      30.887  24.759  26.286  1.00  0.00     0.238 C 
ATOM      5  O   UNL A   1      29.902  24.131  26.707  1.00  0.00    -0.273 OA
ATOM      6  H   UNL A   1      30.279  26.366  27.253  1.00  0.00     0.163 HD
BRANCH   4   7
ATOM      7  C   UNL A   1      31.823  24.062  25.302  1.00  0.00     0.163 C 
BRANCH   7   8
ATOM      8  N   UNL A   1      32.620  22.823  25.552  1.00  0.00    -0.189 NA
ATOM      9  C   UNL A   1      33.088  19.225  24.486  1.00  0.00     0.010 C 
ATOM     10  C   UNL A   1      33.150  20.526  25.261  1.00  0.00     0.017 C 
ATOM     11  C   UNL A   1      32.241  21.641  24.725  1.00  0.00     0.107 C 
ATOM     12  C   UNL A   1      34.551  21.121  25.246  1.00  0.00     0.159 C 
ATOM     13  S   UNL A   1      34.318  22.833  25.670  1.00  0.00     0.215 S 
ATOM     14  O   UNL A   1      34.863  23.615  24.584  1.00  0.00    -0.212 OA
ATOM     15  O   UNL A   1      34.663  23.002  27.057  1.00  0.00    -0.212 OA
ENDBRANCH   7   8
BRANCH   7  16
ATOM     16  C   UNL A   1      31.316  24.096  23.832  1.00  0.00     0.046 C 
BRANCH  16  17
ATOM     17  C   UNL A   1      32.336  24.274  22.712  1.00  0.00     0.139 C 
BRANCH  17  18
ATOM     18  S   UNL A   1      32.740  25.977  22.314  1.00  0.00     0.147 S 
ATOM     19  C   UNL A   1      31.189  26.828  22.233  1.00  0.00     0.158 C 
ATOM     20  O   UNL A   1      33.471  26.518  23.442  1.00  0.00    -0.229 OA
ATOM     21  O   UNL A   1      33.288  26.037  20.976  1.00  0.00    -0.229 OA
ENDBRANCH  17  18
ENDBRANCH  16  17
ENDBRANCH   7  16
ENDBRANCH   4   7
ENDBRANCH   2   3
ENDBRANCH   1   2
BRANCH   1  22
ATOM     22  C   UNL A   1      31.789  29.350  26.568  1.00  0.00     0.023 C 
BRANCH  22  23
ATOM     23  C   UNL A   1      33.007  30.254  26.437  1.00  0.00     0.116 C 
BRANCH  23  24
ATOM     24  N   UNL A   1      32.814  31.606  26.947  1.00  0.00    -0.352 N 
ATOM     25  C   UNL A   1      33.696  32.333  27.717  1.00  0.00     0.251 C 
ATOM     26  H   UNL A   1      31.964  32.046  26.717  1.00  0.00     0.163 HD
ATOM     27  O   UNL A   1      33.414  33.443  28.150  1.00  0.00    -0.269 OA
BRANCH  25  28
ATOM     28  C   UNL A   1      34.984  31.695  28.055  1.00  0.00     0.039 A 
ATOM     29  C   UNL A   1      36.126  32.490  28.135  1.00  0.00     0.014 A 
ATOM     30  C   UNL A   1      35.006  30.361  28.473  1.00  0.00     0.014 A 
ATOM     31  C   UNL A   1      37.283  31.962  28.708  1.00  0.00     0.010 A 
ATOM     32  C   UNL A   1      36.121  29.883  29.150  1.00  0.00     0.010 A 
ATOM     33  C   UNL A   1      37.277  30.670  29.263  1.00  0.00    -0.014 A 
BRANCH  33  34
ATOM     34  C   UNL A   1      38.477  30.127  29.951  1.00  0.00     0.031 A 
ATOM     35  C   UNL A   1      38.825  30.603  31.337  1.00  0.00     0.074 A 
ATOM     36  C   UNL A   1      39.285  29.251  29.317  1.00  0.00     0.049 A 
ATOM     37  N   UNL A   1      39.824  30.249  32.104  1.00  0.00    -0.248 NA
ATOM     38  C   UNL A   1      37.955  31.634  31.931  1.00  0.00     0.031 C 
ATOM     39  C   UNL A   1      39.113  28.780  27.941  1.00  0.00     0.029 A 
ATOM     40  N   UNL A   1      40.422  28.611  29.744  1.00  0.00    -0.354 N 
ATOM     41  C   UNL A   1      39.721  31.034  33.245  1.00  0.00     0.074 A 
ATOM     42  C   UNL A   1      38.597  31.921  33.052  1.00  0.00     0.031 C 
ATOM     43  C   UNL A   1      40.092  27.908  27.647  1.00  0.00     0.029 A 
ATOM     44  C   UNL A   1      40.981  27.784  28.797  1.00  0.00     0.049 A 
ATOM     45  H   UNL A   1      40.803  28.733  30.644  1.00  0.00     0.167 HD
ATOM     46  C   UNL A   1      40.470  30.999  34.372  1.00  0.00     0.034 A 
ATOM     47  C   UNL A   1      42.086  27.013  28.848  1.00  0.00     0.034 A 
ATOM     48  C   UNL A   1      41.564  30.091  34.578  1.00  0.00     0.049 A 
ATOM     49  C   UNL A   1      42.882  26.964  30.127  1.00  0.00     0.074 A 
ATOM     50  C   UNL A   1      42.330  29.914  35.716  1.00  0.00     0.029 A 
ATOM     51  N   UNL A   1      42.057  29.218  33.621  1.00  0.00    -0.354 N 
ATOM     52  N   UNL A   1      42.670  27.595  31.257  1.00  0.00    -0.248 NA
ATOM     53  C   UNL A   1      44.047  26.068  30.150  1.00  0.00     0.031 C 
ATOM     54  C   UNL A   1      43.313  28.961  35.433  1.00  0.00     0.029 A 
ATOM     55  C   UNL A   1      43.128  28.509  34.136  1.00  0.00     0.049 A 
ATOM     56  H   UNL A   1      41.698  29.117  32.710  1.00  0.00     0.167 HD
ATOM     57  C   UNL A   1      43.648  27.143  32.135  1.00  0.00     0.074 A 
ATOM     58  C   UNL A   1      44.439  26.169  31.413  1.00  0.00     0.031 C 
ATOM     59  C   UNL A   1      43.877  27.509  33.421  1.00  0.00     0.034 A 
BRANCH  46  60
ATOM     60  C   UNL A   1      40.099  31.944  35.486  1.00  0.00     0.023 A 
ATOM     61  C   UNL A   1      40.774  33.176  35.614  1.00  0.00     0.012 A 
ATOM     62  C   UNL A   1      39.054  31.634  36.377  1.00  0.00     0.148 A 
ATOM     63  C   UNL A   1      40.445  34.064  36.636  1.00  0.00     0.002 A 
ATOM     64  C   UNL A   1      38.696  32.548  37.360  1.00  0.00     0.091 A 
ATOM     65  F   UNL A   1      38.438  30.450  36.253  1.00  0.00    -0.205 F 
ATOM     66  C   UNL A   1      39.398  33.756  37.501  1.00  0.00     0.022 A 
BRANCH  64  67
ATOM     67  S   UNL A   1      37.307  32.286  38.469  1.00  0.00     0.127 S 
ATOM     68  O   UNL A   1      37.809  32.867  39.713  1.00  0.00    -0.237 OA
ATOM     69  O   UNL A   1      36.247  33.057  37.819  1.00  0.00    -0.237 OA
ATOM     70  O   UNL A   1      37.082  30.848  38.500  1.00  0.00    -0.744 OA
ENDBRANCH  64  67
ENDBRANCH  46  60
BRANCH  47  71
ATOM     71  C   UNL A   1      42.477  26.177  27.676  1.00  0.00     0.023 A 
ATOM     72  C   UNL A   1      43.306  26.722  26.676  1.00  0.00     0.012 A 
ATOM     73  C   UNL A   1      42.038  24.845  27.551  1.00  0.00     0.148 A 
ATOM     74  C   UNL A   1      43.657  25.971  25.553  1.00  0.00     0.002 A 
ATOM     75  C   UNL A   1      42.438  24.083  26.460  1.00  0.00     0.091 A 
ATOM     76  F   UNL A   1      41.244  24.346  28.509  1.00  0.00    -0.205 F 
ATOM     77  C   UNL A   1      43.232  24.650  25.449  1.00  0.00     0.022 A 
BRANCH  75  78
ATOM     78  S   UNL A   1      42.042  22.339  26.301  1.00  0.00     0.127 S 
ATOM     79  O   UNL A   1      40.583  22.357  26.363  1.00  0.00    -0.237 OA
ATOM     80  O   UNL A   1      42.599  22.024  24.985  1.00  0.00    -0.237 OA
ATOM     81  O   UNL A   1      42.711  21.678  27.413  1.00  0.00    -0.744 OA
ENDBRANCH  75  78
ENDBRANCH  47  71
BRANCH  59  82
ATOM     82  C   UNL A   1      44.999  26.820  34.156  1.00  0.00     0.023 A 
ATOM     83  C   UNL A   1      46.312  27.327  34.081  1.00  0.00     0.012 A 
ATOM     84  C   UNL A   1      44.733  25.707  34.978  1.00  0.00     0.148 A 
ATOM     85  C   UNL A   1      47.349  26.711  34.780  1.00  0.00     0.002 A 
ATOM     86  C   UNL A   1      45.760  25.134  35.716  1.00  0.00     0.091 A 
ATOM     87  F   UNL A   1      43.480  25.231  35.025  1.00  0.00    -0.205 F 
ATOM     88  C   UNL A   1      47.071  25.624  35.605  1.00  0.00     0.022 A 
BRANCH  86  89
ATOM     89  S   UNL A   1      45.479  23.798  36.883  1.00  0.00     0.127 S 
ATOM     90  O   UNL A   1      44.929  22.757  36.017  1.00  0.00    -0.237 OA
ATOM     91  O   UNL A   1      46.830  23.530  37.376  1.00  0.00    -0.237 OA
ATOM     92  O   UNL A   1      44.562  24.324  37.885  1.00  0.00    -0.744 OA
ENDBRANCH  86  89
ENDBRANCH  59  82
ENDBRANCH  33  34
ENDBRANCH  25  28
ENDBRANCH  23  24
ENDBRANCH  22  23
ENDBRANCH   1  22
TORSDOF 18
ENDMDL
