MODEL 1
REMARK VINA RESULT:     -11.7      0.000      0.000
REMARK SMILES CSCC[C@H](NC(=O)N[C@@H]1CCCCC1(C)C)C(=O)NCCCCNC(=O)c1ccc(-c2c3nc(c(-c4cccc(S(=O)(=O)[O-])c4F)c4ccc([nH]4)c(-c4cccc(S(=O)(=O)[O-])c4F)c4nc(c(-c5cccc(S(=O)(=O)[O-])c5F)c5ccc2[nH]5)C=C4)C=C3)cc1
REMARK SMILES IDX 22 1 21 2 20 3 18 4 19 5 5 7 4 8 3 9 2 10 1 11 6 12 7 13
REMARK SMILES IDX 8 15 9 16 10 18 11 19 15 20 12 21 14 22 16 23 17 24 13 25
REMARK SMILES IDX 23 26 24 27 25 28 26 29 27 31 28 32 29 33 90 34 30 35 89 36
REMARK SMILES IDX 31 37 32 38 33 39 83 40 34 41 88 42 82 43 84 44 35 45 87 46
REMARK SMILES IDX 81 47 80 48 36 50 68 51 48 52 67 53 49 54 52 55 66 56 85 57
REMARK SMILES IDX 50 58 51 59 65 61 86 62 53 63 37 64 38 65 46 66 39 67 41 68
REMARK SMILES IDX 47 69 40 70 42 71 43 72 44 73 45 74 69 75 70 76 78 77 71 78
REMARK SMILES IDX 73 79 79 80 72 81 74 82 75 83 76 84 77 85 54 86 55 87 63 88
REMARK SMILES IDX 56 89 58 90 64 91 57 92 59 93 60 94 61 95 62 96
REMARK H PARENT 20 6 6 14 9 17 25 30 84 49 52 60
REMARK Flexibility Score: inf
ROOT
ATOM      1  C   UNL A   1      35.939  23.154  23.384  1.00  0.00     0.023 C 
ENDROOT
BRANCH   1   2
ATOM      2  C   UNL A   1      34.622  23.739  22.856  1.00  0.00     0.116 C 
BRANCH   2   3
ATOM      3  N   UNL A   1      33.537  22.726  22.729  1.00  0.00    -0.354 N 
ATOM      4  C   UNL A   1      32.682  21.873  23.336  1.00  0.00     0.242 C 
ATOM      5  O   UNL A   1      32.009  21.276  22.461  1.00  0.00    -0.273 OA
ATOM      6  H   UNL A   1      33.362  22.639  21.764  1.00  0.00     0.163 HD
BRANCH   4   7
ATOM      7  C   UNL A   1      32.183  21.590  24.857  1.00  0.00     0.174 C 
BRANCH   7   8
ATOM      8  C   UNL A   1      32.226  20.038  25.040  1.00  0.00     0.046 C 
BRANCH   8   9
ATOM      9  C   UNL A   1      33.454  19.167  24.713  1.00  0.00     0.072 C 
BRANCH   9  10
ATOM     10  S   UNL A   1      33.297  17.541  23.920  1.00  0.00    -0.165 SA
ATOM     11  C   UNL A   1      34.793  16.742  24.545  1.00  0.00     0.085 C 
ENDBRANCH   9  10
ENDBRANCH   8   9
ENDBRANCH   7   8
BRANCH   7  12
ATOM     12  N   UNL A   1      31.402  22.505  25.853  1.00  0.00    -0.326 N 
ATOM     13  C   UNL A   1      30.886  23.646  26.326  1.00  0.00     0.315 C 
ATOM     14  H   UNL A   1      31.121  21.858  26.541  1.00  0.00     0.166 HD
ATOM     15  O   UNL A   1      30.246  23.489  27.381  1.00  0.00    -0.249 OA
ATOM     16  N   UNL A   1      30.900  24.918  25.885  1.00  0.00    -0.335 N 
ATOM     17  H   UNL A   1      30.304  25.469  26.441  1.00  0.00     0.165 HD
BRANCH  16  18
ATOM     18  C   UNL A   1      31.533  25.771  24.819  1.00  0.00     0.089 C 
ATOM     19  C   UNL A   1      33.058  25.898  24.895  1.00  0.00     0.025 C 
ATOM     20  C   UNL A   1      30.927  27.158  24.850  1.00  0.00    -0.015 C 
ATOM     21  C   UNL A   1      33.556  26.601  26.151  1.00  0.00     0.002 C 
ATOM     22  C   UNL A   1      31.211  27.674  26.291  1.00  0.00     0.008 C 
ATOM     23  C   UNL A   1      31.372  28.287  23.900  1.00  0.00     0.013 C 
ATOM     24  C   UNL A   1      29.571  26.851  24.249  1.00  0.00     0.013 C 
ATOM     25  C   UNL A   1      32.712  27.791  26.596  1.00  0.00     0.001 C 
ENDBRANCH  16  18
ENDBRANCH   7  12
ENDBRANCH   4   7
ENDBRANCH   2   3
ENDBRANCH   1   2
BRANCH   1  26
ATOM     26  C   UNL A   1      35.796  21.959  24.337  1.00  0.00     0.023 C 
BRANCH  26  27
ATOM     27  C   UNL A   1      36.698  21.913  25.567  1.00  0.00     0.116 C 
BRANCH  27  28
ATOM     28  N   UNL A   1      37.771  20.925  25.523  1.00  0.00    -0.352 N 
ATOM     29  C   UNL A   1      39.071  21.069  25.980  1.00  0.00     0.251 C 
ATOM     30  H   UNL A   1      37.545  20.055  25.120  1.00  0.00     0.163 HD
ATOM     31  O   UNL A   1      39.892  20.164  25.834  1.00  0.00    -0.269 OA
BRANCH  29  32
ATOM     32  C   UNL A   1      39.479  22.351  26.608  1.00  0.00     0.039 A 
ATOM     33  C   UNL A   1      40.484  22.363  27.580  1.00  0.00     0.014 A 
ATOM     34  C   UNL A   1      38.941  23.553  26.146  1.00  0.00     0.014 A 
ATOM     35  C   UNL A   1      41.021  23.586  28.005  1.00  0.00     0.010 A 
ATOM     36  C   UNL A   1      39.551  24.755  26.485  1.00  0.00     0.010 A 
ATOM     37  C   UNL A   1      40.595  24.793  27.422  1.00  0.00    -0.014 A 
BRANCH  37  38
ATOM     38  C   UNL A   1      41.216  26.100  27.777  1.00  0.00     0.031 A 
ATOM     39  C   UNL A   1      42.635  26.400  27.365  1.00  0.00     0.074 A 
ATOM     40  C   UNL A   1      40.549  26.980  28.555  1.00  0.00     0.049 A 
ATOM     41  N   UNL A   1      43.363  27.459  27.613  1.00  0.00    -0.248 NA
ATOM     42  C   UNL A   1      43.349  25.353  26.613  1.00  0.00     0.031 C 
ATOM     43  C   UNL A   1      39.217  26.771  29.128  1.00  0.00     0.029 A 
ATOM     44  N   UNL A   1      40.911  28.222  29.016  1.00  0.00    -0.354 N 
ATOM     45  C   UNL A   1      44.621  27.187  27.089  1.00  0.00     0.074 A 
ATOM     46  C   UNL A   1      44.580  25.841  26.566  1.00  0.00     0.031 C 
ATOM     47  C   UNL A   1      38.868  27.853  29.843  1.00  0.00     0.029 A 
ATOM     48  C   UNL A   1      39.952  28.829  29.795  1.00  0.00     0.049 A 
ATOM     49  H   UNL A   1      41.779  28.641  28.809  1.00  0.00     0.167 HD
ATOM     50  C   UNL A   1      45.704  27.996  27.001  1.00  0.00     0.034 A 
ATOM     51  C   UNL A   1      39.939  30.041  30.386  1.00  0.00     0.034 A 
ATOM     52  C   UNL A   1      45.723  29.360  27.452  1.00  0.00     0.049 A 
ATOM     53  C   UNL A   1      41.116  30.962  30.189  1.00  0.00     0.074 A 
ATOM     54  C   UNL A   1      46.729  30.299  27.311  1.00  0.00     0.029 A 
ATOM     55  N   UNL A   1      44.684  29.981  28.125  1.00  0.00    -0.354 N 
ATOM     56  N   UNL A   1      42.227  30.751  29.526  1.00  0.00    -0.248 NA
ATOM     57  C   UNL A   1      41.015  32.305  30.779  1.00  0.00     0.031 C 
ATOM     58  C   UNL A   1      46.298  31.489  27.909  1.00  0.00     0.029 A 
ATOM     59  C   UNL A   1      45.020  31.294  28.406  1.00  0.00     0.049 A 
ATOM     60  H   UNL A   1      43.832  29.553  28.367  1.00  0.00     0.167 HD
ATOM     61  C   UNL A   1      42.942  31.942  29.589  1.00  0.00     0.074 A 
ATOM     62  C   UNL A   1      42.124  32.879  30.331  1.00  0.00     0.031 C 
ATOM     63  C   UNL A   1      44.171  32.231  29.095  1.00  0.00     0.034 A 
BRANCH  50  64
ATOM     64  C   UNL A   1      46.929  27.444  26.319  1.00  0.00     0.023 A 
ATOM     65  C   UNL A   1      47.100  27.647  24.933  1.00  0.00     0.012 A 
ATOM     66  C   UNL A   1      47.922  26.757  27.042  1.00  0.00     0.148 A 
ATOM     67  C   UNL A   1      48.213  27.136  24.270  1.00  0.00     0.002 A 
ATOM     68  C   UNL A   1      49.054  26.292  26.382  1.00  0.00     0.091 A 
ATOM     69  F   UNL A   1      47.735  26.555  28.354  1.00  0.00    -0.205 F 
ATOM     70  C   UNL A   1      49.194  26.467  24.995  1.00  0.00     0.022 A 
BRANCH  68  71
ATOM     71  S   UNL A   1      50.413  25.487  27.237  1.00  0.00     0.127 S 
ATOM     72  O   UNL A   1      50.721  26.461  28.283  1.00  0.00    -0.237 OA
ATOM     73  O   UNL A   1      49.789  24.253  27.716  1.00  0.00    -0.237 OA
ATOM     74  O   UNL A   1      51.455  25.291  26.238  1.00  0.00    -0.744 OA
ENDBRANCH  68  71
ENDBRANCH  50  64
BRANCH  51  75
ATOM     75  C   UNL A   1      38.731  30.500  31.133  1.00  0.00     0.023 A 
ATOM     76  C   UNL A   1      38.644  30.251  32.518  1.00  0.00     0.012 A 
ATOM     77  C   UNL A   1      37.684  31.189  30.494  1.00  0.00     0.148 A 
ATOM     78  C   UNL A   1      37.520  30.646  33.245  1.00  0.00     0.002 A 
ATOM     79  C   UNL A   1      36.590  31.627  31.235  1.00  0.00     0.091 A 
ATOM     80  F   UNL A   1      37.778  31.407  29.175  1.00  0.00    -0.205 F 
ATOM     81  C   UNL A   1      36.498  31.342  32.606  1.00  0.00     0.022 A 
BRANCH  79  82
ATOM     82  S   UNL A   1      35.288  32.640  30.522  1.00  0.00     0.127 S 
ATOM     83  O   UNL A   1      34.879  31.838  29.373  1.00  0.00    -0.237 OA
ATOM     84  O   UNL A   1      34.315  32.695  31.614  1.00  0.00    -0.237 OA
ATOM     85  O   UNL A   1      35.914  33.920  30.216  1.00  0.00    -0.744 OA
ENDBRANCH  79  82
ENDBRANCH  51  75
BRANCH  63  86
ATOM     86  C   UNL A   1      44.700  33.624  29.309  1.00  0.00     0.023 A 
ATOM     87  C   UNL A   1      45.468  33.912  30.455  1.00  0.00     0.012 A 
ATOM     88  C   UNL A   1      44.494  34.630  28.345  1.00  0.00     0.148 A 
ATOM     89  C   UNL A   1      45.989  35.189  30.657  1.00  0.00     0.002 A 
ATOM     90  C   UNL A   1      45.058  35.887  28.529  1.00  0.00     0.091 A 
ATOM     91  F   UNL A   1      43.742  34.344  27.271  1.00  0.00    -0.205 F 
ATOM     92  C   UNL A   1      45.795  36.172  29.689  1.00  0.00     0.022 A 
BRANCH  90  93
ATOM     93  S   UNL A   1      44.938  37.176  27.284  1.00  0.00     0.127 S 
ATOM     94  O   UNL A   1      43.526  37.107  26.917  1.00  0.00    -0.237 OA
ATOM     95  O   UNL A   1      45.315  38.375  28.035  1.00  0.00    -0.237 OA
ATOM     96  O   UNL A   1      45.881  36.805  26.238  1.00  0.00    -0.744 OA
ENDBRANCH  90  93
ENDBRANCH  63  86
ENDBRANCH  37  38
ENDBRANCH  29  32
ENDBRANCH  27  28
ENDBRANCH  26  27
ENDBRANCH   1  26
TORSDOF 19
ENDMDL
MODEL 2
REMARK VINA RESULT:     -11.5      1.419      2.083
REMARK SMILES CSCC[C@H](NC(=O)N[C@@H]1CCCCC1(C)C)C(=O)NCCCCNC(=O)c1ccc(-c2c3nc(c(-c4cccc(S(=O)(=O)[O-])c4F)c4ccc([nH]4)c(-c4cccc(S(=O)(=O)[O-])c4F)c4nc(c(-c5cccc(S(=O)(=O)[O-])c5F)c5ccc2[nH]5)C=C4)C=C3)cc1
REMARK SMILES IDX 22 1 21 2 20 3 18 4 19 5 5 7 4 8 3 9 2 10 1 11 6 12 7 13
REMARK SMILES IDX 8 15 9 16 10 18 11 19 15 20 12 21 14 22 16 23 17 24 13 25
REMARK SMILES IDX 23 26 24 27 25 28 26 29 27 31 28 32 29 33 90 34 30 35 89 36
REMARK SMILES IDX 31 37 32 38 33 39 83 40 34 41 88 42 82 43 84 44 35 45 87 46
REMARK SMILES IDX 81 47 80 48 36 50 68 51 48 52 67 53 49 54 52 55 66 56 85 57
REMARK SMILES IDX 50 58 51 59 65 61 86 62 53 63 37 64 38 65 46 66 39 67 41 68
REMARK SMILES IDX 47 69 40 70 42 71 43 72 44 73 45 74 69 75 70 76 78 77 71 78
REMARK SMILES IDX 73 79 79 80 72 81 74 82 75 83 76 84 77 85 54 86 55 87 63 88
REMARK SMILES IDX 56 89 58 90 64 91 57 92 59 93 60 94 61 95 62 96
REMARK H PARENT 20 6 6 14 9 17 25 30 84 49 52 60
REMARK Flexibility Score: inf
ROOT
ATOM      1  C   UNL A   1      34.249  22.348  26.393  1.00  0.00     0.023 C 
ENDROOT
BRANCH   1   2
ATOM      2  C   UNL A   1      33.274  21.695  27.382  1.00  0.00     0.116 C 
BRANCH   2   3
ATOM      3  N   UNL A   1      31.930  22.340  27.395  1.00  0.00    -0.354 N 
ATOM      4  C   UNL A   1      30.987  23.048  26.737  1.00  0.00     0.242 C 
ATOM      5  O   UNL A   1      30.015  23.249  27.505  1.00  0.00    -0.273 OA
ATOM      6  H   UNL A   1      31.561  22.171  28.292  1.00  0.00     0.163 HD
BRANCH   4   7
ATOM      7  C   UNL A   1      30.718  23.506  25.200  1.00  0.00     0.174 C 
BRANCH   7   8
ATOM      8  C   UNL A   1      31.506  22.492  24.307  1.00  0.00     0.046 C 
BRANCH   8   9
ATOM      9  C   UNL A   1      32.000  22.805  22.882  1.00  0.00     0.072 C 
BRANCH   9  10
ATOM     10  S   UNL A   1      33.089  24.213  22.529  1.00  0.00    -0.165 SA
ATOM     11  C   UNL A   1      34.693  23.474  22.914  1.00  0.00     0.085 C 
ENDBRANCH   9  10
ENDBRANCH   8   9
ENDBRANCH   7   8
BRANCH   7  12
ATOM     12  N   UNL A   1      30.192  24.859  24.624  1.00  0.00    -0.326 N 
ATOM     13  C   UNL A   1      30.241  26.157  24.296  1.00  0.00     0.315 C 
ATOM     14  H   UNL A   1      29.287  24.611  24.323  1.00  0.00     0.166 HD
ATOM     15  O   UNL A   1      29.207  26.554  23.730  1.00  0.00    -0.249 OA
ATOM     16  N   UNL A   1      31.183  27.108  24.433  1.00  0.00    -0.335 N 
ATOM     17  H   UNL A   1      30.903  27.923  23.958  1.00  0.00     0.165 HD
BRANCH  16  18
ATOM     18  C   UNL A   1      32.524  27.331  25.078  1.00  0.00     0.089 C 
ATOM     19  C   UNL A   1      32.614  26.954  26.560  1.00  0.00     0.025 C 
ATOM     20  C   UNL A   1      32.932  28.780  24.919  1.00  0.00    -0.015 C 
ATOM     21  C   UNL A   1      31.723  27.795  27.465  1.00  0.00     0.002 C 
ATOM     22  C   UNL A   1      31.787  29.583  25.603  1.00  0.00     0.008 C 
ATOM     23  C   UNL A   1      34.246  29.346  25.489  1.00  0.00     0.013 C 
ATOM     24  C   UNL A   1      33.283  28.780  23.445  1.00  0.00     0.013 C 
ATOM     25  C   UNL A   1      31.657  29.275  27.102  1.00  0.00     0.001 C 
ENDBRANCH  16  18
ENDBRANCH   7  12
ENDBRANCH   4   7
ENDBRANCH   2   3
ENDBRANCH   1   2
BRANCH   1  26
ATOM     26  C   UNL A   1      35.735  22.034  26.625  1.00  0.00     0.023 C 
BRANCH  26  27
ATOM     27  C   UNL A   1      36.668  22.057  25.418  1.00  0.00     0.116 C 
BRANCH  27  28
ATOM     28  N   UNL A   1      37.713  21.039  25.414  1.00  0.00    -0.352 N 
ATOM     29  C   UNL A   1      39.001  21.149  25.914  1.00  0.00     0.251 C 
ATOM     30  H   UNL A   1      37.476  20.173  25.009  1.00  0.00     0.163 HD
ATOM     31  O   UNL A   1      39.801  20.221  25.799  1.00  0.00    -0.269 OA
BRANCH  29  32
ATOM     32  C   UNL A   1      39.425  22.423  26.547  1.00  0.00     0.039 A 
ATOM     33  C   UNL A   1      40.414  22.416  27.536  1.00  0.00     0.014 A 
ATOM     34  C   UNL A   1      38.918  23.635  26.077  1.00  0.00     0.014 A 
ATOM     35  C   UNL A   1      40.968  23.629  27.969  1.00  0.00     0.010 A 
ATOM     36  C   UNL A   1      39.546  24.825  26.425  1.00  0.00     0.010 A 
ATOM     37  C   UNL A   1      40.576  24.843  27.379  1.00  0.00    -0.014 A 
BRANCH  37  38
ATOM     38  C   UNL A   1      41.216  26.138  27.744  1.00  0.00     0.031 A 
ATOM     39  C   UNL A   1      42.638  26.421  27.330  1.00  0.00     0.074 A 
ATOM     40  C   UNL A   1      40.564  27.020  28.532  1.00  0.00     0.049 A 
ATOM     41  N   UNL A   1      43.382  27.467  27.585  1.00  0.00    -0.248 NA
ATOM     42  C   UNL A   1      43.335  25.370  26.567  1.00  0.00     0.031 C 
ATOM     43  C   UNL A   1      39.231  26.825  29.107  1.00  0.00     0.029 A 
ATOM     44  N   UNL A   1      40.946  28.253  29.002  1.00  0.00    -0.354 N 
ATOM     45  C   UNL A   1      44.635  27.181  27.055  1.00  0.00     0.074 A 
ATOM     46  C   UNL A   1      44.572  25.841  26.520  1.00  0.00     0.031 C 
ATOM     47  C   UNL A   1      38.900  27.906  29.832  1.00  0.00     0.029 A 
ATOM     48  C   UNL A   1      39.997  28.867  29.789  1.00  0.00     0.049 A 
ATOM     49  H   UNL A   1      41.819  28.661  28.796  1.00  0.00     0.167 HD
ATOM     50  C   UNL A   1      45.729  27.975  26.971  1.00  0.00     0.034 A 
ATOM     51  C   UNL A   1      40.004  30.074  30.392  1.00  0.00     0.034 A 
ATOM     52  C   UNL A   1      45.769  29.335  27.433  1.00  0.00     0.049 A 
ATOM     53  C   UNL A   1      41.193  30.979  30.199  1.00  0.00     0.074 A 
ATOM     54  C   UNL A   1      46.788  30.261  27.298  1.00  0.00     0.029 A 
ATOM     55  N   UNL A   1      44.741  29.965  28.115  1.00  0.00    -0.354 N 
ATOM     56  N   UNL A   1      42.300  30.757  29.531  1.00  0.00    -0.248 NA
ATOM     57  C   UNL A   1      41.114  32.318  30.801  1.00  0.00     0.031 C 
ATOM     58  C   UNL A   1      46.376  31.452  27.908  1.00  0.00     0.029 A 
ATOM     59  C   UNL A   1      45.097  31.270  28.408  1.00  0.00     0.049 A 
ATOM     60  H   UNL A   1      43.884  29.547  28.357  1.00  0.00     0.167 HD
ATOM     61  C   UNL A   1      43.032  31.937  29.603  1.00  0.00     0.074 A 
ATOM     62  C   UNL A   1      42.230  32.880  30.355  1.00  0.00     0.031 C 
ATOM     63  C   UNL A   1      44.264  32.213  29.107  1.00  0.00     0.034 A 
BRANCH  50  64
ATOM     64  C   UNL A   1      46.944  27.412  26.280  1.00  0.00     0.023 A 
ATOM     65  C   UNL A   1      47.087  27.580  24.886  1.00  0.00     0.012 A 
ATOM     66  C   UNL A   1      47.954  26.749  27.002  1.00  0.00     0.148 A 
ATOM     67  C   UNL A   1      48.190  27.057  24.215  1.00  0.00     0.002 A 
ATOM     68  C   UNL A   1      49.076  26.272  26.333  1.00  0.00     0.091 A 
ATOM     69  F   UNL A   1      47.792  26.579  28.322  1.00  0.00    -0.205 F 
ATOM     70  C   UNL A   1      49.189  26.412  24.939  1.00  0.00     0.022 A 
BRANCH  68  71
ATOM     71  S   UNL A   1      50.455  25.496  27.182  1.00  0.00     0.127 S 
ATOM     72  O   UNL A   1      49.827  24.291  27.723  1.00  0.00    -0.237 OA
ATOM     73  O   UNL A   1      51.396  25.255  26.088  1.00  0.00    -0.237 OA
ATOM     74  O   UNL A   1      50.910  26.462  28.172  1.00  0.00    -0.744 OA
ENDBRANCH  68  71
ENDBRANCH  50  64
BRANCH  51  75
ATOM     75  C   UNL A   1      38.806  30.543  31.147  1.00  0.00     0.023 A 
ATOM     76  C   UNL A   1      38.748  30.341  32.540  1.00  0.00     0.012 A 
ATOM     77  C   UNL A   1      37.737  31.197  30.505  1.00  0.00     0.148 A 
ATOM     78  C   UNL A   1      37.634  30.747  33.276  1.00  0.00     0.002 A 
ATOM     79  C   UNL A   1      36.652  31.647  31.252  1.00  0.00     0.091 A 
ATOM     80  F   UNL A   1      37.802  31.370  29.178  1.00  0.00    -0.205 F 
ATOM     81  C   UNL A   1      36.591  31.408  32.634  1.00  0.00     0.022 A 
BRANCH  79  82
ATOM     82  S   UNL A   1      35.324  32.619  30.532  1.00  0.00     0.127 S 
ATOM     83  O   UNL A   1      36.015  33.854  30.176  1.00  0.00    -0.237 OA
ATOM     84  O   UNL A   1      34.921  31.787  29.396  1.00  0.00    -0.237 OA
ATOM     85  O   UNL A   1      34.314  32.732  31.576  1.00  0.00    -0.744 OA
ENDBRANCH  79  82
ENDBRANCH  51  75
BRANCH  63  86
ATOM     86  C   UNL A   1      44.814  33.597  29.332  1.00  0.00     0.023 A 
ATOM     87  C   UNL A   1      45.468  33.901  30.543  1.00  0.00     0.012 A 
ATOM     88  C   UNL A   1      44.741  34.575  28.321  1.00  0.00     0.148 A 
ATOM     89  C   UNL A   1      46.007  35.168  30.758  1.00  0.00     0.002 A 
ATOM     90  C   UNL A   1      45.325  35.820  28.524  1.00  0.00     0.091 A 
ATOM     91  F   UNL A   1      44.096  34.275  27.184  1.00  0.00    -0.205 F 
ATOM     92  C   UNL A   1      45.946  36.122  29.745  1.00  0.00     0.022 A 
BRANCH  90  93
ATOM     93  S   UNL A   1      45.377  37.069  27.233  1.00  0.00     0.127 S 
ATOM     94  O   UNL A   1      43.957  37.313  26.996  1.00  0.00    -0.237 OA
ATOM     95  O   UNL A   1      46.084  38.170  27.890  1.00  0.00    -0.237 OA
ATOM     96  O   UNL A   1      46.107  36.464  26.127  1.00  0.00    -0.744 OA
ENDBRANCH  90  93
ENDBRANCH  63  86
ENDBRANCH  37  38
ENDBRANCH  29  32
ENDBRANCH  27  28
ENDBRANCH  26  27
ENDBRANCH   1  26
TORSDOF 19
ENDMDL
MODEL 3
REMARK VINA RESULT:     -11.5      1.537      2.303
REMARK SMILES CSCC[C@H](NC(=O)N[C@@H]1CCCCC1(C)C)C(=O)NCCCCNC(=O)c1ccc(-c2c3nc(c(-c4cccc(S(=O)(=O)[O-])c4F)c4ccc([nH]4)c(-c4cccc(S(=O)(=O)[O-])c4F)c4nc(c(-c5cccc(S(=O)(=O)[O-])c5F)c5ccc2[nH]5)C=C4)C=C3)cc1
REMARK SMILES IDX 22 1 21 2 20 3 18 4 19 5 5 7 4 8 3 9 2 10 1 11 6 12 7 13
REMARK SMILES IDX 8 15 9 16 10 18 11 19 15 20 12 21 14 22 16 23 17 24 13 25
REMARK SMILES IDX 23 26 24 27 25 28 26 29 27 31 28 32 29 33 90 34 30 35 89 36
REMARK SMILES IDX 31 37 32 38 33 39 83 40 34 41 88 42 82 43 84 44 35 45 87 46
REMARK SMILES IDX 81 47 80 48 36 50 68 51 48 52 67 53 49 54 52 55 66 56 85 57
REMARK SMILES IDX 50 58 51 59 65 61 86 62 53 63 37 64 38 65 46 66 39 67 41 68
REMARK SMILES IDX 47 69 40 70 42 71 43 72 44 73 45 74 69 75 70 76 78 77 71 78
REMARK SMILES IDX 73 79 79 80 72 81 74 82 75 83 76 84 77 85 54 86 55 87 63 88
REMARK SMILES IDX 56 89 58 90 64 91 57 92 59 93 60 94 61 95 62 96
REMARK H PARENT 20 6 6 14 9 17 25 30 84 49 52 60
REMARK Flexibility Score: inf
ROOT
ATOM      1  C   UNL A   1      35.087  22.812  26.110  1.00  0.00     0.023 C 
ENDROOT
BRANCH   1   2
ATOM      2  C   UNL A   1      33.983  22.665  27.166  1.00  0.00     0.116 C 
BRANCH   2   3
ATOM      3  N   UNL A   1      32.610  22.655  26.585  1.00  0.00    -0.354 N 
ATOM      4  C   UNL A   1      31.825  22.715  25.488  1.00  0.00     0.242 C 
ATOM      5  O   UNL A   1      30.622  22.654  25.841  1.00  0.00    -0.273 OA
ATOM      6  H   UNL A   1      31.997  22.560  27.349  1.00  0.00     0.163 HD
BRANCH   4   7
ATOM      7  C   UNL A   1      32.042  22.639  23.879  1.00  0.00     0.174 C 
BRANCH   7   8
ATOM      8  C   UNL A   1      32.108  21.116  23.527  1.00  0.00     0.046 C 
BRANCH   8   9
ATOM      9  C   UNL A   1      33.026  20.108  24.242  1.00  0.00     0.072 C 
BRANCH   9  10
ATOM     10  S   UNL A   1      32.964  18.329  23.885  1.00  0.00    -0.165 SA
ATOM     11  C   UNL A   1      32.527  17.696  25.521  1.00  0.00     0.085 C 
ENDBRANCH   9  10
ENDBRANCH   8   9
ENDBRANCH   7   8
BRANCH   7  12
ATOM     12  N   UNL A   1      32.527  23.728  22.870  1.00  0.00    -0.326 N 
ATOM     13  C   UNL A   1      32.817  24.963  22.440  1.00  0.00     0.315 C 
ATOM     14  H   UNL A   1      32.758  23.183  22.083  1.00  0.00     0.166 HD
ATOM     15  O   UNL A   1      33.279  24.980  21.286  1.00  0.00    -0.249 OA
ATOM     16  N   UNL A   1      32.729  26.181  23.007  1.00  0.00    -0.335 N 
ATOM     17  H   UNL A   1      33.152  26.850  22.422  1.00  0.00     0.165 HD
BRANCH  16  18
ATOM     18  C   UNL A   1      32.195  26.852  24.243  1.00  0.00     0.089 C 
ATOM     19  C   UNL A   1      30.904  26.255  24.811  1.00  0.00     0.025 C 
ATOM     20  C   UNL A   1      31.970  28.323  23.968  1.00  0.00    -0.015 C 
ATOM     21  C   UNL A   1      29.705  26.381  23.882  1.00  0.00     0.002 C 
ATOM     22  C   UNL A   1      30.965  28.347  22.779  1.00  0.00     0.008 C 
ATOM     23  C   UNL A   1      31.404  29.294  25.022  1.00  0.00     0.013 C 
ATOM     24  C   UNL A   1      33.409  28.795  23.946  1.00  0.00     0.013 C 
ATOM     25  C   UNL A   1      29.614  27.705  23.130  1.00  0.00     0.001 C 
ENDBRANCH  16  18
ENDBRANCH   7  12
ENDBRANCH   4   7
ENDBRANCH   2   3
ENDBRANCH   1   2
BRANCH   1  26
ATOM     26  C   UNL A   1      35.863  21.528  25.782  1.00  0.00     0.023 C 
BRANCH  26  27
ATOM     27  C   UNL A   1      37.202  21.666  25.064  1.00  0.00     0.116 C 
BRANCH  27  28
ATOM     28  N   UNL A   1      38.171  20.609  25.335  1.00  0.00    -0.352 N 
ATOM     29  C   UNL A   1      39.355  20.711  26.049  1.00  0.00     0.251 C 
ATOM     30  H   UNL A   1      37.960  19.720  24.969  1.00  0.00     0.163 HD
ATOM     31  O   UNL A   1      40.107  19.743  26.159  1.00  0.00    -0.269 OA
BRANCH  29  32
ATOM     32  C   UNL A   1      39.733  22.019  26.639  1.00  0.00     0.039 A 
ATOM     33  C   UNL A   1      40.748  22.085  27.599  1.00  0.00     0.014 A 
ATOM     34  C   UNL A   1      39.156  23.194  26.153  1.00  0.00     0.014 A 
ATOM     35  C   UNL A   1      41.254  23.333  27.988  1.00  0.00     0.010 A 
ATOM     36  C   UNL A   1      39.736  24.421  26.455  1.00  0.00     0.010 A 
ATOM     37  C   UNL A   1      40.788  24.512  27.379  1.00  0.00    -0.014 A 
BRANCH  37  38
ATOM     38  C   UNL A   1      41.374  25.845  27.694  1.00  0.00     0.031 A 
ATOM     39  C   UNL A   1      42.797  26.156  27.303  1.00  0.00     0.074 A 
ATOM     40  C   UNL A   1      40.672  26.742  28.419  1.00  0.00     0.049 A 
ATOM     41  N   UNL A   1      43.499  27.238  27.524  1.00  0.00    -0.248 NA
ATOM     42  C   UNL A   1      43.549  25.093  26.612  1.00  0.00     0.031 C 
ATOM     43  C   UNL A   1      39.331  26.530  28.970  1.00  0.00     0.029 A 
ATOM     44  N   UNL A   1      41.000  28.009  28.836  1.00  0.00    -0.354 N 
ATOM     45  C   UNL A   1      44.774  26.970  27.041  1.00  0.00     0.074 A 
ATOM     46  C   UNL A   1      44.771  25.603  26.573  1.00  0.00     0.031 C 
ATOM     47  C   UNL A   1      38.944  27.634  29.630  1.00  0.00     0.029 A 
ATOM     48  C   UNL A   1      40.010  28.628  29.567  1.00  0.00     0.049 A 
ATOM     49  H   UNL A   1      41.864  28.436  28.633  1.00  0.00     0.167 HD
ATOM     50  C   UNL A   1      45.844  27.796  26.946  1.00  0.00     0.034 A 
ATOM     51  C   UNL A   1      39.961  29.863  30.108  1.00  0.00     0.034 A 
ATOM     52  C   UNL A   1      45.826  29.178  27.339  1.00  0.00     0.049 A 
ATOM     53  C   UNL A   1      41.124  30.798  29.900  1.00  0.00     0.074 A 
ATOM     54  C   UNL A   1      46.816  30.131  27.183  1.00  0.00     0.029 A 
ATOM     55  N   UNL A   1      44.759  29.805  27.962  1.00  0.00    -0.354 N 
ATOM     56  N   UNL A   1      42.255  30.582  29.272  1.00  0.00    -0.248 NA
ATOM     57  C   UNL A   1      40.984  32.162  30.431  1.00  0.00     0.031 C 
ATOM     58  C   UNL A   1      46.349  31.335  27.722  1.00  0.00     0.029 A 
ATOM     59  C   UNL A   1      45.063  31.135  28.197  1.00  0.00     0.049 A 
ATOM     60  H   UNL A   1      43.910  29.370  28.202  1.00  0.00     0.167 HD
ATOM     61  C   UNL A   1      42.945  31.789  29.303  1.00  0.00     0.074 A 
ATOM     62  C   UNL A   1      42.091  32.739  29.986  1.00  0.00     0.031 C 
ATOM     63  C   UNL A   1      44.180  32.082  28.826  1.00  0.00     0.034 A 
BRANCH  50  64
ATOM     64  C   UNL A   1      47.095  27.241  26.315  1.00  0.00     0.023 A 
ATOM     65  C   UNL A   1      47.315  27.428  24.934  1.00  0.00     0.012 A 
ATOM     66  C   UNL A   1      48.063  26.568  27.083  1.00  0.00     0.148 A 
ATOM     67  C   UNL A   1      48.454  26.914  24.318  1.00  0.00     0.002 A 
ATOM     68  C   UNL A   1      49.221  26.100  26.471  1.00  0.00     0.091 A 
ATOM     69  F   UNL A   1      47.829  26.381  28.389  1.00  0.00    -0.205 F 
ATOM     70  C   UNL A   1      49.411  26.259  25.088  1.00  0.00     0.022 A 
BRANCH  68  71
ATOM     71  S   UNL A   1      50.551  25.311  27.384  1.00  0.00     0.127 S 
ATOM     72  O   UNL A   1      49.856  24.182  28.001  1.00  0.00    -0.237 OA
ATOM     73  O   UNL A   1      51.483  24.946  26.318  1.00  0.00    -0.237 OA
ATOM     74  O   UNL A   1      51.052  26.318  28.310  1.00  0.00    -0.744 OA
ENDBRANCH  68  71
ENDBRANCH  50  64
BRANCH  51  75
ATOM     75  C   UNL A   1      38.727  30.327  30.806  1.00  0.00     0.023 A 
ATOM     76  C   UNL A   1      38.585  30.083  32.187  1.00  0.00     0.012 A 
ATOM     77  C   UNL A   1      37.706  31.018  30.126  1.00  0.00     0.148 A 
ATOM     78  C   UNL A   1      37.436  30.483  32.870  1.00  0.00     0.002 A 
ATOM     79  C   UNL A   1      36.587  31.461  30.823  1.00  0.00     0.091 A 
ATOM     80  F   UNL A   1      37.852  31.232  28.811  1.00  0.00    -0.205 F 
ATOM     81  C   UNL A   1      36.442  31.180  32.191  1.00  0.00     0.022 A 
BRANCH  79  82
ATOM     82  S   UNL A   1      35.316  32.477  30.059  1.00  0.00     0.127 S 
ATOM     83  O   UNL A   1      34.402  32.704  31.174  1.00  0.00    -0.237 OA
ATOM     84  O   UNL A   1      36.080  33.652  29.637  1.00  0.00    -0.237 OA
ATOM     85  O   UNL A   1      34.791  31.680  28.958  1.00  0.00    -0.744 OA
ENDBRANCH  79  82
ENDBRANCH  51  75
BRANCH  63  86
ATOM     86  C   UNL A   1      44.677  33.493  28.995  1.00  0.00     0.023 A 
ATOM     87  C   UNL A   1      44.412  34.452  27.997  1.00  0.00     0.012 A 
ATOM     88  C   UNL A   1      45.349  33.886  30.169  1.00  0.00     0.148 A 
ATOM     89  C   UNL A   1      44.840  35.770  28.148  1.00  0.00     0.002 A 
ATOM     90  C   UNL A   1      45.730  35.212  30.334  1.00  0.00     0.091 A 
ATOM     91  F   UNL A   1      45.613  32.955  31.098  1.00  0.00    -0.205 F 
ATOM     92  C   UNL A   1      45.488  36.152  29.320  1.00  0.00     0.022 A 
BRANCH  90  93
ATOM     93  S   UNL A   1      46.479  35.806  31.855  1.00  0.00     0.127 S 
ATOM     94  O   UNL A   1      46.588  37.239  31.595  1.00  0.00    -0.237 OA
ATOM     95  O   UNL A   1      45.478  35.443  32.861  1.00  0.00    -0.237 OA
ATOM     96  O   UNL A   1      47.740  35.089  31.981  1.00  0.00    -0.744 OA
ENDBRANCH  90  93
ENDBRANCH  63  86
ENDBRANCH  37  38
ENDBRANCH  29  32
ENDBRANCH  27  28
ENDBRANCH  26  27
ENDBRANCH   1  26
TORSDOF 19
ENDMDL
