MODEL 1
REMARK VINA RESULT:     -11.9      0.000      0.000
REMARK SMILES C[C@@H]1CCC[C@H]1NC(=O)c1csc(/C=C/C(=O)NCCCCNC(=O)c2ccc(-c3c4nc(c(-c5cccc(S(=O)(=O)[O-])c5F)c5ccc([nH]5)c(-c5cccc(S(=O)(=O)[O-])c5F)c5nc(c(-c6cccc(S(=O)(=O)[O-])c6F)c6ccc3[nH]6)C=C5)C=C4)cc2)c1
REMARK SMILES IDX 20 1 19 2 18 3 16 4 17 5 15 7 14 8 13 9 10 10 11 11 89 12
REMARK SMILES IDX 12 13 8 14 7 15 9 17 6 18 1 19 2 20 3 21 4 22 5 23 21 24
REMARK SMILES IDX 22 25 23 26 24 27 25 29 26 30 27 31 88 32 28 33 87 34 29 35
REMARK SMILES IDX 30 36 31 37 81 38 32 39 86 40 80 41 82 42 33 43 85 44 79 45
REMARK SMILES IDX 78 46 34 48 66 49 46 50 65 51 47 52 50 53 64 54 83 55 48 56
REMARK SMILES IDX 49 57 63 59 84 60 51 61 35 62 36 63 44 64 37 65 39 66 45 67
REMARK SMILES IDX 38 68 40 69 41 70 42 71 43 72 67 73 68 74 76 75 69 76 71 77
REMARK SMILES IDX 77 78 70 79 72 80 73 81 74 82 75 83 52 84 53 85 61 86 54 87
REMARK SMILES IDX 56 88 62 89 55 90 57 91 58 92 59 93 60 94
REMARK H PARENT 18 6 7 16 23 28 82 47 50 58
REMARK Flexibility Score: inf
ROOT
ATOM      1  C   UNL A   1      33.113  28.995  24.366  1.00  0.00     0.023 C 
ENDROOT
BRANCH   1   2
ATOM      2  C   UNL A   1      32.060  28.112  23.695  1.00  0.00     0.116 C 
BRANCH   2   3
ATOM      3  N   UNL A   1      32.522  27.662  22.393  1.00  0.00    -0.353 N 
ATOM      4  C   UNL A   1      33.174  26.527  22.021  1.00  0.00     0.244 C 
ATOM      5  O   UNL A   1      33.421  26.323  20.835  1.00  0.00    -0.270 OA
ATOM      6  H   UNL A   1      32.332  28.284  21.654  1.00  0.00     0.163 HD
BRANCH   4   7
ATOM      7  C   UNL A   1      33.501  25.479  23.012  1.00  0.00     0.072 C 
ATOM      8  C   UNL A   1      32.625  24.572  23.464  1.00  0.00     0.024 C 
BRANCH   8   9
ATOM      9  C   UNL A   1      32.975  23.515  24.349  1.00  0.00     0.028 A 
ATOM     10  C   UNL A   1      34.091  21.613  25.189  1.00  0.00     0.051 A 
ATOM     11  C   UNL A   1      33.120  21.820  26.148  1.00  0.00     0.079 A 
ATOM     12  C   UNL A   1      34.033  22.637  24.192  1.00  0.00     0.033 A 
ATOM     13  S   UNL A   1      32.095  23.133  25.773  1.00  0.00    -0.144 S 
BRANCH  10  14
ATOM     14  C   UNL A   1      35.081  20.545  25.204  1.00  0.00     0.252 C 
ATOM     15  N   UNL A   1      34.692  19.270  24.881  1.00  0.00    -0.349 N 
ATOM     16  H   UNL A   1      35.393  18.584  24.968  1.00  0.00     0.164 HD
ATOM     17  O   UNL A   1      36.266  20.764  25.439  1.00  0.00    -0.269 OA
BRANCH  15  18
ATOM     18  C   UNL A   1      33.395  18.779  24.429  1.00  0.00     0.085 C 
ATOM     19  C   UNL A   1      32.235  17.823  22.390  1.00  0.00     0.010 C 
ATOM     20  C   UNL A   1      33.536  17.877  23.195  1.00  0.00     0.008 C 
ATOM     21  C   UNL A   1      33.888  16.516  23.795  1.00  0.00     0.005 C 
ATOM     22  C   UNL A   1      33.121  16.442  25.111  1.00  0.00     0.002 C 
ATOM     23  C   UNL A   1      32.776  17.880  25.501  1.00  0.00     0.025 C 
ENDBRANCH  15  18
ENDBRANCH  10  14
ENDBRANCH   8   9
ENDBRANCH   4   7
ENDBRANCH   2   3
ENDBRANCH   1   2
BRANCH   1  24
ATOM     24  C   UNL A   1      33.988  28.255  25.381  1.00  0.00     0.023 C 
BRANCH  24  25
ATOM     25  C   UNL A   1      33.668  28.557  26.840  1.00  0.00     0.116 C 
BRANCH  25  26
ATOM     26  N   UNL A   1      33.605  29.983  27.132  1.00  0.00    -0.352 N 
ATOM     27  C   UNL A   1      34.535  30.757  27.782  1.00  0.00     0.251 C 
ATOM     28  H   UNL A   1      32.795  30.449  26.825  1.00  0.00     0.163 HD
ATOM     29  O   UNL A   1      34.285  31.924  28.061  1.00  0.00    -0.269 OA
BRANCH  27  30
ATOM     30  C   UNL A   1      35.825  30.151  28.171  1.00  0.00     0.039 A 
ATOM     31  C   UNL A   1      36.908  30.240  27.294  1.00  0.00     0.014 A 
ATOM     32  C   UNL A   1      35.971  29.540  29.419  1.00  0.00     0.014 A 
ATOM     33  C   UNL A   1      38.157  29.760  27.694  1.00  0.00     0.010 A 
ATOM     34  C   UNL A   1      37.232  29.141  29.846  1.00  0.00     0.010 A 
ATOM     35  C   UNL A   1      38.335  29.233  28.984  1.00  0.00    -0.014 A 
BRANCH  35  36
ATOM     36  C   UNL A   1      39.660  28.750  29.446  1.00  0.00     0.031 A 
ATOM     37  C   UNL A   1      40.376  29.474  30.556  1.00  0.00     0.074 A 
ATOM     38  C   UNL A   1      40.254  27.715  28.819  1.00  0.00     0.049 A 
ATOM     39  N   UNL A   1      41.560  29.242  31.062  1.00  0.00    -0.248 NA
ATOM     40  C   UNL A   1      39.686  30.630  31.153  1.00  0.00     0.031 C 
ATOM     41  C   UNL A   1      39.696  26.980  27.683  1.00  0.00     0.029 A 
ATOM     42  N   UNL A   1      41.470  27.117  29.037  1.00  0.00    -0.354 N 
ATOM     43  C   UNL A   1      41.768  30.241  32.007  1.00  0.00     0.074 A 
ATOM     44  C   UNL A   1      40.612  31.107  31.971  1.00  0.00     0.031 C 
ATOM     45  C   UNL A   1      40.560  26.022  27.312  1.00  0.00     0.029 A 
ATOM     46  C   UNL A   1      41.746  26.094  28.159  1.00  0.00     0.049 A 
ATOM     47  H   UNL A   1      42.086  27.393  29.753  1.00  0.00     0.167 HD
ATOM     48  C   UNL A   1      42.812  30.404  32.854  1.00  0.00     0.034 A 
ATOM     49  C   UNL A   1      42.833  25.306  28.049  1.00  0.00     0.034 A 
ATOM     50  C   UNL A   1      43.943  29.519  32.913  1.00  0.00     0.049 A 
ATOM     51  C   UNL A   1      43.966  25.487  29.023  1.00  0.00     0.074 A 
ATOM     52  C   UNL A   1      45.017  29.551  33.783  1.00  0.00     0.029 A 
ATOM     53  N   UNL A   1      44.149  28.444  32.062  1.00  0.00    -0.354 N 
ATOM     54  N   UNL A   1      44.082  26.348  30.005  1.00  0.00    -0.248 NA
ATOM     55  C   UNL A   1      45.100  24.561  28.901  1.00  0.00     0.031 C 
ATOM     56  C   UNL A   1      45.889  28.513  33.440  1.00  0.00     0.029 A 
ATOM     57  C   UNL A   1      45.335  27.808  32.383  1.00  0.00     0.049 A 
ATOM     58  H   UNL A   1      43.541  28.174  31.336  1.00  0.00     0.167 HD
ATOM     59  C   UNL A   1      45.275  26.036  30.648  1.00  0.00     0.074 A 
ATOM     60  C   UNL A   1      45.839  24.899  29.951  1.00  0.00     0.031 C 
ATOM     61  C   UNL A   1      45.854  26.641  31.715  1.00  0.00     0.034 A 
BRANCH  48  62
ATOM     62  C   UNL A   1      42.752  31.563  33.817  1.00  0.00     0.023 A 
ATOM     63  C   UNL A   1      43.229  32.829  33.417  1.00  0.00     0.012 A 
ATOM     64  C   UNL A   1      42.190  31.413  35.100  1.00  0.00     0.148 A 
ATOM     65  C   UNL A   1      43.195  33.913  34.293  1.00  0.00     0.002 A 
ATOM     66  C   UNL A   1      42.111  32.511  35.949  1.00  0.00     0.091 A 
ATOM     67  F   UNL A   1      41.760  30.200  35.472  1.00  0.00    -0.205 F 
ATOM     68  C   UNL A   1      42.626  33.756  35.554  1.00  0.00     0.022 A 
BRANCH  66  69
ATOM     69  S   UNL A   1      41.321  32.434  37.561  1.00  0.00     0.127 S 
ATOM     70  O   UNL A   1      41.342  33.839  37.966  1.00  0.00    -0.237 OA
ATOM     71  O   UNL A   1      39.994  31.915  37.227  1.00  0.00    -0.237 OA
ATOM     72  O   UNL A   1      42.139  31.538  38.366  1.00  0.00    -0.744 OA
ENDBRANCH  66  69
ENDBRANCH  48  62
BRANCH  49  73
ATOM     73  C   UNL A   1      42.873  24.224  27.025  1.00  0.00     0.023 A 
ATOM     74  C   UNL A   1      43.581  24.433  25.825  1.00  0.00     0.012 A 
ATOM     75  C   UNL A   1      42.232  22.988  27.238  1.00  0.00     0.148 A 
ATOM     76  C   UNL A   1      43.620  23.446  24.839  1.00  0.00     0.002 A 
ATOM     77  C   UNL A   1      42.321  21.988  26.274  1.00  0.00     0.091 A 
ATOM     78  F   UNL A   1      41.559  22.810  28.382  1.00  0.00    -0.205 F 
ATOM     79  C   UNL A   1      42.998  22.222  25.067  1.00  0.00     0.022 A 
BRANCH  77  80
ATOM     80  S   UNL A   1      41.660  20.338  26.531  1.00  0.00     0.127 S 
ATOM     81  O   UNL A   1      42.147  19.634  25.348  1.00  0.00    -0.237 OA
ATOM     82  O   UNL A   1      42.302  19.951  27.787  1.00  0.00    -0.237 OA
ATOM     83  O   UNL A   1      40.216  20.501  26.618  1.00  0.00    -0.744 OA
ENDBRANCH  77  80
ENDBRANCH  49  73
BRANCH  61  84
ATOM     84  C   UNL A   1      47.135  26.049  32.245  1.00  0.00     0.023 A 
ATOM     85  C   UNL A   1      48.379  26.514  31.777  1.00  0.00     0.012 A 
ATOM     86  C   UNL A   1      47.098  25.077  33.265  1.00  0.00     0.148 A 
ATOM     87  C   UNL A   1      49.567  25.991  32.289  1.00  0.00     0.002 A 
ATOM     88  C   UNL A   1      48.284  24.602  33.808  1.00  0.00     0.091 A 
ATOM     89  F   UNL A   1      45.903  24.633  33.683  1.00  0.00    -0.205 F 
ATOM     90  C   UNL A   1      49.520  25.047  33.312  1.00  0.00     0.022 A 
BRANCH  88  91
ATOM     91  S   UNL A   1      48.318  23.463  35.196  1.00  0.00     0.127 S 
ATOM     92  O   UNL A   1      49.749  23.386  35.485  1.00  0.00    -0.237 OA
ATOM     93  O   UNL A   1      47.529  24.176  36.202  1.00  0.00    -0.237 OA
ATOM     94  O   UNL A   1      47.710  22.228  34.717  1.00  0.00    -0.744 OA
ENDBRANCH  88  91
ENDBRANCH  61  84
ENDBRANCH  35  36
ENDBRANCH  27  30
ENDBRANCH  25  26
ENDBRANCH  24  25
ENDBRANCH   1  24
TORSDOF 17
ENDMDL
MODEL 2
REMARK VINA RESULT:     -11.8      1.880      2.398
REMARK SMILES C[C@@H]1CCC[C@H]1NC(=O)c1csc(/C=C/C(=O)NCCCCNC(=O)c2ccc(-c3c4nc(c(-c5cccc(S(=O)(=O)[O-])c5F)c5ccc([nH]5)c(-c5cccc(S(=O)(=O)[O-])c5F)c5nc(c(-c6cccc(S(=O)(=O)[O-])c6F)c6ccc3[nH]6)C=C5)C=C4)cc2)c1
REMARK SMILES IDX 20 1 19 2 18 3 16 4 17 5 15 7 14 8 13 9 10 10 11 11 89 12
REMARK SMILES IDX 12 13 8 14 7 15 9 17 6 18 1 19 2 20 3 21 4 22 5 23 21 24
REMARK SMILES IDX 22 25 23 26 24 27 25 29 26 30 27 31 88 32 28 33 87 34 29 35
REMARK SMILES IDX 30 36 31 37 81 38 32 39 86 40 80 41 82 42 33 43 85 44 79 45
REMARK SMILES IDX 78 46 34 48 66 49 46 50 65 51 47 52 50 53 64 54 83 55 48 56
REMARK SMILES IDX 49 57 63 59 84 60 51 61 35 62 36 63 44 64 37 65 39 66 45 67
REMARK SMILES IDX 38 68 40 69 41 70 42 71 43 72 67 73 68 74 76 75 69 76 71 77
REMARK SMILES IDX 77 78 70 79 72 80 73 81 74 82 75 83 52 84 53 85 61 86 54 87
REMARK SMILES IDX 56 88 62 89 55 90 57 91 58 92 59 93 60 94
REMARK H PARENT 18 6 7 16 23 28 82 47 50 58
REMARK Flexibility Score: inf
ROOT
ATOM      1  C   UNL A   1      32.874  29.308  24.072  1.00  0.00     0.023 C 
ENDROOT
BRANCH   1   2
ATOM      2  C   UNL A   1      31.858  28.337  23.468  1.00  0.00     0.116 C 
BRANCH   2   3
ATOM      3  N   UNL A   1      32.359  27.778  22.224  1.00  0.00    -0.353 N 
ATOM      4  C   UNL A   1      32.988  26.600  21.965  1.00  0.00     0.244 C 
ATOM      5  O   UNL A   1      33.277  26.301  20.809  1.00  0.00    -0.270 OA
ATOM      6  H   UNL A   1      32.220  28.349  21.434  1.00  0.00     0.163 HD
BRANCH   4   7
ATOM      7  C   UNL A   1      33.240  25.619  23.043  1.00  0.00     0.072 C 
ATOM      8  C   UNL A   1      33.547  24.333  22.832  1.00  0.00     0.024 C 
BRANCH   8   9
ATOM      9  C   UNL A   1      33.874  23.422  23.875  1.00  0.00     0.028 A 
ATOM     10  C   UNL A   1      34.808  21.547  24.962  1.00  0.00     0.051 A 
ATOM     11  C   UNL A   1      34.058  22.117  25.971  1.00  0.00     0.079 A 
ATOM     12  C   UNL A   1      34.740  22.347  23.778  1.00  0.00     0.033 A 
ATOM     13  S   UNL A   1      33.201  23.500  25.453  1.00  0.00    -0.144 S 
BRANCH  10  14
ATOM     14  C   UNL A   1      35.607  20.336  25.081  1.00  0.00     0.252 C 
ATOM     15  N   UNL A   1      35.013  19.120  24.859  1.00  0.00    -0.349 N 
ATOM     16  H   UNL A   1      35.590  18.338  25.014  1.00  0.00     0.164 HD
ATOM     17  O   UNL A   1      36.811  20.375  25.317  1.00  0.00    -0.269 OA
BRANCH  15  18
ATOM     18  C   UNL A   1      33.654  18.812  24.426  1.00  0.00     0.085 C 
ATOM     19  C   UNL A   1      32.365  17.829  22.480  1.00  0.00     0.010 C 
ATOM     20  C   UNL A   1      33.644  17.752  23.316  1.00  0.00     0.008 C 
ATOM     21  C   UNL A   1      33.740  16.437  24.088  1.00  0.00     0.005 C 
ATOM     22  C   UNL A   1      32.958  16.665  25.377  1.00  0.00     0.002 C 
ATOM     23  C   UNL A   1      32.872  18.179  25.578  1.00  0.00     0.025 C 
ENDBRANCH  15  18
ENDBRANCH  10  14
ENDBRANCH   8   9
ENDBRANCH   4   7
ENDBRANCH   2   3
ENDBRANCH   1   2
BRANCH   1  24
ATOM     24  C   UNL A   1      33.549  28.790  25.343  1.00  0.00     0.023 C 
BRANCH  24  25
ATOM     25  C   UNL A   1      32.915  29.269  26.643  1.00  0.00     0.116 C 
BRANCH  25  26
ATOM     26  N   UNL A   1      32.804  30.718  26.729  1.00  0.00    -0.352 N 
ATOM     27  C   UNL A   1      33.659  31.600  27.345  1.00  0.00     0.251 C 
ATOM     28  H   UNL A   1      32.017  31.116  26.291  1.00  0.00     0.163 HD
ATOM     29  O   UNL A   1      33.366  32.787  27.437  1.00  0.00    -0.269 OA
BRANCH  27  30
ATOM     30  C   UNL A   1      34.918  31.090  27.925  1.00  0.00     0.039 A 
ATOM     31  C   UNL A   1      36.014  31.948  28.027  1.00  0.00     0.014 A 
ATOM     32  C   UNL A   1      34.994  29.780  28.405  1.00  0.00     0.014 A 
ATOM     33  C   UNL A   1      37.175  31.505  28.665  1.00  0.00     0.010 A 
ATOM     34  C   UNL A   1      36.118  29.372  29.113  1.00  0.00     0.010 A 
ATOM     35  C   UNL A   1      37.226  30.224  29.238  1.00  0.00    -0.014 A 
BRANCH  35  36
ATOM     36  C   UNL A   1      38.435  29.744  29.953  1.00  0.00     0.031 A 
ATOM     37  C   UNL A   1      38.756  30.276  31.325  1.00  0.00     0.074 A 
ATOM     38  C   UNL A   1      39.284  28.895  29.341  1.00  0.00     0.049 A 
ATOM     39  N   UNL A   1      39.788  30.024  32.086  1.00  0.00    -0.248 NA
ATOM     40  C   UNL A   1      37.807  31.243  31.903  1.00  0.00     0.031 C 
ATOM     41  C   UNL A   1      39.124  28.367  27.985  1.00  0.00     0.029 A 
ATOM     42  N   UNL A   1      40.464  28.344  29.774  1.00  0.00    -0.354 N 
ATOM     43  C   UNL A   1      39.632  30.825  33.212  1.00  0.00     0.074 A 
ATOM     44  C   UNL A   1      38.432  31.605  33.013  1.00  0.00     0.031 C 
ATOM     45  C   UNL A   1      40.158  27.559  27.702  1.00  0.00     0.029 A 
ATOM     46  C   UNL A   1      41.071  27.535  28.840  1.00  0.00     0.049 A 
ATOM     47  H   UNL A   1      40.840  28.510  30.668  1.00  0.00     0.167 HD
ATOM     48  C   UNL A   1      40.398  30.882  34.327  1.00  0.00     0.034 A 
ATOM     49  C   UNL A   1      42.233  26.856  28.896  1.00  0.00     0.034 A 
ATOM     50  C   UNL A   1      41.569  30.076  34.537  1.00  0.00     0.049 A 
ATOM     51  C   UNL A   1      43.050  26.911  30.159  1.00  0.00     0.074 A 
ATOM     52  C   UNL A   1      42.374  30.002  35.660  1.00  0.00     0.029 A 
ATOM     53  N   UNL A   1      42.108  29.208  33.600  1.00  0.00    -0.354 N 
ATOM     54  N   UNL A   1      42.811  27.564  31.270  1.00  0.00    -0.248 NA
ATOM     55  C   UNL A   1      44.276  26.101  30.191  1.00  0.00     0.031 C 
ATOM     56  C   UNL A   1      43.417  29.111  35.391  1.00  0.00     0.029 A 
ATOM     57  C   UNL A   1      43.238  28.597  34.117  1.00  0.00     0.049 A 
ATOM     58  H   UNL A   1      41.742  29.050  32.700  1.00  0.00     0.167 HD
ATOM     59  C   UNL A   1      43.827  27.207  32.149  1.00  0.00     0.074 A 
ATOM     60  C   UNL A   1      44.677  26.270  31.445  1.00  0.00     0.031 C 
ATOM     61  C   UNL A   1      44.040  27.622  33.423  1.00  0.00     0.034 A 
BRANCH  48  62
ATOM     62  C   UNL A   1      39.961  31.819  35.424  1.00  0.00     0.023 A 
ATOM     63  C   UNL A   1      40.464  33.137  35.459  1.00  0.00     0.012 A 
ATOM     64  C   UNL A   1      39.026  31.413  36.397  1.00  0.00     0.148 A 
ATOM     65  C   UNL A   1      40.083  34.018  36.470  1.00  0.00     0.002 A 
ATOM     66  C   UNL A   1      38.611  32.315  37.370  1.00  0.00     0.091 A 
ATOM     67  F   UNL A   1      38.573  30.153  36.362  1.00  0.00    -0.205 F 
ATOM     68  C   UNL A   1      39.149  33.611  37.418  1.00  0.00     0.022 A 
BRANCH  66  69
ATOM     69  S   UNL A   1      37.350  31.915  38.586  1.00  0.00     0.127 S 
ATOM     70  O   UNL A   1      38.040  32.223  39.838  1.00  0.00    -0.237 OA
ATOM     71  O   UNL A   1      36.279  32.849  38.235  1.00  0.00    -0.237 OA
ATOM     72  O   UNL A   1      37.024  30.511  38.380  1.00  0.00    -0.744 OA
ENDBRANCH  66  69
ENDBRANCH  48  62
BRANCH  49  73
ATOM     73  C   UNL A   1      42.657  26.004  27.748  1.00  0.00     0.023 A 
ATOM     74  C   UNL A   1      43.617  26.495  26.840  1.00  0.00     0.012 A 
ATOM     75  C   UNL A   1      42.134  24.711  27.561  1.00  0.00     0.148 A 
ATOM     76  C   UNL A   1      44.019  25.729  25.746  1.00  0.00     0.002 A 
ATOM     77  C   UNL A   1      42.580  23.931  26.499  1.00  0.00     0.091 A 
ATOM     78  F   UNL A   1      41.219  24.264  28.431  1.00  0.00    -0.205 F 
ATOM     79  C   UNL A   1      43.508  24.446  25.580  1.00  0.00     0.022 A 
BRANCH  77  80
ATOM     80  S   UNL A   1      42.075  22.222  26.276  1.00  0.00     0.127 S 
ATOM     81  O   UNL A   1      42.643  21.585  27.461  1.00  0.00    -0.237 OA
ATOM     82  O   UNL A   1      40.617  22.339  26.277  1.00  0.00    -0.237 OA
ATOM     83  O   UNL A   1      42.644  21.805  25.002  1.00  0.00    -0.744 OA
ENDBRANCH  77  80
ENDBRANCH  49  73
BRANCH  61  84
ATOM     84  C   UNL A   1      45.201  27.019  34.170  1.00  0.00     0.023 A 
ATOM     85  C   UNL A   1      46.472  27.624  34.117  1.00  0.00     0.012 A 
ATOM     86  C   UNL A   1      45.008  25.886  34.987  1.00  0.00     0.148 A 
ATOM     87  C   UNL A   1      47.542  27.087  34.834  1.00  0.00     0.002 A 
ATOM     88  C   UNL A   1      46.064  25.390  35.740  1.00  0.00     0.091 A 
ATOM     89  F   UNL A   1      43.795  25.313  35.009  1.00  0.00    -0.205 F 
ATOM     90  C   UNL A   1      47.335  25.980  35.654  1.00  0.00     0.022 A 
BRANCH  88  91
ATOM     91  S   UNL A   1      45.863  24.034  36.900  1.00  0.00     0.127 S 
ATOM     92  O   UNL A   1      45.251  23.009  36.057  1.00  0.00    -0.237 OA
ATOM     93  O   UNL A   1      47.245  23.756  37.294  1.00  0.00    -0.237 OA
ATOM     94  O   UNL A   1      45.022  24.546  37.974  1.00  0.00    -0.744 OA
ENDBRANCH  88  91
ENDBRANCH  61  84
ENDBRANCH  35  36
ENDBRANCH  27  30
ENDBRANCH  25  26
ENDBRANCH  24  25
ENDBRANCH   1  24
TORSDOF 17
ENDMDL
MODEL 3
REMARK VINA RESULT:     -11.5      2.894      8.021
REMARK SMILES C[C@@H]1CCC[C@H]1NC(=O)c1csc(/C=C/C(=O)NCCCCNC(=O)c2ccc(-c3c4nc(c(-c5cccc(S(=O)(=O)[O-])c5F)c5ccc([nH]5)c(-c5cccc(S(=O)(=O)[O-])c5F)c5nc(c(-c6cccc(S(=O)(=O)[O-])c6F)c6ccc3[nH]6)C=C5)C=C4)cc2)c1
REMARK SMILES IDX 20 1 19 2 18 3 16 4 17 5 15 7 14 8 13 9 10 10 11 11 89 12
REMARK SMILES IDX 12 13 8 14 7 15 9 17 6 18 1 19 2 20 3 21 4 22 5 23 21 24
REMARK SMILES IDX 22 25 23 26 24 27 25 29 26 30 27 31 88 32 28 33 87 34 29 35
REMARK SMILES IDX 30 36 31 37 81 38 32 39 86 40 80 41 82 42 33 43 85 44 79 45
REMARK SMILES IDX 78 46 34 48 66 49 46 50 65 51 47 52 50 53 64 54 83 55 48 56
REMARK SMILES IDX 49 57 63 59 84 60 51 61 35 62 36 63 44 64 37 65 39 66 45 67
REMARK SMILES IDX 38 68 40 69 41 70 42 71 43 72 67 73 68 74 76 75 69 76 71 77
REMARK SMILES IDX 77 78 70 79 72 80 73 81 74 82 75 83 52 84 53 85 61 86 54 87
REMARK SMILES IDX 56 88 62 89 55 90 57 91 58 92 59 93 60 94
REMARK H PARENT 18 6 7 16 23 28 82 47 50 58
REMARK Flexibility Score: inf
ROOT
ATOM      1  C   UNL A   1      32.848  29.002  23.341  1.00  0.00     0.023 C 
ENDROOT
BRANCH   1   2
ATOM      2  C   UNL A   1      31.805  27.966  22.918  1.00  0.00     0.116 C 
BRANCH   2   3
ATOM      3  N   UNL A   1      32.215  27.294  21.697  1.00  0.00    -0.353 N 
ATOM      4  C   UNL A   1      32.911  26.142  21.504  1.00  0.00     0.244 C 
ATOM      5  O   UNL A   1      33.099  25.722  20.364  1.00  0.00    -0.270 OA
ATOM      6  H   UNL A   1      31.942  27.750  20.868  1.00  0.00     0.163 HD
BRANCH   4   7
ATOM      7  C   UNL A   1      33.363  25.325  22.652  1.00  0.00     0.072 C 
ATOM      8  C   UNL A   1      33.197  23.998  22.741  1.00  0.00     0.024 C 
BRANCH   8   9
ATOM      9  C   UNL A   1      33.715  23.213  23.808  1.00  0.00     0.028 A 
ATOM     10  C   UNL A   1      34.816  21.448  24.923  1.00  0.00     0.051 A 
ATOM     11  C   UNL A   1      34.301  22.174  25.978  1.00  0.00     0.079 A 
ATOM     12  C   UNL A   1      34.521  22.096  23.682  1.00  0.00     0.033 A 
ATOM     13  S   UNL A   1      33.382  23.520  25.465  1.00  0.00    -0.144 S 
BRANCH  10  14
ATOM     14  C   UNL A   1      35.599  20.227  25.039  1.00  0.00     0.252 C 
ATOM     15  N   UNL A   1      34.982  19.017  24.846  1.00  0.00    -0.349 N 
ATOM     16  H   UNL A   1      35.551  18.229  24.997  1.00  0.00     0.164 HD
ATOM     17  O   UNL A   1      36.809  20.251  25.247  1.00  0.00    -0.269 OA
BRANCH  15  18
ATOM     18  C   UNL A   1      33.609  18.725  24.449  1.00  0.00     0.085 C 
ATOM     19  C   UNL A   1      32.249  17.848  22.500  1.00  0.00     0.010 C 
ATOM     20  C   UNL A   1      33.561  17.732  23.280  1.00  0.00     0.008 C 
ATOM     21  C   UNL A   1      33.694  16.375  23.968  1.00  0.00     0.005 C 
ATOM     22  C   UNL A   1      32.962  16.521  25.298  1.00  0.00     0.002 C 
ATOM     23  C   UNL A   1      32.876  18.020  25.591  1.00  0.00     0.025 C 
ENDBRANCH  15  18
ENDBRANCH  10  14
ENDBRANCH   8   9
ENDBRANCH   4   7
ENDBRANCH   2   3
ENDBRANCH   1   2
BRANCH   1  24
ATOM     24  C   UNL A   1      33.886  28.469  24.332  1.00  0.00     0.023 C 
BRANCH  24  25
ATOM     25  C   UNL A   1      33.488  28.588  25.798  1.00  0.00     0.116 C 
BRANCH  25  26
ATOM     26  N   UNL A   1      32.839  29.853  26.116  1.00  0.00    -0.352 N 
ATOM     27  C   UNL A   1      33.280  30.844  26.958  1.00  0.00     0.251 C 
ATOM     28  H   UNL A   1      31.975  30.016  25.674  1.00  0.00     0.163 HD
ATOM     29  O   UNL A   1      32.561  31.802  27.220  1.00  0.00    -0.269 OA
BRANCH  27  30
ATOM     30  C   UNL A   1      34.619  30.721  27.570  1.00  0.00     0.039 A 
ATOM     31  C   UNL A   1      35.423  31.857  27.677  1.00  0.00     0.014 A 
ATOM     32  C   UNL A   1      35.055  29.493  28.074  1.00  0.00     0.014 A 
ATOM     33  C   UNL A   1      36.647  31.771  28.344  1.00  0.00     0.010 A 
ATOM     34  C   UNL A   1      36.232  29.431  28.810  1.00  0.00     0.010 A 
ATOM     35  C   UNL A   1      37.048  30.564  28.940  1.00  0.00    -0.014 A 
BRANCH  35  36
ATOM     36  C   UNL A   1      38.327  30.458  29.685  1.00  0.00     0.031 A 
ATOM     37  C   UNL A   1      39.485  29.704  29.084  1.00  0.00     0.074 A 
ATOM     38  C   UNL A   1      38.424  30.966  30.929  1.00  0.00     0.049 A 
ATOM     39  N   UNL A   1      40.661  29.453  29.598  1.00  0.00    -0.248 NA
ATOM     40  C   UNL A   1      39.283  29.130  27.743  1.00  0.00     0.031 C 
ATOM     41  C   UNL A   1      37.350  31.652  31.650  1.00  0.00     0.029 A 
ATOM     42  N   UNL A   1      39.471  30.965  31.817  1.00  0.00    -0.354 N 
ATOM     43  C   UNL A   1      41.322  28.665  28.662  1.00  0.00     0.074 A 
ATOM     44  C   UNL A   1      40.399  28.440  27.572  1.00  0.00     0.031 C 
ATOM     45  C   UNL A   1      37.797  32.017  32.863  1.00  0.00     0.029 A 
ATOM     46  C   UNL A   1      39.175  31.564  33.020  1.00  0.00     0.049 A 
ATOM     47  H   UNL A   1      40.350  30.574  31.612  1.00  0.00     0.167 HD
ATOM     48  C   UNL A   1      42.592  28.199  28.689  1.00  0.00     0.034 A 
ATOM     49  C   UNL A   1      39.929  31.726  34.124  1.00  0.00     0.034 A 
ATOM     50  C   UNL A   1      43.518  28.457  29.758  1.00  0.00     0.049 A 
ATOM     51  C   UNL A   1      41.349  31.227  34.117  1.00  0.00     0.074 A 
ATOM     52  C   UNL A   1      44.850  28.094  29.850  1.00  0.00     0.029 A 
ATOM     53  N   UNL A   1      43.206  29.138  30.925  1.00  0.00    -0.354 N 
ATOM     54  N   UNL A   1      42.002  30.607  33.164  1.00  0.00    -0.248 NA
ATOM     55  C   UNL A   1      42.149  31.485  35.323  1.00  0.00     0.031 C 
ATOM     56  C   UNL A   1      45.336  28.530  31.086  1.00  0.00     0.029 A 
ATOM     57  C   UNL A   1      44.319  29.202  31.746  1.00  0.00     0.049 A 
ATOM     58  H   UNL A   1      42.324  29.518  31.138  1.00  0.00     0.167 HD
ATOM     59  C   UNL A   1      43.301  30.447  33.634  1.00  0.00     0.074 A 
ATOM     60  C   UNL A   1      43.345  31.045  34.952  1.00  0.00     0.031 C 
ATOM     61  C   UNL A   1      44.361  29.853  33.031  1.00  0.00     0.034 A 
BRANCH  48  62
ATOM     62  C   UNL A   1      43.066  27.398  27.502  1.00  0.00     0.023 A 
ATOM     63  C   UNL A   1      43.818  28.029  26.489  1.00  0.00     0.012 A 
ATOM     64  C   UNL A   1      42.803  26.018  27.406  1.00  0.00     0.148 A 
ATOM     65  C   UNL A   1      44.257  27.313  25.377  1.00  0.00     0.002 A 
ATOM     66  C   UNL A   1      43.290  25.299  26.320  1.00  0.00     0.091 A 
ATOM     67  F   UNL A   1      42.070  25.438  28.366  1.00  0.00    -0.205 F 
ATOM     68  C   UNL A   1      44.002  25.947  25.298  1.00  0.00     0.022 A 
BRANCH  66  69
ATOM     69  S   UNL A   1      43.088  23.521  26.166  1.00  0.00     0.127 S 
ATOM     70  O   UNL A   1      43.303  23.322  24.734  1.00  0.00    -0.237 OA
ATOM     71  O   UNL A   1      44.164  23.015  27.020  1.00  0.00    -0.237 OA
ATOM     72  O   UNL A   1      41.745  23.226  26.645  1.00  0.00    -0.744 OA
ENDBRANCH  66  69
ENDBRANCH  48  62
BRANCH  49  73
ATOM     73  C   UNL A   1      39.383  32.458  35.302  1.00  0.00     0.023 A 
ATOM     74  C   UNL A   1      39.504  33.861  35.362  1.00  0.00     0.012 A 
ATOM     75  C   UNL A   1      38.731  31.781  36.350  1.00  0.00     0.148 A 
ATOM     76  C   UNL A   1      39.020  34.572  36.460  1.00  0.00     0.002 A 
ATOM     77  C   UNL A   1      38.202  32.501  37.416  1.00  0.00     0.091 A 
ATOM     78  F   UNL A   1      38.631  30.447  36.278  1.00  0.00    -0.205 F 
ATOM     79  C   UNL A   1      38.362  33.894  37.482  1.00  0.00     0.022 A 
BRANCH  77  80
ATOM     80  S   UNL A   1      37.230  31.731  38.715  1.00  0.00     0.127 S 
ATOM     81  O   UNL A   1      38.089  31.915  39.881  1.00  0.00    -0.237 OA
ATOM     82  O   UNL A   1      36.017  32.549  38.706  1.00  0.00    -0.237 OA
ATOM     83  O   UNL A   1      37.028  30.352  38.292  1.00  0.00    -0.744 OA
ENDBRANCH  77  80
ENDBRANCH  49  73
BRANCH  61  84
ATOM     84  C   UNL A   1      45.682  29.874  33.756  1.00  0.00     0.023 A 
ATOM     85  C   UNL A   1      46.044  28.808  34.603  1.00  0.00     0.012 A 
ATOM     86  C   UNL A   1      46.595  30.925  33.536  1.00  0.00     0.148 A 
ATOM     87  C   UNL A   1      47.280  28.809  35.251  1.00  0.00     0.002 A 
ATOM     88  C   UNL A   1      47.845  30.891  34.140  1.00  0.00     0.091 A 
ATOM     89  F   UNL A   1      46.223  31.939  32.741  1.00  0.00    -0.205 F 
ATOM     90  C   UNL A   1      48.184  29.841  35.010  1.00  0.00     0.022 A 
BRANCH  88  91
ATOM     91  S   UNL A   1      49.107  32.123  33.807  1.00  0.00     0.127 S 
ATOM     92  O   UNL A   1      50.209  31.656  34.647  1.00  0.00    -0.237 OA
ATOM     93  O   UNL A   1      49.326  31.962  32.368  1.00  0.00    -0.237 OA
ATOM     94  O   UNL A   1      48.529  33.404  34.189  1.00  0.00    -0.744 OA
ENDBRANCH  88  91
ENDBRANCH  61  84
ENDBRANCH  35  36
ENDBRANCH  27  30
ENDBRANCH  25  26
ENDBRANCH  24  25
ENDBRANCH   1  24
TORSDOF 17
ENDMDL
