MODEL 1
REMARK VINA RESULT:     -12.0      0.000      0.000
REMARK SMILES O=C(NCCCCNC(=O)c1ccc(Cn2cc(Br)cc([N+](=O)[O-])c2=O)nc1)c1ccc(-c2c3nc(c(-c4cccc(S(=O)(=O)[O-])c4F)c4ccc([nH]4)c(-c4cccc(S(=O)(=O)[O-])c4F)c4nc(c(-c5cccc(S(=O)(=O)[O-])c5F)c5ccc2[nH]5)C=C4)C=C3)cc1
REMARK SMILES IDX 5 1 4 2 3 3 1 4 2 5 29 7 30 8 91 9 31 10 90 11 32 12 33 13
REMARK SMILES IDX 34 14 84 15 35 16 89 17 83 18 85 19 36 20 88 21 82 22 81 23
REMARK SMILES IDX 37 25 69 26 49 27 68 28 50 29 53 30 67 31 86 32 51 33 52 34
REMARK SMILES IDX 66 36 87 37 54 38 38 39 39 40 47 41 40 42 42 43 48 44 41 45
REMARK SMILES IDX 43 46 44 47 45 48 46 49 70 50 71 51 79 52 72 53 74 54 80 55
REMARK SMILES IDX 73 56 75 57 76 58 77 59 78 60 55 61 56 62 64 63 57 64 59 65
REMARK SMILES IDX 65 66 58 67 60 68 61 69 62 70 63 71 6 72 7 73 8 74 9 75
REMARK SMILES IDX 10 77 11 78 12 79 28 80 13 81 27 82 14 83 15 84 16 85 17 86
REMARK SMILES IDX 25 87 18 88 21 89 26 90 19 91 20 92 22 93 23 94 24 95
REMARK H PARENT 3 6 85 24 53 35 8 76
REMARK Flexibility Score: inf
ROOT
ATOM      1  C   UNL A   1      31.480  31.990  26.648  1.00  0.00     0.023 C 
ENDROOT
BRANCH   1   2
ATOM      2  C   UNL A   1      32.752  32.628  27.189  1.00  0.00     0.116 C 
BRANCH   2   3
ATOM      3  N   UNL A   1      32.559  34.002  27.624  1.00  0.00    -0.352 N 
ATOM      4  O   UNL A   1      32.792  35.812  28.940  1.00  0.00    -0.269 OA
ATOM      5  C   UNL A   1      33.186  34.690  28.636  1.00  0.00     0.251 C 
ATOM      6  H   UNL A   1      31.883  34.512  27.123  1.00  0.00     0.163 HD
BRANCH   5   7
ATOM      7  C   UNL A   1      34.315  34.073  29.367  1.00  0.00     0.039 A 
ATOM      8  C   UNL A   1      35.622  34.408  28.999  1.00  0.00     0.014 A 
ATOM      9  C   UNL A   1      34.095  33.158  30.400  1.00  0.00     0.014 A 
ATOM     10  C   UNL A   1      36.701  33.852  29.690  1.00  0.00     0.010 A 
ATOM     11  C   UNL A   1      35.167  32.679  31.146  1.00  0.00     0.010 A 
ATOM     12  C   UNL A   1      36.483  32.995  30.780  1.00  0.00    -0.014 A 
BRANCH  12  13
ATOM     13  C   UNL A   1      37.618  32.368  31.506  1.00  0.00     0.031 A 
ATOM     14  C   UNL A   1      38.366  31.221  30.875  1.00  0.00     0.074 A 
ATOM     15  C   UNL A   1      37.951  32.789  32.743  1.00  0.00     0.049 A 
ATOM     16  N   UNL A   1      39.340  30.504  31.370  1.00  0.00    -0.248 NA
ATOM     17  C   UNL A   1      37.952  30.808  29.521  1.00  0.00     0.031 C 
ATOM     18  C   UNL A   1      37.265  33.841  33.494  1.00  0.00     0.029 A 
ATOM     19  N   UNL A   1      38.946  32.371  33.591  1.00  0.00    -0.354 N 
ATOM     20  C   UNL A   1      39.626  29.541  30.411  1.00  0.00     0.074 A 
ATOM     21  C   UNL A   1      38.703  29.736  29.318  1.00  0.00     0.031 C 
ATOM     22  C   UNL A   1      37.867  33.997  34.684  1.00  0.00     0.029 A 
ATOM     23  C   UNL A   1      38.965  33.039  34.794  1.00  0.00     0.049 A 
ATOM     24  H   UNL A   1      39.587  31.659  33.362  1.00  0.00     0.167 HD
ATOM     25  C   UNL A   1      40.601  28.604  30.417  1.00  0.00     0.034 A 
ATOM     26  C   UNL A   1      39.770  32.897  35.865  1.00  0.00     0.034 A 
ATOM     27  C   UNL A   1      41.573  28.460  31.461  1.00  0.00     0.049 A 
ATOM     28  C   UNL A   1      40.881  31.884  35.825  1.00  0.00     0.074 A 
ATOM     29  C   UNL A   1      42.649  27.592  31.511  1.00  0.00     0.029 A 
ATOM     30  N   UNL A   1      41.601  29.209  32.624  1.00  0.00    -0.354 N 
ATOM     31  N   UNL A   1      41.200  31.056  34.861  1.00  0.00    -0.248 NA
ATOM     32  C   UNL A   1      41.758  31.800  37.003  1.00  0.00     0.031 C 
ATOM     33  C   UNL A   1      43.330  27.815  32.710  1.00  0.00     0.029 A 
ATOM     34  C   UNL A   1      42.681  28.827  33.398  1.00  0.00     0.049 A 
ATOM     35  H   UNL A   1      40.951  29.907  32.865  1.00  0.00     0.167 HD
ATOM     36  C   UNL A   1      42.324  30.369  35.305  1.00  0.00     0.074 A 
ATOM     37  C   UNL A   1      42.642  30.885  36.619  1.00  0.00     0.031 C 
ATOM     38  C   UNL A   1      43.018  29.388  34.679  1.00  0.00     0.034 A 
BRANCH  25  39
ATOM     39  C   UNL A   1      40.736  27.710  29.218  1.00  0.00     0.023 A 
ATOM     40  C   UNL A   1      39.884  26.593  29.101  1.00  0.00     0.012 A 
ATOM     41  C   UNL A   1      41.604  28.040  28.160  1.00  0.00     0.148 A 
ATOM     42  C   UNL A   1      39.898  25.814  27.947  1.00  0.00     0.002 A 
ATOM     43  C   UNL A   1      41.590  27.276  27.000  1.00  0.00     0.091 A 
ATOM     44  F   UNL A   1      42.410  29.102  28.303  1.00  0.00    -0.205 F 
ATOM     45  C   UNL A   1      40.739  26.161  26.894  1.00  0.00     0.022 A 
BRANCH  43  46
ATOM     46  S   UNL A   1      42.592  27.664  25.563  1.00  0.00     0.127 S 
ATOM     47  O   UNL A   1      43.930  27.749  26.150  1.00  0.00    -0.237 OA
ATOM     48  O   UNL A   1      42.372  26.495  24.713  1.00  0.00    -0.237 OA
ATOM     49  O   UNL A   1      42.074  28.918  25.033  1.00  0.00    -0.744 OA
ENDBRANCH  43  46
ENDBRANCH  25  39
BRANCH  26  50
ATOM     50  C   UNL A   1      39.582  33.787  37.042  1.00  0.00     0.023 A 
ATOM     51  C   UNL A   1      39.995  35.132  36.964  1.00  0.00     0.012 A 
ATOM     52  C   UNL A   1      38.936  33.329  38.206  1.00  0.00     0.148 A 
ATOM     53  C   UNL A   1      39.774  36.004  38.032  1.00  0.00     0.002 A 
ATOM     54  C   UNL A   1      38.683  34.212  39.248  1.00  0.00     0.091 A 
ATOM     55  F   UNL A   1      38.558  32.044  38.254  1.00  0.00    -0.205 F 
ATOM     56  C   UNL A   1      39.110  35.548  39.167  1.00  0.00     0.022 A 
BRANCH  54  57
ATOM     57  S   UNL A   1      37.745  33.747  40.708  1.00  0.00     0.127 S 
ATOM     58  O   UNL A   1      38.665  32.827  41.374  1.00  0.00    -0.237 OA
ATOM     59  O   UNL A   1      37.573  35.038  41.374  1.00  0.00    -0.237 OA
ATOM     60  O   UNL A   1      36.512  33.151  40.214  1.00  0.00    -0.744 OA
ENDBRANCH  54  57
ENDBRANCH  26  50
BRANCH  38  61
ATOM     61  C   UNL A   1      44.209  28.794  35.377  1.00  0.00     0.023 A 
ATOM     62  C   UNL A   1      45.470  29.394  35.212  1.00  0.00     0.012 A 
ATOM     63  C   UNL A   1      44.039  27.767  36.326  1.00  0.00     0.148 A 
ATOM     64  C   UNL A   1      46.552  28.981  35.988  1.00  0.00     0.002 A 
ATOM     65  C   UNL A   1      45.113  27.384  37.119  1.00  0.00     0.091 A 
ATOM     66  F   UNL A   1      42.824  27.217  36.461  1.00  0.00    -0.205 F 
ATOM     67  C   UNL A   1      46.371  27.989  36.950  1.00  0.00     0.022 A 
BRANCH  65  68
ATOM     68  S   UNL A   1      44.963  26.175  38.440  1.00  0.00     0.127 S 
ATOM     69  O   UNL A   1      44.383  25.034  37.732  1.00  0.00    -0.237 OA
ATOM     70  O   UNL A   1      46.354  25.996  38.852  1.00  0.00    -0.237 OA
ATOM     71  O   UNL A   1      44.099  26.779  39.445  1.00  0.00    -0.744 OA
ENDBRANCH  65  68
ENDBRANCH  38  61
ENDBRANCH  12  13
ENDBRANCH   5   7
ENDBRANCH   2   3
ENDBRANCH   1   2
BRANCH   1  72
ATOM     72  C   UNL A   1      31.486  30.464  26.592  1.00  0.00     0.023 C 
BRANCH  72  73
ATOM     73  C   UNL A   1      31.866  29.866  25.240  1.00  0.00     0.116 C 
BRANCH  73  74
ATOM     74  N   UNL A   1      30.831  30.043  24.235  1.00  0.00    -0.352 N 
ATOM     75  C   UNL A   1      30.584  29.298  23.110  1.00  0.00     0.252 C 
ATOM     76  H   UNL A   1      30.222  30.803  24.382  1.00  0.00     0.163 HD
ATOM     77  O   UNL A   1      29.749  29.650  22.284  1.00  0.00    -0.269 OA
BRANCH  75  78
ATOM     78  C   UNL A   1      31.359  28.075  22.876  1.00  0.00     0.058 A 
ATOM     79  C   UNL A   1      32.720  28.097  22.573  1.00  0.00     0.017 A 
ATOM     80  C   UNL A   1      30.708  26.860  22.925  1.00  0.00     0.125 A 
ATOM     81  C   UNL A   1      33.359  26.904  22.235  1.00  0.00     0.026 A 
ATOM     82  N   UNL A   1      31.311  25.693  22.604  1.00  0.00    -0.259 NA
ATOM     83  C   UNL A   1      32.617  25.723  22.233  1.00  0.00     0.060 A 
BRANCH  83  84
ATOM     84  C   UNL A   1      33.231  24.406  21.801  1.00  0.00     0.181 C 
BRANCH  84  85
ATOM     85  N   UNL A   1      33.574  23.565  22.949  1.00  0.00    -0.303 N 
ATOM     86  C   UNL A   1      34.749  23.799  23.653  1.00  0.00     0.105 A 
ATOM     87  C   UNL A   1      32.690  22.522  23.291  1.00  0.00     0.329 A 
ATOM     88  C   UNL A   1      35.064  23.089  24.747  1.00  0.00     0.041 A 
ATOM     89  C   UNL A   1      32.967  21.908  24.611  1.00  0.00     0.335 A 
ATOM     90  O   UNL A   1      31.819  22.100  22.539  1.00  0.00    -0.261 OA
ATOM     91  Br  UNL A   1      36.677  23.313  25.650  1.00  0.00    -0.049 Br
ATOM     92  C   UNL A   1      34.107  22.147  25.281  1.00  0.00     0.109 A 
BRANCH  89  93
ATOM     93  N   UNL A   1      31.991  21.036  25.215  1.00  0.00     0.068 N 
ATOM     94  O   UNL A   1      31.031  21.551  25.798  1.00  0.00    -0.258 OA
ATOM     95  O   UNL A   1      32.214  19.815  25.170  1.00  0.00    -0.258 OA
ENDBRANCH  89  93
ENDBRANCH  84  85
ENDBRANCH  83  84
ENDBRANCH  75  78
ENDBRANCH  73  74
ENDBRANCH  72  73
ENDBRANCH   1  72
TORSDOF 17
ENDMDL
MODEL 2
REMARK VINA RESULT:     -12.0      3.919      8.852
REMARK SMILES O=C(NCCCCNC(=O)c1ccc(Cn2cc(Br)cc([N+](=O)[O-])c2=O)nc1)c1ccc(-c2c3nc(c(-c4cccc(S(=O)(=O)[O-])c4F)c4ccc([nH]4)c(-c4cccc(S(=O)(=O)[O-])c4F)c4nc(c(-c5cccc(S(=O)(=O)[O-])c5F)c5ccc2[nH]5)C=C4)C=C3)cc1
REMARK SMILES IDX 5 1 4 2 3 3 1 4 2 5 29 7 30 8 91 9 31 10 90 11 32 12 33 13
REMARK SMILES IDX 34 14 84 15 35 16 89 17 83 18 85 19 36 20 88 21 82 22 81 23
REMARK SMILES IDX 37 25 69 26 49 27 68 28 50 29 53 30 67 31 86 32 51 33 52 34
REMARK SMILES IDX 66 36 87 37 54 38 38 39 39 40 47 41 40 42 42 43 48 44 41 45
REMARK SMILES IDX 43 46 44 47 45 48 46 49 70 50 71 51 79 52 72 53 74 54 80 55
REMARK SMILES IDX 73 56 75 57 76 58 77 59 78 60 55 61 56 62 64 63 57 64 59 65
REMARK SMILES IDX 65 66 58 67 60 68 61 69 62 70 63 71 6 72 7 73 8 74 9 75
REMARK SMILES IDX 10 77 11 78 12 79 28 80 13 81 27 82 14 83 15 84 16 85 17 86
REMARK SMILES IDX 25 87 18 88 21 89 26 90 19 91 20 92 22 93 23 94 24 95
REMARK H PARENT 3 6 85 24 53 35 8 76
REMARK Flexibility Score: inf
ROOT
ATOM      1  C   UNL A   1      34.023  27.904  25.521  1.00  0.00     0.023 C 
ENDROOT
BRANCH   1   2
ATOM      2  C   UNL A   1      33.586  28.282  26.930  1.00  0.00     0.116 C 
BRANCH   2   3
ATOM      3  N   UNL A   1      33.467  29.719  27.123  1.00  0.00    -0.352 N 
ATOM      4  O   UNL A   1      34.004  31.755  27.913  1.00  0.00    -0.269 OA
ATOM      5  C   UNL A   1      34.342  30.590  27.729  1.00  0.00     0.251 C 
ATOM      6  H   UNL A   1      32.643  30.125  26.771  1.00  0.00     0.163 HD
BRANCH   5   7
ATOM      7  C   UNL A   1      35.673  30.120  28.173  1.00  0.00     0.039 A 
ATOM      8  C   UNL A   1      36.760  30.254  27.305  1.00  0.00     0.014 A 
ATOM      9  C   UNL A   1      35.852  29.537  29.431  1.00  0.00     0.014 A 
ATOM     10  C   UNL A   1      38.029  29.835  27.714  1.00  0.00     0.010 A 
ATOM     11  C   UNL A   1      37.130  29.207  29.869  1.00  0.00     0.010 A 
ATOM     12  C   UNL A   1      38.228  29.323  29.006  1.00  0.00    -0.014 A 
BRANCH  12  13
ATOM     13  C   UNL A   1      39.563  28.841  29.446  1.00  0.00     0.031 A 
ATOM     14  C   UNL A   1      40.290  29.564  30.552  1.00  0.00     0.074 A 
ATOM     15  C   UNL A   1      40.144  27.791  28.833  1.00  0.00     0.049 A 
ATOM     16  N   UNL A   1      41.483  29.338  31.036  1.00  0.00    -0.248 NA
ATOM     17  C   UNL A   1      39.600  30.706  31.181  1.00  0.00     0.031 C 
ATOM     18  C   UNL A   1      39.579  27.048  27.706  1.00  0.00     0.029 A 
ATOM     19  N   UNL A   1      41.350  27.176  29.066  1.00  0.00    -0.354 N 
ATOM     20  C   UNL A   1      41.697  30.323  31.991  1.00  0.00     0.074 A 
ATOM     21  C   UNL A   1      40.531  31.174  31.999  1.00  0.00     0.031 C 
ATOM     22  C   UNL A   1      40.428  26.068  27.355  1.00  0.00     0.029 A 
ATOM     23  C   UNL A   1      41.610  26.129  28.212  1.00  0.00     0.049 A 
ATOM     24  H   UNL A   1      41.971  27.457  29.776  1.00  0.00     0.167 HD
ATOM     25  C   UNL A   1      42.752  30.481  32.821  1.00  0.00     0.034 A 
ATOM     26  C   UNL A   1      42.678  25.312  28.124  1.00  0.00     0.034 A 
ATOM     27  C   UNL A   1      43.875  29.591  32.877  1.00  0.00     0.049 A 
ATOM     28  C   UNL A   1      43.815  25.474  29.095  1.00  0.00     0.074 A 
ATOM     29  C   UNL A   1      44.950  29.626  33.746  1.00  0.00     0.029 A 
ATOM     30  N   UNL A   1      44.060  28.500  32.046  1.00  0.00    -0.354 N 
ATOM     31  N   UNL A   1      43.946  26.348  30.063  1.00  0.00    -0.248 NA
ATOM     32  C   UNL A   1      44.936  24.529  28.984  1.00  0.00     0.031 C 
ATOM     33  C   UNL A   1      45.790  28.555  33.439  1.00  0.00     0.029 A 
ATOM     34  C   UNL A   1      45.231  27.849  32.386  1.00  0.00     0.049 A 
ATOM     35  H   UNL A   1      43.451  28.229  31.322  1.00  0.00     0.167 HD
ATOM     36  C   UNL A   1      45.150  26.046  30.688  1.00  0.00     0.074 A 
ATOM     37  C   UNL A   1      45.706  24.900  30.001  1.00  0.00     0.031 C 
ATOM     38  C   UNL A   1      45.744  26.676  31.730  1.00  0.00     0.034 A 
BRANCH  25  39
ATOM     39  C   UNL A   1      42.713  31.608  33.814  1.00  0.00     0.023 A 
ATOM     40  C   UNL A   1      43.167  32.881  33.418  1.00  0.00     0.012 A 
ATOM     41  C   UNL A   1      42.118  31.441  35.079  1.00  0.00     0.148 A 
ATOM     42  C   UNL A   1      43.033  33.975  34.270  1.00  0.00     0.002 A 
ATOM     43  C   UNL A   1      41.960  32.542  35.911  1.00  0.00     0.091 A 
ATOM     44  F   UNL A   1      41.704  30.216  35.433  1.00  0.00    -0.205 F 
ATOM     45  C   UNL A   1      42.420  33.809  35.508  1.00  0.00     0.022 A 
BRANCH  43  46
ATOM     46  S   UNL A   1      41.137  32.453  37.503  1.00  0.00     0.127 S 
ATOM     47  O   UNL A   1      39.846  31.872  37.136  1.00  0.00    -0.237 OA
ATOM     48  O   UNL A   1      42.018  31.558  38.252  1.00  0.00    -0.237 OA
ATOM     49  O   UNL A   1      41.074  33.819  38.005  1.00  0.00    -0.744 OA
ENDBRANCH  43  46
ENDBRANCH  25  39
BRANCH  26  50
ATOM     50  C   UNL A   1      42.684  24.226  27.107  1.00  0.00     0.023 A 
ATOM     51  C   UNL A   1      43.394  24.409  25.904  1.00  0.00     0.012 A 
ATOM     52  C   UNL A   1      42.052  22.992  27.355  1.00  0.00     0.148 A 
ATOM     53  C   UNL A   1      43.467  23.383  24.961  1.00  0.00     0.002 A 
ATOM     54  C   UNL A   1      42.163  21.962  26.430  1.00  0.00     0.091 A 
ATOM     55  F   UNL A   1      41.381  22.846  28.506  1.00  0.00    -0.205 F 
ATOM     56  C   UNL A   1      42.861  22.158  25.227  1.00  0.00     0.022 A 
BRANCH  54  57
ATOM     57  S   UNL A   1      41.506  20.317  26.727  1.00  0.00     0.127 S 
ATOM     58  O   UNL A   1      40.088  20.595  26.942  1.00  0.00    -0.237 OA
ATOM     59  O   UNL A   1      41.818  19.640  25.468  1.00  0.00    -0.237 OA
ATOM     60  O   UNL A   1      42.226  19.805  27.885  1.00  0.00    -0.744 OA
ENDBRANCH  54  57
ENDBRANCH  26  50
BRANCH  38  61
ATOM     61  C   UNL A   1      47.062  26.155  32.228  1.00  0.00     0.023 A 
ATOM     62  C   UNL A   1      47.079  25.241  33.297  1.00  0.00     0.012 A 
ATOM     63  C   UNL A   1      48.250  26.430  31.521  1.00  0.00     0.148 A 
ATOM     64  C   UNL A   1      48.264  24.601  33.656  1.00  0.00     0.002 A 
ATOM     65  C   UNL A   1      49.419  25.763  31.863  1.00  0.00     0.091 A 
ATOM     66  F   UNL A   1      48.200  27.303  30.506  1.00  0.00    -0.205 F 
ATOM     67  C   UNL A   1      49.428  24.850  32.932  1.00  0.00     0.022 A 
BRANCH  65  68
ATOM     68  S   UNL A   1      50.949  25.952  30.941  1.00  0.00     0.127 S 
ATOM     69  O   UNL A   1      50.548  25.507  29.607  1.00  0.00    -0.237 OA
ATOM     70  O   UNL A   1      51.202  27.388  31.056  1.00  0.00    -0.237 OA
ATOM     71  O   UNL A   1      51.930  25.103  31.604  1.00  0.00    -0.744 OA
ENDBRANCH  65  68
ENDBRANCH  38  61
ENDBRANCH  12  13
ENDBRANCH   5   7
ENDBRANCH   2   3
ENDBRANCH   1   2
BRANCH   1  72
ATOM     72  C   UNL A   1      33.630  28.893  24.427  1.00  0.00     0.023 C 
BRANCH  72  73
ATOM     73  C   UNL A   1      33.415  28.281  23.046  1.00  0.00     0.116 C 
BRANCH  73  74
ATOM     74  N   UNL A   1      32.133  28.643  22.463  1.00  0.00    -0.352 N 
ATOM     75  C   UNL A   1      30.920  28.015  22.590  1.00  0.00     0.252 C 
ATOM     76  H   UNL A   1      32.137  29.450  21.900  1.00  0.00     0.163 HD
ATOM     77  O   UNL A   1      29.949  28.369  21.929  1.00  0.00    -0.269 OA
BRANCH  75  78
ATOM     78  C   UNL A   1      30.792  26.881  23.509  1.00  0.00     0.058 A 
ATOM     79  C   UNL A   1      30.509  27.044  24.865  1.00  0.00     0.017 A 
ATOM     80  C   UNL A   1      30.995  25.607  23.021  1.00  0.00     0.125 A 
ATOM     81  C   UNL A   1      30.532  25.929  25.702  1.00  0.00     0.026 A 
ATOM     82  N   UNL A   1      31.019  24.513  23.817  1.00  0.00    -0.259 NA
ATOM     83  C   UNL A   1      30.820  24.681  25.149  1.00  0.00     0.060 A 
BRANCH  83  84
ATOM     84  C   UNL A   1      30.938  23.443  26.016  1.00  0.00     0.181 C 
BRANCH  84  85
ATOM     85  N   UNL A   1      32.089  22.622  25.637  1.00  0.00    -0.303 N 
ATOM     86  C   UNL A   1      31.892  21.344  25.130  1.00  0.00     0.105 A 
ATOM     87  C   UNL A   1      33.377  23.166  25.819  1.00  0.00     0.329 A 
ATOM     88  C   UNL A   1      32.919  20.588  24.714  1.00  0.00     0.041 A 
ATOM     89  C   UNL A   1      34.455  22.392  25.161  1.00  0.00     0.335 A 
ATOM     90  O   UNL A   1      33.605  24.143  26.523  1.00  0.00    -0.261 OA
ATOM     91  Br  UNL A   1      32.694  18.836  24.124  1.00  0.00    -0.049 Br
ATOM     92  C   UNL A   1      34.247  21.157  24.672  1.00  0.00     0.109 A 
BRANCH  89  93
ATOM     93  N   UNL A   1      35.768  22.968  25.020  1.00  0.00     0.068 N 
ATOM     94  O   UNL A   1      36.548  22.884  25.974  1.00  0.00    -0.258 OA
ATOM     95  O   UNL A   1      36.011  23.579  23.966  1.00  0.00    -0.258 OA
ENDBRANCH  89  93
ENDBRANCH  84  85
ENDBRANCH  83  84
ENDBRANCH  75  78
ENDBRANCH  73  74
ENDBRANCH  72  73
ENDBRANCH   1  72
TORSDOF 17
ENDMDL
MODEL 3
REMARK VINA RESULT:     -11.9      2.565      8.151
REMARK SMILES O=C(NCCCCNC(=O)c1ccc(Cn2cc(Br)cc([N+](=O)[O-])c2=O)nc1)c1ccc(-c2c3nc(c(-c4cccc(S(=O)(=O)[O-])c4F)c4ccc([nH]4)c(-c4cccc(S(=O)(=O)[O-])c4F)c4nc(c(-c5cccc(S(=O)(=O)[O-])c5F)c5ccc2[nH]5)C=C4)C=C3)cc1
REMARK SMILES IDX 5 1 4 2 3 3 1 4 2 5 29 7 30 8 91 9 31 10 90 11 32 12 33 13
REMARK SMILES IDX 34 14 84 15 35 16 89 17 83 18 85 19 36 20 88 21 82 22 81 23
REMARK SMILES IDX 37 25 69 26 49 27 68 28 50 29 53 30 67 31 86 32 51 33 52 34
REMARK SMILES IDX 66 36 87 37 54 38 38 39 39 40 47 41 40 42 42 43 48 44 41 45
REMARK SMILES IDX 43 46 44 47 45 48 46 49 70 50 71 51 79 52 72 53 74 54 80 55
REMARK SMILES IDX 73 56 75 57 76 58 77 59 78 60 55 61 56 62 64 63 57 64 59 65
REMARK SMILES IDX 65 66 58 67 60 68 61 69 62 70 63 71 6 72 7 73 8 74 9 75
REMARK SMILES IDX 10 77 11 78 12 79 28 80 13 81 27 82 14 83 15 84 16 85 17 86
REMARK SMILES IDX 25 87 18 88 21 89 26 90 19 91 20 92 22 93 23 94 24 95
REMARK H PARENT 3 6 85 24 53 35 8 76
REMARK Flexibility Score: inf
ROOT
ATOM      1  C   UNL A   1      33.361  29.088  24.026  1.00  0.00     0.023 C 
ENDROOT
BRANCH   1   2
ATOM      2  C   UNL A   1      33.144  29.187  25.530  1.00  0.00     0.116 C 
BRANCH   2   3
ATOM      3  N   UNL A   1      32.731  30.514  25.959  1.00  0.00    -0.352 N 
ATOM      4  O   UNL A   1      32.694  32.358  27.247  1.00  0.00    -0.269 OA
ATOM      5  C   UNL A   1      33.267  31.316  26.938  1.00  0.00     0.251 C 
ATOM      6  H   UNL A   1      31.957  30.890  25.481  1.00  0.00     0.163 HD
BRANCH   5   7
ATOM      7  C   UNL A   1      34.513  30.918  27.628  1.00  0.00     0.039 A 
ATOM      8  C   UNL A   1      35.563  31.837  27.710  1.00  0.00     0.014 A 
ATOM      9  C   UNL A   1      34.659  29.642  28.181  1.00  0.00     0.014 A 
ATOM     10  C   UNL A   1      36.741  31.487  28.375  1.00  0.00     0.010 A 
ATOM     11  C   UNL A   1      35.794  29.330  28.922  1.00  0.00     0.010 A 
ATOM     12  C   UNL A   1      36.861  30.236  29.001  1.00  0.00    -0.014 A 
BRANCH  12  13
ATOM     13  C   UNL A   1      38.117  29.833  29.684  1.00  0.00     0.031 A 
ATOM     14  C   UNL A   1      38.437  30.390  31.048  1.00  0.00     0.074 A 
ATOM     15  C   UNL A   1      38.991  29.010  29.071  1.00  0.00     0.049 A 
ATOM     16  N   UNL A   1      39.506  30.209  31.779  1.00  0.00    -0.248 NA
ATOM     17  C   UNL A   1      37.441  31.287  31.663  1.00  0.00     0.031 C 
ATOM     18  C   UNL A   1      38.834  28.456  27.725  1.00  0.00     0.029 A 
ATOM     19  N   UNL A   1      40.194  28.505  29.499  1.00  0.00    -0.354 N 
ATOM     20  C   UNL A   1      39.327  30.993  32.912  1.00  0.00     0.074 A 
ATOM     21  C   UNL A   1      38.066  31.681  32.763  1.00  0.00     0.031 C 
ATOM     22  C   UNL A   1      39.892  27.678  27.443  1.00  0.00     0.029 A 
ATOM     23  C   UNL A   1      40.815  27.697  28.575  1.00  0.00     0.049 A 
ATOM     24  H   UNL A   1      40.578  28.703  30.384  1.00  0.00     0.167 HD
ATOM     25  C   UNL A   1      40.119  31.097  34.002  1.00  0.00     0.034 A 
ATOM     26  C   UNL A   1      41.995  27.047  28.629  1.00  0.00     0.034 A 
ATOM     27  C   UNL A   1      41.329  30.352  34.193  1.00  0.00     0.049 A 
ATOM     28  C   UNL A   1      42.831  27.135  29.875  1.00  0.00     0.074 A 
ATOM     29  C   UNL A   1      42.152  30.331  35.305  1.00  0.00     0.029 A 
ATOM     30  N   UNL A   1      41.880  29.487  33.264  1.00  0.00    -0.354 N 
ATOM     31  N   UNL A   1      42.588  27.798  30.979  1.00  0.00    -0.248 NA
ATOM     32  C   UNL A   1      44.088  26.372  29.898  1.00  0.00     0.031 C 
ATOM     33  C   UNL A   1      43.206  29.453  35.047  1.00  0.00     0.029 A 
ATOM     34  C   UNL A   1      43.031  28.922  33.779  1.00  0.00     0.049 A 
ATOM     35  H   UNL A   1      41.509  29.303  32.371  1.00  0.00     0.167 HD
ATOM     36  C   UNL A   1      43.646  27.516  31.834  1.00  0.00     0.074 A 
ATOM     37  C   UNL A   1      44.529  26.611  31.129  1.00  0.00     0.031 C 
ATOM     38  C   UNL A   1      43.869  27.980  33.087  1.00  0.00     0.034 A 
BRANCH  25  39
ATOM     39  C   UNL A   1      39.664  31.979  35.130  1.00  0.00     0.023 A 
ATOM     40  C   UNL A   1      39.873  33.369  35.033  1.00  0.00     0.012 A 
ATOM     41  C   UNL A   1      38.928  31.456  36.210  1.00  0.00     0.148 A 
ATOM     42  C   UNL A   1      39.357  34.229  36.001  1.00  0.00     0.002 A 
ATOM     43  C   UNL A   1      38.390  32.323  37.154  1.00  0.00     0.091 A 
ATOM     44  F   UNL A   1      38.753  30.129  36.280  1.00  0.00    -0.205 F 
ATOM     45  C   UNL A   1      38.607  33.708  37.051  1.00  0.00     0.022 A 
BRANCH  43  46
ATOM     46  S   UNL A   1      37.364  31.767  38.517  1.00  0.00     0.127 S 
ATOM     47  O   UNL A   1      38.259  31.961  39.658  1.00  0.00    -0.237 OA
ATOM     48  O   UNL A   1      36.242  32.701  38.455  1.00  0.00    -0.237 OA
ATOM     49  O   UNL A   1      37.028  30.378  38.232  1.00  0.00    -0.744 OA
ENDBRANCH  43  46
ENDBRANCH  25  39
BRANCH  26  50
ATOM     50  C   UNL A   1      42.417  26.205  27.477  1.00  0.00     0.023 A 
ATOM     51  C   UNL A   1      43.284  26.745  26.507  1.00  0.00     0.012 A 
ATOM     52  C   UNL A   1      42.021  24.857  27.377  1.00  0.00     0.148 A 
ATOM     53  C   UNL A   1      43.743  25.957  25.451  1.00  0.00     0.002 A 
ATOM     54  C   UNL A   1      42.515  24.068  26.345  1.00  0.00     0.091 A 
ATOM     55  F   UNL A   1      41.193  24.370  28.311  1.00  0.00    -0.205 F 
ATOM     56  C   UNL A   1      43.368  24.619  25.375  1.00  0.00     0.022 A 
BRANCH  54  57
ATOM     57  S   UNL A   1      42.173  22.309  26.220  1.00  0.00     0.127 S 
ATOM     58  O   UNL A   1      42.910  21.946  25.013  1.00  0.00    -0.237 OA
ATOM     59  O   UNL A   1      42.746  21.806  27.468  1.00  0.00    -0.237 OA
ATOM     60  O   UNL A   1      40.724  22.193  26.128  1.00  0.00    -0.744 OA
ENDBRANCH  54  57
ENDBRANCH  26  50
BRANCH  38  61
ATOM     61  C   UNL A   1      45.104  27.525  33.813  1.00  0.00     0.023 A 
ATOM     62  C   UNL A   1      46.248  28.343  33.799  1.00  0.00     0.012 A 
ATOM     63  C   UNL A   1      45.062  26.392  34.649  1.00  0.00     0.148 A 
ATOM     64  C   UNL A   1      47.339  28.040  34.612  1.00  0.00     0.002 A 
ATOM     65  C   UNL A   1      46.139  26.115  35.481  1.00  0.00     0.091 A 
ATOM     66  F   UNL A   1      43.956  25.635  34.642  1.00  0.00    -0.205 F 
ATOM     67  C   UNL A   1      47.280  26.937  35.462  1.00  0.00     0.022 A 
BRANCH  65  68
ATOM     68  S   UNL A   1      46.127  24.769  36.670  1.00  0.00     0.127 S 
ATOM     69  O   UNL A   1      45.969  23.605  35.798  1.00  0.00    -0.237 OA
ATOM     70  O   UNL A   1      47.446  24.893  37.289  1.00  0.00    -0.237 OA
ATOM     71  O   UNL A   1      45.005  25.026  37.562  1.00  0.00    -0.744 OA
ENDBRANCH  65  68
ENDBRANCH  38  61
ENDBRANCH  12  13
ENDBRANCH   5   7
ENDBRANCH   2   3
ENDBRANCH   1   2
BRANCH   1  72
ATOM     72  C   UNL A   1      33.664  27.687  23.499  1.00  0.00     0.023 C 
BRANCH  72  73
ATOM     73  C   UNL A   1      32.851  27.264  22.279  1.00  0.00     0.116 C 
BRANCH  73  74
ATOM     74  N   UNL A   1      31.515  27.834  22.266  1.00  0.00    -0.352 N 
ATOM     75  C   UNL A   1      30.394  27.423  22.943  1.00  0.00     0.252 C 
ATOM     76  H   UNL A   1      31.397  28.626  21.693  1.00  0.00     0.163 HD
ATOM     77  O   UNL A   1      29.300  27.932  22.730  1.00  0.00    -0.269 OA
BRANCH  75  78
ATOM     78  C   UNL A   1      30.506  26.332  23.916  1.00  0.00     0.058 A 
ATOM     79  C   UNL A   1      30.594  26.559  25.289  1.00  0.00     0.017 A 
ATOM     80  C   UNL A   1      30.561  25.034  23.452  1.00  0.00     0.125 A 
ATOM     81  C   UNL A   1      30.829  25.481  26.142  1.00  0.00     0.026 A 
ATOM     82  N   UNL A   1      30.785  23.975  24.264  1.00  0.00    -0.259 NA
ATOM     83  C   UNL A   1      30.949  24.205  25.592  1.00  0.00     0.060 A 
BRANCH  83  84
ATOM     84  C   UNL A   1      31.281  23.003  26.454  1.00  0.00     0.181 C 
BRANCH  84  85
ATOM     85  N   UNL A   1      32.396  22.231  25.902  1.00  0.00    -0.303 N 
ATOM     86  C   UNL A   1      32.152  21.023  25.261  1.00  0.00     0.105 A 
ATOM     87  C   UNL A   1      33.699  22.747  26.060  1.00  0.00     0.329 A 
ATOM     88  C   UNL A   1      33.142  20.320  24.689  1.00  0.00     0.041 A 
ATOM     89  C   UNL A   1      34.722  22.054  25.242  1.00  0.00     0.335 A 
ATOM     90  O   UNL A   1      33.983  23.632  26.858  1.00  0.00    -0.261 OA
ATOM     91  Br  UNL A   1      32.859  18.652  23.911  1.00  0.00    -0.049 Br
ATOM     92  C   UNL A   1      34.469  20.888  24.626  1.00  0.00     0.109 A 
BRANCH  89  93
ATOM     93  N   UNL A   1      36.028  22.641  25.082  1.00  0.00     0.068 N 
ATOM     94  O   UNL A   1      36.166  23.538  24.244  1.00  0.00    -0.258 OA
ATOM     95  O   UNL A   1      36.955  22.157  25.753  1.00  0.00    -0.258 OA
ENDBRANCH  89  93
ENDBRANCH  84  85
ENDBRANCH  83  84
ENDBRANCH  75  78
ENDBRANCH  73  74
ENDBRANCH  72  73
ENDBRANCH   1  72
TORSDOF 17
ENDMDL
