MODEL 1
REMARK VINA RESULT:     -12.0      0.000      0.000
REMARK SMILES CC[C@@](C)([NH2+]CC(=O)Nc1ccc(Br)cc1F)C(=O)NCCCCNC(=O)c1ccc(-c2c3nc(c(-c4cccc(S(=O)(=O)[O-])c4F)c4ccc([nH]4)c(-c4cccc(S(=O)(=O)[O-])c4F)c4nc(c(-c5cccc(S(=O)(=O)[O-])c5F)c5ccc2[nH]5)C=C4)C=C3)cc1
REMARK SMILES IDX 22 1 21 2 20 3 18 4 19 5 3 7 4 8 2 9 1 10 5 11 6 14 7 15
REMARK SMILES IDX 8 16 9 17 10 19 11 20 16 21 12 22 15 23 17 24 13 25 14 26
REMARK SMILES IDX 23 27 24 28 25 29 26 30 27 32 28 33 29 34 90 35 30 36 89 37
REMARK SMILES IDX 31 38 32 39 33 40 83 41 34 42 88 43 82 44 84 45 35 46 87 47
REMARK SMILES IDX 81 48 80 49 36 51 68 52 48 53 67 54 49 55 52 56 66 57 85 58
REMARK SMILES IDX 50 59 51 60 65 62 86 63 53 64 37 65 38 66 46 67 39 68 41 69
REMARK SMILES IDX 47 70 40 71 42 72 43 73 44 74 45 75 69 76 70 77 78 78 71 79
REMARK SMILES IDX 73 80 79 81 72 82 74 83 75 84 76 85 77 86 54 87 55 88 63 89
REMARK SMILES IDX 56 90 58 91 64 92 57 93 59 94 60 95 61 96 62 97
REMARK H PARENT 20 6 5 12 5 13 9 18 25 31 84 50 52 61
REMARK Flexibility Score: inf
ROOT
ATOM      1  C   UNL A   1      31.076  29.418  24.918  1.00  0.00     0.023 C 
ENDROOT
BRANCH   1   2
ATOM      2  C   UNL A   1      30.980  29.221  23.397  1.00  0.00     0.116 C 
BRANCH   2   3
ATOM      3  N   UNL A   1      30.228  28.027  22.983  1.00  0.00    -0.351 N 
ATOM      4  C   UNL A   1      29.946  26.846  23.652  1.00  0.00     0.281 C 
ATOM      5  O   UNL A   1      28.736  26.697  23.869  1.00  0.00    -0.268 OA
ATOM      6  H   UNL A   1      29.860  28.075  22.071  1.00  0.00     0.163 HD
BRANCH   4   7
ATOM      7  C   UNL A   1      30.991  25.595  23.802  1.00  0.00     0.172 C 
ATOM      8  C   UNL A   1      31.791  24.767  22.752  1.00  0.00     0.090 C 
BRANCH   7   9
ATOM      9  C   UNL A   1      32.165  26.251  24.648  1.00  0.00     0.075 C 
ATOM     10  C   UNL A   1      33.586  26.107  24.025  1.00  0.00     0.011 C 
ENDBRANCH   7   9
BRANCH   7  11
ATOM     11  N   UNL A   1      30.259  24.549  24.529  1.00  0.00    -0.326 N 
ATOM     12  H   UNL A   1      30.553  23.649  24.150  1.00  0.00     0.347 HD
ATOM     13  H   UNL A   1      29.273  24.774  24.392  1.00  0.00     0.347 HD
BRANCH  11  14
ATOM     14  C   UNL A   1      30.442  24.496  26.000  1.00  0.00     0.363 C 
BRANCH  14  15
ATOM     15  C   UNL A   1      30.634  23.207  26.863  1.00  0.00     0.279 C 
ATOM     16  O   UNL A   1      29.715  22.958  27.670  1.00  0.00    -0.268 OA
ATOM     17  N   UNL A   1      31.546  22.180  26.765  1.00  0.00    -0.319 N 
ATOM     18  H   UNL A   1      31.177  21.368  27.182  1.00  0.00     0.170 HD
BRANCH  17  19
ATOM     19  C   UNL A   1      32.846  21.912  26.258  1.00  0.00     0.077 A 
ATOM     20  C   UNL A   1      33.824  22.890  26.480  1.00  0.00     0.030 A 
ATOM     21  C   UNL A   1      33.209  20.886  25.367  1.00  0.00     0.147 A 
ATOM     22  C   UNL A   1      35.147  22.720  26.031  1.00  0.00     0.018 A 
ATOM     23  C   UNL A   1      34.526  20.684  24.942  1.00  0.00     0.057 A 
ATOM     24  F   UNL A   1      32.314  20.064  24.814  1.00  0.00    -0.205 F 
ATOM     25  C   UNL A   1      35.502  21.587  25.308  1.00  0.00     0.021 A 
ATOM     26  Br  UNL A   1      37.292  21.292  24.790  1.00  0.00    -0.051 Br
ENDBRANCH  17  19
ENDBRANCH  14  15
ENDBRANCH  11  14
ENDBRANCH   7  11
ENDBRANCH   4   7
ENDBRANCH   2   3
ENDBRANCH   1   2
BRANCH   1  27
ATOM     27  C   UNL A   1      32.405  30.006  25.404  1.00  0.00     0.023 C 
BRANCH  27  28
ATOM     28  C   UNL A   1      32.485  30.412  26.874  1.00  0.00     0.116 C 
BRANCH  28  29
ATOM     29  N   UNL A   1      32.511  31.850  27.113  1.00  0.00    -0.352 N 
ATOM     30  C   UNL A   1      33.540  32.612  27.632  1.00  0.00     0.251 C 
ATOM     31  H   UNL A   1      31.691  32.340  26.874  1.00  0.00     0.163 HD
ATOM     32  O   UNL A   1      33.393  33.819  27.816  1.00  0.00    -0.269 OA
BRANCH  30  33
ATOM     33  C   UNL A   1      34.812  31.953  28.010  1.00  0.00     0.039 A 
ATOM     34  C   UNL A   1      35.966  32.728  28.145  1.00  0.00     0.014 A 
ATOM     35  C   UNL A   1      34.837  30.592  28.322  1.00  0.00     0.014 A 
ATOM     36  C   UNL A   1      37.121  32.158  28.693  1.00  0.00     0.010 A 
ATOM     37  C   UNL A   1      35.959  30.051  28.945  1.00  0.00     0.010 A 
ATOM     38  C   UNL A   1      37.111  30.829  29.147  1.00  0.00    -0.014 A 
BRANCH  38  39
ATOM     39  C   UNL A   1      38.277  30.240  29.861  1.00  0.00     0.031 A 
ATOM     40  C   UNL A   1      38.618  30.687  31.257  1.00  0.00     0.074 A 
ATOM     41  C   UNL A   1      39.094  29.380  29.217  1.00  0.00     0.049 A 
ATOM     42  N   UNL A   1      39.630  30.345  32.011  1.00  0.00    -0.248 NA
ATOM     43  C   UNL A   1      37.721  31.678  31.876  1.00  0.00     0.031 C 
ATOM     44  C   UNL A   1      38.934  28.933  27.831  1.00  0.00     0.029 A 
ATOM     45  N   UNL A   1      40.240  28.746  29.634  1.00  0.00    -0.354 N 
ATOM     46  C   UNL A   1      39.518  31.106  33.167  1.00  0.00     0.074 A 
ATOM     47  C   UNL A   1      38.361  31.957  33.002  1.00  0.00     0.031 C 
ATOM     48  C   UNL A   1      39.935  28.096  27.517  1.00  0.00     0.029 A 
ATOM     49  C   UNL A   1      40.825  27.963  28.666  1.00  0.00     0.049 A 
ATOM     50  H   UNL A   1      40.609  28.845  30.542  1.00  0.00     0.167 HD
ATOM     51  C   UNL A   1      40.285  31.077  34.284  1.00  0.00     0.034 A 
ATOM     52  C   UNL A   1      41.951  27.221  28.697  1.00  0.00     0.034 A 
ATOM     53  C   UNL A   1      41.400  30.189  34.471  1.00  0.00     0.049 A 
ATOM     54  C   UNL A   1      42.753  27.159  29.970  1.00  0.00     0.074 A 
ATOM     55  C   UNL A   1      42.175  30.009  35.604  1.00  0.00     0.029 A 
ATOM     56  N   UNL A   1      41.902  29.334  33.503  1.00  0.00    -0.354 N 
ATOM     57  N   UNL A   1      42.530  27.758  31.115  1.00  0.00    -0.248 NA
ATOM     58  C   UNL A   1      43.939  26.291  29.970  1.00  0.00     0.031 C 
ATOM     59  C   UNL A   1      43.159  29.058  35.312  1.00  0.00     0.029 A 
ATOM     60  C   UNL A   1      42.981  28.629  34.007  1.00  0.00     0.049 A 
ATOM     61  H   UNL A   1      41.544  29.242  32.590  1.00  0.00     0.167 HD
ATOM     62  C   UNL A   1      43.523  27.312  31.979  1.00  0.00     0.074 A 
ATOM     63  C   UNL A   1      44.337  26.376  31.232  1.00  0.00     0.031 C 
ATOM     64  C   UNL A   1      43.749  27.657  33.271  1.00  0.00     0.034 A 
BRANCH  51  65
ATOM     65  C   UNL A   1      39.904  31.994  35.416  1.00  0.00     0.023 A 
ATOM     66  C   UNL A   1      40.499  33.270  35.508  1.00  0.00     0.012 A 
ATOM     67  C   UNL A   1      38.928  31.618  36.360  1.00  0.00     0.148 A 
ATOM     68  C   UNL A   1      40.161  34.140  36.543  1.00  0.00     0.002 A 
ATOM     69  C   UNL A   1      38.562  32.510  37.363  1.00  0.00     0.091 A 
ATOM     70  F   UNL A   1      38.388  30.394  36.271  1.00  0.00    -0.205 F 
ATOM     71  C   UNL A   1      39.186  33.764  37.463  1.00  0.00     0.022 A 
BRANCH  69  72
ATOM     72  S   UNL A   1      37.262  32.152  38.549  1.00  0.00     0.127 S 
ATOM     73  O   UNL A   1      36.135  32.893  37.983  1.00  0.00    -0.237 OA
ATOM     74  O   UNL A   1      37.147  30.697  38.450  1.00  0.00    -0.237 OA
ATOM     75  O   UNL A   1      37.748  32.636  39.834  1.00  0.00    -0.744 OA
ENDBRANCH  69  72
ENDBRANCH  51  65
BRANCH  52  76
ATOM     76  C   UNL A   1      42.348  26.413  27.507  1.00  0.00     0.023 A 
ATOM     77  C   UNL A   1      43.105  27.020  26.484  1.00  0.00     0.012 A 
ATOM     78  C   UNL A   1      42.006  25.052  27.392  1.00  0.00     0.148 A 
ATOM     79  C   UNL A   1      43.486  26.295  25.355  1.00  0.00     0.002 A 
ATOM     80  C   UNL A   1      42.435  24.322  26.289  1.00  0.00     0.091 A 
ATOM     81  F   UNL A   1      41.276  24.497  28.368  1.00  0.00    -0.205 F 
ATOM     82  C   UNL A   1      43.161  24.946  25.261  1.00  0.00     0.022 A 
BRANCH  80  83
ATOM     83  S   UNL A   1      42.177  22.550  26.146  1.00  0.00     0.127 S 
ATOM     84  O   UNL A   1      42.832  22.253  24.875  1.00  0.00    -0.237 OA
ATOM     85  O   UNL A   1      42.871  22.047  27.331  1.00  0.00    -0.237 OA
ATOM     86  O   UNL A   1      40.732  22.362  26.174  1.00  0.00    -0.744 OA
ENDBRANCH  80  83
ENDBRANCH  52  76
BRANCH  64  87
ATOM     87  C   UNL A   1      44.900  26.997  33.983  1.00  0.00     0.023 A 
ATOM     88  C   UNL A   1      46.176  27.594  33.957  1.00  0.00     0.012 A 
ATOM     89  C   UNL A   1      44.697  25.828  34.746  1.00  0.00     0.148 A 
ATOM     90  C   UNL A   1      47.238  27.022  34.656  1.00  0.00     0.002 A 
ATOM     91  C   UNL A   1      45.749  25.293  35.479  1.00  0.00     0.091 A 
ATOM     92  F   UNL A   1      43.480  25.265  34.741  1.00  0.00    -0.205 F 
ATOM     93  C   UNL A   1      47.023  25.881  35.425  1.00  0.00     0.022 A 
BRANCH  91  94
ATOM     94  S   UNL A   1      45.539  23.885  36.573  1.00  0.00     0.127 S 
ATOM     95  O   UNL A   1      46.907  23.659  37.036  1.00  0.00    -0.237 OA
ATOM     96  O   UNL A   1      44.630  24.415  37.592  1.00  0.00    -0.237 OA
ATOM     97  O   UNL A   1      44.971  22.822  35.755  1.00  0.00    -0.744 OA
ENDBRANCH  91  94
ENDBRANCH  64  87
ENDBRANCH  38  39
ENDBRANCH  30  33
ENDBRANCH  28  29
ENDBRANCH  27  28
ENDBRANCH   1  27
TORSDOF 19
ENDMDL
MODEL 2
REMARK VINA RESULT:     -11.8      5.078     10.069
REMARK SMILES CC[C@@](C)([NH2+]CC(=O)Nc1ccc(Br)cc1F)C(=O)NCCCCNC(=O)c1ccc(-c2c3nc(c(-c4cccc(S(=O)(=O)[O-])c4F)c4ccc([nH]4)c(-c4cccc(S(=O)(=O)[O-])c4F)c4nc(c(-c5cccc(S(=O)(=O)[O-])c5F)c5ccc2[nH]5)C=C4)C=C3)cc1
REMARK SMILES IDX 22 1 21 2 20 3 18 4 19 5 3 7 4 8 2 9 1 10 5 11 6 14 7 15
REMARK SMILES IDX 8 16 9 17 10 19 11 20 16 21 12 22 15 23 17 24 13 25 14 26
REMARK SMILES IDX 23 27 24 28 25 29 26 30 27 32 28 33 29 34 90 35 30 36 89 37
REMARK SMILES IDX 31 38 32 39 33 40 83 41 34 42 88 43 82 44 84 45 35 46 87 47
REMARK SMILES IDX 81 48 80 49 36 51 68 52 48 53 67 54 49 55 52 56 66 57 85 58
REMARK SMILES IDX 50 59 51 60 65 62 86 63 53 64 37 65 38 66 46 67 39 68 41 69
REMARK SMILES IDX 47 70 40 71 42 72 43 73 44 74 45 75 69 76 70 77 78 78 71 79
REMARK SMILES IDX 73 80 79 81 72 82 74 83 75 84 76 85 77 86 54 87 55 88 63 89
REMARK SMILES IDX 56 90 58 91 64 92 57 93 59 94 60 95 61 96 62 97
REMARK H PARENT 20 6 5 12 5 13 9 18 25 31 84 50 52 61
REMARK Flexibility Score: inf
ROOT
ATOM      1  C   UNL A   1      35.243  22.971  23.787  1.00  0.00     0.023 C 
ENDROOT
BRANCH   1   2
ATOM      2  C   UNL A   1      34.801  23.751  25.034  1.00  0.00     0.116 C 
BRANCH   2   3
ATOM      3  N   UNL A   1      34.677  25.204  24.833  1.00  0.00    -0.351 N 
ATOM      4  C   UNL A   1      33.629  26.075  25.086  1.00  0.00     0.281 C 
ATOM      5  O   UNL A   1      33.901  26.908  25.961  1.00  0.00    -0.268 OA
ATOM      6  H   UNL A   1      35.479  25.631  24.453  1.00  0.00     0.163 HD
BRANCH   4   7
ATOM      7  C   UNL A   1      32.334  26.274  24.106  1.00  0.00     0.172 C 
ATOM      8  C   UNL A   1      31.704  27.537  23.444  1.00  0.00     0.090 C 
BRANCH   7   9
ATOM      9  C   UNL A   1      32.759  25.430  22.829  1.00  0.00     0.075 C 
ATOM     10  C   UNL A   1      32.176  25.939  21.476  1.00  0.00     0.011 C 
ENDBRANCH   7   9
BRANCH   7  11
ATOM     11  N   UNL A   1      31.192  25.703  24.833  1.00  0.00    -0.326 N 
ATOM     12  H   UNL A   1      30.342  26.041  24.383  1.00  0.00     0.347 HD
ATOM     13  H   UNL A   1      31.318  26.004  25.799  1.00  0.00     0.347 HD
BRANCH  11  14
ATOM     14  C   UNL A   1      31.106  24.223  24.898  1.00  0.00     0.363 C 
BRANCH  14  15
ATOM     15  C   UNL A   1      31.487  23.327  26.121  1.00  0.00     0.279 C 
ATOM     16  O   UNL A   1      31.367  23.866  27.241  1.00  0.00    -0.268 OA
ATOM     17  N   UNL A   1      31.751  21.979  26.208  1.00  0.00    -0.319 N 
ATOM     18  H   UNL A   1      31.576  21.665  27.125  1.00  0.00     0.170 HD
BRANCH  17  19
ATOM     19  C   UNL A   1      32.194  20.893  25.404  1.00  0.00     0.077 A 
ATOM     20  C   UNL A   1      32.932  19.892  26.048  1.00  0.00     0.030 A 
ATOM     21  C   UNL A   1      32.171  20.819  24.000  1.00  0.00     0.147 A 
ATOM     22  C   UNL A   1      33.407  18.767  25.349  1.00  0.00     0.018 A 
ATOM     23  C   UNL A   1      32.607  19.694  23.295  1.00  0.00     0.057 A 
ATOM     24  F   UNL A   1      31.787  21.842  23.233  1.00  0.00    -0.205 F 
ATOM     25  C   UNL A   1      33.193  18.650  23.979  1.00  0.00     0.021 A 
ATOM     26  Br  UNL A   1      33.730  17.101  23.046  1.00  0.00    -0.051 Br
ENDBRANCH  17  19
ENDBRANCH  14  15
ENDBRANCH  11  14
ENDBRANCH   7  11
ENDBRANCH   4   7
ENDBRANCH   2   3
ENDBRANCH   1   2
BRANCH   1  27
ATOM     27  C   UNL A   1      36.516  22.137  23.972  1.00  0.00     0.023 C 
BRANCH  27  28
ATOM     28  C   UNL A   1      36.964  21.870  25.407  1.00  0.00     0.116 C 
BRANCH  28  29
ATOM     29  N   UNL A   1      38.041  20.897  25.542  1.00  0.00    -0.352 N 
ATOM     30  C   UNL A   1      39.289  21.076  26.108  1.00  0.00     0.251 C 
ATOM     31  H   UNL A   1      37.855  19.998  25.185  1.00  0.00     0.163 HD
ATOM     32  O   UNL A   1      40.112  20.162  26.107  1.00  0.00    -0.269 OA
BRANCH  30  33
ATOM     33  C   UNL A   1      39.646  22.396  26.676  1.00  0.00     0.039 A 
ATOM     34  C   UNL A   1      40.658  22.473  27.637  1.00  0.00     0.014 A 
ATOM     35  C   UNL A   1      39.047  23.560  26.189  1.00  0.00     0.014 A 
ATOM     36  C   UNL A   1      41.141  23.725  28.033  1.00  0.00     0.010 A 
ATOM     37  C   UNL A   1      39.587  24.800  26.521  1.00  0.00     0.010 A 
ATOM     38  C   UNL A   1      40.646  24.899  27.438  1.00  0.00    -0.014 A 
BRANCH  38  39
ATOM     39  C   UNL A   1      41.237  26.232  27.734  1.00  0.00     0.031 A 
ATOM     40  C   UNL A   1      42.649  26.547  27.319  1.00  0.00     0.074 A 
ATOM     41  C   UNL A   1      40.543  27.125  28.471  1.00  0.00     0.049 A 
ATOM     42  N   UNL A   1      43.359  27.620  27.550  1.00  0.00    -0.248 NA
ATOM     43  C   UNL A   1      43.372  25.501  26.575  1.00  0.00     0.031 C 
ATOM     44  C   UNL A   1      39.201  26.914  29.018  1.00  0.00     0.029 A 
ATOM     45  N   UNL A   1      40.881  28.382  28.911  1.00  0.00    -0.354 N 
ATOM     46  C   UNL A   1      44.619  27.365  27.022  1.00  0.00     0.074 A 
ATOM     47  C   UNL A   1      44.589  26.019  26.493  1.00  0.00     0.031 C 
ATOM     48  C   UNL A   1      38.829  28.002  29.711  1.00  0.00     0.029 A 
ATOM     49  C   UNL A   1      39.911  28.981  29.682  1.00  0.00     0.049 A 
ATOM     50  H   UNL A   1      41.740  28.815  28.695  1.00  0.00     0.167 HD
ATOM     51  C   UNL A   1      45.695  28.184  26.950  1.00  0.00     0.034 A 
ATOM     52  C   UNL A   1      39.893  30.180  30.298  1.00  0.00     0.034 A 
ATOM     53  C   UNL A   1      45.705  29.542  27.424  1.00  0.00     0.049 A 
ATOM     54  C   UNL A   1      41.078  31.097  30.152  1.00  0.00     0.074 A 
ATOM     55  C   UNL A   1      46.709  30.487  27.303  1.00  0.00     0.029 A 
ATOM     56  N   UNL A   1      44.666  30.148  28.110  1.00  0.00    -0.354 N 
ATOM     57  N   UNL A   1      42.198  30.899  29.499  1.00  0.00    -0.248 NA
ATOM     58  C   UNL A   1      40.985  32.416  30.794  1.00  0.00     0.031 C 
ATOM     59  C   UNL A   1      46.283  31.659  27.935  1.00  0.00     0.029 A 
ATOM     60  C   UNL A   1      45.004  31.452  28.428  1.00  0.00     0.049 A 
ATOM     61  H   UNL A   1      43.811  29.715  28.339  1.00  0.00     0.167 HD
ATOM     62  C   UNL A   1      42.924  32.078  29.620  1.00  0.00     0.074 A 
ATOM     63  C   UNL A   1      42.109  32.994  30.391  1.00  0.00     0.031 C 
ATOM     64  C   UNL A   1      44.161  32.372  29.147  1.00  0.00     0.034 A 
BRANCH  51  65
ATOM     65  C   UNL A   1      46.934  27.652  26.279  1.00  0.00     0.023 A 
ATOM     66  C   UNL A   1      47.836  26.855  27.015  1.00  0.00     0.012 A 
ATOM     67  C   UNL A   1      47.184  27.897  24.914  1.00  0.00     0.148 A 
ATOM     68  C   UNL A   1      48.987  26.346  26.417  1.00  0.00     0.002 A 
ATOM     69  C   UNL A   1      48.312  27.347  24.313  1.00  0.00     0.091 A 
ATOM     70  F   UNL A   1      46.328  28.674  24.235  1.00  0.00    -0.205 F 
ATOM     71  C   UNL A   1      49.219  26.584  25.065  1.00  0.00     0.022 A 
BRANCH  69  72
ATOM     72  S   UNL A   1      48.659  27.529  22.561  1.00  0.00     0.127 S 
ATOM     73  O   UNL A   1      49.942  28.232  22.586  1.00  0.00    -0.237 OA
ATOM     74  O   UNL A   1      48.736  26.137  22.116  1.00  0.00    -0.237 OA
ATOM     75  O   UNL A   1      47.543  28.282  22.006  1.00  0.00    -0.744 OA
ENDBRANCH  69  72
ENDBRANCH  51  65
BRANCH  52  76
ATOM     76  C   UNL A   1      38.679  30.618  31.047  1.00  0.00     0.023 A 
ATOM     77  C   UNL A   1      38.611  30.397  32.438  1.00  0.00     0.012 A 
ATOM     78  C   UNL A   1      37.610  31.270  30.403  1.00  0.00     0.148 A 
ATOM     79  C   UNL A   1      37.487  30.787  33.166  1.00  0.00     0.002 A 
ATOM     80  C   UNL A   1      36.518  31.706  31.145  1.00  0.00     0.091 A 
ATOM     81  F   UNL A   1      37.689  31.462  29.079  1.00  0.00    -0.205 F 
ATOM     82  C   UNL A   1      36.446  31.450  32.524  1.00  0.00     0.022 A 
BRANCH  80  83
ATOM     83  S   UNL A   1      35.192  32.682  30.426  1.00  0.00     0.127 S 
ATOM     84  O   UNL A   1      34.741  31.819  29.337  1.00  0.00    -0.237 OA
ATOM     85  O   UNL A   1      34.260  32.797  31.547  1.00  0.00    -0.237 OA
ATOM     86  O   UNL A   1      35.806  33.941  30.026  1.00  0.00    -0.744 OA
ENDBRANCH  80  83
ENDBRANCH  52  76
BRANCH  64  87
ATOM     87  C   UNL A   1      44.704  33.751  29.412  1.00  0.00     0.023 A 
ATOM     88  C   UNL A   1      45.390  34.016  30.614  1.00  0.00     0.012 A 
ATOM     89  C   UNL A   1      44.607  34.762  28.434  1.00  0.00     0.148 A 
ATOM     90  C   UNL A   1      45.946  35.272  30.850  1.00  0.00     0.002 A 
ATOM     91  C   UNL A   1      45.205  35.996  28.656  1.00  0.00     0.091 A 
ATOM     92  F   UNL A   1      43.933  34.496  27.305  1.00  0.00    -0.205 F 
ATOM     93  C   UNL A   1      45.864  36.257  29.868  1.00  0.00     0.022 A 
BRANCH  91  94
ATOM     94  S   UNL A   1      45.236  37.288  27.409  1.00  0.00     0.127 S 
ATOM     95  O   UNL A   1      43.813  37.450  27.112  1.00  0.00    -0.237 OA
ATOM     96  O   UNL A   1      45.839  38.406  28.135  1.00  0.00    -0.237 OA
ATOM     97  O   UNL A   1      46.048  36.771  26.316  1.00  0.00    -0.744 OA
ENDBRANCH  91  94
ENDBRANCH  64  87
ENDBRANCH  38  39
ENDBRANCH  30  33
ENDBRANCH  28  29
ENDBRANCH  27  28
ENDBRANCH   1  27
TORSDOF 19
ENDMDL
MODEL 3
REMARK VINA RESULT:     -11.8      5.378      8.156
REMARK SMILES CC[C@@](C)([NH2+]CC(=O)Nc1ccc(Br)cc1F)C(=O)NCCCCNC(=O)c1ccc(-c2c3nc(c(-c4cccc(S(=O)(=O)[O-])c4F)c4ccc([nH]4)c(-c4cccc(S(=O)(=O)[O-])c4F)c4nc(c(-c5cccc(S(=O)(=O)[O-])c5F)c5ccc2[nH]5)C=C4)C=C3)cc1
REMARK SMILES IDX 22 1 21 2 20 3 18 4 19 5 3 7 4 8 2 9 1 10 5 11 6 14 7 15
REMARK SMILES IDX 8 16 9 17 10 19 11 20 16 21 12 22 15 23 17 24 13 25 14 26
REMARK SMILES IDX 23 27 24 28 25 29 26 30 27 32 28 33 29 34 90 35 30 36 89 37
REMARK SMILES IDX 31 38 32 39 33 40 83 41 34 42 88 43 82 44 84 45 35 46 87 47
REMARK SMILES IDX 81 48 80 49 36 51 68 52 48 53 67 54 49 55 52 56 66 57 85 58
REMARK SMILES IDX 50 59 51 60 65 62 86 63 53 64 37 65 38 66 46 67 39 68 41 69
REMARK SMILES IDX 47 70 40 71 42 72 43 73 44 74 45 75 69 76 70 77 78 78 71 79
REMARK SMILES IDX 73 80 79 81 72 82 74 83 75 84 76 85 77 86 54 87 55 88 63 89
REMARK SMILES IDX 56 90 58 91 64 92 57 93 59 94 60 95 61 96 62 97
REMARK H PARENT 20 6 5 12 5 13 9 18 25 31 84 50 52 61
REMARK Flexibility Score: inf
ROOT
ATOM      1  C   UNL A   1      34.329  21.787  24.746  1.00  0.00     0.023 C 
ENDROOT
BRANCH   1   2
ATOM      2  C   UNL A   1      34.001  21.974  26.236  1.00  0.00     0.116 C 
BRANCH   2   3
ATOM      3  N   UNL A   1      33.409  23.279  26.571  1.00  0.00    -0.351 N 
ATOM      4  C   UNL A   1      32.146  23.798  26.333  1.00  0.00     0.281 C 
ATOM      5  O   UNL A   1      31.511  24.008  27.376  1.00  0.00    -0.268 OA
ATOM      6  H   UNL A   1      34.017  23.889  27.048  1.00  0.00     0.163 HD
BRANCH   4   7
ATOM      7  C   UNL A   1      31.663  24.440  24.907  1.00  0.00     0.172 C 
ATOM      8  C   UNL A   1      30.761  23.889  23.761  1.00  0.00     0.090 C 
BRANCH   7   9
ATOM      9  C   UNL A   1      30.825  25.703  25.386  1.00  0.00     0.075 C 
ATOM     10  C   UNL A   1      29.505  25.957  24.598  1.00  0.00     0.011 C 
ENDBRANCH   7   9
BRANCH   7  11
ATOM     11  N   UNL A   1      32.895  24.792  24.190  1.00  0.00    -0.326 N 
ATOM     12  H   UNL A   1      33.615  24.129  24.475  1.00  0.00     0.347 HD
ATOM     13  H   UNL A   1      33.079  25.763  24.442  1.00  0.00     0.347 HD
BRANCH  11  14
ATOM     14  C   UNL A   1      32.839  24.783  22.707  1.00  0.00     0.363 C 
BRANCH  14  15
ATOM     15  C   UNL A   1      32.894  26.034  21.771  1.00  0.00     0.279 C 
ATOM     16  O   UNL A   1      33.218  25.806  20.588  1.00  0.00    -0.268 OA
ATOM     17  N   UNL A   1      32.462  27.327  21.962  1.00  0.00    -0.319 N 
ATOM     18  H   UNL A   1      32.287  27.751  21.091  1.00  0.00     0.170 HD
BRANCH  17  19
ATOM     19  C   UNL A   1      32.187  28.249  23.009  1.00  0.00     0.077 A 
ATOM     20  C   UNL A   1      33.155  28.368  24.015  1.00  0.00     0.030 A 
ATOM     21  C   UNL A   1      30.961  28.887  23.271  1.00  0.00     0.147 A 
ATOM     22  C   UNL A   1      32.989  29.260  25.090  1.00  0.00     0.018 A 
ATOM     23  C   UNL A   1      30.793  29.802  24.314  1.00  0.00     0.057 A 
ATOM     24  F   UNL A   1      29.850  28.620  22.580  1.00  0.00    -0.205 F 
ATOM     25  C   UNL A   1      31.826  30.014  25.204  1.00  0.00     0.021 A 
ATOM     26  Br  UNL A   1      31.631  31.292  26.578  1.00  0.00    -0.051 Br
ENDBRANCH  17  19
ENDBRANCH  14  15
ENDBRANCH  11  14
ENDBRANCH   7  11
ENDBRANCH   4   7
ENDBRANCH   2   3
ENDBRANCH   1   2
BRANCH   1  27
ATOM     27  C   UNL A   1      35.815  21.926  24.398  1.00  0.00     0.023 C 
BRANCH  27  28
ATOM     28  C   UNL A   1      36.792  22.036  25.566  1.00  0.00     0.116 C 
BRANCH  28  29
ATOM     29  N   UNL A   1      37.832  21.015  25.595  1.00  0.00    -0.352 N 
ATOM     30  C   UNL A   1      39.125  21.125  26.067  1.00  0.00     0.251 C 
ATOM     31  H   UNL A   1      37.580  20.135  25.232  1.00  0.00     0.163 HD
ATOM     32  O   UNL A   1      39.904  20.177  25.982  1.00  0.00    -0.269 OA
BRANCH  30  33
ATOM     33  C   UNL A   1      39.583  22.413  26.638  1.00  0.00     0.039 A 
ATOM     34  C   UNL A   1      40.619  22.413  27.575  1.00  0.00     0.014 A 
ATOM     35  C   UNL A   1      39.052  23.619  26.175  1.00  0.00     0.014 A 
ATOM     36  C   UNL A   1      41.194  23.627  27.969  1.00  0.00     0.010 A 
ATOM     37  C   UNL A   1      39.681  24.817  26.503  1.00  0.00     0.010 A 
ATOM     38  C   UNL A   1      40.765  24.836  27.396  1.00  0.00    -0.014 A 
BRANCH  38  39
ATOM     39  C   UNL A   1      41.450  26.124  27.690  1.00  0.00     0.031 A 
ATOM     40  C   UNL A   1      40.761  27.182  28.509  1.00  0.00     0.074 A 
ATOM     41  C   UNL A   1      42.650  26.388  27.131  1.00  0.00     0.049 A 
ATOM     42  N   UNL A   1      41.164  28.389  28.808  1.00  0.00    -0.248 NA
ATOM     43  C   UNL A   1      39.425  26.852  29.032  1.00  0.00     0.031 C 
ATOM     44  C   UNL A   1      43.389  25.490  26.240  1.00  0.00     0.029 A 
ATOM     45  N   UNL A   1      43.451  27.503  27.208  1.00  0.00    -0.354 N 
ATOM     46  C   UNL A   1      40.120  28.976  29.513  1.00  0.00     0.074 A 
ATOM     47  C   UNL A   1      39.049  28.006  29.564  1.00  0.00     0.031 C 
ATOM     48  C   UNL A   1      44.532  26.083  25.862  1.00  0.00     0.029 A 
ATOM     49  C   UNL A   1      44.601  27.413  26.458  1.00  0.00     0.049 A 
ATOM     50  H   UNL A   1      43.221  28.294  27.749  1.00  0.00     0.167 HD
ATOM     51  C   UNL A   1      40.067  30.197  30.097  1.00  0.00     0.034 A 
ATOM     52  C   UNL A   1      45.600  28.301  26.269  1.00  0.00     0.034 A 
ATOM     53  C   UNL A   1      41.154  31.138  30.096  1.00  0.00     0.049 A 
ATOM     54  C   UNL A   1      45.544  29.628  26.979  1.00  0.00     0.074 A 
ATOM     55  C   UNL A   1      41.238  32.356  30.748  1.00  0.00     0.029 A 
ATOM     56  N   UNL A   1      42.346  30.969  29.410  1.00  0.00    -0.354 N 
ATOM     57  N   UNL A   1      44.620  30.094  27.783  1.00  0.00    -0.248 NA
ATOM     58  C   UNL A   1      46.685  30.535  26.787  1.00  0.00     0.031 C 
ATOM     59  C   UNL A   1      42.473  32.932  30.438  1.00  0.00     0.029 A 
ATOM     60  C   UNL A   1      43.169  32.062  29.614  1.00  0.00     0.049 A 
ATOM     61  H   UNL A   1      42.574  30.185  28.858  1.00  0.00     0.167 HD
ATOM     62  C   UNL A   1      45.083  31.330  28.221  1.00  0.00     0.074 A 
ATOM     63  C   UNL A   1      46.381  31.530  27.609  1.00  0.00     0.031 C 
ATOM     64  C   UNL A   1      44.483  32.224  29.045  1.00  0.00     0.034 A 
BRANCH  51  65
ATOM     65  C   UNL A   1      38.808  30.560  30.840  1.00  0.00     0.023 A 
ATOM     66  C   UNL A   1      38.708  30.276  32.219  1.00  0.00     0.012 A 
ATOM     67  C   UNL A   1      37.745  31.220  30.193  1.00  0.00     0.148 A 
ATOM     68  C   UNL A   1      37.557  30.606  32.932  1.00  0.00     0.002 A 
ATOM     69  C   UNL A   1      36.618  31.587  30.922  1.00  0.00     0.091 A 
ATOM     70  F   UNL A   1      37.847  31.462  28.878  1.00  0.00    -0.205 F 
ATOM     71  C   UNL A   1      36.518  31.269  32.286  1.00  0.00     0.022 A 
BRANCH  69  72
ATOM     72  S   UNL A   1      35.259  32.513  30.201  1.00  0.00     0.127 S 
ATOM     73  O   UNL A   1      35.932  33.741  29.778  1.00  0.00    -0.237 OA
ATOM     74  O   UNL A   1      34.838  31.640  29.105  1.00  0.00    -0.237 OA
ATOM     75  O   UNL A   1      34.274  32.672  31.262  1.00  0.00    -0.744 OA
ENDBRANCH  69  72
ENDBRANCH  51  65
BRANCH  52  76
ATOM     76  C   UNL A   1      46.778  27.934  25.431  1.00  0.00     0.023 A 
ATOM     77  C   UNL A   1      46.708  28.105  24.034  1.00  0.00     0.012 A 
ATOM     78  C   UNL A   1      47.967  27.444  26.003  1.00  0.00     0.148 A 
ATOM     79  C   UNL A   1      47.789  27.765  23.220  1.00  0.00     0.002 A 
ATOM     80  C   UNL A   1      49.059  27.159  25.192  1.00  0.00     0.091 A 
ATOM     81  F   UNL A   1      48.010  27.277  27.332  1.00  0.00    -0.205 F 
ATOM     82  C   UNL A   1      48.967  27.302  23.798  1.00  0.00     0.022 A 
BRANCH  80  83
ATOM     83  S   UNL A   1      50.658  26.683  25.859  1.00  0.00     0.127 S 
ATOM     84  O   UNL A   1      50.860  27.689  26.898  1.00  0.00    -0.237 OA
ATOM     85  O   UNL A   1      50.390  25.332  26.352  1.00  0.00    -0.237 OA
ATOM     86  O   UNL A   1      51.583  26.737  24.734  1.00  0.00    -0.744 OA
ENDBRANCH  80  83
ENDBRANCH  52  76
BRANCH  64  87
ATOM     87  C   UNL A   1      45.229  33.491  29.369  1.00  0.00     0.023 A 
ATOM     88  C   UNL A   1      46.111  33.524  30.468  1.00  0.00     0.012 A 
ATOM     89  C   UNL A   1      45.119  34.623  28.535  1.00  0.00     0.148 A 
ATOM     90  C   UNL A   1      46.849  34.673  30.747  1.00  0.00     0.002 A 
ATOM     91  C   UNL A   1      45.895  35.746  28.792  1.00  0.00     0.091 A 
ATOM     92  F   UNL A   1      44.260  34.578  27.506  1.00  0.00    -0.205 F 
ATOM     93  C   UNL A   1      46.751  35.778  29.905  1.00  0.00     0.022 A 
BRANCH  91  94
ATOM     94  S   UNL A   1      45.906  37.175  27.705  1.00  0.00     0.127 S 
ATOM     95  O   UNL A   1      46.048  36.551  26.391  1.00  0.00    -0.237 OA
ATOM     96  O   UNL A   1      44.593  37.770  27.959  1.00  0.00    -0.237 OA
ATOM     97  O   UNL A   1      47.031  37.996  28.134  1.00  0.00    -0.744 OA
ENDBRANCH  91  94
ENDBRANCH  64  87
ENDBRANCH  38  39
ENDBRANCH  30  33
ENDBRANCH  28  29
ENDBRANCH  27  28
ENDBRANCH   1  27
TORSDOF 19
ENDMDL
