MODEL 1
REMARK VINA RESULT:     -11.2      0.000      0.000
REMARK SMILES CCC(CC)(NC(=O)NC[C@H](C)[NH+]1CCCCC1)C(=O)NCCCCNC(=O)c1ccc(-c2c3nc(c(-c4cccc(S(=O)(=O)[O-])c4F)c4ccc([nH]4)c(-c4cccc(S(=O)(=O)[O-])c4F)c4nc(c(-c5cccc(S(=O)(=O)[O-])c5F)c5ccc2[nH]5)C=C4)C=C3)cc1
REMARK SMILES IDX 23 1 22 2 21 3 19 4 20 5 3 7 2 8 1 9 4 10 5 11 6 12 7 13
REMARK SMILES IDX 8 15 9 16 10 18 11 19 12 20 13 21 14 22 18 23 15 25 17 26
REMARK SMILES IDX 16 27 24 28 25 29 26 30 27 31 28 33 29 34 30 35 91 36 31 37
REMARK SMILES IDX 90 38 32 39 33 40 34 41 84 42 35 43 89 44 83 45 85 46 36 47
REMARK SMILES IDX 88 48 82 49 81 50 37 52 69 53 49 54 68 55 50 56 53 57 67 58
REMARK SMILES IDX 86 59 51 60 52 61 66 63 87 64 54 65 38 66 39 67 47 68 40 69
REMARK SMILES IDX 42 70 48 71 41 72 43 73 44 74 45 75 46 76 70 77 71 78 79 79
REMARK SMILES IDX 72 80 74 81 80 82 73 83 75 84 76 85 77 86 78 87 55 88 56 89
REMARK SMILES IDX 64 90 57 91 59 92 65 93 58 94 60 95 61 96 62 97 63 98
REMARK H PARENT 21 6 6 14 9 17 13 24 26 32 85 51 53 62
REMARK Flexibility Score: inf
ROOT
ATOM      1  C   UNL A   1      31.713  30.653  26.761  1.00  0.00     0.023 C 
ENDROOT
BRANCH   1   2
ATOM      2  C   UNL A   1      31.569  30.005  25.381  1.00  0.00     0.116 C 
BRANCH   2   3
ATOM      3  N   UNL A   1      32.787  29.710  24.633  1.00  0.00    -0.354 N 
ATOM      4  C   UNL A   1      33.110  28.697  23.761  1.00  0.00     0.245 C 
ATOM      5  O   UNL A   1      34.045  28.927  22.988  1.00  0.00    -0.272 OA
ATOM      6  H   UNL A   1      33.512  30.359  24.780  1.00  0.00     0.163 HD
BRANCH   4   7
ATOM      7  C   UNL A   1      32.239  27.414  23.616  1.00  0.00     0.120 C 
BRANCH   7   8
ATOM      8  C   UNL A   1      30.694  27.597  23.540  1.00  0.00     0.035 C 
ATOM      9  C   UNL A   1      30.119  28.363  22.358  1.00  0.00     0.007 C 
ENDBRANCH   7   8
BRANCH   7  10
ATOM     10  C   UNL A   1      32.600  26.590  24.906  1.00  0.00     0.035 C 
ATOM     11  C   UNL A   1      34.076  26.384  25.218  1.00  0.00     0.007 C 
ENDBRANCH   7  10
BRANCH   7  12
ATOM     12  N   UNL A   1      32.657  26.726  22.383  1.00  0.00    -0.324 N 
ATOM     13  C   UNL A   1      32.558  25.472  21.927  1.00  0.00     0.315 C 
ATOM     14  H   UNL A   1      33.112  27.326  21.748  1.00  0.00     0.166 HD
ATOM     15  O   UNL A   1      33.213  25.213  20.911  1.00  0.00    -0.249 OA
ATOM     16  N   UNL A   1      31.793  24.495  22.420  1.00  0.00    -0.332 N 
ATOM     17  H   UNL A   1      31.789  23.721  21.811  1.00  0.00     0.165 HD
BRANCH  16  18
ATOM     18  C   UNL A   1      30.952  24.223  23.597  1.00  0.00     0.182 C 
BRANCH  18  19
ATOM     19  C   UNL A   1      31.438  23.080  24.555  1.00  0.00     0.200 C 
ATOM     20  C   UNL A   1      30.696  23.237  25.907  1.00  0.00     0.077 C 
BRANCH  19  21
ATOM     21  N   UNL A   1      32.900  22.973  24.821  1.00  0.00    -0.331 N 
ATOM     22  C   UNL A   1      33.186  22.901  26.276  1.00  0.00     0.262 C 
ATOM     23  C   UNL A   1      33.578  21.866  24.133  1.00  0.00     0.262 C 
ATOM     24  H   UNL A   1      33.287  23.831  24.430  1.00  0.00     0.348 HD
ATOM     25  C   UNL A   1      34.684  22.974  26.572  1.00  0.00     0.062 C 
ATOM     26  C   UNL A   1      35.090  21.857  24.384  1.00  0.00     0.062 C 
ATOM     27  C   UNL A   1      35.430  21.853  25.867  1.00  0.00     0.012 C 
ENDBRANCH  19  21
ENDBRANCH  18  19
ENDBRANCH  16  18
ENDBRANCH   7  12
ENDBRANCH   4   7
ENDBRANCH   2   3
ENDBRANCH   1   2
BRANCH   1  28
ATOM     28  C   UNL A   1      31.566  32.163  26.886  1.00  0.00     0.023 C 
BRANCH  28  29
ATOM     29  C   UNL A   1      32.845  32.954  27.096  1.00  0.00     0.116 C 
BRANCH  29  30
ATOM     30  N   UNL A   1      32.584  34.270  27.647  1.00  0.00    -0.352 N 
ATOM     31  C   UNL A   1      33.094  34.848  28.784  1.00  0.00     0.251 C 
ATOM     32  H   UNL A   1      31.953  34.826  27.135  1.00  0.00     0.163 HD
ATOM     33  O   UNL A   1      32.593  35.885  29.210  1.00  0.00    -0.269 OA
BRANCH  31  34
ATOM     34  C   UNL A   1      34.231  34.223  29.503  1.00  0.00     0.039 A 
ATOM     35  C   UNL A   1      35.532  34.500  29.074  1.00  0.00     0.014 A 
ATOM     36  C   UNL A   1      34.024  33.337  30.566  1.00  0.00     0.014 A 
ATOM     37  C   UNL A   1      36.622  33.917  29.727  1.00  0.00     0.010 A 
ATOM     38  C   UNL A   1      35.113  32.818  31.264  1.00  0.00     0.010 A 
ATOM     39  C   UNL A   1      36.424  33.083  30.839  1.00  0.00    -0.014 A 
BRANCH  39  40
ATOM     40  C   UNL A   1      37.571  32.458  31.548  1.00  0.00     0.031 A 
ATOM     41  C   UNL A   1      38.328  31.319  30.914  1.00  0.00     0.074 A 
ATOM     42  C   UNL A   1      37.896  32.867  32.791  1.00  0.00     0.049 A 
ATOM     43  N   UNL A   1      39.323  30.619  31.394  1.00  0.00    -0.248 NA
ATOM     44  C   UNL A   1      37.891  30.892  29.573  1.00  0.00     0.031 C 
ATOM     45  C   UNL A   1      37.198  33.906  33.548  1.00  0.00     0.029 A 
ATOM     46  N   UNL A   1      38.881  32.438  33.646  1.00  0.00    -0.354 N 
ATOM     47  C   UNL A   1      39.607  29.652  30.437  1.00  0.00     0.074 A 
ATOM     48  C   UNL A   1      38.656  29.831  29.363  1.00  0.00     0.031 C 
ATOM     49  C   UNL A   1      37.776  34.035  34.754  1.00  0.00     0.029 A 
ATOM     50  C   UNL A   1      38.868  33.072  34.866  1.00  0.00     0.049 A 
ATOM     51  H   UNL A   1      39.536  31.742  33.408  1.00  0.00     0.167 HD
ATOM     52  C   UNL A   1      40.590  28.720  30.433  1.00  0.00     0.034 A 
ATOM     53  C   UNL A   1      39.643  32.895  35.955  1.00  0.00     0.034 A 
ATOM     54  C   UNL A   1      41.569  28.575  31.478  1.00  0.00     0.049 A 
ATOM     55  C   UNL A   1      40.760  31.888  35.906  1.00  0.00     0.074 A 
ATOM     56  C   UNL A   1      42.654  27.718  31.526  1.00  0.00     0.029 A 
ATOM     57  N   UNL A   1      41.580  29.302  32.657  1.00  0.00    -0.354 N 
ATOM     58  N   UNL A   1      41.110  31.090  34.926  1.00  0.00    -0.248 NA
ATOM     59  C   UNL A   1      41.613  31.781  37.099  1.00  0.00     0.031 C 
ATOM     60  C   UNL A   1      43.313  27.916  32.743  1.00  0.00     0.029 A 
ATOM     61  C   UNL A   1      42.651  28.912  33.443  1.00  0.00     0.049 A 
ATOM     62  H   UNL A   1      40.924  29.994  32.901  1.00  0.00     0.167 HD
ATOM     63  C   UNL A   1      42.241  30.414  35.369  1.00  0.00     0.074 A 
ATOM     64  C   UNL A   1      42.531  30.912  36.699  1.00  0.00     0.031 C 
ATOM     65  C   UNL A   1      42.963  29.454  34.741  1.00  0.00     0.034 A 
BRANCH  52  66
ATOM     66  C   UNL A   1      40.699  27.822  29.228  1.00  0.00     0.023 A 
ATOM     67  C   UNL A   1      39.904  26.659  29.157  1.00  0.00     0.012 A 
ATOM     68  C   UNL A   1      41.536  28.152  28.144  1.00  0.00     0.148 A 
ATOM     69  C   UNL A   1      39.967  25.820  28.046  1.00  0.00     0.002 A 
ATOM     70  C   UNL A   1      41.560  27.334  27.020  1.00  0.00     0.091 A 
ATOM     71  F   UNL A   1      42.299  29.250  28.236  1.00  0.00    -0.205 F 
ATOM     72  C   UNL A   1      40.786  26.164  26.973  1.00  0.00     0.022 A 
BRANCH  70  73
ATOM     73  S   UNL A   1      42.521  27.730  25.555  1.00  0.00     0.127 S 
ATOM     74  O   UNL A   1      43.870  27.840  26.107  1.00  0.00    -0.237 OA
ATOM     75  O   UNL A   1      42.303  26.552  24.714  1.00  0.00    -0.237 OA
ATOM     76  O   UNL A   1      41.958  28.964  25.026  1.00  0.00    -0.744 OA
ENDBRANCH  70  73
ENDBRANCH  52  66
BRANCH  53  77
ATOM     77  C   UNL A   1      39.429  33.743  37.162  1.00  0.00     0.023 A 
ATOM     78  C   UNL A   1      39.884  35.076  37.163  1.00  0.00     0.012 A 
ATOM     79  C   UNL A   1      38.751  33.249  38.293  1.00  0.00     0.148 A 
ATOM     80  C   UNL A   1      39.694  35.892  38.279  1.00  0.00     0.002 A 
ATOM     81  C   UNL A   1      38.515  34.085  39.378  1.00  0.00     0.091 A 
ATOM     82  F   UNL A   1      38.337  31.974  38.279  1.00  0.00    -0.205 F 
ATOM     83  C   UNL A   1      39.000  35.401  39.381  1.00  0.00     0.022 A 
BRANCH  81  84
ATOM     84  S   UNL A   1      37.510  33.577  40.779  1.00  0.00     0.127 S 
ATOM     85  O   UNL A   1      37.368  34.829  41.516  1.00  0.00    -0.237 OA
ATOM     86  O   UNL A   1      36.291  33.105  40.122  1.00  0.00    -0.237 OA
ATOM     87  O   UNL A   1      38.272  32.528  41.446  1.00  0.00    -0.744 OA
ENDBRANCH  81  84
ENDBRANCH  53  77
BRANCH  65  88
ATOM     88  C   UNL A   1      44.162  28.894  35.460  1.00  0.00     0.023 A 
ATOM     89  C   UNL A   1      45.427  29.487  35.277  1.00  0.00     0.012 A 
ATOM     90  C   UNL A   1      44.022  27.833  36.377  1.00  0.00     0.148 A 
ATOM     91  C   UNL A   1      46.539  29.013  35.971  1.00  0.00     0.002 A 
ATOM     92  C   UNL A   1      45.125  27.397  37.101  1.00  0.00     0.091 A 
ATOM     93  F   UNL A   1      42.813  27.271  36.525  1.00  0.00    -0.205 F 
ATOM     94  C   UNL A   1      46.386  27.978  36.891  1.00  0.00     0.022 A 
BRANCH  92  95
ATOM     95  S   UNL A   1      45.003  26.136  38.375  1.00  0.00     0.127 S 
ATOM     96  O   UNL A   1      46.391  26.028  38.821  1.00  0.00    -0.237 OA
ATOM     97  O   UNL A   1      44.098  26.756  39.343  1.00  0.00    -0.237 OA
ATOM     98  O   UNL A   1      44.463  24.953  37.717  1.00  0.00    -0.744 OA
ENDBRANCH  92  95
ENDBRANCH  65  88
ENDBRANCH  39  40
ENDBRANCH  31  34
ENDBRANCH  29  30
ENDBRANCH  28  29
ENDBRANCH   1  28
TORSDOF 20
ENDMDL
MODEL 2
REMARK VINA RESULT:     -11.0      5.647      8.848
REMARK SMILES CCC(CC)(NC(=O)NC[C@H](C)[NH+]1CCCCC1)C(=O)NCCCCNC(=O)c1ccc(-c2c3nc(c(-c4cccc(S(=O)(=O)[O-])c4F)c4ccc([nH]4)c(-c4cccc(S(=O)(=O)[O-])c4F)c4nc(c(-c5cccc(S(=O)(=O)[O-])c5F)c5ccc2[nH]5)C=C4)C=C3)cc1
REMARK SMILES IDX 23 1 22 2 21 3 19 4 20 5 3 7 2 8 1 9 4 10 5 11 6 12 7 13
REMARK SMILES IDX 8 15 9 16 10 18 11 19 12 20 13 21 14 22 18 23 15 25 17 26
REMARK SMILES IDX 16 27 24 28 25 29 26 30 27 31 28 33 29 34 30 35 91 36 31 37
REMARK SMILES IDX 90 38 32 39 33 40 34 41 84 42 35 43 89 44 83 45 85 46 36 47
REMARK SMILES IDX 88 48 82 49 81 50 37 52 69 53 49 54 68 55 50 56 53 57 67 58
REMARK SMILES IDX 86 59 51 60 52 61 66 63 87 64 54 65 38 66 39 67 47 68 40 69
REMARK SMILES IDX 42 70 48 71 41 72 43 73 44 74 45 75 46 76 70 77 71 78 79 79
REMARK SMILES IDX 72 80 74 81 80 82 73 83 75 84 76 85 77 86 78 87 55 88 56 89
REMARK SMILES IDX 64 90 57 91 59 92 65 93 58 94 60 95 61 96 62 97 63 98
REMARK H PARENT 21 6 6 14 9 17 13 24 26 32 85 51 53 62
REMARK Flexibility Score: inf
ROOT
ATOM      1  C   UNL A   1      35.932  22.903  23.285  1.00  0.00     0.023 C 
ENDROOT
BRANCH   1   2
ATOM      2  C   UNL A   1      34.766  23.722  23.846  1.00  0.00     0.116 C 
BRANCH   2   3
ATOM      3  N   UNL A   1      33.416  23.380  23.409  1.00  0.00    -0.354 N 
ATOM      4  C   UNL A   1      32.343  22.833  24.073  1.00  0.00     0.245 C 
ATOM      5  O   UNL A   1      31.235  23.032  23.565  1.00  0.00    -0.272 OA
ATOM      6  H   UNL A   1      33.242  23.577  22.461  1.00  0.00     0.163 HD
BRANCH   4   7
ATOM      7  C   UNL A   1      32.482  22.172  25.475  1.00  0.00     0.120 C 
BRANCH   7   8
ATOM      8  C   UNL A   1      33.333  22.920  26.544  1.00  0.00     0.035 C 
ATOM      9  C   UNL A   1      33.776  22.149  27.778  1.00  0.00     0.007 C 
ENDBRANCH   7   8
BRANCH   7  10
ATOM     10  C   UNL A   1      33.155  20.788  25.153  1.00  0.00     0.035 C 
ATOM     11  C   UNL A   1      32.546  19.955  24.033  1.00  0.00     0.007 C 
ENDBRANCH   7  10
BRANCH   7  12
ATOM     12  N   UNL A   1      31.127  22.014  26.032  1.00  0.00    -0.324 N 
ATOM     13  C   UNL A   1      30.231  22.847  26.573  1.00  0.00     0.315 C 
ATOM     14  H   UNL A   1      30.808  21.083  25.999  1.00  0.00     0.166 HD
ATOM     15  O   UNL A   1      29.260  22.313  27.123  1.00  0.00    -0.249 OA
ATOM     16  N   UNL A   1      30.249  24.181  26.537  1.00  0.00    -0.332 N 
ATOM     17  H   UNL A   1      29.399  24.546  26.875  1.00  0.00     0.165 HD
BRANCH  16  18
ATOM     18  C   UNL A   1      31.153  25.275  26.145  1.00  0.00     0.182 C 
BRANCH  18  19
ATOM     19  C   UNL A   1      30.478  26.567  25.567  1.00  0.00     0.200 C 
ATOM     20  C   UNL A   1      30.134  26.306  24.078  1.00  0.00     0.077 C 
BRANCH  19  21
ATOM     21  N   UNL A   1      31.233  27.849  25.666  1.00  0.00    -0.331 N 
ATOM     22  C   UNL A   1      31.680  28.113  27.057  1.00  0.00     0.262 C 
ATOM     23  C   UNL A   1      32.377  27.967  24.751  1.00  0.00     0.262 C 
ATOM     24  H   UNL A   1      30.559  28.556  25.374  1.00  0.00     0.348 HD
ATOM     25  C   UNL A   1      32.295  29.504  27.208  1.00  0.00     0.062 C 
ATOM     26  C   UNL A   1      33.062  29.336  24.844  1.00  0.00     0.062 C 
ATOM     27  C   UNL A   1      33.477  29.678  26.268  1.00  0.00     0.012 C 
ENDBRANCH  19  21
ENDBRANCH  18  19
ENDBRANCH  16  18
ENDBRANCH   7  12
ENDBRANCH   4   7
ENDBRANCH   2   3
ENDBRANCH   1   2
BRANCH   1  28
ATOM     28  C   UNL A   1      36.587  21.851  24.170  1.00  0.00     0.023 C 
BRANCH  28  29
ATOM     29  C   UNL A   1      37.413  22.363  25.335  1.00  0.00     0.116 C 
BRANCH  29  30
ATOM     30  N   UNL A   1      38.272  21.331  25.885  1.00  0.00    -0.352 N 
ATOM     31  C   UNL A   1      39.503  21.457  26.482  1.00  0.00     0.251 C 
ATOM     32  H   UNL A   1      37.924  20.412  25.822  1.00  0.00     0.163 HD
ATOM     33  O   UNL A   1      40.178  20.453  26.691  1.00  0.00    -0.269 OA
BRANCH  31  34
ATOM     34  C   UNL A   1      40.023  22.794  26.861  1.00  0.00     0.039 A 
ATOM     35  C   UNL A   1      39.580  23.914  26.152  1.00  0.00     0.014 A 
ATOM     36  C   UNL A   1      40.971  22.946  27.878  1.00  0.00     0.014 A 
ATOM     37  C   UNL A   1      40.060  25.185  26.482  1.00  0.00     0.010 A 
ATOM     38  C   UNL A   1      41.390  24.220  28.256  1.00  0.00     0.010 A 
ATOM     39  C   UNL A   1      40.959  25.352  27.548  1.00  0.00    -0.014 A 
BRANCH  39  40
ATOM     40  C   UNL A   1      41.476  26.696  27.916  1.00  0.00     0.031 A 
ATOM     41  C   UNL A   1      42.909  27.064  27.624  1.00  0.00     0.074 A 
ATOM     42  C   UNL A   1      40.682  27.566  28.572  1.00  0.00     0.049 A 
ATOM     43  N   UNL A   1      43.553  28.167  27.910  1.00  0.00    -0.248 NA
ATOM     44  C   UNL A   1      43.734  26.050  26.946  1.00  0.00     0.031 C 
ATOM     45  C   UNL A   1      39.302  27.306  28.981  1.00  0.00     0.029 A 
ATOM     46  N   UNL A   1      40.933  28.835  29.032  1.00  0.00    -0.354 N 
ATOM     47  C   UNL A   1      44.860  27.967  27.481  1.00  0.00     0.074 A 
ATOM     48  C   UNL A   1      44.928  26.624  26.949  1.00  0.00     0.031 C 
ATOM     49  C   UNL A   1      38.827  28.382  29.631  1.00  0.00     0.029 A 
ATOM     50  C   UNL A   1      39.874  29.397  29.707  1.00  0.00     0.049 A 
ATOM     51  H   UNL A   1      41.789  29.300  28.891  1.00  0.00     0.167 HD
ATOM     52  C   UNL A   1      45.903  28.831  27.498  1.00  0.00     0.034 A 
ATOM     53  C   UNL A   1      39.760  30.591  30.323  1.00  0.00     0.034 A 
ATOM     54  C   UNL A   1      45.823  30.184  27.979  1.00  0.00     0.049 A 
ATOM     55  C   UNL A   1      40.918  31.552  30.282  1.00  0.00     0.074 A 
ATOM     56  C   UNL A   1      46.801  31.163  27.959  1.00  0.00     0.029 A 
ATOM     57  N   UNL A   1      44.704  30.748  28.570  1.00  0.00    -0.354 N 
ATOM     58  N   UNL A   1      42.098  31.400  29.731  1.00  0.00    -0.248 NA
ATOM     59  C   UNL A   1      40.716  32.864  30.915  1.00  0.00     0.031 C 
ATOM     60  C   UNL A   1      46.277  32.316  28.553  1.00  0.00     0.029 A 
ATOM     61  C   UNL A   1      44.966  32.061  28.923  1.00  0.00     0.049 A 
ATOM     62  H   UNL A   1      43.848  30.284  28.717  1.00  0.00     0.167 HD
ATOM     63  C   UNL A   1      42.765  32.605  29.920  1.00  0.00     0.074 A 
ATOM     64  C   UNL A   1      41.849  33.485  30.617  1.00  0.00     0.031 C 
ATOM     65  C   UNL A   1      44.028  32.945  29.565  1.00  0.00     0.034 A 
BRANCH  52  66
ATOM     66  C   UNL A   1      47.212  28.360  26.915  1.00  0.00     0.023 A 
ATOM     67  C   UNL A   1      48.292  28.080  27.777  1.00  0.00     0.012 A 
ATOM     68  C   UNL A   1      47.357  28.139  25.532  1.00  0.00     0.148 A 
ATOM     69  C   UNL A   1      49.507  27.622  27.271  1.00  0.00     0.002 A 
ATOM     70  C   UNL A   1      48.558  27.640  25.038  1.00  0.00     0.091 A 
ATOM     71  F   UNL A   1      46.327  28.429  24.725  1.00  0.00    -0.205 F 
ATOM     72  C   UNL A   1      49.636  27.392  25.903  1.00  0.00     0.022 A 
BRANCH  70  73
ATOM     73  S   UNL A   1      48.800  27.236  23.305  1.00  0.00     0.127 S 
ATOM     74  O   UNL A   1      50.258  27.200  23.210  1.00  0.00    -0.237 OA
ATOM     75  O   UNL A   1      48.150  25.928  23.198  1.00  0.00    -0.237 OA
ATOM     76  O   UNL A   1      48.149  28.298  22.550  1.00  0.00    -0.744 OA
ENDBRANCH  70  73
ENDBRANCH  52  66
BRANCH  53  77
ATOM     77  C   UNL A   1      38.473  30.969  30.973  1.00  0.00     0.023 A 
ATOM     78  C   UNL A   1      38.297  30.733  32.351  1.00  0.00     0.012 A 
ATOM     79  C   UNL A   1      37.439  31.587  30.245  1.00  0.00     0.148 A 
ATOM     80  C   UNL A   1      37.103  31.079  32.985  1.00  0.00     0.002 A 
ATOM     81  C   UNL A   1      36.275  31.981  30.895  1.00  0.00     0.091 A 
ATOM     82  F   UNL A   1      37.619  31.790  28.932  1.00  0.00    -0.205 F 
ATOM     83  C   UNL A   1      36.097  31.713  32.260  1.00  0.00     0.022 A 
BRANCH  81  84
ATOM     84  S   UNL A   1      34.989  32.926  30.069  1.00  0.00     0.127 S 
ATOM     85  O   UNL A   1      34.095  33.248  31.177  1.00  0.00    -0.237 OA
ATOM     86  O   UNL A   1      35.742  34.061  29.534  1.00  0.00    -0.237 OA
ATOM     87  O   UNL A   1      34.445  32.037  29.049  1.00  0.00    -0.744 OA
ENDBRANCH  81  84
ENDBRANCH  53  77
BRANCH  65  88
ATOM     88  C   UNL A   1      44.496  34.340  29.890  1.00  0.00     0.023 A 
ATOM     89  C   UNL A   1      45.192  34.583  31.091  1.00  0.00     0.012 A 
ATOM     90  C   UNL A   1      44.315  35.393  28.971  1.00  0.00     0.148 A 
ATOM     91  C   UNL A   1      45.674  35.857  31.386  1.00  0.00     0.002 A 
ATOM     92  C   UNL A   1      44.840  36.649  29.250  1.00  0.00     0.091 A 
ATOM     93  F   UNL A   1      43.636  35.147  27.841  1.00  0.00    -0.205 F 
ATOM     94  C   UNL A   1      45.509  36.886  30.462  1.00  0.00     0.022 A 
BRANCH  92  95
ATOM     95  S   UNL A   1      44.759  38.008  28.077  1.00  0.00     0.127 S 
ATOM     96  O   UNL A   1      45.465  39.066  28.799  1.00  0.00    -0.237 OA
ATOM     97  O   UNL A   1      45.483  37.470  26.925  1.00  0.00    -0.237 OA
ATOM     98  O   UNL A   1      43.342  38.250  27.840  1.00  0.00    -0.744 OA
ENDBRANCH  92  95
ENDBRANCH  65  88
ENDBRANCH  39  40
ENDBRANCH  31  34
ENDBRANCH  29  30
ENDBRANCH  28  29
ENDBRANCH   1  28
TORSDOF 20
ENDMDL
MODEL 3
REMARK VINA RESULT:     -10.7      2.502      8.027
REMARK SMILES CCC(CC)(NC(=O)NC[C@H](C)[NH+]1CCCCC1)C(=O)NCCCCNC(=O)c1ccc(-c2c3nc(c(-c4cccc(S(=O)(=O)[O-])c4F)c4ccc([nH]4)c(-c4cccc(S(=O)(=O)[O-])c4F)c4nc(c(-c5cccc(S(=O)(=O)[O-])c5F)c5ccc2[nH]5)C=C4)C=C3)cc1
REMARK SMILES IDX 23 1 22 2 21 3 19 4 20 5 3 7 2 8 1 9 4 10 5 11 6 12 7 13
REMARK SMILES IDX 8 15 9 16 10 18 11 19 12 20 13 21 14 22 18 23 15 25 17 26
REMARK SMILES IDX 16 27 24 28 25 29 26 30 27 31 28 33 29 34 30 35 91 36 31 37
REMARK SMILES IDX 90 38 32 39 33 40 34 41 84 42 35 43 89 44 83 45 85 46 36 47
REMARK SMILES IDX 88 48 82 49 81 50 37 52 69 53 49 54 68 55 50 56 53 57 67 58
REMARK SMILES IDX 86 59 51 60 52 61 66 63 87 64 54 65 38 66 39 67 47 68 40 69
REMARK SMILES IDX 42 70 48 71 41 72 43 73 44 74 45 75 46 76 70 77 71 78 79 79
REMARK SMILES IDX 72 80 74 81 80 82 73 83 75 84 76 85 77 86 78 87 55 88 56 89
REMARK SMILES IDX 64 90 57 91 59 92 65 93 58 94 60 95 61 96 62 97 63 98
REMARK H PARENT 21 6 6 14 9 17 13 24 26 32 85 51 53 62
REMARK Flexibility Score: inf
ROOT
ATOM      1  C   UNL A   1      33.669  27.918  23.742  1.00  0.00     0.023 C 
ENDROOT
BRANCH   1   2
ATOM      2  C   UNL A   1      33.645  26.748  24.730  1.00  0.00     0.116 C 
BRANCH   2   3
ATOM      3  N   UNL A   1      34.217  25.476  24.298  1.00  0.00    -0.354 N 
ATOM      4  C   UNL A   1      33.745  24.490  23.464  1.00  0.00     0.245 C 
ATOM      5  O   UNL A   1      34.597  23.742  22.975  1.00  0.00    -0.272 OA
ATOM      6  H   UNL A   1      35.107  25.290  24.674  1.00  0.00     0.163 HD
BRANCH   4   7
ATOM      7  C   UNL A   1      32.259  24.430  23.004  1.00  0.00     0.120 C 
BRANCH   7   8
ATOM      8  C   UNL A   1      31.774  25.506  21.988  1.00  0.00     0.035 C 
ATOM      9  C   UNL A   1      32.553  25.674  20.692  1.00  0.00     0.007 C 
ENDBRANCH   7   8
BRANCH   7  10
ATOM     10  C   UNL A   1      31.461  24.592  24.349  1.00  0.00     0.035 C 
ATOM     11  C   UNL A   1      30.267  25.537  24.348  1.00  0.00     0.007 C 
ENDBRANCH   7  10
BRANCH   7  12
ATOM     12  N   UNL A   1      32.035  23.114  22.381  1.00  0.00    -0.324 N 
ATOM     13  C   UNL A   1      32.073  21.849  22.817  1.00  0.00     0.315 C 
ATOM     14  H   UNL A   1      31.804  23.179  21.426  1.00  0.00     0.166 HD
ATOM     15  O   UNL A   1      32.024  20.975  21.944  1.00  0.00    -0.249 OA
ATOM     16  N   UNL A   1      32.106  21.437  24.086  1.00  0.00    -0.332 N 
ATOM     17  H   UNL A   1      31.975  20.462  24.135  1.00  0.00     0.165 HD
BRANCH  16  18
ATOM     18  C   UNL A   1      32.278  21.996  25.437  1.00  0.00     0.182 C 
BRANCH  18  19
ATOM     19  C   UNL A   1      33.601  21.615  26.188  1.00  0.00     0.200 C 
ATOM     20  C   UNL A   1      33.538  22.221  27.614  1.00  0.00     0.077 C 
BRANCH  19  21
ATOM     21  N   UNL A   1      34.895  22.009  25.560  1.00  0.00    -0.331 N 
ATOM     22  C   UNL A   1      35.644  22.969  26.408  1.00  0.00     0.262 C 
ATOM     23  C   UNL A   1      35.772  20.889  25.191  1.00  0.00     0.262 C 
ATOM     24  H   UNL A   1      34.619  22.455  24.685  1.00  0.00     0.348 HD
ATOM     25  C   UNL A   1      36.881  23.520  25.698  1.00  0.00     0.062 C 
ATOM     26  C   UNL A   1      37.048  21.355  24.479  1.00  0.00     0.062 C 
ATOM     27  C   UNL A   1      37.814  22.394  25.285  1.00  0.00     0.012 C 
ENDBRANCH  19  21
ENDBRANCH  18  19
ENDBRANCH  16  18
ENDBRANCH   7  12
ENDBRANCH   4   7
ENDBRANCH   2   3
ENDBRANCH   1   2
BRANCH   1  28
ATOM     28  C   UNL A   1      33.449  29.331  24.268  1.00  0.00     0.023 C 
BRANCH  28  29
ATOM     29  C   UNL A   1      32.888  29.452  25.673  1.00  0.00     0.116 C 
BRANCH  29  30
ATOM     30  N   UNL A   1      32.554  30.824  26.006  1.00  0.00    -0.352 N 
ATOM     31  C   UNL A   1      33.099  31.637  26.970  1.00  0.00     0.251 C 
ATOM     32  H   UNL A   1      31.837  31.229  25.466  1.00  0.00     0.163 HD
ATOM     33  O   UNL A   1      32.543  32.694  27.253  1.00  0.00    -0.269 OA
BRANCH  31  34
ATOM     34  C   UNL A   1      34.341  31.240  27.677  1.00  0.00     0.039 A 
ATOM     35  C   UNL A   1      34.477  29.915  28.104  1.00  0.00     0.014 A 
ATOM     36  C   UNL A   1      35.350  32.166  27.958  1.00  0.00     0.014 A 
ATOM     37  C   UNL A   1      35.633  29.515  28.781  1.00  0.00     0.010 A 
ATOM     38  C   UNL A   1      36.533  31.749  28.564  1.00  0.00     0.010 A 
ATOM     39  C   UNL A   1      36.680  30.424  29.004  1.00  0.00    -0.014 A 
BRANCH  39  40
ATOM     40  C   UNL A   1      37.918  30.015  29.717  1.00  0.00     0.031 A 
ATOM     41  C   UNL A   1      38.200  30.531  31.105  1.00  0.00     0.074 A 
ATOM     42  C   UNL A   1      38.824  29.234  29.097  1.00  0.00     0.049 A 
ATOM     43  N   UNL A   1      39.244  30.324  31.867  1.00  0.00    -0.248 NA
ATOM     44  C   UNL A   1      37.190  31.418  31.706  1.00  0.00     0.031 C 
ATOM     45  C   UNL A   1      38.709  28.729  27.728  1.00  0.00     0.029 A 
ATOM     46  N   UNL A   1      40.034  28.748  29.529  1.00  0.00    -0.354 N 
ATOM     47  C   UNL A   1      39.033  31.078  33.016  1.00  0.00     0.074 A 
ATOM     48  C   UNL A   1      37.780  31.777  32.837  1.00  0.00     0.031 C 
ATOM     49  C   UNL A   1      39.802  28.006  27.433  1.00  0.00     0.029 A 
ATOM     50  C   UNL A   1      40.706  28.015  28.579  1.00  0.00     0.049 A 
ATOM     51  H   UNL A   1      40.387  28.909  30.434  1.00  0.00     0.167 HD
ATOM     52  C   UNL A   1      39.795  31.158  34.133  1.00  0.00     0.034 A 
ATOM     53  C   UNL A   1      41.916  27.422  28.623  1.00  0.00     0.034 A 
ATOM     54  C   UNL A   1      41.015  30.423  34.333  1.00  0.00     0.049 A 
ATOM     55  C   UNL A   1      42.719  27.484  29.895  1.00  0.00     0.074 A 
ATOM     56  C   UNL A   1      41.813  30.372  35.462  1.00  0.00     0.029 A 
ATOM     57  N   UNL A   1      41.616  29.615  33.382  1.00  0.00    -0.354 N 
ATOM     58  N   UNL A   1      42.426  28.076  31.028  1.00  0.00    -0.248 NA
ATOM     59  C   UNL A   1      44.002  26.767  29.907  1.00  0.00     0.031 C 
ATOM     60  C   UNL A   1      42.905  29.543  35.188  1.00  0.00     0.029 A 
ATOM     61  C   UNL A   1      42.776  29.062  33.895  1.00  0.00     0.049 A 
ATOM     62  H   UNL A   1      41.269  29.456  32.474  1.00  0.00     0.167 HD
ATOM     63  C   UNL A   1      43.469  27.774  31.896  1.00  0.00     0.074 A 
ATOM     64  C   UNL A   1      44.390  26.928  31.165  1.00  0.00     0.031 C 
ATOM     65  C   UNL A   1      43.656  28.176  33.177  1.00  0.00     0.034 A 
BRANCH  52  66
ATOM     66  C   UNL A   1      39.295  32.026  35.260  1.00  0.00     0.023 A 
ATOM     67  C   UNL A   1      38.366  31.498  36.181  1.00  0.00     0.012 A 
ATOM     68  C   UNL A   1      39.781  33.335  35.444  1.00  0.00     0.148 A 
ATOM     69  C   UNL A   1      37.902  32.269  37.245  1.00  0.00     0.002 A 
ATOM     70  C   UNL A   1      39.347  34.083  36.534  1.00  0.00     0.091 A 
ATOM     71  F   UNL A   1      40.648  33.828  34.549  1.00  0.00    -0.205 F 
ATOM     72  C   UNL A   1      38.401  33.556  37.428  1.00  0.00     0.022 A 
BRANCH  70  73
ATOM     73  S   UNL A   1      39.987  35.720  36.902  1.00  0.00     0.127 S 
ATOM     74  O   UNL A   1      41.421  35.459  37.010  1.00  0.00    -0.237 OA
ATOM     75  O   UNL A   1      39.595  36.480  35.714  1.00  0.00    -0.237 OA
ATOM     76  O   UNL A   1      39.332  36.140  38.133  1.00  0.00    -0.744 OA
ENDBRANCH  70  73
ENDBRANCH  52  66
BRANCH  53  77
ATOM     77  C   UNL A   1      42.410  26.658  27.443  1.00  0.00     0.023 A 
ATOM     78  C   UNL A   1      43.152  27.324  26.447  1.00  0.00     0.012 A 
ATOM     79  C   UNL A   1      42.177  25.276  27.315  1.00  0.00     0.148 A 
ATOM     80  C   UNL A   1      43.628  26.632  25.332  1.00  0.00     0.002 A 
ATOM     81  C   UNL A   1      42.702  24.582  26.231  1.00  0.00     0.091 A 
ATOM     82  F   UNL A   1      41.455  24.662  28.265  1.00  0.00    -0.205 F 
ATOM     83  C   UNL A   1      43.413  25.261  25.230  1.00  0.00     0.022 A 
BRANCH  81  84
ATOM     84  S   UNL A   1      42.591  22.794  26.092  1.00  0.00     0.127 S 
ATOM     85  O   UNL A   1      41.152  22.574  26.190  1.00  0.00    -0.237 OA
ATOM     86  O   UNL A   1      43.163  22.557  24.766  1.00  0.00    -0.237 OA
ATOM     87  O   UNL A   1      43.393  22.267  27.190  1.00  0.00    -0.744 OA
ENDBRANCH  81  84
ENDBRANCH  53  77
BRANCH  65  88
ATOM     88  C   UNL A   1      44.887  27.684  33.894  1.00  0.00     0.023 A 
ATOM     89  C   UNL A   1      46.063  28.460  33.878  1.00  0.00     0.012 A 
ATOM     90  C   UNL A   1      44.854  26.493  34.647  1.00  0.00     0.148 A 
ATOM     91  C   UNL A   1      47.196  28.045  34.575  1.00  0.00     0.002 A 
ATOM     92  C   UNL A   1      45.972  26.110  35.378  1.00  0.00     0.091 A 
ATOM     93  F   UNL A   1      43.732  25.759  34.636  1.00  0.00    -0.205 F 
ATOM     94  C   UNL A   1      47.147  26.877  35.334  1.00  0.00     0.022 A 
BRANCH  92  95
ATOM     95  S   UNL A   1      45.969  24.674  36.458  1.00  0.00     0.127 S 
ATOM     96  O   UNL A   1      44.872  24.990  37.371  1.00  0.00    -0.237 OA
ATOM     97  O   UNL A   1      45.689  23.582  35.525  1.00  0.00    -0.237 OA
ATOM     98  O   UNL A   1      47.293  24.624  37.064  1.00  0.00    -0.744 OA
ENDBRANCH  92  95
ENDBRANCH  65  88
ENDBRANCH  39  40
ENDBRANCH  31  34
ENDBRANCH  29  30
ENDBRANCH  28  29
ENDBRANCH   1  28
TORSDOF 20
ENDMDL
