MODEL 1
REMARK VINA RESULT:     -11.6      0.000      0.000
REMARK SMILES CC[C@@](C)(NC(=O)N1CCC[C@H]1C1CCCC1)C(=O)NCCCCNC(=O)c1ccc(-c2c3nc(c(-c4cccc(S(=O)(=O)[O-])c4F)c4ccc([nH]4)c(-c4cccc(S(=O)(=O)[O-])c4F)c4nc(c(-c5cccc(S(=O)(=O)[O-])c5F)c5ccc2[nH]5)C=C4)C=C3)cc1
REMARK SMILES IDX 22 1 21 2 20 3 18 4 19 5 3 7 4 8 2 9 1 10 5 11 6 12 7 14
REMARK SMILES IDX 8 15 9 16 12 17 10 18 11 19 13 20 14 21 17 22 15 23 16 24
REMARK SMILES IDX 23 25 24 26 25 27 26 28 27 30 28 31 29 32 90 33 30 34 89 35
REMARK SMILES IDX 31 36 32 37 33 38 83 39 34 40 88 41 82 42 84 43 35 44 87 45
REMARK SMILES IDX 81 46 80 47 36 49 68 50 48 51 67 52 49 53 52 54 66 55 85 56
REMARK SMILES IDX 50 57 51 58 65 60 86 61 53 62 37 63 38 64 46 65 39 66 41 67
REMARK SMILES IDX 47 68 40 69 42 70 43 71 44 72 45 73 69 74 70 75 78 76 71 77
REMARK SMILES IDX 73 78 79 79 72 80 74 81 75 82 76 83 77 84 54 85 55 86 63 87
REMARK SMILES IDX 56 88 58 89 64 90 57 91 59 92 60 93 61 94 62 95
REMARK H PARENT 20 6 5 13 25 29 84 48 52 59
REMARK Flexibility Score: inf
ROOT
ATOM      1  C   UNL A   1      31.408  30.788  25.775  1.00  0.00     0.023 C 
ENDROOT
BRANCH   1   2
ATOM      2  C   UNL A   1      32.680  29.951  25.834  1.00  0.00     0.116 C 
BRANCH   2   3
ATOM      3  N   UNL A   1      33.314  29.715  24.550  1.00  0.00    -0.354 N 
ATOM      4  C   UNL A   1      33.341  28.620  23.733  1.00  0.00     0.245 C 
ATOM      5  O   UNL A   1      33.764  28.822  22.589  1.00  0.00    -0.272 OA
ATOM      6  H   UNL A   1      33.818  30.487  24.203  1.00  0.00     0.163 HD
BRANCH   4   7
ATOM      7  C   UNL A   1      32.729  27.250  24.151  1.00  0.00     0.117 C 
ATOM      8  C   UNL A   1      33.637  26.730  25.304  1.00  0.00     0.045 C 
BRANCH   7   9
ATOM      9  C   UNL A   1      31.277  27.317  24.722  1.00  0.00     0.035 C 
ATOM     10  C   UNL A   1      31.037  26.792  26.132  1.00  0.00     0.007 C 
ENDBRANCH   7   9
BRANCH   7  11
ATOM     11  N   UNL A   1      32.724  26.230  23.064  1.00  0.00    -0.324 N 
ATOM     12  C   UNL A   1      32.928  24.893  23.018  1.00  0.00     0.318 C 
ATOM     13  H   UNL A   1      32.528  26.617  22.181  1.00  0.00     0.166 HD
ATOM     14  O   UNL A   1      33.623  24.533  22.063  1.00  0.00    -0.249 OA
BRANCH  12  15
ATOM     15  N   UNL A   1      32.383  24.001  23.894  1.00  0.00    -0.322 N 
ATOM     16  C   UNL A   1      30.990  23.649  24.063  1.00  0.00     0.122 C 
ATOM     17  C   UNL A   1      33.196  23.372  24.969  1.00  0.00     0.090 C 
ATOM     18  C   UNL A   1      30.813  23.317  25.528  1.00  0.00     0.024 C 
ATOM     19  C   UNL A   1      32.165  22.799  25.970  1.00  0.00     0.027 C 
BRANCH  17  20
ATOM     20  C   UNL A   1      34.194  22.233  24.581  1.00  0.00     0.012 C 
ATOM     21  C   UNL A   1      35.403  22.076  25.501  1.00  0.00     0.006 C 
ATOM     22  C   UNL A   1      33.642  20.810  24.448  1.00  0.00     0.006 C 
ATOM     23  C   UNL A   1      35.971  20.703  25.183  1.00  0.00     0.000 C 
ATOM     24  C   UNL A   1      34.770  19.849  24.821  1.00  0.00     0.000 C 
ENDBRANCH  17  20
ENDBRANCH  12  15
ENDBRANCH   7  11
ENDBRANCH   4   7
ENDBRANCH   2   3
ENDBRANCH   1   2
BRANCH   1  25
ATOM     25  C   UNL A   1      31.353  31.973  26.734  1.00  0.00     0.023 C 
BRANCH  25  26
ATOM     26  C   UNL A   1      32.694  32.547  27.137  1.00  0.00     0.116 C 
BRANCH  26  27
ATOM     27  N   UNL A   1      32.585  33.935  27.556  1.00  0.00    -0.352 N 
ATOM     28  C   UNL A   1      33.200  34.613  28.581  1.00  0.00     0.251 C 
ATOM     29  H   UNL A   1      31.967  34.479  27.014  1.00  0.00     0.163 HD
ATOM     30  O   UNL A   1      32.774  35.722  28.896  1.00  0.00    -0.269 OA
BRANCH  28  31
ATOM     31  C   UNL A   1      34.349  34.029  29.315  1.00  0.00     0.039 A 
ATOM     32  C   UNL A   1      34.114  33.049  30.284  1.00  0.00     0.014 A 
ATOM     33  C   UNL A   1      35.654  34.469  29.096  1.00  0.00     0.014 A 
ATOM     34  C   UNL A   1      35.186  32.485  30.987  1.00  0.00     0.010 A 
ATOM     35  C   UNL A   1      36.726  33.808  29.685  1.00  0.00     0.010 A 
ATOM     36  C   UNL A   1      36.508  32.837  30.670  1.00  0.00    -0.014 A 
BRANCH  36  37
ATOM     37  C   UNL A   1      37.678  32.257  31.385  1.00  0.00     0.031 A 
ATOM     38  C   UNL A   1      38.470  31.139  30.748  1.00  0.00     0.074 A 
ATOM     39  C   UNL A   1      37.974  32.661  32.637  1.00  0.00     0.049 A 
ATOM     40  N   UNL A   1      39.443  30.423  31.252  1.00  0.00    -0.248 NA
ATOM     41  C   UNL A   1      38.089  30.739  29.381  1.00  0.00     0.031 C 
ATOM     42  C   UNL A   1      37.234  33.666  33.402  1.00  0.00     0.029 A 
ATOM     43  N   UNL A   1      38.960  32.251  33.500  1.00  0.00    -0.354 N 
ATOM     44  C   UNL A   1      39.747  29.463  30.292  1.00  0.00     0.074 A 
ATOM     45  C   UNL A   1      38.821  29.652  29.198  1.00  0.00     0.031 C 
ATOM     46  C   UNL A   1      37.799  33.804  34.612  1.00  0.00     0.029 A 
ATOM     47  C   UNL A   1      38.916  32.872  34.726  1.00  0.00     0.049 A 
ATOM     48  H   UNL A   1      39.636  31.574  33.263  1.00  0.00     0.167 HD
ATOM     49  C   UNL A   1      40.731  28.533  30.294  1.00  0.00     0.034 A 
ATOM     50  C   UNL A   1      39.682  32.705  35.822  1.00  0.00     0.034 A 
ATOM     51  C   UNL A   1      41.699  28.398  31.348  1.00  0.00     0.049 A 
ATOM     52  C   UNL A   1      40.817  31.717  35.774  1.00  0.00     0.074 A 
ATOM     53  C   UNL A   1      42.797  27.561  31.406  1.00  0.00     0.029 A 
ATOM     54  N   UNL A   1      41.688  29.128  32.526  1.00  0.00    -0.354 N 
ATOM     55  N   UNL A   1      41.177  30.922  34.797  1.00  0.00    -0.248 NA
ATOM     56  C   UNL A   1      41.673  31.631  36.966  1.00  0.00     0.031 C 
ATOM     57  C   UNL A   1      43.441  27.771  32.629  1.00  0.00     0.029 A 
ATOM     58  C   UNL A   1      42.759  28.759  33.320  1.00  0.00     0.049 A 
ATOM     59  H   UNL A   1      41.016  29.808  32.764  1.00  0.00     0.167 HD
ATOM     60  C   UNL A   1      42.320  30.267  35.240  1.00  0.00     0.074 A 
ATOM     61  C   UNL A   1      42.605  30.776  36.566  1.00  0.00     0.031 C 
ATOM     62  C   UNL A   1      43.059  29.317  34.614  1.00  0.00     0.034 A 
BRANCH  49  63
ATOM     63  C   UNL A   1      40.853  27.634  29.089  1.00  0.00     0.023 A 
ATOM     64  C   UNL A   1      40.064  26.469  29.007  1.00  0.00     0.012 A 
ATOM     65  C   UNL A   1      41.709  27.963  28.019  1.00  0.00     0.148 A 
ATOM     66  C   UNL A   1      40.153  25.623  27.902  1.00  0.00     0.002 A 
ATOM     67  C   UNL A   1      41.757  27.141  26.899  1.00  0.00     0.091 A 
ATOM     68  F   UNL A   1      42.468  29.064  28.120  1.00  0.00    -0.205 F 
ATOM     69  C   UNL A   1      40.991  25.964  26.845  1.00  0.00     0.022 A 
BRANCH  67  70
ATOM     70  S   UNL A   1      42.739  27.533  25.447  1.00  0.00     0.127 S 
ATOM     71  O   UNL A   1      42.502  26.362  24.605  1.00  0.00    -0.237 OA
ATOM     72  O   UNL A   1      42.107  28.763  24.971  1.00  0.00    -0.237 OA
ATOM     73  O   UNL A   1      44.106  27.696  25.919  1.00  0.00    -0.744 OA
ENDBRANCH  67  70
ENDBRANCH  49  63
BRANCH  50  74
ATOM     74  C   UNL A   1      39.441  33.541  37.032  1.00  0.00     0.023 A 
ATOM     75  C   UNL A   1      39.901  34.873  37.055  1.00  0.00     0.012 A 
ATOM     76  C   UNL A   1      38.733  33.040  38.142  1.00  0.00     0.148 A 
ATOM     77  C   UNL A   1      39.690  35.679  38.174  1.00  0.00     0.002 A 
ATOM     78  C   UNL A   1      38.477  33.867  39.230  1.00  0.00     0.091 A 
ATOM     79  F   UNL A   1      38.313  31.769  38.106  1.00  0.00    -0.205 F 
ATOM     80  C   UNL A   1      38.969  35.181  39.257  1.00  0.00     0.022 A 
BRANCH  78  81
ATOM     81  S   UNL A   1      37.444  33.353  40.606  1.00  0.00     0.127 S 
ATOM     82  O   UNL A   1      37.374  34.575  41.403  1.00  0.00    -0.237 OA
ATOM     83  O   UNL A   1      36.198  32.986  39.929  1.00  0.00    -0.237 OA
ATOM     84  O   UNL A   1      38.142  32.232  41.223  1.00  0.00    -0.744 OA
ENDBRANCH  78  81
ENDBRANCH  50  74
BRANCH  62  85
ATOM     85  C   UNL A   1      44.273  28.791  35.331  1.00  0.00     0.023 A 
ATOM     86  C   UNL A   1      45.530  29.387  35.112  1.00  0.00     0.012 A 
ATOM     87  C   UNL A   1      44.151  27.758  36.282  1.00  0.00     0.148 A 
ATOM     88  C   UNL A   1      46.655  28.940  35.805  1.00  0.00     0.002 A 
ATOM     89  C   UNL A   1      45.266  27.353  37.005  1.00  0.00     0.091 A 
ATOM     90  F   UNL A   1      42.948  27.193  36.461  1.00  0.00    -0.205 F 
ATOM     91  C   UNL A   1      46.520  27.935  36.760  1.00  0.00     0.022 A 
BRANCH  89  92
ATOM     92  S   UNL A   1      45.168  26.137  38.323  1.00  0.00     0.127 S 
ATOM     93  O   UNL A   1      44.229  26.773  39.245  1.00  0.00    -0.237 OA
ATOM     94  O   UNL A   1      44.639  24.965  37.625  1.00  0.00    -0.237 OA
ATOM     95  O   UNL A   1      46.526  25.978  38.825  1.00  0.00    -0.744 OA
ENDBRANCH  89  92
ENDBRANCH  62  85
ENDBRANCH  36  37
ENDBRANCH  28  31
ENDBRANCH  26  27
ENDBRANCH  25  26
ENDBRANCH   1  25
TORSDOF 18
ENDMDL
MODEL 2
REMARK VINA RESULT:     -11.5      1.338      1.758
REMARK SMILES CC[C@@](C)(NC(=O)N1CCC[C@H]1C1CCCC1)C(=O)NCCCCNC(=O)c1ccc(-c2c3nc(c(-c4cccc(S(=O)(=O)[O-])c4F)c4ccc([nH]4)c(-c4cccc(S(=O)(=O)[O-])c4F)c4nc(c(-c5cccc(S(=O)(=O)[O-])c5F)c5ccc2[nH]5)C=C4)C=C3)cc1
REMARK SMILES IDX 22 1 21 2 20 3 18 4 19 5 3 7 4 8 2 9 1 10 5 11 6 12 7 14
REMARK SMILES IDX 8 15 9 16 12 17 10 18 11 19 13 20 14 21 17 22 15 23 16 24
REMARK SMILES IDX 23 25 24 26 25 27 26 28 27 30 28 31 29 32 90 33 30 34 89 35
REMARK SMILES IDX 31 36 32 37 33 38 83 39 34 40 88 41 82 42 84 43 35 44 87 45
REMARK SMILES IDX 81 46 80 47 36 49 68 50 48 51 67 52 49 53 52 54 66 55 85 56
REMARK SMILES IDX 50 57 51 58 65 60 86 61 53 62 37 63 38 64 46 65 39 66 41 67
REMARK SMILES IDX 47 68 40 69 42 70 43 71 44 72 45 73 69 74 70 75 78 76 71 77
REMARK SMILES IDX 73 78 79 79 72 80 74 81 75 82 76 83 77 84 54 85 55 86 63 87
REMARK SMILES IDX 56 88 58 89 64 90 57 91 59 92 60 93 61 94 62 95
REMARK H PARENT 20 6 5 13 25 29 84 48 52 59
REMARK Flexibility Score: inf
ROOT
ATOM      1  C   UNL A   1      31.104  30.688  25.638  1.00  0.00     0.023 C 
ENDROOT
BRANCH   1   2
ATOM      2  C   UNL A   1      32.376  29.851  25.683  1.00  0.00     0.116 C 
BRANCH   2   3
ATOM      3  N   UNL A   1      33.056  29.707  24.409  1.00  0.00    -0.354 N 
ATOM      4  C   UNL A   1      33.181  28.647  23.556  1.00  0.00     0.245 C 
ATOM      5  O   UNL A   1      33.616  28.919  22.432  1.00  0.00    -0.272 OA
ATOM      6  H   UNL A   1      33.512  30.524  24.103  1.00  0.00     0.163 HD
BRANCH   4   7
ATOM      7  C   UNL A   1      32.658  27.223  23.910  1.00  0.00     0.117 C 
ATOM      8  C   UNL A   1      33.627  26.690  25.005  1.00  0.00     0.045 C 
BRANCH   7   9
ATOM      9  C   UNL A   1      31.222  27.176  24.523  1.00  0.00     0.035 C 
ATOM     10  C   UNL A   1      31.051  26.546  25.901  1.00  0.00     0.007 C 
ENDBRANCH   7   9
BRANCH   7  11
ATOM     11  N   UNL A   1      32.676  26.267  22.767  1.00  0.00    -0.324 N 
ATOM     12  C   UNL A   1      32.971  24.953  22.633  1.00  0.00     0.318 C 
ATOM     13  H   UNL A   1      32.412  26.687  21.917  1.00  0.00     0.166 HD
ATOM     14  O   UNL A   1      33.646  24.700  21.630  1.00  0.00    -0.249 OA
BRANCH  12  15
ATOM     15  N   UNL A   1      32.532  23.977  23.477  1.00  0.00    -0.322 N 
ATOM     16  C   UNL A   1      31.197  23.433  23.599  1.00  0.00     0.122 C 
ATOM     17  C   UNL A   1      33.395  23.442  24.564  1.00  0.00     0.090 C 
ATOM     18  C   UNL A   1      31.029  23.048  25.052  1.00  0.00     0.024 C 
ATOM     19  C   UNL A   1      32.427  22.712  25.525  1.00  0.00     0.027 C 
BRANCH  17  20
ATOM     20  C   UNL A   1      34.551  22.460  24.186  1.00  0.00     0.012 C 
ATOM     21  C   UNL A   1      35.920  23.104  23.978  1.00  0.00     0.006 C 
ATOM     22  C   UNL A   1      34.832  21.286  25.129  1.00  0.00     0.006 C 
ATOM     23  C   UNL A   1      36.913  21.956  24.037  1.00  0.00     0.000 C 
ATOM     24  C   UNL A   1      36.323  20.967  25.025  1.00  0.00     0.000 C 
ENDBRANCH  17  20
ENDBRANCH  12  15
ENDBRANCH   7  11
ENDBRANCH   4   7
ENDBRANCH   2   3
ENDBRANCH   1   2
BRANCH   1  25
ATOM     25  C   UNL A   1      31.111  31.946  26.501  1.00  0.00     0.023 C 
BRANCH  25  26
ATOM     26  C   UNL A   1      32.480  32.488  26.849  1.00  0.00     0.116 C 
BRANCH  26  27
ATOM     27  N   UNL A   1      32.412  33.852  27.349  1.00  0.00    -0.352 N 
ATOM     28  C   UNL A   1      33.082  34.463  28.382  1.00  0.00     0.251 C 
ATOM     29  H   UNL A   1      31.780  34.434  26.866  1.00  0.00     0.163 HD
ATOM     30  O   UNL A   1      32.687  35.559  28.776  1.00  0.00    -0.269 OA
BRANCH  28  31
ATOM     31  C   UNL A   1      34.252  33.823  29.031  1.00  0.00     0.039 A 
ATOM     32  C   UNL A   1      35.538  34.280  28.725  1.00  0.00     0.014 A 
ATOM     33  C   UNL A   1      34.104  32.745  29.903  1.00  0.00     0.014 A 
ATOM     34  C   UNL A   1      36.655  33.689  29.329  1.00  0.00     0.010 A 
ATOM     35  C   UNL A   1      35.197  32.259  30.611  1.00  0.00     0.010 A 
ATOM     36  C   UNL A   1      36.492  32.693  30.305  1.00  0.00    -0.014 A 
BRANCH  36  37
ATOM     37  C   UNL A   1      37.650  32.043  30.979  1.00  0.00     0.031 A 
ATOM     38  C   UNL A   1      38.464  31.005  30.243  1.00  0.00     0.074 A 
ATOM     39  C   UNL A   1      37.915  32.310  32.274  1.00  0.00     0.049 A 
ATOM     40  N   UNL A   1      39.431  30.243  30.687  1.00  0.00    -0.248 NA
ATOM     41  C   UNL A   1      38.116  30.755  28.832  1.00  0.00     0.031 C 
ATOM     42  C   UNL A   1      37.152  33.222  33.127  1.00  0.00     0.029 A 
ATOM     43  N   UNL A   1      38.885  31.813  33.109  1.00  0.00    -0.354 N 
ATOM     44  C   UNL A   1      39.762  29.395  29.635  1.00  0.00     0.074 A 
ATOM     45  C   UNL A   1      38.859  29.697  28.548  1.00  0.00     0.031 C 
ATOM     46  C   UNL A   1      37.689  33.230  34.357  1.00  0.00     0.029 A 
ATOM     47  C   UNL A   1      38.809  32.296  34.394  1.00  0.00     0.049 A 
ATOM     48  H   UNL A   1      39.571  31.169  32.815  1.00  0.00     0.167 HD
ATOM     49  C   UNL A   1      40.752  28.475  29.559  1.00  0.00     0.034 A 
ATOM     50  C   UNL A   1      39.552  32.014  35.482  1.00  0.00     0.034 A 
ATOM     51  C   UNL A   1      41.697  28.230  30.613  1.00  0.00     0.049 A 
ATOM     52  C   UNL A   1      40.695  31.042  35.354  1.00  0.00     0.074 A 
ATOM     53  C   UNL A   1      42.800  27.397  30.604  1.00  0.00     0.029 A 
ATOM     54  N   UNL A   1      41.655  28.828  31.864  1.00  0.00    -0.354 N 
ATOM     55  N   UNL A   1      41.082  30.361  34.304  1.00  0.00    -0.248 NA
ATOM     56  C   UNL A   1      41.525  30.831  36.548  1.00  0.00     0.031 C 
ATOM     57  C   UNL A   1      43.416  27.475  31.858  1.00  0.00     0.029 A 
ATOM     58  C   UNL A   1      42.711  28.379  32.636  1.00  0.00     0.049 A 
ATOM     59  H   UNL A   1      40.974  29.475  32.158  1.00  0.00     0.167 HD
ATOM     60  C   UNL A   1      42.220  29.666  34.698  1.00  0.00     0.074 A 
ATOM     61  C   UNL A   1      42.471  30.029  36.078  1.00  0.00     0.031 C 
ATOM     62  C   UNL A   1      42.979  28.794  33.990  1.00  0.00     0.034 A 
BRANCH  49  63
ATOM     63  C   UNL A   1      40.907  27.713  28.266  1.00  0.00     0.023 A 
ATOM     64  C   UNL A   1      41.552  28.324  27.171  1.00  0.00     0.012 A 
ATOM     65  C   UNL A   1      40.461  26.382  28.147  1.00  0.00     0.148 A 
ATOM     66  C   UNL A   1      41.712  27.642  25.966  1.00  0.00     0.002 A 
ATOM     67  C   UNL A   1      40.668  25.691  26.958  1.00  0.00     0.091 A 
ATOM     68  F   UNL A   1      39.832  25.821  29.190  1.00  0.00    -0.205 F 
ATOM     69  C   UNL A   1      41.281  26.324  25.863  1.00  0.00     0.022 A 
BRANCH  67  70
ATOM     70  S   UNL A   1      40.226  23.962  26.750  1.00  0.00     0.127 S 
ATOM     71  O   UNL A   1      38.852  24.067  26.260  1.00  0.00    -0.237 OA
ATOM     72  O   UNL A   1      41.196  23.515  25.751  1.00  0.00    -0.237 OA
ATOM     73  O   UNL A   1      40.376  23.348  28.061  1.00  0.00    -0.744 OA
ENDBRANCH  67  70
ENDBRANCH  49  63
BRANCH  50  74
ATOM     74  C   UNL A   1      39.278  32.712  36.771  1.00  0.00     0.023 A 
ATOM     75  C   UNL A   1      39.915  33.941  37.040  1.00  0.00     0.012 A 
ATOM     76  C   UNL A   1      38.372  32.189  37.712  1.00  0.00     0.148 A 
ATOM     77  C   UNL A   1      39.678  34.617  38.238  1.00  0.00     0.002 A 
ATOM     78  C   UNL A   1      38.098  32.895  38.877  1.00  0.00     0.091 A 
ATOM     79  F   UNL A   1      37.785  31.014  37.443  1.00  0.00    -0.205 F 
ATOM     80  C   UNL A   1      38.762  34.101  39.151  1.00  0.00     0.022 A 
BRANCH  78  81
ATOM     81  S   UNL A   1      36.836  32.375  40.044  1.00  0.00     0.127 S 
ATOM     82  O   UNL A   1      37.362  31.093  40.504  1.00  0.00    -0.237 OA
ATOM     83  O   UNL A   1      36.878  33.451  41.036  1.00  0.00    -0.237 OA
ATOM     84  O   UNL A   1      35.596  32.314  39.280  1.00  0.00    -0.744 OA
ENDBRANCH  78  81
ENDBRANCH  50  74
BRANCH  62  85
ATOM     85  C   UNL A   1      44.180  28.198  34.673  1.00  0.00     0.023 A 
ATOM     86  C   UNL A   1      45.409  28.886  34.657  1.00  0.00     0.012 A 
ATOM     87  C   UNL A   1      44.068  26.996  35.398  1.00  0.00     0.148 A 
ATOM     88  C   UNL A   1      46.518  28.369  35.325  1.00  0.00     0.002 A 
ATOM     89  C   UNL A   1      45.163  26.513  36.104  1.00  0.00     0.091 A 
ATOM     90  F   UNL A   1      42.894  26.348  35.386  1.00  0.00    -0.205 F 
ATOM     91  C   UNL A   1      46.392  27.192  36.059  1.00  0.00     0.022 A 
BRANCH  89  92
ATOM     92  S   UNL A   1      45.066  25.060  37.155  1.00  0.00     0.127 S 
ATOM     93  O   UNL A   1      46.420  24.998  37.702  1.00  0.00    -0.237 OA
ATOM     94  O   UNL A   1      44.034  25.442  38.119  1.00  0.00    -0.237 OA
ATOM     95  O   UNL A   1      44.695  23.955  36.280  1.00  0.00    -0.744 OA
ENDBRANCH  89  92
ENDBRANCH  62  85
ENDBRANCH  36  37
ENDBRANCH  28  31
ENDBRANCH  26  27
ENDBRANCH  25  26
ENDBRANCH   1  25
TORSDOF 18
ENDMDL
MODEL 3
REMARK VINA RESULT:     -11.4      5.709      8.840
REMARK SMILES CC[C@@](C)(NC(=O)N1CCC[C@H]1C1CCCC1)C(=O)NCCCCNC(=O)c1ccc(-c2c3nc(c(-c4cccc(S(=O)(=O)[O-])c4F)c4ccc([nH]4)c(-c4cccc(S(=O)(=O)[O-])c4F)c4nc(c(-c5cccc(S(=O)(=O)[O-])c5F)c5ccc2[nH]5)C=C4)C=C3)cc1
REMARK SMILES IDX 22 1 21 2 20 3 18 4 19 5 3 7 4 8 2 9 1 10 5 11 6 12 7 14
REMARK SMILES IDX 8 15 9 16 12 17 10 18 11 19 13 20 14 21 17 22 15 23 16 24
REMARK SMILES IDX 23 25 24 26 25 27 26 28 27 30 28 31 29 32 90 33 30 34 89 35
REMARK SMILES IDX 31 36 32 37 33 38 83 39 34 40 88 41 82 42 84 43 35 44 87 45
REMARK SMILES IDX 81 46 80 47 36 49 68 50 48 51 67 52 49 53 52 54 66 55 85 56
REMARK SMILES IDX 50 57 51 58 65 60 86 61 53 62 37 63 38 64 46 65 39 66 41 67
REMARK SMILES IDX 47 68 40 69 42 70 43 71 44 72 45 73 69 74 70 75 78 76 71 77
REMARK SMILES IDX 73 78 79 79 72 80 74 81 75 82 76 83 77 84 54 85 55 86 63 87
REMARK SMILES IDX 56 88 58 89 64 90 57 91 59 92 60 93 61 94 62 95
REMARK H PARENT 20 6 5 13 25 29 84 48 52 59
REMARK Flexibility Score: inf
ROOT
ATOM      1  C   UNL A   1      36.459  22.986  23.406  1.00  0.00     0.023 C 
ENDROOT
BRANCH   1   2
ATOM      2  C   UNL A   1      35.148  23.703  23.701  1.00  0.00     0.116 C 
BRANCH   2   3
ATOM      3  N   UNL A   1      33.965  23.055  23.164  1.00  0.00    -0.354 N 
ATOM      4  C   UNL A   1      32.763  22.737  23.730  1.00  0.00     0.245 C 
ATOM      5  O   UNL A   1      31.872  22.413  22.938  1.00  0.00    -0.272 OA
ATOM      6  H   UNL A   1      34.043  22.799  22.217  1.00  0.00     0.163 HD
BRANCH   4   7
ATOM      7  C   UNL A   1      32.479  22.925  25.250  1.00  0.00     0.117 C 
ATOM      8  C   UNL A   1      31.987  21.536  25.752  1.00  0.00     0.045 C 
BRANCH   7   9
ATOM      9  C   UNL A   1      33.723  23.299  26.117  1.00  0.00     0.035 C 
ATOM     10  C   UNL A   1      34.007  22.464  27.361  1.00  0.00     0.007 C 
ENDBRANCH   7   9
BRANCH   7  11
ATOM     11  N   UNL A   1      31.420  23.931  25.550  1.00  0.00    -0.324 N 
ATOM     12  C   UNL A   1      31.327  25.275  25.427  1.00  0.00     0.318 C 
ATOM     13  H   UNL A   1      30.604  23.524  25.920  1.00  0.00     0.166 HD
ATOM     14  O   UNL A   1      30.799  25.823  26.400  1.00  0.00    -0.249 OA
BRANCH  12  15
ATOM     15  N   UNL A   1      31.718  25.976  24.325  1.00  0.00    -0.322 N 
ATOM     16  C   UNL A   1      31.091  26.016  23.021  1.00  0.00     0.122 C 
ATOM     17  C   UNL A   1      33.020  26.693  24.280  1.00  0.00     0.090 C 
ATOM     18  C   UNL A   1      32.209  26.211  22.022  1.00  0.00     0.024 C 
ATOM     19  C   UNL A   1      33.275  26.972  22.780  1.00  0.00     0.027 C 
BRANCH  17  20
ATOM     20  C   UNL A   1      33.159  28.039  25.065  1.00  0.00     0.012 C 
ATOM     21  C   UNL A   1      31.918  28.928  25.070  1.00  0.00     0.006 C 
ATOM     22  C   UNL A   1      33.575  27.970  26.537  1.00  0.00     0.006 C 
ATOM     23  C   UNL A   1      32.147  29.925  26.194  1.00  0.00     0.000 C 
ATOM     24  C   UNL A   1      32.939  29.168  27.244  1.00  0.00     0.000 C 
ENDBRANCH  17  20
ENDBRANCH  12  15
ENDBRANCH   7  11
ENDBRANCH   4   7
ENDBRANCH   2   3
ENDBRANCH   1   2
BRANCH   1  25
ATOM     25  C   UNL A   1      36.744  21.753  24.259  1.00  0.00     0.023 C 
BRANCH  25  26
ATOM     26  C   UNL A   1      37.220  22.033  25.668  1.00  0.00     0.116 C 
BRANCH  26  27
ATOM     27  N   UNL A   1      38.254  21.100  26.086  1.00  0.00    -0.352 N 
ATOM     28  C   UNL A   1      39.546  21.319  26.500  1.00  0.00     0.251 C 
ATOM     29  H   UNL A   1      37.982  20.153  26.070  1.00  0.00     0.163 HD
ATOM     30  O   UNL A   1      40.314  20.362  26.574  1.00  0.00    -0.269 OA
BRANCH  28  31
ATOM     31  C   UNL A   1      40.029  22.680  26.841  1.00  0.00     0.039 A 
ATOM     32  C   UNL A   1      40.948  22.837  27.884  1.00  0.00     0.014 A 
ATOM     33  C   UNL A   1      39.552  23.811  26.179  1.00  0.00     0.014 A 
ATOM     34  C   UNL A   1      41.416  24.113  28.220  1.00  0.00     0.010 A 
ATOM     35  C   UNL A   1      40.125  25.056  26.414  1.00  0.00     0.010 A 
ATOM     36  C   UNL A   1      41.033  25.234  27.464  1.00  0.00    -0.014 A 
BRANCH  36  37
ATOM     37  C   UNL A   1      41.513  26.607  27.780  1.00  0.00     0.031 A 
ATOM     38  C   UNL A   1      42.940  26.995  27.472  1.00  0.00     0.074 A 
ATOM     39  C   UNL A   1      40.706  27.473  28.427  1.00  0.00     0.049 A 
ATOM     40  N   UNL A   1      43.582  28.094  27.773  1.00  0.00    -0.248 NA
ATOM     41  C   UNL A   1      43.771  25.998  26.772  1.00  0.00     0.031 C 
ATOM     42  C   UNL A   1      39.337  27.195  28.864  1.00  0.00     0.029 A 
ATOM     43  N   UNL A   1      40.934  28.758  28.856  1.00  0.00    -0.354 N 
ATOM     44  C   UNL A   1      44.894  27.897  27.354  1.00  0.00     0.074 A 
ATOM     45  C   UNL A   1      44.971  26.555  26.824  1.00  0.00     0.031 C 
ATOM     46  C   UNL A   1      38.843  28.276  29.486  1.00  0.00     0.029 A 
ATOM     47  C   UNL A   1      39.870  29.313  29.528  1.00  0.00     0.049 A 
ATOM     48  H   UNL A   1      41.780  29.236  28.698  1.00  0.00     0.167 HD
ATOM     49  C   UNL A   1      45.935  28.763  27.366  1.00  0.00     0.034 A 
ATOM     50  C   UNL A   1      39.737  30.517  30.118  1.00  0.00     0.034 A 
ATOM     51  C   UNL A   1      45.836  30.122  27.821  1.00  0.00     0.049 A 
ATOM     52  C   UNL A   1      40.884  31.490  30.053  1.00  0.00     0.074 A 
ATOM     53  C   UNL A   1      46.798  31.115  27.782  1.00  0.00     0.029 A 
ATOM     54  N   UNL A   1      44.703  30.683  28.390  1.00  0.00    -0.354 N 
ATOM     55  N   UNL A   1      42.069  31.333  29.518  1.00  0.00    -0.248 NA
ATOM     56  C   UNL A   1      40.660  32.819  30.640  1.00  0.00     0.031 C 
ATOM     57  C   UNL A   1      46.252  32.273  28.347  1.00  0.00     0.029 A 
ATOM     58  C   UNL A   1      44.942  32.007  28.710  1.00  0.00     0.049 A 
ATOM     59  H   UNL A   1      43.854  30.208  28.545  1.00  0.00     0.167 HD
ATOM     60  C   UNL A   1      42.721  32.551  29.671  1.00  0.00     0.074 A 
ATOM     61  C   UNL A   1      41.789  33.443  30.330  1.00  0.00     0.031 C 
ATOM     62  C   UNL A   1      43.983  32.897  29.315  1.00  0.00     0.034 A 
BRANCH  49  63
ATOM     63  C   UNL A   1      47.252  28.288  26.807  1.00  0.00     0.023 A 
ATOM     64  C   UNL A   1      48.324  28.018  27.683  1.00  0.00     0.012 A 
ATOM     65  C   UNL A   1      47.419  28.062  25.426  1.00  0.00     0.148 A 
ATOM     66  C   UNL A   1      49.551  27.573  27.194  1.00  0.00     0.002 A 
ATOM     67  C   UNL A   1      48.630  27.572  24.950  1.00  0.00     0.091 A 
ATOM     68  F   UNL A   1      46.398  28.343  24.603  1.00  0.00    -0.205 F 
ATOM     69  C   UNL A   1      49.701  27.340  25.830  1.00  0.00     0.022 A 
BRANCH  67  70
ATOM     70  S   UNL A   1      48.900  27.159  23.222  1.00  0.00     0.127 S 
ATOM     71  O   UNL A   1      50.359  27.150  23.146  1.00  0.00    -0.237 OA
ATOM     72  O   UNL A   1      48.276  25.839  23.121  1.00  0.00    -0.237 OA
ATOM     73  O   UNL A   1      48.240  28.203  22.452  1.00  0.00    -0.744 OA
ENDBRANCH  67  70
ENDBRANCH  49  63
BRANCH  50  74
ATOM     74  C   UNL A   1      38.446  30.891  30.762  1.00  0.00     0.023 A 
ATOM     75  C   UNL A   1      38.253  30.621  32.131  1.00  0.00     0.012 A 
ATOM     76  C   UNL A   1      37.426  31.539  30.040  1.00  0.00     0.148 A 
ATOM     77  C   UNL A   1      37.055  30.959  32.762  1.00  0.00     0.002 A 
ATOM     78  C   UNL A   1      36.257  31.925  30.687  1.00  0.00     0.091 A 
ATOM     79  F   UNL A   1      37.623  31.778  28.736  1.00  0.00    -0.205 F 
ATOM     80  C   UNL A   1      36.062  31.621  32.044  1.00  0.00     0.022 A 
BRANCH  78  81
ATOM     81  S   UNL A   1      34.984  32.898  29.876  1.00  0.00     0.127 S 
ATOM     82  O   UNL A   1      34.484  31.962  28.873  1.00  0.00    -0.237 OA
ATOM     83  O   UNL A   1      34.062  33.171  30.980  1.00  0.00    -0.237 OA
ATOM     84  O   UNL A   1      35.664  34.079  29.359  1.00  0.00    -0.744 OA
ENDBRANCH  78  81
ENDBRANCH  50  74
BRANCH  62  85
ATOM     85  C   UNL A   1      44.425  34.309  29.588  1.00  0.00     0.023 A 
ATOM     86  C   UNL A   1      44.972  34.643  30.843  1.00  0.00     0.012 A 
ATOM     87  C   UNL A   1      44.372  35.285  28.573  1.00  0.00     0.148 A 
ATOM     88  C   UNL A   1      45.430  35.936  31.094  1.00  0.00     0.002 A 
ATOM     89  C   UNL A   1      44.876  36.557  28.814  1.00  0.00     0.091 A 
ATOM     90  F   UNL A   1      43.831  34.951  27.393  1.00  0.00    -0.205 F 
ATOM     91  C   UNL A   1      45.395  36.887  30.077  1.00  0.00     0.022 A 
BRANCH  89  92
ATOM     92  S   UNL A   1      44.963  37.815  27.536  1.00  0.00     0.127 S 
ATOM     93  O   UNL A   1      45.567  38.933  28.260  1.00  0.00    -0.237 OA
ATOM     94  O   UNL A   1      45.836  37.189  26.542  1.00  0.00    -0.237 OA
ATOM     95  O   UNL A   1      43.593  38.029  27.088  1.00  0.00    -0.744 OA
ENDBRANCH  89  92
ENDBRANCH  62  85
ENDBRANCH  36  37
ENDBRANCH  28  31
ENDBRANCH  26  27
ENDBRANCH  25  26
ENDBRANCH   1  25
TORSDOF 18
ENDMDL
