MODEL 1
REMARK VINA RESULT:     -11.0      0.000      0.000
REMARK SMILES C[C@H](C[N@H+](C)[C@H]1CC[C@H]([NH3+])CC1)C(=O)NCCCCNC(=O)c1ccc(-c2c3nc(c(-c4cccc(S(=O)(=O)[O-])c4F)c4ccc([nH]4)c(-c4cccc(S(=O)(=O)[O-])c4F)c4nc(c(-c5cccc(S(=O)(=O)[O-])c5F)c5ccc2[nH]5)C=C4)C=C3)cc1
REMARK SMILES IDX 17 1 16 2 15 3 13 4 14 5 2 7 1 8 3 9 4 10 5 11 6 13 7 14
REMARK SMILES IDX 12 15 8 16 11 17 9 18 10 19 18 23 19 24 20 25 21 26 22 28
REMARK SMILES IDX 23 29 24 30 85 31 25 32 84 33 26 34 27 35 28 36 78 37 29 38
REMARK SMILES IDX 83 39 77 40 79 41 30 42 82 43 76 44 75 45 31 47 63 48 43 49
REMARK SMILES IDX 62 50 44 51 47 52 61 53 80 54 45 55 46 56 60 58 81 59 48 60
REMARK SMILES IDX 32 61 33 62 41 63 34 64 36 65 42 66 35 67 37 68 38 69 39 70
REMARK SMILES IDX 40 71 64 72 65 73 73 74 66 75 68 76 74 77 67 78 69 79 70 80
REMARK SMILES IDX 71 81 72 82 49 83 50 84 58 85 51 86 53 87 59 88 52 89 54 90
REMARK SMILES IDX 55 91 56 92 57 93
REMARK H PARENT 15 6 4 12 10 20 10 21 10 22 20 27 79 46 47 57
REMARK Flexibility Score: inf
ROOT
ATOM      1  C   UNL A   1      31.280  28.784  23.562  1.00  0.00     0.023 C 
ENDROOT
BRANCH   1   2
ATOM      2  C   UNL A   1      30.958  27.415  22.969  1.00  0.00     0.116 C 
BRANCH   2   3
ATOM      3  N   UNL A   1      31.911  27.017  21.951  1.00  0.00    -0.356 N 
ATOM      4  C   UNL A   1      32.859  26.040  21.964  1.00  0.00     0.228 C 
ATOM      5  O   UNL A   1      33.628  25.982  20.998  1.00  0.00    -0.275 OA
ATOM      6  H   UNL A   1      31.865  27.538  21.116  1.00  0.00     0.163 HD
BRANCH   4   7
ATOM      7  C   UNL A   1      33.005  25.032  23.105  1.00  0.00     0.130 C 
ATOM      8  C   UNL A   1      33.948  25.485  24.221  1.00  0.00     0.024 C 
BRANCH   7   9
ATOM      9  C   UNL A   1      33.185  23.555  22.680  1.00  0.00     0.275 C 
BRANCH   9  10
ATOM     10  N   UNL A   1      32.032  22.669  22.921  1.00  0.00    -0.334 N 
ATOM     11  C   UNL A   1      30.894  23.463  23.412  1.00  0.00     0.332 C 
ATOM     12  H   UNL A   1      31.785  22.255  22.022  1.00  0.00     0.348 HD
BRANCH  10  13
ATOM     13  C   UNL A   1      32.321  21.482  23.761  1.00  0.00     0.184 C 
ATOM     14  C   UNL A   1      33.763  21.623  24.300  1.00  0.00     0.071 C 
ATOM     15  C   UNL A   1      32.104  20.114  23.075  1.00  0.00     0.071 C 
ATOM     16  C   UNL A   1      34.214  20.410  25.118  1.00  0.00     0.071 C 
ATOM     17  C   UNL A   1      32.581  18.936  23.922  1.00  0.00     0.071 C 
ATOM     18  C   UNL A   1      34.050  19.118  24.315  1.00  0.00     0.181 C 
BRANCH  18  19
ATOM     19  N   UNL A   1      34.505  17.959  25.080  1.00  0.00    -0.355 N 
ATOM     20  H   UNL A   1      33.903  17.161  24.880  1.00  0.00     0.344 HD
ATOM     21  H   UNL A   1      34.466  18.173  26.077  1.00  0.00     0.344 HD
ATOM     22  H   UNL A   1      35.465  17.734  24.818  1.00  0.00     0.344 HD
ENDBRANCH  18  19
ENDBRANCH  10  13
ENDBRANCH   9  10
ENDBRANCH   7   9
ENDBRANCH   4   7
ENDBRANCH   2   3
ENDBRANCH   1   2
BRANCH   1  23
ATOM     23  C   UNL A   1      32.753  29.045  23.829  1.00  0.00     0.023 C 
BRANCH  23  24
ATOM     24  C   UNL A   1      33.101  29.174  25.301  1.00  0.00     0.116 C 
BRANCH  24  25
ATOM     25  N   UNL A   1      32.526  30.364  25.921  1.00  0.00    -0.352 N 
ATOM     26  C   UNL A   1      33.011  31.143  26.950  1.00  0.00     0.251 C 
ATOM     27  H   UNL A   1      31.661  30.653  25.549  1.00  0.00     0.163 HD
ATOM     28  O   UNL A   1      32.319  32.014  27.449  1.00  0.00    -0.269 OA
BRANCH  26  29
ATOM     29  C   UNL A   1      34.376  30.880  27.455  1.00  0.00     0.039 A 
ATOM     30  C   UNL A   1      35.248  31.948  27.671  1.00  0.00     0.014 A 
ATOM     31  C   UNL A   1      34.754  29.579  27.782  1.00  0.00     0.014 A 
ATOM     32  C   UNL A   1      36.469  31.714  28.308  1.00  0.00     0.010 A 
ATOM     33  C   UNL A   1      35.901  29.371  28.531  1.00  0.00     0.010 A 
ATOM     34  C   UNL A   1      36.782  30.431  28.790  1.00  0.00    -0.014 A 
BRANCH  34  35
ATOM     35  C   UNL A   1      38.022  30.152  29.557  1.00  0.00     0.031 A 
ATOM     36  C   UNL A   1      39.065  29.233  28.973  1.00  0.00     0.074 A 
ATOM     37  C   UNL A   1      38.158  30.618  30.815  1.00  0.00     0.049 A 
ATOM     38  N   UNL A   1      40.143  28.748  29.531  1.00  0.00    -0.248 NA
ATOM     39  C   UNL A   1      38.836  28.749  27.599  1.00  0.00     0.031 C 
ATOM     40  C   UNL A   1      37.174  31.433  31.532  1.00  0.00     0.029 A 
ATOM     41  N   UNL A   1      39.173  30.451  31.725  1.00  0.00    -0.354 N 
ATOM     42  C   UNL A   1      40.677  27.856  28.607  1.00  0.00     0.074 A 
ATOM     43  C   UNL A   1      39.784  27.833  27.472  1.00  0.00     0.031 C 
ATOM     44  C   UNL A   1      37.646  31.718  32.758  1.00  0.00     0.029 A 
ATOM     45  C   UNL A   1      38.946  31.080  32.928  1.00  0.00     0.049 A 
ATOM     46  H   UNL A   1      39.985  29.929  31.535  1.00  0.00     0.167 HD
ATOM     47  C   UNL A   1      41.831  27.153  28.678  1.00  0.00     0.034 A 
ATOM     48  C   UNL A   1      39.708  31.141  34.039  1.00  0.00     0.034 A 
ATOM     49  C   UNL A   1      42.766  27.264  29.760  1.00  0.00     0.049 A 
ATOM     50  C   UNL A   1      41.042  30.446  34.043  1.00  0.00     0.074 A 
ATOM     51  C   UNL A   1      44.019  26.691  29.875  1.00  0.00     0.029 A 
ATOM     52  N   UNL A   1      42.560  28.018  30.904  1.00  0.00    -0.354 N 
ATOM     53  N   UNL A   1      41.597  29.722  33.102  1.00  0.00    -0.248 NA
ATOM     54  C   UNL A   1      41.872  30.606  35.246  1.00  0.00     0.031 C 
ATOM     55  C   UNL A   1      44.571  27.097  31.093  1.00  0.00     0.029 A 
ATOM     56  C   UNL A   1      43.667  27.933  31.729  1.00  0.00     0.049 A 
ATOM     57  H   UNL A   1      41.747  28.536  31.102  1.00  0.00     0.167 HD
ATOM     58  C   UNL A   1      42.852  29.369  33.582  1.00  0.00     0.074 A 
ATOM     59  C   UNL A   1      42.984  29.974  34.891  1.00  0.00     0.031 C 
ATOM     60  C   UNL A   1      43.803  28.597  33.000  1.00  0.00     0.034 A 
BRANCH  47  61
ATOM     61  C   UNL A   1      42.183  26.267  27.512  1.00  0.00     0.023 A 
ATOM     62  C   UNL A   1      42.901  26.806  26.424  1.00  0.00     0.012 A 
ATOM     63  C   UNL A   1      41.855  24.898  27.514  1.00  0.00     0.148 A 
ATOM     64  C   UNL A   1      43.256  26.005  25.340  1.00  0.00     0.002 A 
ATOM     65  C   UNL A   1      42.253  24.095  26.450  1.00  0.00     0.091 A 
ATOM     66  F   UNL A   1      41.155  24.409  28.547  1.00  0.00    -0.205 F 
ATOM     67  C   UNL A   1      42.941  24.650  25.358  1.00  0.00     0.022 A 
BRANCH  65  68
ATOM     68  S   UNL A   1      41.968  22.322  26.410  1.00  0.00     0.127 S 
ATOM     69  O   UNL A   1      40.512  22.260  26.284  1.00  0.00    -0.237 OA
ATOM     70  O   UNL A   1      42.701  21.921  25.209  1.00  0.00    -0.237 OA
ATOM     71  O   UNL A   1      42.509  21.799  27.657  1.00  0.00    -0.744 OA
ENDBRANCH  65  68
ENDBRANCH  47  61
BRANCH  48  72
ATOM     72  C   UNL A   1      39.272  31.981  35.190  1.00  0.00     0.023 A 
ATOM     73  C   UNL A   1      38.419  31.417  36.160  1.00  0.00     0.012 A 
ATOM     74  C   UNL A   1      39.729  33.302  35.363  1.00  0.00     0.148 A 
ATOM     75  C   UNL A   1      38.009  32.160  37.267  1.00  0.00     0.002 A 
ATOM     76  C   UNL A   1      39.355  34.020  36.495  1.00  0.00     0.091 A 
ATOM     77  F   UNL A   1      40.534  33.822  34.426  1.00  0.00    -0.205 F 
ATOM     78  C   UNL A   1      38.484  33.456  37.440  1.00  0.00     0.022 A 
BRANCH  76  79
ATOM     79  S   UNL A   1      40.014  35.649  36.870  1.00  0.00     0.127 S 
ATOM     80  O   UNL A   1      39.539  36.433  35.732  1.00  0.00    -0.237 OA
ATOM     81  O   UNL A   1      39.361  35.951  38.143  1.00  0.00    -0.237 OA
ATOM     82  O   UNL A   1      41.458  35.478  36.959  1.00  0.00    -0.744 OA
ENDBRANCH  76  79
ENDBRANCH  48  72
BRANCH  60  83
ATOM     83  C   UNL A   1      45.088  28.382  33.751  1.00  0.00     0.023 A 
ATOM     84  C   UNL A   1      46.143  29.301  33.603  1.00  0.00     0.012 A 
ATOM     85  C   UNL A   1      45.208  27.329  34.679  1.00  0.00     0.148 A 
ATOM     86  C   UNL A   1      47.311  29.163  34.350  1.00  0.00     0.002 A 
ATOM     87  C   UNL A   1      46.357  27.224  35.454  1.00  0.00     0.091 A 
ATOM     88  F   UNL A   1      44.198  26.453  34.790  1.00  0.00    -0.205 F 
ATOM     89  C   UNL A   1      47.413  28.134  35.285  1.00  0.00     0.022 A 
BRANCH  87  90
ATOM     90  S   UNL A   1      46.528  25.989  36.748  1.00  0.00     0.127 S 
ATOM     91  O   UNL A   1      46.475  24.745  35.982  1.00  0.00    -0.237 OA
ATOM     92  O   UNL A   1      47.843  26.305  37.308  1.00  0.00    -0.237 OA
ATOM     93  O   UNL A   1      45.417  26.212  37.662  1.00  0.00    -0.744 OA
ENDBRANCH  87  90
ENDBRANCH  60  83
ENDBRANCH  34  35
ENDBRANCH  26  29
ENDBRANCH  24  25
ENDBRANCH  23  24
ENDBRANCH   1  23
TORSDOF 18
ENDMDL
MODEL 2
REMARK VINA RESULT:     -11.0      4.775      7.672
REMARK SMILES C[C@H](C[N@H+](C)[C@H]1CC[C@H]([NH3+])CC1)C(=O)NCCCCNC(=O)c1ccc(-c2c3nc(c(-c4cccc(S(=O)(=O)[O-])c4F)c4ccc([nH]4)c(-c4cccc(S(=O)(=O)[O-])c4F)c4nc(c(-c5cccc(S(=O)(=O)[O-])c5F)c5ccc2[nH]5)C=C4)C=C3)cc1
REMARK SMILES IDX 17 1 16 2 15 3 13 4 14 5 2 7 1 8 3 9 4 10 5 11 6 13 7 14
REMARK SMILES IDX 12 15 8 16 11 17 9 18 10 19 18 23 19 24 20 25 21 26 22 28
REMARK SMILES IDX 23 29 24 30 85 31 25 32 84 33 26 34 27 35 28 36 78 37 29 38
REMARK SMILES IDX 83 39 77 40 79 41 30 42 82 43 76 44 75 45 31 47 63 48 43 49
REMARK SMILES IDX 62 50 44 51 47 52 61 53 80 54 45 55 46 56 60 58 81 59 48 60
REMARK SMILES IDX 32 61 33 62 41 63 34 64 36 65 42 66 35 67 37 68 38 69 39 70
REMARK SMILES IDX 40 71 64 72 65 73 73 74 66 75 68 76 74 77 67 78 69 79 70 80
REMARK SMILES IDX 71 81 72 82 49 83 50 84 58 85 51 86 53 87 59 88 52 89 54 90
REMARK SMILES IDX 55 91 56 92 57 93
REMARK H PARENT 15 6 4 12 10 20 10 21 10 22 20 27 79 46 47 57
REMARK Flexibility Score: inf
ROOT
ATOM      1  C   UNL A   1      35.713  23.125  26.161  1.00  0.00     0.023 C 
ENDROOT
BRANCH   1   2
ATOM      2  C   UNL A   1      34.929  24.280  25.542  1.00  0.00     0.116 C 
BRANCH   2   3
ATOM      3  N   UNL A   1      34.794  24.146  24.104  1.00  0.00    -0.356 N 
ATOM      4  C   UNL A   1      33.698  23.878  23.343  1.00  0.00     0.228 C 
ATOM      5  O   UNL A   1      33.877  23.702  22.133  1.00  0.00    -0.275 OA
ATOM      6  H   UNL A   1      35.630  24.269  23.597  1.00  0.00     0.163 HD
BRANCH   4   7
ATOM      7  C   UNL A   1      32.284  23.788  23.917  1.00  0.00     0.130 C 
ATOM      8  C   UNL A   1      31.815  22.361  24.202  1.00  0.00     0.024 C 
BRANCH   7   9
ATOM      9  C   UNL A   1      31.221  24.681  23.232  1.00  0.00     0.275 C 
BRANCH   9  10
ATOM     10  N   UNL A   1      31.394  26.135  23.402  1.00  0.00    -0.334 N 
ATOM     11  C   UNL A   1      31.927  26.717  22.159  1.00  0.00     0.332 C 
ATOM     12  H   UNL A   1      30.467  26.524  23.579  1.00  0.00     0.348 HD
BRANCH  10  13
ATOM     13  C   UNL A   1      32.156  26.538  24.609  1.00  0.00     0.184 C 
ATOM     14  C   UNL A   1      31.136  26.930  25.703  1.00  0.00     0.071 C 
ATOM     15  C   UNL A   1      33.207  27.650  24.391  1.00  0.00     0.071 C 
ATOM     16  C   UNL A   1      31.803  27.450  26.980  1.00  0.00     0.071 C 
ATOM     17  C   UNL A   1      33.834  28.146  25.691  1.00  0.00     0.071 C 
ATOM     18  C   UNL A   1      32.749  28.611  26.667  1.00  0.00     0.181 C 
BRANCH  18  19
ATOM     19  N   UNL A   1      33.368  29.131  27.885  1.00  0.00    -0.355 N 
ATOM     20  H   UNL A   1      33.281  30.146  27.904  1.00  0.00     0.344 HD
ATOM     21  H   UNL A   1      34.355  28.873  27.900  1.00  0.00     0.344 HD
ATOM     22  H   UNL A   1      32.901  28.734  28.699  1.00  0.00     0.344 HD
ENDBRANCH  18  19
ENDBRANCH  10  13
ENDBRANCH   9  10
ENDBRANCH   7   9
ENDBRANCH   4   7
ENDBRANCH   2   3
ENDBRANCH   1   2
BRANCH   1  23
ATOM     23  C   UNL A   1      35.990  21.956  25.230  1.00  0.00     0.023 C 
BRANCH  23  24
ATOM     24  C   UNL A   1      37.409  21.914  24.695  1.00  0.00     0.116 C 
BRANCH  24  25
ATOM     25  N   UNL A   1      38.206  20.838  25.276  1.00  0.00    -0.352 N 
ATOM     26  C   UNL A   1      39.304  20.905  26.107  1.00  0.00     0.251 C 
ATOM     27  H   UNL A   1      37.916  19.927  25.038  1.00  0.00     0.163 HD
ATOM     28  O   UNL A   1      39.944  19.901  26.373  1.00  0.00    -0.269 OA
BRANCH  26  29
ATOM     29  C   UNL A   1      39.705  22.222  26.646  1.00  0.00     0.039 A 
ATOM     30  C   UNL A   1      40.692  22.292  27.630  1.00  0.00     0.014 A 
ATOM     31  C   UNL A   1      39.152  23.385  26.114  1.00  0.00     0.014 A 
ATOM     32  C   UNL A   1      41.189  23.541  28.011  1.00  0.00     0.010 A 
ATOM     33  C   UNL A   1      39.739  24.609  26.394  1.00  0.00     0.010 A 
ATOM     34  C   UNL A   1      40.753  24.706  27.357  1.00  0.00    -0.014 A 
BRANCH  34  35
ATOM     35  C   UNL A   1      41.320  26.045  27.658  1.00  0.00     0.031 A 
ATOM     36  C   UNL A   1      42.733  26.364  27.242  1.00  0.00     0.074 A 
ATOM     37  C   UNL A   1      40.620  26.923  28.405  1.00  0.00     0.049 A 
ATOM     38  N   UNL A   1      43.462  27.409  27.529  1.00  0.00    -0.248 NA
ATOM     39  C   UNL A   1      43.442  25.346  26.444  1.00  0.00     0.031 C 
ATOM     40  C   UNL A   1      39.282  26.694  28.957  1.00  0.00     0.029 A 
ATOM     41  N   UNL A   1      40.950  28.179  28.851  1.00  0.00    -0.354 N 
ATOM     42  C   UNL A   1      44.725  27.144  27.010  1.00  0.00     0.074 A 
ATOM     43  C   UNL A   1      44.676  25.822  26.428  1.00  0.00     0.031 C 
ATOM     44  C   UNL A   1      38.895  27.783  29.642  1.00  0.00     0.029 A 
ATOM     45  C   UNL A   1      39.966  28.773  29.608  1.00  0.00     0.049 A 
ATOM     46  H   UNL A   1      41.809  28.613  28.649  1.00  0.00     0.167 HD
ATOM     47  C   UNL A   1      45.815  27.945  26.980  1.00  0.00     0.034 A 
ATOM     48  C   UNL A   1      39.930  29.984  30.200  1.00  0.00     0.034 A 
ATOM     49  C   UNL A   1      45.823  29.297  27.462  1.00  0.00     0.049 A 
ATOM     50  C   UNL A   1      41.113  30.901  30.048  1.00  0.00     0.074 A 
ATOM     51  C   UNL A   1      46.834  30.235  27.372  1.00  0.00     0.029 A 
ATOM     52  N   UNL A   1      44.760  29.909  28.106  1.00  0.00    -0.354 N 
ATOM     53  N   UNL A   1      42.247  30.686  29.427  1.00  0.00    -0.248 NA
ATOM     54  C   UNL A   1      40.998  32.240  30.643  1.00  0.00     0.031 C 
ATOM     55  C   UNL A   1      46.382  31.418  27.963  1.00  0.00     0.029 A 
ATOM     56  C   UNL A   1      45.086  31.217  28.411  1.00  0.00     0.049 A 
ATOM     57  H   UNL A   1      43.901  29.477  28.317  1.00  0.00     0.167 HD
ATOM     58  C   UNL A   1      42.967  31.870  29.527  1.00  0.00     0.074 A 
ATOM     59  C   UNL A   1      42.132  32.807  30.251  1.00  0.00     0.031 C 
ATOM     60  C   UNL A   1      44.215  32.153  29.076  1.00  0.00     0.034 A 
BRANCH  47  61
ATOM     61  C   UNL A   1      47.061  27.408  26.327  1.00  0.00     0.023 A 
ATOM     62  C   UNL A   1      47.305  27.683  24.966  1.00  0.00     0.012 A 
ATOM     63  C   UNL A   1      48.013  26.681  27.067  1.00  0.00     0.148 A 
ATOM     64  C   UNL A   1      48.458  27.213  24.341  1.00  0.00     0.002 A 
ATOM     65  C   UNL A   1      49.184  26.255  26.449  1.00  0.00     0.091 A 
ATOM     66  F   UNL A   1      47.754  26.412  28.355  1.00  0.00    -0.205 F 
ATOM     67  C   UNL A   1      49.402  26.509  25.084  1.00  0.00     0.022 A 
BRANCH  65  68
ATOM     68  S   UNL A   1      50.500  25.411  27.333  1.00  0.00     0.127 S 
ATOM     69  O   UNL A   1      50.890  26.421  28.317  1.00  0.00    -0.237 OA
ATOM     70  O   UNL A   1      49.800  24.255  27.893  1.00  0.00    -0.237 OA
ATOM     71  O   UNL A   1      51.511  25.087  26.338  1.00  0.00    -0.744 OA
ENDBRANCH  65  68
ENDBRANCH  47  61
BRANCH  48  72
ATOM     72  C   UNL A   1      38.689  30.434  30.892  1.00  0.00     0.023 A 
ATOM     73  C   UNL A   1      38.574  30.232  32.282  1.00  0.00     0.012 A 
ATOM     74  C   UNL A   1      37.655  31.100  30.208  1.00  0.00     0.148 A 
ATOM     75  C   UNL A   1      37.441  30.661  32.973  1.00  0.00     0.002 A 
ATOM     76  C   UNL A   1      36.551  31.571  30.911  1.00  0.00     0.091 A 
ATOM     77  F   UNL A   1      37.782  31.278  28.885  1.00  0.00    -0.205 F 
ATOM     78  C   UNL A   1      36.435  31.339  32.291  1.00  0.00     0.022 A 
BRANCH  76  79
ATOM     79  S   UNL A   1      35.265  32.563  30.145  1.00  0.00     0.127 S 
ATOM     80  O   UNL A   1      34.379  32.830  31.276  1.00  0.00    -0.237 OA
ATOM     81  O   UNL A   1      36.022  33.721  29.669  1.00  0.00    -0.237 OA
ATOM     82  O   UNL A   1      34.705  31.734  29.087  1.00  0.00    -0.744 OA
ENDBRANCH  76  79
ENDBRANCH  48  72
BRANCH  60  83
ATOM     83  C   UNL A   1      44.752  33.536  29.318  1.00  0.00     0.023 A 
ATOM     84  C   UNL A   1      45.506  33.798  30.478  1.00  0.00     0.012 A 
ATOM     85  C   UNL A   1      44.597  34.545  28.347  1.00  0.00     0.148 A 
ATOM     86  C   UNL A   1      46.080  35.051  30.680  1.00  0.00     0.002 A 
ATOM     87  C   UNL A   1      45.210  35.778  28.534  1.00  0.00     0.091 A 
ATOM     88  F   UNL A   1      43.859  34.280  27.259  1.00  0.00    -0.205 F 
ATOM     89  C   UNL A   1      45.943  36.036  29.703  1.00  0.00     0.022 A 
BRANCH  87  90
ATOM     90  S   UNL A   1      45.168  37.066  27.282  1.00  0.00     0.127 S 
ATOM     91  O   UNL A   1      46.054  36.515  26.258  1.00  0.00    -0.237 OA
ATOM     92  O   UNL A   1      43.752  37.096  26.912  1.00  0.00    -0.237 OA
ATOM     93  O   UNL A   1      45.643  38.276  27.939  1.00  0.00    -0.744 OA
ENDBRANCH  87  90
ENDBRANCH  60  83
ENDBRANCH  34  35
ENDBRANCH  26  29
ENDBRANCH  24  25
ENDBRANCH  23  24
ENDBRANCH   1  23
TORSDOF 18
ENDMDL
MODEL 3
REMARK VINA RESULT:     -10.8      1.846      2.271
REMARK SMILES C[C@H](C[N@H+](C)[C@H]1CC[C@H]([NH3+])CC1)C(=O)NCCCCNC(=O)c1ccc(-c2c3nc(c(-c4cccc(S(=O)(=O)[O-])c4F)c4ccc([nH]4)c(-c4cccc(S(=O)(=O)[O-])c4F)c4nc(c(-c5cccc(S(=O)(=O)[O-])c5F)c5ccc2[nH]5)C=C4)C=C3)cc1
REMARK SMILES IDX 17 1 16 2 15 3 13 4 14 5 2 7 1 8 3 9 4 10 5 11 6 13 7 14
REMARK SMILES IDX 12 15 8 16 11 17 9 18 10 19 18 23 19 24 20 25 21 26 22 28
REMARK SMILES IDX 23 29 24 30 85 31 25 32 84 33 26 34 27 35 28 36 78 37 29 38
REMARK SMILES IDX 83 39 77 40 79 41 30 42 82 43 76 44 75 45 31 47 63 48 43 49
REMARK SMILES IDX 62 50 44 51 47 52 61 53 80 54 45 55 46 56 60 58 81 59 48 60
REMARK SMILES IDX 32 61 33 62 41 63 34 64 36 65 42 66 35 67 37 68 38 69 39 70
REMARK SMILES IDX 40 71 64 72 65 73 73 74 66 75 68 76 74 77 67 78 69 79 70 80
REMARK SMILES IDX 71 81 72 82 49 83 50 84 58 85 51 86 53 87 59 88 52 89 54 90
REMARK SMILES IDX 55 91 56 92 57 93
REMARK H PARENT 15 6 4 12 10 20 10 21 10 22 20 27 79 46 47 57
REMARK Flexibility Score: inf
ROOT
ATOM      1  C   UNL A   1      31.369  28.980  23.189  1.00  0.00     0.023 C 
ENDROOT
BRANCH   1   2
ATOM      2  C   UNL A   1      30.840  27.772  22.421  1.00  0.00     0.116 C 
BRANCH   2   3
ATOM      3  N   UNL A   1      31.905  26.922  21.928  1.00  0.00    -0.356 N 
ATOM      4  C   UNL A   1      32.354  25.719  22.379  1.00  0.00     0.228 C 
ATOM      5  O   UNL A   1      33.365  25.252  21.842  1.00  0.00    -0.275 OA
ATOM      6  H   UNL A   1      32.382  27.272  21.140  1.00  0.00     0.163 HD
BRANCH   4   7
ATOM      7  C   UNL A   1      31.667  24.938  23.501  1.00  0.00     0.130 C 
ATOM      8  C   UNL A   1      30.427  24.164  23.053  1.00  0.00     0.024 C 
BRANCH   7   9
ATOM      9  C   UNL A   1      31.498  25.693  24.841  1.00  0.00     0.275 C 
BRANCH   9  10
ATOM     10  N   UNL A   1      32.285  25.179  25.975  1.00  0.00    -0.334 N 
ATOM     11  C   UNL A   1      32.707  26.300  26.832  1.00  0.00     0.332 C 
ATOM     12  H   UNL A   1      31.668  24.567  26.510  1.00  0.00     0.348 HD
BRANCH  10  13
ATOM     13  C   UNL A   1      33.401  24.275  25.605  1.00  0.00     0.184 C 
ATOM     14  C   UNL A   1      33.613  23.282  26.771  1.00  0.00     0.071 C 
ATOM     15  C   UNL A   1      34.721  24.977  25.212  1.00  0.00     0.071 C 
ATOM     16  C   UNL A   1      34.802  22.344  26.545  1.00  0.00     0.071 C 
ATOM     17  C   UNL A   1      35.881  24.004  25.011  1.00  0.00     0.071 C 
ATOM     18  C   UNL A   1      36.078  23.139  26.259  1.00  0.00     0.181 C 
BRANCH  18  19
ATOM     19  N   UNL A   1      37.223  22.251  26.071  1.00  0.00    -0.355 N 
ATOM     20  H   UNL A   1      38.079  22.803  26.031  1.00  0.00     0.344 HD
ATOM     21  H   UNL A   1      37.111  21.733  25.199  1.00  0.00     0.344 HD
ATOM     22  H   UNL A   1      37.276  21.595  26.850  1.00  0.00     0.344 HD
ENDBRANCH  18  19
ENDBRANCH  10  13
ENDBRANCH   9  10
ENDBRANCH   7   9
ENDBRANCH   4   7
ENDBRANCH   2   3
ENDBRANCH   1   2
BRANCH   1  23
ATOM     23  C   UNL A   1      32.876  29.015  23.386  1.00  0.00     0.023 C 
BRANCH  23  24
ATOM     24  C   UNL A   1      33.307  29.142  24.835  1.00  0.00     0.116 C 
BRANCH  24  25
ATOM     25  N   UNL A   1      32.589  30.191  25.554  1.00  0.00    -0.352 N 
ATOM     26  C   UNL A   1      32.942  30.875  26.698  1.00  0.00     0.251 C 
ATOM     27  H   UNL A   1      31.722  30.447  25.163  1.00  0.00     0.163 HD
ATOM     28  O   UNL A   1      32.144  31.614  27.251  1.00  0.00    -0.269 OA
BRANCH  26  29
ATOM     29  C   UNL A   1      34.296  30.671  27.256  1.00  0.00     0.039 A 
ATOM     30  C   UNL A   1      35.082  31.779  27.578  1.00  0.00     0.014 A 
ATOM     31  C   UNL A   1      34.746  29.380  27.527  1.00  0.00     0.014 A 
ATOM     32  C   UNL A   1      36.284  31.587  28.262  1.00  0.00     0.010 A 
ATOM     33  C   UNL A   1      35.868  29.203  28.321  1.00  0.00     0.010 A 
ATOM     34  C   UNL A   1      36.661  30.301  28.685  1.00  0.00    -0.014 A 
BRANCH  34  35
ATOM     35  C   UNL A   1      37.880  30.057  29.497  1.00  0.00     0.031 A 
ATOM     36  C   UNL A   1      38.960  29.152  28.962  1.00  0.00     0.074 A 
ATOM     37  C   UNL A   1      37.964  30.542  30.752  1.00  0.00     0.049 A 
ATOM     38  N   UNL A   1      40.027  28.696  29.562  1.00  0.00    -0.248 NA
ATOM     39  C   UNL A   1      38.788  28.644  27.588  1.00  0.00     0.031 C 
ATOM     40  C   UNL A   1      36.940  31.347  31.425  1.00  0.00     0.029 A 
ATOM     41  N   UNL A   1      38.949  30.408  31.698  1.00  0.00    -0.354 N 
ATOM     42  C   UNL A   1      40.610  27.803  28.671  1.00  0.00     0.074 A 
ATOM     43  C   UNL A   1      39.757  27.747  27.506  1.00  0.00     0.031 C 
ATOM     44  C   UNL A   1      37.363  31.657  32.661  1.00  0.00     0.029 A 
ATOM     45  C   UNL A   1      38.670  31.048  32.884  1.00  0.00     0.049 A 
ATOM     46  H   UNL A   1      39.778  29.900  31.544  1.00  0.00     0.167 HD
ATOM     47  C   UNL A   1      41.774  27.124  28.789  1.00  0.00     0.034 A 
ATOM     48  C   UNL A   1      39.392  31.140  34.019  1.00  0.00     0.034 A 
ATOM     49  C   UNL A   1      42.670  27.269  29.901  1.00  0.00     0.049 A 
ATOM     50  C   UNL A   1      40.738  30.472  34.078  1.00  0.00     0.074 A 
ATOM     51  C   UNL A   1      43.929  26.722  30.067  1.00  0.00     0.029 A 
ATOM     52  N   UNL A   1      42.411  28.033  31.027  1.00  0.00    -0.354 N 
ATOM     53  N   UNL A   1      41.339  29.747  33.167  1.00  0.00    -0.248 NA
ATOM     54  C   UNL A   1      41.524  30.665  35.306  1.00  0.00     0.031 C 
ATOM     55  C   UNL A   1      44.432  27.157  31.297  1.00  0.00     0.029 A 
ATOM     56  C   UNL A   1      43.490  27.982  31.890  1.00  0.00     0.049 A 
ATOM     57  H   UNL A   1      41.581  28.537  31.190  1.00  0.00     0.167 HD
ATOM     58  C   UNL A   1      42.584  29.426  33.693  1.00  0.00     0.074 A 
ATOM     59  C   UNL A   1      42.660  30.052  34.998  1.00  0.00     0.031 C 
ATOM     60  C   UNL A   1      43.570  28.665  33.155  1.00  0.00     0.034 A 
BRANCH  47  61
ATOM     61  C   UNL A   1      42.184  26.230  27.649  1.00  0.00     0.023 A 
ATOM     62  C   UNL A   1      43.037  26.734  26.645  1.00  0.00     0.012 A 
ATOM     63  C   UNL A   1      41.774  24.884  27.597  1.00  0.00     0.148 A 
ATOM     64  C   UNL A   1      43.445  25.924  25.587  1.00  0.00     0.002 A 
ATOM     65  C   UNL A   1      42.223  24.069  26.563  1.00  0.00     0.091 A 
ATOM     66  F   UNL A   1      40.947  24.429  28.549  1.00  0.00    -0.205 F 
ATOM     67  C   UNL A   1      43.048  24.591  25.552  1.00  0.00     0.022 A 
BRANCH  65  68
ATOM     68  S   UNL A   1      41.836  22.318  26.467  1.00  0.00     0.127 S 
ATOM     69  O   UNL A   1      40.380  22.346  26.317  1.00  0.00    -0.237 OA
ATOM     70  O   UNL A   1      42.563  21.908  25.266  1.00  0.00    -0.237 OA
ATOM     71  O   UNL A   1      42.323  21.728  27.705  1.00  0.00    -0.744 OA
ENDBRANCH  65  68
ENDBRANCH  47  61
BRANCH  48  72
ATOM     72  C   UNL A   1      38.900  31.987  35.143  1.00  0.00     0.023 A 
ATOM     73  C   UNL A   1      38.920  33.388  34.998  1.00  0.00     0.012 A 
ATOM     74  C   UNL A   1      38.371  31.425  36.321  1.00  0.00     0.148 A 
ATOM     75  C   UNL A   1      38.445  34.216  36.015  1.00  0.00     0.002 A 
ATOM     76  C   UNL A   1      37.853  32.256  37.310  1.00  0.00     0.091 A 
ATOM     77  F   UNL A   1      38.367  30.091  36.441  1.00  0.00    -0.205 F 
ATOM     78  C   UNL A   1      37.903  33.651  37.166  1.00  0.00     0.022 A 
BRANCH  76  79
ATOM     79  S   UNL A   1      37.021  31.621  38.770  1.00  0.00     0.127 S 
ATOM     80  O   UNL A   1      38.025  31.844  39.808  1.00  0.00    -0.237 OA
ATOM     81  O   UNL A   1      35.848  32.492  38.849  1.00  0.00    -0.237 OA
ATOM     82  O   UNL A   1      36.717  30.227  38.476  1.00  0.00    -0.744 OA
ENDBRANCH  76  79
ENDBRANCH  48  72
BRANCH  60  83
ATOM     83  C   UNL A   1      44.832  28.487  33.952  1.00  0.00     0.023 A 
ATOM     84  C   UNL A   1      45.883  29.412  33.809  1.00  0.00     0.012 A 
ATOM     85  C   UNL A   1      44.933  27.463  34.915  1.00  0.00     0.148 A 
ATOM     86  C   UNL A   1      47.028  29.309  34.596  1.00  0.00     0.002 A 
ATOM     87  C   UNL A   1      46.058  27.394  35.729  1.00  0.00     0.091 A 
ATOM     88  F   UNL A   1      43.928  26.581  35.022  1.00  0.00    -0.205 F 
ATOM     89  C   UNL A   1      47.110  28.310  35.564  1.00  0.00     0.022 A 
BRANCH  87  90
ATOM     90  S   UNL A   1      46.200  26.201  37.064  1.00  0.00     0.127 S 
ATOM     91  O   UNL A   1      47.508  26.537  37.626  1.00  0.00    -0.237 OA
ATOM     92  O   UNL A   1      45.063  26.550  37.917  1.00  0.00    -0.237 OA
ATOM     93  O   UNL A   1      46.103  24.889  36.440  1.00  0.00    -0.744 OA
ENDBRANCH  87  90
ENDBRANCH  60  83
ENDBRANCH  34  35
ENDBRANCH  26  29
ENDBRANCH  24  25
ENDBRANCH  23  24
ENDBRANCH   1  23
TORSDOF 18
ENDMDL
