MODEL 1
REMARK VINA RESULT:     -10.4      0.000      0.000
REMARK SMILES CCCC1(CCC)SC[C@@H]2C(=O)N(Cc3ccc(C(=O)NCCCCNC(=O)c4ccc(-c5c6nc(c(-c7cccc(S(=O)(=O)[O-])c7F)c7ccc([nH]7)c(-c7cccc(S(=O)(=O)[O-])c7F)c7nc(c(-c8cccc(S(=O)(=O)[O-])c8F)c8ccc5[nH]8)C=C7)C=C6)cc4)cc3)CC(=O)N21
REMARK SMILES IDX 23 1 22 2 21 3 19 4 20 5 18 7 15 8 16 9 93 10 17 11 92 12
REMARK SMILES IDX 14 13 13 14 4 15 8 16 97 17 9 18 10 19 95 20 11 21 94 22
REMARK SMILES IDX 96 23 12 24 3 25 2 26 1 27 5 28 6 29 7 30 24 31 25 32 26 33
REMARK SMILES IDX 27 34 28 36 29 37 30 38 91 39 31 40 90 41 32 42 33 43 34 44
REMARK SMILES IDX 84 45 35 46 89 47 83 48 85 49 36 50 88 51 82 52 81 53 37 55
REMARK SMILES IDX 69 56 49 57 68 58 50 59 53 60 67 61 86 62 51 63 52 64 66 66
REMARK SMILES IDX 87 67 54 68 38 69 39 70 47 71 40 72 42 73 48 74 41 75 43 76
REMARK SMILES IDX 44 77 45 78 46 79 70 80 71 81 79 82 72 83 74 84 80 85 73 86
REMARK SMILES IDX 75 87 76 88 77 89 78 90 55 91 56 92 64 93 57 94 59 95 65 96
REMARK SMILES IDX 58 97 60 98 61 99 62 100 63 101
REMARK H PARENT 21 6 26 35 85 54 53 65
REMARK Flexibility Score: inf
ROOT
ATOM      1  C   UNL A   1      31.772  29.313  26.568  1.00  0.00     0.023 C 
ENDROOT
BRANCH   1   2
ATOM      2  C   UNL A   1      32.093  29.883  25.184  1.00  0.00     0.116 C 
BRANCH   2   3
ATOM      3  N   UNL A   1      30.903  30.382  24.513  1.00  0.00    -0.352 N 
ATOM      4  C   UNL A   1      29.954  29.708  23.781  1.00  0.00     0.251 C 
ATOM      5  O   UNL A   1      28.929  30.282  23.425  1.00  0.00    -0.269 OA
ATOM      6  H   UNL A   1      30.754  31.352  24.597  1.00  0.00     0.163 HD
BRANCH   4   7
ATOM      7  C   UNL A   1      30.120  28.271  23.465  1.00  0.00     0.039 A 
ATOM      8  C   UNL A   1      30.544  25.531  23.031  1.00  0.00    -0.029 A 
ATOM      9  C   UNL A   1      29.750  25.959  24.102  1.00  0.00     0.006 A 
ATOM     10  C   UNL A   1      31.050  26.486  22.137  1.00  0.00     0.006 A 
ATOM     11  C   UNL A   1      29.536  27.325  24.315  1.00  0.00     0.014 A 
ATOM     12  C   UNL A   1      30.820  27.842  22.340  1.00  0.00     0.014 A 
BRANCH   8  13
ATOM     13  C   UNL A   1      30.884  24.081  22.819  1.00  0.00     0.155 C 
BRANCH  13  14
ATOM     14  N   UNL A   1      32.198  23.696  23.320  1.00  0.00    -0.327 N 
ATOM     15  C   UNL A   1      35.629  22.686  25.722  1.00  0.00     0.090 C 
ATOM     16  S   UNL A   1      35.660  20.790  25.403  1.00  0.00    -0.131 SA
ATOM     17  N   UNL A   1      34.601  23.138  24.762  1.00  0.00    -0.314 N 
ATOM     18  C   UNL A   1      34.452  20.845  24.063  1.00  0.00     0.107 C 
ATOM     19  C   UNL A   1      33.652  22.082  24.408  1.00  0.00     0.186 C 
ATOM     20  C   UNL A   1      34.285  24.461  24.509  1.00  0.00     0.244 C 
ATOM     21  C   UNL A   1      32.577  22.362  23.358  1.00  0.00     0.247 C 
ATOM     22  C   UNL A   1      33.233  24.709  23.423  1.00  0.00     0.220 C 
ATOM     23  O   UNL A   1      34.894  25.418  24.977  1.00  0.00    -0.273 OA
ATOM     24  O   UNL A   1      31.929  21.447  22.854  1.00  0.00    -0.272 OA
BRANCH  15  25
ATOM     25  C   UNL A   1      35.194  22.774  27.215  1.00  0.00     0.040 C 
BRANCH  25  26
ATOM     26  C   UNL A   1      34.086  21.838  27.721  1.00  0.00    -0.000 C 
ATOM     27  C   UNL A   1      32.736  22.524  27.907  1.00  0.00     0.004 C 
ENDBRANCH  25  26
ENDBRANCH  15  25
BRANCH  15  28
ATOM     28  C   UNL A   1      37.109  23.045  25.388  1.00  0.00     0.040 C 
BRANCH  28  29
ATOM     29  C   UNL A   1      37.872  24.153  26.118  1.00  0.00    -0.000 C 
ATOM     30  C   UNL A   1      38.869  23.686  27.163  1.00  0.00     0.004 C 
ENDBRANCH  28  29
ENDBRANCH  15  28
ENDBRANCH  13  14
ENDBRANCH   8  13
ENDBRANCH   4   7
ENDBRANCH   2   3
ENDBRANCH   1   2
BRANCH   1  31
ATOM     31  C   UNL A   1      32.991  29.101  27.466  1.00  0.00     0.023 C 
BRANCH  31  32
ATOM     32  C   UNL A   1      34.111  30.114  27.278  1.00  0.00     0.116 C 
BRANCH  32  33
ATOM     33  N   UNL A   1      33.994  31.272  28.156  1.00  0.00    -0.352 N 
ATOM     34  C   UNL A   1      34.861  31.667  29.148  1.00  0.00     0.251 C 
ATOM     35  H   UNL A   1      33.200  31.839  28.024  1.00  0.00     0.163 HD
ATOM     36  O   UNL A   1      34.589  32.613  29.882  1.00  0.00    -0.269 OA
BRANCH  34  37
ATOM     37  C   UNL A   1      36.111  30.905  29.339  1.00  0.00     0.039 A 
ATOM     38  C   UNL A   1      37.307  31.418  28.830  1.00  0.00     0.014 A 
ATOM     39  C   UNL A   1      36.104  29.731  30.095  1.00  0.00     0.014 A 
ATOM     40  C   UNL A   1      38.513  30.791  29.146  1.00  0.00     0.010 A 
ATOM     41  C   UNL A   1      37.310  29.148  30.464  1.00  0.00     0.010 A 
ATOM     42  C   UNL A   1      38.526  29.676  29.999  1.00  0.00    -0.014 A 
BRANCH  42  43
ATOM     43  C   UNL A   1      39.791  29.036  30.441  1.00  0.00     0.031 A 
ATOM     44  C   UNL A   1      40.508  29.570  31.649  1.00  0.00     0.074 A 
ATOM     45  C   UNL A   1      40.356  28.076  29.682  1.00  0.00     0.049 A 
ATOM     46  N   UNL A   1      41.695  29.267  32.105  1.00  0.00    -0.248 NA
ATOM     47  C   UNL A   1      39.811  30.610  32.426  1.00  0.00     0.031 C 
ATOM     48  C   UNL A   1      39.791  27.526  28.449  1.00  0.00     0.029 A 
ATOM     49  N   UNL A   1      41.557  27.423  29.816  1.00  0.00    -0.354 N 
ATOM     50  C   UNL A   1      41.909  30.111  33.188  1.00  0.00     0.074 A 
ATOM     51  C   UNL A   1      40.740  30.953  33.308  1.00  0.00     0.031 C 
ATOM     52  C   UNL A   1      40.647  26.628  27.934  1.00  0.00     0.029 A 
ATOM     53  C   UNL A   1      41.835  26.563  28.778  1.00  0.00     0.049 A 
ATOM     54  H   UNL A   1      42.162  27.558  30.581  1.00  0.00     0.167 HD
ATOM     55  C   UNL A   1      42.973  30.161  34.023  1.00  0.00     0.034 A 
ATOM     56  C   UNL A   1      42.930  25.818  28.529  1.00  0.00     0.034 A 
ATOM     57  C   UNL A   1      44.102  29.279  33.936  1.00  0.00     0.049 A 
ATOM     58  C   UNL A   1      44.076  25.854  29.505  1.00  0.00     0.074 A 
ATOM     59  C   UNL A   1      45.186  29.183  34.792  1.00  0.00     0.029 A 
ATOM     60  N   UNL A   1      44.294  28.337  32.938  1.00  0.00    -0.354 N 
ATOM     61  N   UNL A   1      44.195  26.549  30.610  1.00  0.00    -0.248 NA
ATOM     62  C   UNL A   1      45.224  24.980  29.219  1.00  0.00     0.031 C 
ATOM     63  C   UNL A   1      46.039  28.189  34.304  1.00  0.00     0.029 A 
ATOM     64  C   UNL A   1      45.479  27.655  33.154  1.00  0.00     0.049 A 
ATOM     65  H   UNL A   1      43.679  28.176  32.187  1.00  0.00     0.167 HD
ATOM     66  C   UNL A   1      45.409  26.167  31.172  1.00  0.00     0.074 A 
ATOM     67  C   UNL A   1      45.983  25.171  30.291  1.00  0.00     0.031 C 
ATOM     68  C   UNL A   1      45.999  26.614  32.307  1.00  0.00     0.034 A 
BRANCH  55  69
ATOM     69  C   UNL A   1      42.935  31.165  35.144  1.00  0.00     0.023 A 
ATOM     70  C   UNL A   1      42.419  30.782  36.399  1.00  0.00     0.012 A 
ATOM     71  C   UNL A   1      43.457  32.462  34.977  1.00  0.00     0.148 A 
ATOM     72  C   UNL A   1      42.394  31.683  37.462  1.00  0.00     0.002 A 
ATOM     73  C   UNL A   1      43.467  33.342  36.053  1.00  0.00     0.091 A 
ATOM     74  F   UNL A   1      43.920  32.815  33.770  1.00  0.00    -0.205 F 
ATOM     75  C   UNL A   1      42.926  32.959  37.292  1.00  0.00     0.022 A 
BRANCH  73  76
ATOM     76  S   UNL A   1      44.200  34.979  35.954  1.00  0.00     0.127 S 
ATOM     77  O   UNL A   1      43.189  35.710  35.191  1.00  0.00    -0.237 OA
ATOM     78  O   UNL A   1      44.293  35.362  37.364  1.00  0.00    -0.237 OA
ATOM     79  O   UNL A   1      45.482  34.802  35.289  1.00  0.00    -0.744 OA
ENDBRANCH  73  76
ENDBRANCH  55  69
BRANCH  56  80
ATOM     80  C   UNL A   1      42.965  24.921  27.339  1.00  0.00     0.023 A 
ATOM     81  C   UNL A   1      43.556  25.385  26.148  1.00  0.00     0.012 A 
ATOM     82  C   UNL A   1      42.455  23.609  27.386  1.00  0.00     0.148 A 
ATOM     83  C   UNL A   1      43.612  24.571  25.016  1.00  0.00     0.002 A 
ATOM     84  C   UNL A   1      42.561  22.785  26.270  1.00  0.00     0.091 A 
ATOM     85  F   UNL A   1      41.884  23.189  28.524  1.00  0.00    -0.205 F 
ATOM     86  C   UNL A   1      43.124  23.269  25.080  1.00  0.00     0.022 A 
BRANCH  84  87
ATOM     87  S   UNL A   1      42.078  21.055  26.304  1.00  0.00     0.127 S 
ATOM     88  O   UNL A   1      40.666  21.131  25.937  1.00  0.00    -0.237 OA
ATOM     89  O   UNL A   1      42.950  20.475  25.281  1.00  0.00    -0.237 OA
ATOM     90  O   UNL A   1      42.360  20.598  27.659  1.00  0.00    -0.744 OA
ENDBRANCH  84  87
ENDBRANCH  56  80
BRANCH  68  91
ATOM     91  C   UNL A   1      47.316  26.002  32.706  1.00  0.00     0.023 A 
ATOM     92  C   UNL A   1      48.518  26.611  32.302  1.00  0.00     0.012 A 
ATOM     93  C   UNL A   1      47.354  24.896  33.577  1.00  0.00     0.148 A 
ATOM     94  C   UNL A   1      49.745  26.117  32.747  1.00  0.00     0.002 A 
ATOM     95  C   UNL A   1      48.576  24.436  34.052  1.00  0.00     0.091 A 
ATOM     96  F   UNL A   1      46.195  24.322  33.933  1.00  0.00    -0.205 F 
ATOM     97  C   UNL A   1      49.773  25.041  33.633  1.00  0.00     0.022 A 
BRANCH  95  98
ATOM     98  S   UNL A   1      48.706  23.120  35.268  1.00  0.00     0.127 S 
ATOM     99  O   UNL A   1      50.152  23.038  35.464  1.00  0.00    -0.237 OA
ATOM    100  O   UNL A   1      47.966  23.673  36.403  1.00  0.00    -0.237 OA
ATOM    101  O   UNL A   1      48.091  21.948  34.659  1.00  0.00    -0.744 OA
ENDBRANCH  95  98
ENDBRANCH  68  91
ENDBRANCH  42  43
ENDBRANCH  34  37
ENDBRANCH  32  33
ENDBRANCH  31  32
ENDBRANCH   1  31
TORSDOF 20
ENDMDL
MODEL 2
REMARK VINA RESULT:     -10.2      3.093      7.601
REMARK SMILES CCCC1(CCC)SC[C@@H]2C(=O)N(Cc3ccc(C(=O)NCCCCNC(=O)c4ccc(-c5c6nc(c(-c7cccc(S(=O)(=O)[O-])c7F)c7ccc([nH]7)c(-c7cccc(S(=O)(=O)[O-])c7F)c7nc(c(-c8cccc(S(=O)(=O)[O-])c8F)c8ccc5[nH]8)C=C7)C=C6)cc4)cc3)CC(=O)N21
REMARK SMILES IDX 23 1 22 2 21 3 19 4 20 5 18 7 15 8 16 9 93 10 17 11 92 12
REMARK SMILES IDX 14 13 13 14 4 15 8 16 97 17 9 18 10 19 95 20 11 21 94 22
REMARK SMILES IDX 96 23 12 24 3 25 2 26 1 27 5 28 6 29 7 30 24 31 25 32 26 33
REMARK SMILES IDX 27 34 28 36 29 37 30 38 91 39 31 40 90 41 32 42 33 43 34 44
REMARK SMILES IDX 84 45 35 46 89 47 83 48 85 49 36 50 88 51 82 52 81 53 37 55
REMARK SMILES IDX 69 56 49 57 68 58 50 59 53 60 67 61 86 62 51 63 52 64 66 66
REMARK SMILES IDX 87 67 54 68 38 69 39 70 47 71 40 72 42 73 48 74 41 75 43 76
REMARK SMILES IDX 44 77 45 78 46 79 70 80 71 81 79 82 72 83 74 84 80 85 73 86
REMARK SMILES IDX 75 87 76 88 77 89 78 90 55 91 56 92 64 93 57 94 59 95 65 96
REMARK SMILES IDX 58 97 60 98 61 99 62 100 63 101
REMARK H PARENT 21 6 26 35 85 54 53 65
REMARK Flexibility Score: inf
ROOT
ATOM      1  C   UNL A   1      31.915  28.936  26.050  1.00  0.00     0.023 C 
ENDROOT
BRANCH   1   2
ATOM      2  C   UNL A   1      32.485  29.364  24.695  1.00  0.00     0.116 C 
BRANCH   2   3
ATOM      3  N   UNL A   1      31.460  29.922  23.828  1.00  0.00    -0.352 N 
ATOM      4  C   UNL A   1      30.474  29.291  23.107  1.00  0.00     0.251 C 
ATOM      5  O   UNL A   1      29.597  29.950  22.555  1.00  0.00    -0.269 OA
ATOM      6  H   UNL A   1      31.474  30.903  23.745  1.00  0.00     0.163 HD
BRANCH   4   7
ATOM      7  C   UNL A   1      30.414  27.813  23.035  1.00  0.00     0.039 A 
ATOM      8  C   UNL A   1      30.378  25.007  23.082  1.00  0.00    -0.029 A 
ATOM      9  C   UNL A   1      29.502  25.736  23.898  1.00  0.00     0.006 A 
ATOM     10  C   UNL A   1      31.206  25.698  22.188  1.00  0.00     0.006 A 
ATOM     11  C   UNL A   1      29.520  27.135  23.870  1.00  0.00     0.014 A 
ATOM     12  C   UNL A   1      31.208  27.088  22.148  1.00  0.00     0.014 A 
BRANCH   8  13
ATOM     13  C   UNL A   1      30.465  23.507  23.149  1.00  0.00     0.155 C 
BRANCH  13  14
ATOM     14  N   UNL A   1      31.775  23.003  23.544  1.00  0.00    -0.327 N 
ATOM     15  C   UNL A   1      35.809  22.500  24.972  1.00  0.00     0.090 C 
ATOM     16  S   UNL A   1      35.424  21.575  26.614  1.00  0.00    -0.131 SA
ATOM     17  N   UNL A   1      34.483  22.524  24.320  1.00  0.00    -0.314 N 
ATOM     18  C   UNL A   1      33.688  21.277  26.214  1.00  0.00     0.107 C 
ATOM     19  C   UNL A   1      33.379  22.423  25.274  1.00  0.00     0.186 C 
ATOM     20  C   UNL A   1      34.243  22.981  23.036  1.00  0.00     0.244 C 
ATOM     21  C   UNL A   1      31.944  22.346  24.755  1.00  0.00     0.247 C 
ATOM     22  C   UNL A   1      32.803  22.852  22.531  1.00  0.00     0.220 C 
ATOM     23  O   UNL A   1      35.122  23.324  22.250  1.00  0.00    -0.273 OA
ATOM     24  O   UNL A   1      31.019  22.013  25.493  1.00  0.00    -0.272 OA
BRANCH  15  25
ATOM     25  C   UNL A   1      36.302  23.891  25.472  1.00  0.00     0.040 C 
BRANCH  25  26
ATOM     26  C   UNL A   1      37.812  24.160  25.543  1.00  0.00    -0.000 C 
ATOM     27  C   UNL A   1      38.335  24.377  26.960  1.00  0.00     0.004 C 
ENDBRANCH  25  26
ENDBRANCH  15  25
BRANCH  15  28
ATOM     28  C   UNL A   1      36.876  21.542  24.361  1.00  0.00     0.040 C 
BRANCH  28  29
ATOM     29  C   UNL A   1      37.583  20.464  25.185  1.00  0.00    -0.000 C 
ATOM     30  C   UNL A   1      38.987  20.808  25.650  1.00  0.00     0.004 C 
ENDBRANCH  28  29
ENDBRANCH  15  28
ENDBRANCH  13  14
ENDBRANCH   8  13
ENDBRANCH   4   7
ENDBRANCH   2   3
ENDBRANCH   1   2
BRANCH   1  31
ATOM     31  C   UNL A   1      32.064  29.977  27.160  1.00  0.00     0.023 C 
BRANCH  31  32
ATOM     32  C   UNL A   1      33.410  30.685  27.199  1.00  0.00     0.116 C 
BRANCH  32  33
ATOM     33  N   UNL A   1      33.297  32.133  27.325  1.00  0.00    -0.352 N 
ATOM     34  C   UNL A   1      34.162  32.993  27.961  1.00  0.00     0.251 C 
ATOM     35  H   UNL A   1      32.507  32.546  26.906  1.00  0.00     0.163 HD
ATOM     36  O   UNL A   1      33.892  34.185  28.078  1.00  0.00    -0.269 OA
BRANCH  34  37
ATOM     37  C   UNL A   1      35.406  32.445  28.537  1.00  0.00     0.039 A 
ATOM     38  C   UNL A   1      36.608  33.132  28.340  1.00  0.00     0.014 A 
ATOM     39  C   UNL A   1      35.361  31.303  29.339  1.00  0.00     0.014 A 
ATOM     40  C   UNL A   1      37.755  32.714  29.016  1.00  0.00     0.010 A 
ATOM     41  C   UNL A   1      36.487  30.931  30.062  1.00  0.00     0.010 A 
ATOM     42  C   UNL A   1      37.693  31.635  29.912  1.00  0.00    -0.014 A 
BRANCH  42  43
ATOM     43  C   UNL A   1      38.863  31.217  30.725  1.00  0.00     0.031 A 
ATOM     44  C   UNL A   1      39.792  30.160  30.196  1.00  0.00     0.074 A 
ATOM     45  C   UNL A   1      39.008  31.684  31.981  1.00  0.00     0.049 A 
ATOM     46  N   UNL A   1      40.769  29.541  30.804  1.00  0.00    -0.248 NA
ATOM     47  C   UNL A   1      39.569  29.716  28.809  1.00  0.00     0.031 C 
ATOM     48  C   UNL A   1      38.129  32.658  32.630  1.00  0.00     0.029 A 
ATOM     49  N   UNL A   1      39.925  31.368  32.952  1.00  0.00    -0.354 N 
ATOM     50  C   UNL A   1      41.242  28.601  29.897  1.00  0.00     0.074 A 
ATOM     51  C   UNL A   1      40.433  28.716  28.705  1.00  0.00     0.031 C 
ATOM     52  C   UNL A   1      38.542  32.851  33.893  1.00  0.00     0.029 A 
ATOM     53  C   UNL A   1      39.691  31.991  34.156  1.00  0.00     0.049 A 
ATOM     54  H   UNL A   1      40.678  30.751  32.802  1.00  0.00     0.167 HD
ATOM     55  C   UNL A   1      42.276  27.739  30.035  1.00  0.00     0.034 A 
ATOM     56  C   UNL A   1      40.324  31.873  35.340  1.00  0.00     0.034 A 
ATOM     57  C   UNL A   1      43.116  27.674  31.198  1.00  0.00     0.049 A 
ATOM     58  C   UNL A   1      41.504  30.945  35.449  1.00  0.00     0.074 A 
ATOM     59  C   UNL A   1      44.247  26.903  31.399  1.00  0.00     0.029 A 
ATOM     60  N   UNL A   1      42.919  28.408  32.356  1.00  0.00    -0.354 N 
ATOM     61  N   UNL A   1      42.032  30.174  34.530  1.00  0.00    -0.248 NA
ATOM     62  C   UNL A   1      42.196  30.894  36.746  1.00  0.00     0.031 C 
ATOM     63  C   UNL A   1      44.730  27.165  32.685  1.00  0.00     0.029 A 
ATOM     64  C   UNL A   1      43.908  28.110  33.277  1.00  0.00     0.049 A 
ATOM     65  H   UNL A   1      42.185  29.048  32.502  1.00  0.00     0.167 HD
ATOM     66  C   UNL A   1      43.141  29.579  35.123  1.00  0.00     0.074 A 
ATOM     67  C   UNL A   1      43.215  30.086  36.477  1.00  0.00     0.031 C 
ATOM     68  C   UNL A   1      44.009  28.681  34.596  1.00  0.00     0.034 A 
BRANCH  55  69
ATOM     69  C   UNL A   1      42.595  26.838  28.873  1.00  0.00     0.023 A 
ATOM     70  C   UNL A   1      41.830  25.671  28.671  1.00  0.00     0.012 A 
ATOM     71  C   UNL A   1      43.608  27.168  27.953  1.00  0.00     0.148 A 
ATOM     72  C   UNL A   1      42.088  24.830  27.590  1.00  0.00     0.002 A 
ATOM     73  C   UNL A   1      43.833  26.347  26.854  1.00  0.00     0.091 A 
ATOM     74  F   UNL A   1      44.342  28.268  28.175  1.00  0.00    -0.205 F 
ATOM     75  C   UNL A   1      43.082  25.173  26.677  1.00  0.00     0.022 A 
BRANCH  73  76
ATOM     76  S   UNL A   1      45.037  26.744  25.582  1.00  0.00     0.127 S 
ATOM     77  O   UNL A   1      45.059  25.509  24.799  1.00  0.00    -0.237 OA
ATOM     78  O   UNL A   1      44.411  27.881  24.906  1.00  0.00    -0.237 OA
ATOM     79  O   UNL A   1      46.271  27.063  26.286  1.00  0.00    -0.744 OA
ENDBRANCH  73  76
ENDBRANCH  55  69
BRANCH  56  80
ATOM     80  C   UNL A   1      39.896  32.707  36.499  1.00  0.00     0.023 A 
ATOM     81  C   UNL A   1      40.462  33.985  36.669  1.00  0.00     0.012 A 
ATOM     82  C   UNL A   1      38.916  32.265  37.408  1.00  0.00     0.148 A 
ATOM     83  C   UNL A   1      40.081  34.797  37.738  1.00  0.00     0.002 A 
ATOM     84  C   UNL A   1      38.502  33.100  38.442  1.00  0.00     0.091 A 
ATOM     85  F   UNL A   1      38.398  31.040  37.238  1.00  0.00    -0.205 F 
ATOM     86  C   UNL A   1      39.095  34.359  38.618  1.00  0.00     0.022 A 
BRANCH  84  87
ATOM     87  S   UNL A   1      37.149  32.669  39.541  1.00  0.00     0.127 S 
ATOM     88  O   UNL A   1      36.004  32.706  38.634  1.00  0.00    -0.237 OA
ATOM     89  O   UNL A   1      37.535  31.331  39.990  1.00  0.00    -0.237 OA
ATOM     90  O   UNL A   1      37.163  33.679  40.591  1.00  0.00    -0.744 OA
ENDBRANCH  84  87
ENDBRANCH  56  80
BRANCH  68  91
ATOM     91  C   UNL A   1      45.153  28.216  35.456  1.00  0.00     0.023 A 
ATOM     92  C   UNL A   1      46.367  28.926  35.446  1.00  0.00     0.012 A 
ATOM     93  C   UNL A   1      44.980  27.147  36.358  1.00  0.00     0.148 A 
ATOM     94  C   UNL A   1      47.402  28.571  36.311  1.00  0.00     0.002 A 
ATOM     95  C   UNL A   1      45.997  26.826  37.248  1.00  0.00     0.091 A 
ATOM     96  F   UNL A   1      43.820  26.474  36.336  1.00  0.00    -0.205 F 
ATOM     97  C   UNL A   1      47.211  27.532  37.221  1.00  0.00     0.022 A 
BRANCH  95  98
ATOM     98  S   UNL A   1      45.808  25.570  38.517  1.00  0.00     0.127 S 
ATOM     99  O   UNL A   1      47.197  25.319  38.897  1.00  0.00    -0.237 OA
ATOM    100  O   UNL A   1      45.015  26.268  39.529  1.00  0.00    -0.237 OA
ATOM    101  O   UNL A   1      45.124  24.453  37.879  1.00  0.00    -0.744 OA
ENDBRANCH  95  98
ENDBRANCH  68  91
ENDBRANCH  42  43
ENDBRANCH  34  37
ENDBRANCH  32  33
ENDBRANCH  31  32
ENDBRANCH   1  31
TORSDOF 20
ENDMDL
MODEL 3
REMARK VINA RESULT:     -10.0      3.557      4.755
REMARK SMILES CCCC1(CCC)SC[C@@H]2C(=O)N(Cc3ccc(C(=O)NCCCCNC(=O)c4ccc(-c5c6nc(c(-c7cccc(S(=O)(=O)[O-])c7F)c7ccc([nH]7)c(-c7cccc(S(=O)(=O)[O-])c7F)c7nc(c(-c8cccc(S(=O)(=O)[O-])c8F)c8ccc5[nH]8)C=C7)C=C6)cc4)cc3)CC(=O)N21
REMARK SMILES IDX 23 1 22 2 21 3 19 4 20 5 18 7 15 8 16 9 93 10 17 11 92 12
REMARK SMILES IDX 14 13 13 14 4 15 8 16 97 17 9 18 10 19 95 20 11 21 94 22
REMARK SMILES IDX 96 23 12 24 3 25 2 26 1 27 5 28 6 29 7 30 24 31 25 32 26 33
REMARK SMILES IDX 27 34 28 36 29 37 30 38 91 39 31 40 90 41 32 42 33 43 34 44
REMARK SMILES IDX 84 45 35 46 89 47 83 48 85 49 36 50 88 51 82 52 81 53 37 55
REMARK SMILES IDX 69 56 49 57 68 58 50 59 53 60 67 61 86 62 51 63 52 64 66 66
REMARK SMILES IDX 87 67 54 68 38 69 39 70 47 71 40 72 42 73 48 74 41 75 43 76
REMARK SMILES IDX 44 77 45 78 46 79 70 80 71 81 79 82 72 83 74 84 80 85 73 86
REMARK SMILES IDX 75 87 76 88 77 89 78 90 55 91 56 92 64 93 57 94 59 95 65 96
REMARK SMILES IDX 58 97 60 98 61 99 62 100 63 101
REMARK H PARENT 21 6 26 35 85 54 53 65
REMARK Flexibility Score: inf
ROOT
ATOM      1  C   UNL A   1      32.086  30.402  26.967  1.00  0.00     0.023 C 
ENDROOT
BRANCH   1   2
ATOM      2  C   UNL A   1      33.273  29.924  26.129  1.00  0.00     0.116 C 
BRANCH   2   3
ATOM      3  N   UNL A   1      33.000  30.009  24.703  1.00  0.00    -0.352 N 
ATOM      4  C   UNL A   1      32.388  29.106  23.866  1.00  0.00     0.251 C 
ATOM      5  O   UNL A   1      32.105  29.427  22.715  1.00  0.00    -0.269 OA
ATOM      6  H   UNL A   1      33.299  30.842  24.271  1.00  0.00     0.163 HD
BRANCH   4   7
ATOM      7  C   UNL A   1      32.006  27.760  24.351  1.00  0.00     0.039 A 
ATOM      8  C   UNL A   1      31.236  25.293  25.446  1.00  0.00    -0.029 A 
ATOM      9  C   UNL A   1      30.275  26.279  25.187  1.00  0.00     0.006 A 
ATOM     10  C   UNL A   1      32.566  25.528  25.072  1.00  0.00     0.006 A 
ATOM     11  C   UNL A   1      30.660  27.507  24.639  1.00  0.00     0.014 A 
ATOM     12  C   UNL A   1      32.943  26.742  24.508  1.00  0.00     0.014 A 
BRANCH   8  13
ATOM     13  C   UNL A   1      30.885  23.998  26.125  1.00  0.00     0.155 C 
BRANCH  13  14
ATOM     14  N   UNL A   1      31.730  22.874  25.740  1.00  0.00    -0.327 N 
ATOM     15  C   UNL A   1      33.540  19.009  25.146  1.00  0.00     0.090 C 
ATOM     16  S   UNL A   1      33.071  18.748  23.300  1.00  0.00    -0.131 SA
ATOM     17  N   UNL A   1      33.132  20.413  25.367  1.00  0.00    -0.314 N 
ATOM     18  C   UNL A   1      32.515  20.447  23.046  1.00  0.00     0.107 C 
ATOM     19  C   UNL A   1      32.089  20.853  24.440  1.00  0.00     0.186 C 
ATOM     20  C   UNL A   1      33.373  21.132  26.524  1.00  0.00     0.244 C 
ATOM     21  C   UNL A   1      31.618  22.306  24.478  1.00  0.00     0.247 C 
ATOM     22  C   UNL A   1      32.925  22.596  26.516  1.00  0.00     0.220 C 
ATOM     23  O   UNL A   1      34.046  20.720  27.465  1.00  0.00    -0.273 OA
ATOM     24  O   UNL A   1      30.939  22.777  23.569  1.00  0.00    -0.272 OA
BRANCH  15  25
ATOM     25  C   UNL A   1      32.647  17.961  25.876  1.00  0.00     0.040 C 
BRANCH  25  26
ATOM     26  C   UNL A   1      33.066  16.484  25.849  1.00  0.00    -0.000 C 
ATOM     27  C   UNL A   1      31.909  15.518  25.610  1.00  0.00     0.004 C 
ENDBRANCH  25  26
ENDBRANCH  15  25
BRANCH  15  28
ATOM     28  C   UNL A   1      35.071  18.723  25.084  1.00  0.00     0.040 C 
BRANCH  28  29
ATOM     29  C   UNL A   1      36.063  19.691  24.436  1.00  0.00    -0.000 C 
ATOM     30  C   UNL A   1      36.484  20.872  25.292  1.00  0.00     0.004 C 
ENDBRANCH  28  29
ENDBRANCH  15  28
ENDBRANCH  13  14
ENDBRANCH   8  13
ENDBRANCH   4   7
ENDBRANCH   2   3
ENDBRANCH   1   2
BRANCH   1  31
ATOM     31  C   UNL A   1      31.846  31.912  26.927  1.00  0.00     0.023 C 
BRANCH  31  32
ATOM     32  C   UNL A   1      33.017  32.760  27.403  1.00  0.00     0.116 C 
BRANCH  32  33
ATOM     33  N   UNL A   1      32.638  34.127  27.741  1.00  0.00    -0.352 N 
ATOM     34  C   UNL A   1      33.127  34.907  28.763  1.00  0.00     0.251 C 
ATOM     35  H   UNL A   1      31.952  34.542  27.171  1.00  0.00     0.163 HD
ATOM     36  O   UNL A   1      32.646  36.012  28.997  1.00  0.00    -0.269 OA
BRANCH  34  37
ATOM     37  C   UNL A   1      34.217  34.371  29.602  1.00  0.00     0.039 A 
ATOM     38  C   UNL A   1      33.898  33.613  30.733  1.00  0.00     0.014 A 
ATOM     39  C   UNL A   1      35.547  34.549  29.217  1.00  0.00     0.014 A 
ATOM     40  C   UNL A   1      34.915  32.965  31.435  1.00  0.00     0.010 A 
ATOM     41  C   UNL A   1      36.550  33.850  29.877  1.00  0.00     0.010 A 
ATOM     42  C   UNL A   1      36.244  33.047  30.988  1.00  0.00    -0.014 A 
BRANCH  42  43
ATOM     43  C   UNL A   1      37.344  32.298  31.645  1.00  0.00     0.031 A 
ATOM     44  C   UNL A   1      37.884  32.780  32.962  1.00  0.00     0.074 A 
ATOM     45  C   UNL A   1      37.941  31.278  30.997  1.00  0.00     0.049 A 
ATOM     46  N   UNL A   1      38.937  32.374  33.621  1.00  0.00    -0.248 NA
ATOM     47  C   UNL A   1      37.163  33.892  33.607  1.00  0.00     0.031 C 
ATOM     48  C   UNL A   1      37.553  30.766  29.682  1.00  0.00     0.029 A 
ATOM     49  N   UNL A   1      39.031  30.517  31.340  1.00  0.00    -0.354 N 
ATOM     50  C   UNL A   1      39.036  33.209  34.727  1.00  0.00     0.074 A 
ATOM     51  C   UNL A   1      37.949  34.159  34.640  1.00  0.00     0.031 C 
ATOM     52  C   UNL A   1      38.397  29.785  29.324  1.00  0.00     0.029 A 
ATOM     53  C   UNL A   1      39.405  29.620  30.366  1.00  0.00     0.049 A 
ATOM     54  H   UNL A   1      39.501  30.606  32.200  1.00  0.00     0.167 HD
ATOM     55  C   UNL A   1      39.935  33.171  35.738  1.00  0.00     0.034 A 
ATOM     56  C   UNL A   1      40.451  28.772  30.313  1.00  0.00     0.034 A 
ATOM     57  C   UNL A   1      40.972  32.185  35.851  1.00  0.00     0.049 A 
ATOM     58  C   UNL A   1      41.405  28.714  31.477  1.00  0.00     0.074 A 
ATOM     59  C   UNL A   1      41.874  32.001  36.884  1.00  0.00     0.029 A 
ATOM     60  N   UNL A   1      41.248  31.216  34.900  1.00  0.00    -0.354 N 
ATOM     61  N   UNL A   1      41.392  29.411  32.587  1.00  0.00    -0.248 NA
ATOM     62  C   UNL A   1      42.497  27.732  31.397  1.00  0.00     0.031 C 
ATOM     63  C   UNL A   1      42.702  30.924  36.553  1.00  0.00     0.029 A 
ATOM     64  C   UNL A   1      42.305  30.428  35.321  1.00  0.00     0.049 A 
ATOM     65  H   UNL A   1      40.762  31.102  34.051  1.00  0.00     0.167 HD
ATOM     66  C   UNL A   1      42.446  28.925  33.354  1.00  0.00     0.074 A 
ATOM     67  C   UNL A   1      43.069  27.866  32.587  1.00  0.00     0.031 C 
ATOM     68  C   UNL A   1      42.866  29.330  34.577  1.00  0.00     0.034 A 
BRANCH  55  69
ATOM     69  C   UNL A   1      39.796  34.190  36.836  1.00  0.00     0.023 A 
ATOM     70  C   UNL A   1      40.119  35.538  36.576  1.00  0.00     0.012 A 
ATOM     71  C   UNL A   1      39.296  33.831  38.103  1.00  0.00     0.148 A 
ATOM     72  C   UNL A   1      39.978  36.507  37.567  1.00  0.00     0.002 A 
ATOM     73  C   UNL A   1      39.118  34.810  39.074  1.00  0.00     0.091 A 
ATOM     74  F   UNL A   1      39.018  32.541  38.340  1.00  0.00    -0.205 F 
ATOM     75  C   UNL A   1      39.469  36.145  38.812  1.00  0.00     0.022 A 
BRANCH  73  76
ATOM     76  S   UNL A   1      38.397  34.456  40.681  1.00  0.00     0.127 S 
ATOM     77  O   UNL A   1      38.210  35.802  41.222  1.00  0.00    -0.237 OA
ATOM     78  O   UNL A   1      37.157  33.768  40.319  1.00  0.00    -0.237 OA
ATOM     79  O   UNL A   1      39.368  33.627  41.380  1.00  0.00    -0.744 OA
ENDBRANCH  73  76
ENDBRANCH  55  69
BRANCH  56  80
ATOM     80  C   UNL A   1      40.611  27.858  29.146  1.00  0.00     0.023 A 
ATOM     81  C   UNL A   1      39.827  26.690  29.078  1.00  0.00     0.012 A 
ATOM     82  C   UNL A   1      41.499  28.151  28.093  1.00  0.00     0.148 A 
ATOM     83  C   UNL A   1      39.944  25.815  27.998  1.00  0.00     0.002 A 
ATOM     84  C   UNL A   1      41.573  27.301  26.994  1.00  0.00     0.091 A 
ATOM     85  F   UNL A   1      42.246  29.260  28.181  1.00  0.00    -0.205 F 
ATOM     86  C   UNL A   1      40.809  26.125  26.952  1.00  0.00     0.022 A 
BRANCH  84  87
ATOM     87  S   UNL A   1      42.562  27.689  25.545  1.00  0.00     0.127 S 
ATOM     88  O   UNL A   1      43.908  27.749  26.109  1.00  0.00    -0.237 OA
ATOM     89  O   UNL A   1      42.306  26.533  24.684  1.00  0.00    -0.237 OA
ATOM     90  O   UNL A   1      42.028  28.945  25.034  1.00  0.00    -0.744 OA
ENDBRANCH  84  87
ENDBRANCH  56  80
BRANCH  68  91
ATOM     91  C   UNL A   1      44.027  28.604  35.202  1.00  0.00     0.023 A 
ATOM     92  C   UNL A   1      45.342  29.017  34.920  1.00  0.00     0.012 A 
ATOM     93  C   UNL A   1      43.805  27.591  36.156  1.00  0.00     0.148 A 
ATOM     94  C   UNL A   1      46.424  28.423  35.568  1.00  0.00     0.002 A 
ATOM     95  C   UNL A   1      44.884  27.034  36.831  1.00  0.00     0.091 A 
ATOM     96  F   UNL A   1      42.544  27.203  36.395  1.00  0.00    -0.205 F 
ATOM     97  C   UNL A   1      46.195  27.443  36.533  1.00  0.00     0.022 A 
BRANCH  95  98
ATOM     98  S   UNL A   1      44.681  25.838  38.155  1.00  0.00     0.127 S 
ATOM     99  O   UNL A   1      46.062  25.634  38.588  1.00  0.00    -0.237 OA
ATOM    100  O   UNL A   1      43.844  26.568  39.108  1.00  0.00    -0.237 OA
ATOM    101  O   UNL A   1      44.039  24.677  37.553  1.00  0.00    -0.744 OA
ENDBRANCH  95  98
ENDBRANCH  68  91
ENDBRANCH  42  43
ENDBRANCH  34  37
ENDBRANCH  32  33
ENDBRANCH  31  32
ENDBRANCH   1  31
TORSDOF 20
ENDMDL
