MODEL 1
REMARK VINA RESULT:     -10.8      0.000      0.000
REMARK SMILES CC(C)[C@@H](CCNC(=O)N1C[C@@H](C)[C@H](C)C1)CCC(=O)NCCCCNC(=O)c1ccc(-c2c3nc(c(-c4cccc(S(=O)(=O)[O-])c4F)c4ccc([nH]4)c(-c4cccc(S(=O)(=O)[O-])c4F)c4nc(c(-c5cccc(S(=O)(=O)[O-])c5F)c5ccc2[nH]5)C=C4)C=C3)cc1
REMARK SMILES IDX 22 1 21 2 19 3 20 4 18 6 17 7 4 8 2 9 1 10 3 11 5 12 6 13
REMARK SMILES IDX 7 14 8 15 9 17 10 18 11 19 16 20 12 21 14 22 13 23 15 24
REMARK SMILES IDX 23 25 24 26 25 27 26 28 27 29 28 31 29 32 30 33 91 34 31 35
REMARK SMILES IDX 90 36 32 37 33 38 34 39 84 40 35 41 89 42 83 43 85 44 36 45
REMARK SMILES IDX 88 46 82 47 81 48 37 50 69 51 49 52 68 53 50 54 53 55 67 56
REMARK SMILES IDX 86 57 51 58 52 59 66 61 87 62 54 63 38 64 39 65 47 66 40 67
REMARK SMILES IDX 42 68 48 69 41 70 43 71 44 72 45 73 46 74 70 75 71 76 79 77
REMARK SMILES IDX 72 78 74 79 80 80 73 81 75 82 76 83 77 84 78 85 55 86 56 87
REMARK SMILES IDX 64 88 57 89 59 90 65 91 58 92 60 93 61 94 62 95 63 96
REMARK H PARENT 21 5 7 16 26 30 85 49 53 60
REMARK Flexibility Score: inf
ROOT
ATOM      1  C   UNL A   1      33.301  28.859  25.442  1.00  0.00     0.116 C 
ENDROOT
BRANCH   1   2
ATOM      2  N   UNL A   1      33.886  28.956  24.115  1.00  0.00    -0.356 N 
ATOM      3  C   UNL A   1      33.702  28.201  22.996  1.00  0.00     0.220 C 
ATOM      4  O   UNL A   1      34.430  28.413  22.024  1.00  0.00    -0.275 OA
ATOM      5  H   UNL A   1      34.526  29.696  24.005  1.00  0.00     0.163 HD
BRANCH   3   6
ATOM      6  C   UNL A   1      32.599  27.156  22.919  1.00  0.00     0.100 C 
BRANCH   6   7
ATOM      7  C   UNL A   1      33.026  25.715  23.263  1.00  0.00     0.014 C 
BRANCH   7   8
ATOM      8  C   UNL A   1      32.695  25.276  24.707  1.00  0.00    -0.006 C 
BRANCH   8   9
ATOM      9  C   UNL A   1      31.196  24.997  25.038  1.00  0.00    -0.014 C 
ATOM     10  C   UNL A   1      30.575  26.205  25.761  1.00  0.00     0.007 C 
ATOM     11  C   UNL A   1      30.313  24.673  23.831  1.00  0.00     0.007 C 
ENDBRANCH   8   9
BRANCH   8  12
ATOM     12  C   UNL A   1      33.655  24.165  25.210  1.00  0.00     0.025 C 
BRANCH  12  13
ATOM     13  C   UNL A   1      33.396  22.734  24.735  1.00  0.00     0.118 C 
BRANCH  13  14
ATOM     14  N   UNL A   1      34.620  21.998  24.516  1.00  0.00    -0.338 N 
ATOM     15  C   UNL A   1      34.882  20.691  24.764  1.00  0.00     0.317 C 
ATOM     16  H   UNL A   1      35.365  22.515  24.135  1.00  0.00     0.165 HD
ATOM     17  O   UNL A   1      36.046  20.383  25.022  1.00  0.00    -0.249 OA
ATOM     18  N   UNL A   1      33.872  19.776  24.708  1.00  0.00    -0.324 N 
ATOM     19  C   UNL A   1      34.047  18.436  25.228  1.00  0.00     0.125 C 
ATOM     20  C   UNL A   1      32.698  19.830  23.853  1.00  0.00     0.125 C 
ATOM     21  C   UNL A   1      33.510  17.540  24.118  1.00  0.00     0.010 C 
ATOM     22  C   UNL A   1      32.388  18.376  23.470  1.00  0.00     0.010 C 
ATOM     23  C   UNL A   1      33.016  16.200  24.644  1.00  0.00     0.010 C 
ATOM     24  C   UNL A   1      32.335  18.187  21.957  1.00  0.00     0.010 C 
ENDBRANCH  13  14
ENDBRANCH  12  13
ENDBRANCH   8  12
ENDBRANCH   7   8
ENDBRANCH   6   7
ENDBRANCH   3   6
ENDBRANCH   1   2
BRANCH   1  25
ATOM     25  C   UNL A   1      32.219  29.933  25.629  1.00  0.00     0.023 C 
BRANCH  25  26
ATOM     26  C   UNL A   1      32.175  30.561  27.015  1.00  0.00     0.023 C 
BRANCH  26  27
ATOM     27  C   UNL A   1      33.295  31.562  27.267  1.00  0.00     0.116 C 
BRANCH  27  28
ATOM     28  N   UNL A   1      32.837  32.930  27.497  1.00  0.00    -0.352 N 
ATOM     29  C   UNL A   1      33.374  33.861  28.361  1.00  0.00     0.251 C 
ATOM     30  H   UNL A   1      32.055  33.221  26.974  1.00  0.00     0.163 HD
ATOM     31  O   UNL A   1      32.858  34.961  28.502  1.00  0.00    -0.269 OA
BRANCH  29  32
ATOM     32  C   UNL A   1      34.556  33.467  29.158  1.00  0.00     0.039 A 
ATOM     33  C   UNL A   1      34.388  32.579  30.221  1.00  0.00     0.014 A 
ATOM     34  C   UNL A   1      35.832  33.867  28.756  1.00  0.00     0.014 A 
ATOM     35  C   UNL A   1      35.515  32.016  30.823  1.00  0.00     0.010 A 
ATOM     36  C   UNL A   1      36.944  33.232  29.290  1.00  0.00     0.010 A 
ATOM     37  C   UNL A   1      36.799  32.298  30.327  1.00  0.00    -0.014 A 
BRANCH  37  38
ATOM     38  C   UNL A   1      38.001  31.608  30.860  1.00  0.00     0.031 A 
ATOM     39  C   UNL A   1      38.573  32.006  32.194  1.00  0.00     0.074 A 
ATOM     40  C   UNL A   1      38.637  30.693  30.100  1.00  0.00     0.049 A 
ATOM     41  N   UNL A   1      39.629  31.541  32.809  1.00  0.00    -0.248 NA
ATOM     42  C   UNL A   1      37.894  33.097  32.913  1.00  0.00     0.031 C 
ATOM     43  C   UNL A   1      38.256  30.304  28.740  1.00  0.00     0.029 A 
ATOM     44  N   UNL A   1      39.754  29.936  30.356  1.00  0.00    -0.354 N 
ATOM     45  C   UNL A   1      39.762  32.305  33.961  1.00  0.00     0.074 A 
ATOM     46  C   UNL A   1      38.710  33.296  33.937  1.00  0.00     0.031 C 
ATOM     47  C   UNL A   1      39.108  29.368  28.292  1.00  0.00     0.029 A 
ATOM     48  C   UNL A   1      40.105  29.099  29.323  1.00  0.00     0.049 A 
ATOM     49  H   UNL A   1      40.256  29.988  31.201  1.00  0.00     0.167 HD
ATOM     50  C   UNL A   1      40.651  32.167  34.973  1.00  0.00     0.034 A 
ATOM     51  C   UNL A   1      41.106  28.202  29.226  1.00  0.00     0.034 A 
ATOM     52  C   UNL A   1      41.650  31.136  35.029  1.00  0.00     0.049 A 
ATOM     53  C   UNL A   1      42.014  27.995  30.409  1.00  0.00     0.074 A 
ATOM     54  C   UNL A   1      42.531  30.844  36.055  1.00  0.00     0.029 A 
ATOM     55  N   UNL A   1      41.892  30.219  34.018  1.00  0.00    -0.354 N 
ATOM     56  N   UNL A   1      42.008  28.605  31.570  1.00  0.00    -0.248 NA
ATOM     57  C   UNL A   1      43.034  26.944  30.288  1.00  0.00     0.031 C 
ATOM     58  C   UNL A   1      43.309  29.748  35.662  1.00  0.00     0.029 A 
ATOM     59  C   UNL A   1      42.905  29.355  34.396  1.00  0.00     0.049 A 
ATOM     60  H   UNL A   1      41.414  30.188  33.158  1.00  0.00     0.167 HD
ATOM     61  C   UNL A   1      42.997  27.990  32.328  1.00  0.00     0.074 A 
ATOM     62  C   UNL A   1      43.565  26.943  31.503  1.00  0.00     0.031 C 
ATOM     63  C   UNL A   1      43.414  28.278  33.585  1.00  0.00     0.034 A 
BRANCH  50  64
ATOM     64  C   UNL A   1      40.520  33.108  36.142  1.00  0.00     0.023 A 
ATOM     65  C   UNL A   1      41.217  34.334  36.120  1.00  0.00     0.012 A 
ATOM     66  C   UNL A   1      39.693  32.804  37.240  1.00  0.00     0.148 A 
ATOM     67  C   UNL A   1      41.127  35.224  37.188  1.00  0.00     0.002 A 
ATOM     68  C   UNL A   1      39.573  33.717  38.282  1.00  0.00     0.091 A 
ATOM     69  F   UNL A   1      39.059  31.623  37.258  1.00  0.00    -0.205 F 
ATOM     70  C   UNL A   1      40.298  34.920  38.264  1.00  0.00     0.022 A 
BRANCH  68  71
ATOM     71  S   UNL A   1      38.474  33.448  39.677  1.00  0.00     0.127 S 
ATOM     72  O   UNL A   1      39.131  32.334  40.361  1.00  0.00    -0.237 OA
ATOM     73  O   UNL A   1      38.552  34.727  40.385  1.00  0.00    -0.237 OA
ATOM     74  O   UNL A   1      37.169  33.155  39.104  1.00  0.00    -0.744 OA
ENDBRANCH  68  71
ENDBRANCH  50  64
BRANCH  51  75
ATOM     75  C   UNL A   1      41.227  27.349  28.009  1.00  0.00     0.023 A 
ATOM     76  C   UNL A   1      41.842  27.882  26.859  1.00  0.00     0.012 A 
ATOM     77  C   UNL A   1      40.772  26.018  27.988  1.00  0.00     0.148 A 
ATOM     78  C   UNL A   1      41.975  27.117  25.700  1.00  0.00     0.002 A 
ATOM     79  C   UNL A   1      40.953  25.243  26.847  1.00  0.00     0.091 A 
ATOM     80  F   UNL A   1      40.179  25.532  29.087  1.00  0.00    -0.205 F 
ATOM     81  C   UNL A   1      41.540  25.795  25.698  1.00  0.00     0.022 A 
BRANCH  79  82
ATOM     82  S   UNL A   1      40.543  23.494  26.801  1.00  0.00     0.127 S 
ATOM     83  O   UNL A   1      39.171  23.522  26.300  1.00  0.00    -0.237 OA
ATOM     84  O   UNL A   1      41.534  22.972  25.860  1.00  0.00    -0.237 OA
ATOM     85  O   UNL A   1      40.713  23.021  28.169  1.00  0.00    -0.744 OA
ENDBRANCH  79  82
ENDBRANCH  51  75
BRANCH  63  86
ATOM     86  C   UNL A   1      44.518  27.434  34.163  1.00  0.00     0.023 A 
ATOM     87  C   UNL A   1      45.859  27.828  33.987  1.00  0.00     0.012 A 
ATOM     88  C   UNL A   1      44.227  26.293  34.935  1.00  0.00     0.148 A 
ATOM     89  C   UNL A   1      46.895  27.080  34.543  1.00  0.00     0.002 A 
ATOM     90  C   UNL A   1      45.263  25.577  35.524  1.00  0.00     0.091 A 
ATOM     91  F   UNL A   1      42.946  25.918  35.072  1.00  0.00    -0.205 F 
ATOM     92  C   UNL A   1      46.598  25.963  35.321  1.00  0.00     0.022 A 
BRANCH  90  93
ATOM     93  S   UNL A   1      44.951  24.183  36.613  1.00  0.00     0.127 S 
ATOM     94  O   UNL A   1      44.200  24.811  37.697  1.00  0.00    -0.237 OA
ATOM     95  O   UNL A   1      44.163  23.287  35.765  1.00  0.00    -0.237 OA
ATOM     96  O   UNL A   1      46.266  23.664  36.968  1.00  0.00    -0.744 OA
ENDBRANCH  90  93
ENDBRANCH  63  86
ENDBRANCH  37  38
ENDBRANCH  29  32
ENDBRANCH  27  28
ENDBRANCH  26  27
ENDBRANCH  25  26
ENDBRANCH   1  25
TORSDOF 20
ENDMDL
MODEL 2
REMARK VINA RESULT:     -10.7      3.197      4.088
REMARK SMILES CC(C)[C@@H](CCNC(=O)N1C[C@@H](C)[C@H](C)C1)CCC(=O)NCCCCNC(=O)c1ccc(-c2c3nc(c(-c4cccc(S(=O)(=O)[O-])c4F)c4ccc([nH]4)c(-c4cccc(S(=O)(=O)[O-])c4F)c4nc(c(-c5cccc(S(=O)(=O)[O-])c5F)c5ccc2[nH]5)C=C4)C=C3)cc1
REMARK SMILES IDX 22 1 21 2 19 3 20 4 18 6 17 7 4 8 2 9 1 10 3 11 5 12 6 13
REMARK SMILES IDX 7 14 8 15 9 17 10 18 11 19 16 20 12 21 14 22 13 23 15 24
REMARK SMILES IDX 23 25 24 26 25 27 26 28 27 29 28 31 29 32 30 33 91 34 31 35
REMARK SMILES IDX 90 36 32 37 33 38 34 39 84 40 35 41 89 42 83 43 85 44 36 45
REMARK SMILES IDX 88 46 82 47 81 48 37 50 69 51 49 52 68 53 50 54 53 55 67 56
REMARK SMILES IDX 86 57 51 58 52 59 66 61 87 62 54 63 38 64 39 65 47 66 40 67
REMARK SMILES IDX 42 68 48 69 41 70 43 71 44 72 45 73 46 74 70 75 71 76 79 77
REMARK SMILES IDX 72 78 74 79 80 80 73 81 75 82 76 83 77 84 78 85 55 86 56 87
REMARK SMILES IDX 64 88 57 89 59 90 65 91 58 92 60 93 61 94 62 95 63 96
REMARK H PARENT 21 5 7 16 26 30 85 49 53 60
REMARK Flexibility Score: inf
ROOT
ATOM      1  C   UNL A   1      32.488  29.261  24.832  1.00  0.00     0.116 C 
ENDROOT
BRANCH   1   2
ATOM      2  N   UNL A   1      31.319  30.111  24.684  1.00  0.00    -0.356 N 
ATOM      3  C   UNL A   1      30.143  29.913  24.024  1.00  0.00     0.220 C 
ATOM      4  O   UNL A   1      29.357  30.858  23.939  1.00  0.00    -0.275 OA
ATOM      5  H   UNL A   1      31.388  30.981  25.139  1.00  0.00     0.163 HD
BRANCH   3   6
ATOM      6  C   UNL A   1      29.778  28.553  23.450  1.00  0.00     0.100 C 
BRANCH   6   7
ATOM      7  C   UNL A   1      30.590  28.116  22.213  1.00  0.00     0.014 C 
BRANCH   7   8
ATOM      8  C   UNL A   1      31.163  26.684  22.296  1.00  0.00    -0.006 C 
BRANCH   8   9
ATOM      9  C   UNL A   1      32.601  26.463  21.733  1.00  0.00    -0.014 C 
ATOM     10  C   UNL A   1      33.608  26.305  22.886  1.00  0.00     0.007 C 
ATOM     11  C   UNL A   1      32.760  25.254  20.809  1.00  0.00     0.007 C 
ENDBRANCH   8   9
BRANCH   8  12
ATOM     12  C   UNL A   1      30.944  26.050  23.696  1.00  0.00     0.025 C 
BRANCH  12  13
ATOM     13  C   UNL A   1      30.321  24.655  23.754  1.00  0.00     0.118 C 
BRANCH  13  14
ATOM     14  N   UNL A   1      30.375  24.084  25.081  1.00  0.00    -0.338 N 
ATOM     15  C   UNL A   1      30.836  22.869  25.466  1.00  0.00     0.317 C 
ATOM     16  H   UNL A   1      30.030  24.655  25.804  1.00  0.00     0.165 HD
ATOM     17  O   UNL A   1      30.335  22.362  26.470  1.00  0.00    -0.249 OA
ATOM     18  N   UNL A   1      31.828  22.264  24.751  1.00  0.00    -0.324 N 
ATOM     19  C   UNL A   1      32.153  20.868  24.956  1.00  0.00     0.125 C 
ATOM     20  C   UNL A   1      32.896  22.923  24.019  1.00  0.00     0.125 C 
ATOM     21  C   UNL A   1      33.673  20.862  25.076  1.00  0.00     0.010 C 
ATOM     22  C   UNL A   1      34.128  22.018  24.164  1.00  0.00     0.010 C 
ATOM     23  C   UNL A   1      34.279  19.524  24.678  1.00  0.00     0.010 C 
ATOM     24  C   UNL A   1      35.320  22.771  24.745  1.00  0.00     0.010 C 
ENDBRANCH  13  14
ENDBRANCH  12  13
ENDBRANCH   8  12
ENDBRANCH   7   8
ENDBRANCH   6   7
ENDBRANCH   3   6
ENDBRANCH   1   2
BRANCH   1  25
ATOM     25  C   UNL A   1      32.391  28.441  26.127  1.00  0.00     0.023 C 
BRANCH  25  26
ATOM     26  C   UNL A   1      33.040  29.089  27.343  1.00  0.00     0.023 C 
BRANCH  26  27
ATOM     27  C   UNL A   1      33.884  30.311  27.006  1.00  0.00     0.116 C 
BRANCH  27  28
ATOM     28  N   UNL A   1      33.772  31.402  27.970  1.00  0.00    -0.352 N 
ATOM     29  C   UNL A   1      34.675  31.749  28.954  1.00  0.00     0.251 C 
ATOM     30  H   UNL A   1      32.959  31.954  27.910  1.00  0.00     0.163 HD
ATOM     31  O   UNL A   1      34.434  32.657  29.737  1.00  0.00    -0.269 OA
BRANCH  29  32
ATOM     32  C   UNL A   1      35.914  30.952  29.071  1.00  0.00     0.039 A 
ATOM     33  C   UNL A   1      37.103  31.471  28.556  1.00  0.00     0.014 A 
ATOM     34  C   UNL A   1      35.914  29.768  29.812  1.00  0.00     0.014 A 
ATOM     35  C   UNL A   1      38.312  30.846  28.871  1.00  0.00     0.010 A 
ATOM     36  C   UNL A   1      37.121  29.208  30.202  1.00  0.00     0.010 A 
ATOM     37  C   UNL A   1      38.334  29.742  29.739  1.00  0.00    -0.014 A 
BRANCH  37  38
ATOM     38  C   UNL A   1      39.615  29.145  30.195  1.00  0.00     0.031 A 
ATOM     39  C   UNL A   1      40.333  29.713  31.389  1.00  0.00     0.074 A 
ATOM     40  C   UNL A   1      40.183  28.155  29.476  1.00  0.00     0.049 A 
ATOM     41  N   UNL A   1      41.471  29.346  31.917  1.00  0.00    -0.248 NA
ATOM     42  C   UNL A   1      39.712  30.871  32.053  1.00  0.00     0.031 C 
ATOM     43  C   UNL A   1      39.650  27.596  28.230  1.00  0.00     0.029 A 
ATOM     44  N   UNL A   1      41.347  27.455  29.676  1.00  0.00    -0.354 N 
ATOM     45  C   UNL A   1      41.720  30.247  32.944  1.00  0.00     0.074 A 
ATOM     46  C   UNL A   1      40.641  31.209  32.935  1.00  0.00     0.031 C 
ATOM     47  C   UNL A   1      40.471  26.627  27.793  1.00  0.00     0.029 A 
ATOM     48  C   UNL A   1      41.596  26.504  28.715  1.00  0.00     0.049 A 
ATOM     49  H   UNL A   1      41.947  27.619  30.439  1.00  0.00     0.167 HD
ATOM     50  C   UNL A   1      42.730  30.250  33.845  1.00  0.00     0.034 A 
ATOM     51  C   UNL A   1      42.606  25.620  28.600  1.00  0.00     0.034 A 
ATOM     52  C   UNL A   1      43.762  29.251  33.897  1.00  0.00     0.049 A 
ATOM     53  C   UNL A   1      43.659  25.576  29.675  1.00  0.00     0.074 A 
ATOM     54  C   UNL A   1      44.773  29.103  34.830  1.00  0.00     0.029 A 
ATOM     55  N   UNL A   1      43.909  28.222  32.980  1.00  0.00    -0.354 N 
ATOM     56  N   UNL A   1      43.776  26.323  30.746  1.00  0.00    -0.248 NA
ATOM     57  C   UNL A   1      44.691  24.536  29.552  1.00  0.00     0.031 C 
ATOM     58  C   UNL A   1      45.531  27.981  34.476  1.00  0.00     0.029 A 
ATOM     59  C   UNL A   1      44.989  27.429  33.327  1.00  0.00     0.049 A 
ATOM     60  H   UNL A   1      43.330  28.077  32.197  1.00  0.00     0.167 HD
ATOM     61  C   UNL A   1      44.871  25.824  31.441  1.00  0.00     0.074 A 
ATOM     62  C   UNL A   1      45.367  24.693  30.682  1.00  0.00     0.031 C 
ATOM     63  C   UNL A   1      45.429  26.270  32.593  1.00  0.00     0.034 A 
BRANCH  50  64
ATOM     64  C   UNL A   1      42.713  31.325  34.901  1.00  0.00     0.023 A 
ATOM     65  C   UNL A   1      42.102  31.058  36.143  1.00  0.00     0.012 A 
ATOM     66  C   UNL A   1      43.320  32.576  34.684  1.00  0.00     0.148 A 
ATOM     67  C   UNL A   1      42.059  32.032  37.139  1.00  0.00     0.002 A 
ATOM     68  C   UNL A   1      43.311  33.528  35.698  1.00  0.00     0.091 A 
ATOM     69  F   UNL A   1      43.872  32.823  33.487  1.00  0.00    -0.205 F 
ATOM     70  C   UNL A   1      42.671  33.262  36.920  1.00  0.00     0.022 A 
BRANCH  68  71
ATOM     71  S   UNL A   1      44.136  35.115  35.537  1.00  0.00     0.127 S 
ATOM     72  O   UNL A   1      45.544  34.721  35.576  1.00  0.00    -0.237 OA
ATOM     73  O   UNL A   1      43.670  35.577  34.229  1.00  0.00    -0.237 OA
ATOM     74  O   UNL A   1      43.676  35.918  36.660  1.00  0.00    -0.744 OA
ENDBRANCH  68  71
ENDBRANCH  50  64
BRANCH  51  75
ATOM     75  C   UNL A   1      42.605  24.628  27.488  1.00  0.00     0.023 A 
ATOM     76  C   UNL A   1      43.215  24.970  26.265  1.00  0.00     0.012 A 
ATOM     77  C   UNL A   1      42.039  23.348  27.637  1.00  0.00     0.148 A 
ATOM     78  C   UNL A   1      43.235  24.069  25.200  1.00  0.00     0.002 A 
ATOM     79  C   UNL A   1      42.107  22.435  26.589  1.00  0.00     0.091 A 
ATOM     80  F   UNL A   1      41.453  23.044  28.803  1.00  0.00    -0.205 F 
ATOM     81  C   UNL A   1      42.690  22.799  25.365  1.00  0.00     0.022 A 
BRANCH  79  82
ATOM     82  S   UNL A   1      41.550  20.735  26.760  1.00  0.00     0.127 S 
ATOM     83  O   UNL A   1      41.848  20.188  25.439  1.00  0.00    -0.237 OA
ATOM     84  O   UNL A   1      42.403  20.241  27.841  1.00  0.00    -0.237 OA
ATOM     85  O   UNL A   1      40.138  20.826  27.110  1.00  0.00    -0.744 OA
ENDBRANCH  79  82
ENDBRANCH  51  75
BRANCH  63  86
ATOM     86  C   UNL A   1      46.623  25.524  33.124  1.00  0.00     0.023 A 
ATOM     87  C   UNL A   1      46.436  24.487  34.059  1.00  0.00     0.012 A 
ATOM     88  C   UNL A   1      47.919  25.801  32.648  1.00  0.00     0.148 A 
ATOM     89  C   UNL A   1      47.524  23.760  34.537  1.00  0.00     0.002 A 
ATOM     90  C   UNL A   1      48.994  25.042  33.096  1.00  0.00     0.091 A 
ATOM     91  F   UNL A   1      48.083  26.807  31.776  1.00  0.00    -0.205 F 
ATOM     92  C   UNL A   1      48.800  24.028  34.047  1.00  0.00     0.022 A 
BRANCH  90  93
ATOM     93  S   UNL A   1      50.651  25.270  32.440  1.00  0.00     0.127 S 
ATOM     94  O   UNL A   1      51.480  24.878  33.578  1.00  0.00    -0.237 OA
ATOM     95  O   UNL A   1      50.679  24.334  31.315  1.00  0.00    -0.237 OA
ATOM     96  O   UNL A   1      50.727  26.673  32.052  1.00  0.00    -0.744 OA
ENDBRANCH  90  93
ENDBRANCH  63  86
ENDBRANCH  37  38
ENDBRANCH  29  32
ENDBRANCH  27  28
ENDBRANCH  26  27
ENDBRANCH  25  26
ENDBRANCH   1  25
TORSDOF 20
ENDMDL
MODEL 3
REMARK VINA RESULT:     -10.7      5.541     10.813
REMARK SMILES CC(C)[C@@H](CCNC(=O)N1C[C@@H](C)[C@H](C)C1)CCC(=O)NCCCCNC(=O)c1ccc(-c2c3nc(c(-c4cccc(S(=O)(=O)[O-])c4F)c4ccc([nH]4)c(-c4cccc(S(=O)(=O)[O-])c4F)c4nc(c(-c5cccc(S(=O)(=O)[O-])c5F)c5ccc2[nH]5)C=C4)C=C3)cc1
REMARK SMILES IDX 22 1 21 2 19 3 20 4 18 6 17 7 4 8 2 9 1 10 3 11 5 12 6 13
REMARK SMILES IDX 7 14 8 15 9 17 10 18 11 19 16 20 12 21 14 22 13 23 15 24
REMARK SMILES IDX 23 25 24 26 25 27 26 28 27 29 28 31 29 32 30 33 91 34 31 35
REMARK SMILES IDX 90 36 32 37 33 38 34 39 84 40 35 41 89 42 83 43 85 44 36 45
REMARK SMILES IDX 88 46 82 47 81 48 37 50 69 51 49 52 68 53 50 54 53 55 67 56
REMARK SMILES IDX 86 57 51 58 52 59 66 61 87 62 54 63 38 64 39 65 47 66 40 67
REMARK SMILES IDX 42 68 48 69 41 70 43 71 44 72 45 73 46 74 70 75 71 76 79 77
REMARK SMILES IDX 72 78 74 79 80 80 73 81 75 82 76 83 77 84 78 85 55 86 56 87
REMARK SMILES IDX 64 88 57 89 59 90 65 91 58 92 60 93 61 94 62 95 63 96
REMARK H PARENT 21 5 7 16 26 30 85 49 53 60
REMARK Flexibility Score: inf
ROOT
ATOM      1  C   UNL A   1      34.497  24.511  24.865  1.00  0.00     0.116 C 
ENDROOT
BRANCH   1   2
ATOM      2  N   UNL A   1      34.390  24.900  23.469  1.00  0.00    -0.356 N 
ATOM      3  C   UNL A   1      33.599  25.822  22.852  1.00  0.00     0.220 C 
ATOM      4  O   UNL A   1      33.606  25.866  21.621  1.00  0.00    -0.275 OA
ATOM      5  H   UNL A   1      34.995  24.413  22.863  1.00  0.00     0.163 HD
BRANCH   3   6
ATOM      6  C   UNL A   1      32.765  26.810  23.653  1.00  0.00     0.100 C 
BRANCH   6   7
ATOM      7  C   UNL A   1      31.251  26.791  23.359  1.00  0.00     0.014 C 
BRANCH   7   8
ATOM      8  C   UNL A   1      30.613  28.189  23.192  1.00  0.00    -0.006 C 
BRANCH   8   9
ATOM      9  C   UNL A   1      29.108  28.330  23.577  1.00  0.00    -0.014 C 
ATOM     10  C   UNL A   1      28.380  29.232  22.565  1.00  0.00     0.007 C 
ATOM     11  C   UNL A   1      28.333  27.015  23.669  1.00  0.00     0.007 C 
ENDBRANCH   8   9
BRANCH   8  12
ATOM     12  C   UNL A   1      31.510  29.311  23.781  1.00  0.00     0.025 C 
BRANCH  12  13
ATOM     13  C   UNL A   1      31.154  29.849  25.167  1.00  0.00     0.118 C 
BRANCH  13  14
ATOM     14  N   UNL A   1      31.435  28.894  26.216  1.00  0.00    -0.338 N 
ATOM     15  C   UNL A   1      32.634  28.512  26.719  1.00  0.00     0.317 C 
ATOM     16  H   UNL A   1      30.648  28.463  26.620  1.00  0.00     0.165 HD
ATOM     17  O   UNL A   1      32.721  27.375  27.181  1.00  0.00    -0.249 OA
ATOM     18  N   UNL A   1      33.681  29.387  26.710  1.00  0.00    -0.324 N 
ATOM     19  C   UNL A   1      35.032  28.940  26.977  1.00  0.00     0.125 C 
ATOM     20  C   UNL A   1      33.605  30.834  26.818  1.00  0.00     0.125 C 
ATOM     21  C   UNL A   1      35.558  29.950  27.990  1.00  0.00     0.010 C 
ATOM     22  C   UNL A   1      34.844  31.264  27.617  1.00  0.00     0.010 C 
ATOM     23  C   UNL A   1      37.074  30.073  27.950  1.00  0.00     0.010 C 
ATOM     24  C   UNL A   1      34.469  32.082  28.848  1.00  0.00     0.010 C 
ENDBRANCH  13  14
ENDBRANCH  12  13
ENDBRANCH   8  12
ENDBRANCH   7   8
ENDBRANCH   6   7
ENDBRANCH   3   6
ENDBRANCH   1   2
BRANCH   1  25
ATOM     25  C   UNL A   1      34.681  22.991  24.984  1.00  0.00     0.023 C 
BRANCH  25  26
ATOM     26  C   UNL A   1      36.080  22.489  24.650  1.00  0.00     0.023 C 
BRANCH  26  27
ATOM     27  C   UNL A   1      37.061  22.603  25.809  1.00  0.00     0.116 C 
BRANCH  27  28
ATOM     28  N   UNL A   1      38.084  21.561  25.834  1.00  0.00    -0.352 N 
ATOM     29  C   UNL A   1      39.378  21.666  26.299  1.00  0.00     0.251 C 
ATOM     30  H   UNL A   1      37.818  20.681  25.480  1.00  0.00     0.163 HD
ATOM     31  O   UNL A   1      40.157  20.727  26.212  1.00  0.00    -0.269 OA
BRANCH  29  32
ATOM     32  C   UNL A   1      39.814  22.967  26.850  1.00  0.00     0.039 A 
ATOM     33  C   UNL A   1      40.700  22.981  27.928  1.00  0.00     0.014 A 
ATOM     34  C   UNL A   1      39.456  24.152  26.204  1.00  0.00     0.014 A 
ATOM     35  C   UNL A   1      41.303  24.185  28.299  1.00  0.00     0.010 A 
ATOM     36  C   UNL A   1      40.129  25.325  26.511  1.00  0.00     0.010 A 
ATOM     37  C   UNL A   1      41.062  25.356  27.559  1.00  0.00    -0.014 A 
BRANCH  37  38
ATOM     38  C   UNL A   1      41.793  26.615  27.849  1.00  0.00     0.031 A 
ATOM     39  C   UNL A   1      43.218  26.786  27.396  1.00  0.00     0.074 A 
ATOM     40  C   UNL A   1      41.208  27.567  28.605  1.00  0.00     0.049 A 
ATOM     41  N   UNL A   1      44.025  27.797  27.580  1.00  0.00    -0.248 NA
ATOM     42  C   UNL A   1      43.830  25.655  26.678  1.00  0.00     0.031 C 
ATOM     43  C   UNL A   1      39.876  27.474  29.208  1.00  0.00     0.029 A 
ATOM     44  N   UNL A   1      41.668  28.794  29.015  1.00  0.00    -0.354 N 
ATOM     45  C   UNL A   1      45.245  27.411  27.038  1.00  0.00     0.074 A 
ATOM     46  C   UNL A   1      45.088  26.055  26.563  1.00  0.00     0.031 C 
ATOM     47  C   UNL A   1      39.619  28.602  29.889  1.00  0.00     0.029 A 
ATOM     48  C   UNL A   1      40.770  29.494  29.786  1.00  0.00     0.049 A 
ATOM     49  H   UNL A   1      42.559  29.140  28.778  1.00  0.00     0.167 HD
ATOM     50  C   UNL A   1      46.381  28.135  26.905  1.00  0.00     0.034 A 
ATOM     51  C   UNL A   1      40.857  30.722  30.332  1.00  0.00     0.034 A 
ATOM     52  C   UNL A   1      46.513  29.506  27.313  1.00  0.00     0.049 A 
ATOM     53  C   UNL A   1      42.092  31.545  30.077  1.00  0.00     0.074 A 
ATOM     54  C   UNL A   1      47.585  30.361  27.131  1.00  0.00     0.029 A 
ATOM     55  N   UNL A   1      45.532  30.227  27.976  1.00  0.00    -0.354 N 
ATOM     56  N   UNL A   1      43.169  31.228  29.401  1.00  0.00    -0.248 NA
ATOM     57  C   UNL A   1      42.103  32.912  30.619  1.00  0.00     0.031 C 
ATOM     58  C   UNL A   1      47.252  31.602  27.686  1.00  0.00     0.029 A 
ATOM     59  C   UNL A   1      45.970  31.520  28.207  1.00  0.00     0.049 A 
ATOM     60  H   UNL A   1      44.655  29.872  28.245  1.00  0.00     0.167 HD
ATOM     61  C   UNL A   1      43.970  32.364  29.405  1.00  0.00     0.074 A 
ATOM     62  C   UNL A   1      43.242  33.385  30.131  1.00  0.00     0.031 C 
ATOM     63  C   UNL A   1      45.205  32.541  28.876  1.00  0.00     0.034 A 
BRANCH  50  64
ATOM     64  C   UNL A   1      47.545  27.474  26.212  1.00  0.00     0.023 A 
ATOM     65  C   UNL A   1      47.671  27.596  24.813  1.00  0.00     0.012 A 
ATOM     66  C   UNL A   1      48.523  26.765  26.935  1.00  0.00     0.148 A 
ATOM     67  C   UNL A   1      48.729  26.990  24.138  1.00  0.00     0.002 A 
ATOM     68  C   UNL A   1      49.599  26.199  26.259  1.00  0.00     0.091 A 
ATOM     69  F   UNL A   1      48.372  26.635  28.261  1.00  0.00    -0.205 F 
ATOM     70  C   UNL A   1      49.697  26.301  24.862  1.00  0.00     0.022 A 
BRANCH  68  71
ATOM     71  S   UNL A   1      50.935  25.354  27.112  1.00  0.00     0.127 S 
ATOM     72  O   UNL A   1      50.207  24.327  27.856  1.00  0.00    -0.237 OA
ATOM     73  O   UNL A   1      51.740  24.845  26.000  1.00  0.00    -0.237 OA
ATOM     74  O   UNL A   1      51.596  26.369  27.919  1.00  0.00    -0.744 OA
ENDBRANCH  68  71
ENDBRANCH  50  64
BRANCH  51  75
ATOM     75  C   UNL A   1      39.695  31.293  31.072  1.00  0.00     0.023 A 
ATOM     76  C   UNL A   1      38.621  31.838  30.341  1.00  0.00     0.012 A 
ATOM     77  C   UNL A   1      39.628  31.273  32.477  1.00  0.00     0.148 A 
ATOM     78  C   UNL A   1      37.515  32.382  30.995  1.00  0.00     0.002 A 
ATOM     79  C   UNL A   1      38.500  31.770  33.123  1.00  0.00     0.091 A 
ATOM     80  F   UNL A   1      40.664  30.761  33.156  1.00  0.00    -0.205 F 
ATOM     81  C   UNL A   1      37.451  32.338  32.385  1.00  0.00     0.022 A 
BRANCH  79  82
ATOM     82  S   UNL A   1      38.276  31.634  34.900  1.00  0.00     0.127 S 
ATOM     83  O   UNL A   1      38.228  30.186  35.086  1.00  0.00    -0.237 OA
ATOM     84  O   UNL A   1      39.484  32.282  35.411  1.00  0.00    -0.237 OA
ATOM     85  O   UNL A   1      37.043  32.356  35.191  1.00  0.00    -0.744 OA
ENDBRANCH  79  82
ENDBRANCH  51  75
BRANCH  63  86
ATOM     86  C   UNL A   1      45.842  33.896  29.033  1.00  0.00     0.023 A 
ATOM     87  C   UNL A   1      46.742  34.123  30.093  1.00  0.00     0.012 A 
ATOM     88  C   UNL A   1      45.602  34.920  28.097  1.00  0.00     0.148 A 
ATOM     89  C   UNL A   1      47.369  35.358  30.236  1.00  0.00     0.002 A 
ATOM     90  C   UNL A   1      46.266  36.135  28.221  1.00  0.00     0.091 A 
ATOM     91  F   UNL A   1      44.724  34.696  27.108  1.00  0.00    -0.205 F 
ATOM     92  C   UNL A   1      47.141  36.360  29.295  1.00  0.00     0.022 A 
BRANCH  90  93
ATOM     93  S   UNL A   1      46.092  37.438  26.996  1.00  0.00     0.127 S 
ATOM     94  O   UNL A   1      46.755  38.561  27.656  1.00  0.00    -0.237 OA
ATOM     95  O   UNL A   1      46.816  36.892  25.847  1.00  0.00    -0.237 OA
ATOM     96  O   UNL A   1      44.657  37.583  26.783  1.00  0.00    -0.744 OA
ENDBRANCH  90  93
ENDBRANCH  63  86
ENDBRANCH  37  38
ENDBRANCH  29  32
ENDBRANCH  27  28
ENDBRANCH  26  27
ENDBRANCH  25  26
ENDBRANCH   1  25
TORSDOF 20
ENDMDL
