MODEL 1
REMARK VINA RESULT:     -12.5      0.000      0.000
REMARK SMILES Cc1cc(C)cc(C(=O)N2CC[C@H](C(=O)NCCCCNC(=O)c3ccc(-c4c5nc(c(-c6cccc(S(=O)(=O)[O-])c6F)c6ccc([nH]6)c(-c6cccc(S(=O)(=O)[O-])c6F)c6nc(c(-c7cccc(S(=O)(=O)[O-])c7F)c7ccc4[nH]7)C=C6)C=C5)cc3)[C@@H]2C)c1
REMARK SMILES IDX 19 1 18 2 17 3 16 4 14 5 15 6 13 8 10 9 11 10 87 11 12 12
REMARK SMILES IDX 88 13 8 14 9 15 7 16 1 17 2 18 3 19 89 20 4 21 5 22 6 23
REMARK SMILES IDX 20 24 21 25 22 26 23 28 24 29 25 30 86 31 26 32 85 33 27 34
REMARK SMILES IDX 28 35 29 36 79 37 30 38 84 39 78 40 80 41 31 42 83 43 77 44
REMARK SMILES IDX 76 45 32 47 64 48 44 49 63 50 45 51 48 52 62 53 81 54 46 55
REMARK SMILES IDX 47 56 61 58 82 59 49 60 33 61 34 62 42 63 35 64 37 65 43 66
REMARK SMILES IDX 36 67 38 68 39 69 40 70 41 71 65 72 66 73 74 74 67 75 69 76
REMARK SMILES IDX 75 77 68 78 70 79 71 80 72 81 73 82 50 83 51 84 59 85 52 86
REMARK SMILES IDX 54 87 60 88 53 89 55 90 56 91 57 92 58 93
REMARK H PARENT 16 7 21 27 80 46 48 57
REMARK Flexibility Score: inf
ROOT
ATOM      1  C   UNL A   1      31.559  31.830  26.906  1.00  0.00     0.023 C 
ENDROOT
BRANCH   1   2
ATOM      2  C   UNL A   1      31.800  30.342  26.645  1.00  0.00     0.023 C 
BRANCH   2   3
ATOM      3  C   UNL A   1      32.570  30.024  25.367  1.00  0.00     0.116 C 
BRANCH   3   4
ATOM      4  N   UNL A   1      31.692  29.704  24.258  1.00  0.00    -0.356 N 
ATOM      5  C   UNL A   1      31.260  28.502  23.787  1.00  0.00     0.225 C 
ATOM      6  O   UNL A   1      30.443  28.499  22.866  1.00  0.00    -0.275 OA
ATOM      7  H   UNL A   1      31.353  30.485  23.763  1.00  0.00     0.163 HD
BRANCH   5   8
ATOM      8  C   UNL A   1      31.790  27.214  24.391  1.00  0.00     0.102 C 
ATOM      9  N   UNL A   1      32.660  25.341  23.200  1.00  0.00    -0.335 N 
ATOM     10  C   UNL A   1      31.225  25.311  23.028  1.00  0.00     0.121 C 
ATOM     11  C   UNL A   1      33.075  26.652  23.725  1.00  0.00     0.094 C 
ATOM     12  C   UNL A   1      30.746  26.090  24.234  1.00  0.00     0.037 C 
ATOM     13  C   UNL A   1      33.673  27.509  22.609  1.00  0.00     0.032 C 
BRANCH   9  14
ATOM     14  C   UNL A   1      33.410  24.265  22.762  1.00  0.00     0.254 C 
ATOM     15  O   UNL A   1      33.392  23.909  21.583  1.00  0.00    -0.269 OA
BRANCH  14  16
ATOM     16  C   UNL A   1      34.132  23.395  23.734  1.00  0.00     0.040 A 
ATOM     17  C   UNL A   1      34.322  19.743  24.813  1.00  0.00     0.044 C 
ATOM     18  C   UNL A   1      34.648  21.199  24.658  1.00  0.00    -0.050 A 
ATOM     19  C   UNL A   1      35.801  21.727  25.252  1.00  0.00     0.006 A 
ATOM     20  C   UNL A   1      33.843  22.031  23.869  1.00  0.00     0.017 A 
ATOM     21  C   UNL A   1      36.141  23.075  25.083  1.00  0.00    -0.050 A 
ATOM     22  C   UNL A   1      37.441  23.592  25.625  1.00  0.00     0.044 C 
ATOM     23  C   UNL A   1      35.289  23.906  24.342  1.00  0.00     0.017 A 
ENDBRANCH  14  16
ENDBRANCH   9  14
ENDBRANCH   5   8
ENDBRANCH   3   4
ENDBRANCH   2   3
ENDBRANCH   1   2
BRANCH   1  24
ATOM     24  C   UNL A   1      32.798  32.644  27.270  1.00  0.00     0.116 C 
BRANCH  24  25
ATOM     25  N   UNL A   1      32.489  34.027  27.604  1.00  0.00    -0.352 N 
ATOM     26  C   UNL A   1      33.049  34.835  28.566  1.00  0.00     0.251 C 
ATOM     27  H   UNL A   1      31.780  34.443  27.063  1.00  0.00     0.163 HD
ATOM     28  O   UNL A   1      32.558  35.940  28.791  1.00  0.00    -0.269 OA
BRANCH  26  29
ATOM     29  C   UNL A   1      34.216  34.368  29.346  1.00  0.00     0.039 A 
ATOM     30  C   UNL A   1      33.999  33.752  30.581  1.00  0.00     0.014 A 
ATOM     31  C   UNL A   1      35.518  34.525  28.862  1.00  0.00     0.014 A 
ATOM     32  C   UNL A   1      35.081  33.231  31.296  1.00  0.00     0.010 A 
ATOM     33  C   UNL A   1      36.585  33.937  29.539  1.00  0.00     0.010 A 
ATOM     34  C   UNL A   1      36.380  33.283  30.763  1.00  0.00    -0.014 A 
BRANCH  34  35
ATOM     35  C   UNL A   1      37.528  32.644  31.460  1.00  0.00     0.031 A 
ATOM     36  C   UNL A   1      38.251  31.481  30.832  1.00  0.00     0.074 A 
ATOM     37  C   UNL A   1      37.870  33.056  32.698  1.00  0.00     0.049 A 
ATOM     38  N   UNL A   1      39.229  30.759  31.316  1.00  0.00    -0.248 NA
ATOM     39  C   UNL A   1      37.804  31.060  29.494  1.00  0.00     0.031 C 
ATOM     40  C   UNL A   1      37.202  34.121  33.451  1.00  0.00     0.029 A 
ATOM     41  N   UNL A   1      38.845  32.610  33.556  1.00  0.00    -0.354 N 
ATOM     42  C   UNL A   1      39.492  29.783  30.362  1.00  0.00     0.074 A 
ATOM     43  C   UNL A   1      38.549  29.983  29.283  1.00  0.00     0.031 C 
ATOM     44  C   UNL A   1      37.788  34.247  34.652  1.00  0.00     0.029 A 
ATOM     45  C   UNL A   1      38.847  33.251  34.774  1.00  0.00     0.049 A 
ATOM     46  H   UNL A   1      39.484  31.898  33.322  1.00  0.00     0.167 HD
ATOM     47  C   UNL A   1      40.450  28.826  30.366  1.00  0.00     0.034 A 
ATOM     48  C   UNL A   1      39.604  33.050  35.872  1.00  0.00     0.034 A 
ATOM     49  C   UNL A   1      41.412  28.651  31.422  1.00  0.00     0.049 A 
ATOM     50  C   UNL A   1      40.675  31.993  35.838  1.00  0.00     0.074 A 
ATOM     51  C   UNL A   1      42.468  27.759  31.482  1.00  0.00     0.029 A 
ATOM     52  N   UNL A   1      41.433  29.374  32.603  1.00  0.00    -0.354 N 
ATOM     53  N   UNL A   1      41.007  31.182  34.862  1.00  0.00    -0.248 NA
ATOM     54  C   UNL A   1      41.503  31.846  37.045  1.00  0.00     0.031 C 
ATOM     55  C   UNL A   1      43.111  27.923  32.712  1.00  0.00     0.029 A 
ATOM     56  C   UNL A   1      42.478  28.943  33.402  1.00  0.00     0.049 A 
ATOM     57  H   UNL A   1      40.798  30.089  32.840  1.00  0.00     0.167 HD
ATOM     58  C   UNL A   1      42.103  30.462  35.321  1.00  0.00     0.074 A 
ATOM     59  C   UNL A   1      42.395  30.947  36.654  1.00  0.00     0.031 C 
ATOM     60  C   UNL A   1      42.797  29.475  34.702  1.00  0.00     0.034 A 
BRANCH  47  61
ATOM     61  C   UNL A   1      40.550  27.923  29.165  1.00  0.00     0.023 A 
ATOM     62  C   UNL A   1      39.662  26.836  29.038  1.00  0.00     0.012 A 
ATOM     63  C   UNL A   1      41.461  28.197  28.125  1.00  0.00     0.148 A 
ATOM     64  C   UNL A   1      39.696  26.017  27.909  1.00  0.00     0.002 A 
ATOM     65  C   UNL A   1      41.458  27.404  26.983  1.00  0.00     0.091 A 
ATOM     66  F   UNL A   1      42.308  29.225  28.271  1.00  0.00    -0.205 F 
ATOM     67  C   UNL A   1      40.584  26.308  26.878  1.00  0.00     0.022 A 
BRANCH  65  68
ATOM     68  S   UNL A   1      42.505  27.740  25.562  1.00  0.00     0.127 S 
ATOM     69  O   UNL A   1      42.283  26.547  24.745  1.00  0.00    -0.237 OA
ATOM     70  O   UNL A   1      41.910  28.965  25.026  1.00  0.00    -0.237 OA
ATOM     71  O   UNL A   1      43.855  27.894  26.083  1.00  0.00    -0.744 OA
ENDBRANCH  65  68
ENDBRANCH  47  61
BRANCH  48  72
ATOM     72  C   UNL A   1      39.414  33.897  37.085  1.00  0.00     0.023 A 
ATOM     73  C   UNL A   1      39.905  35.217  37.095  1.00  0.00     0.012 A 
ATOM     74  C   UNL A   1      38.758  33.401  38.228  1.00  0.00     0.148 A 
ATOM     75  C   UNL A   1      39.790  36.011  38.236  1.00  0.00     0.002 A 
ATOM     76  C   UNL A   1      38.593  34.218  39.340  1.00  0.00     0.091 A 
ATOM     77  F   UNL A   1      38.307  32.138  38.205  1.00  0.00    -0.205 F 
ATOM     78  C   UNL A   1      39.127  35.515  39.355  1.00  0.00     0.022 A 
BRANCH  76  79
ATOM     79  S   UNL A   1      37.637  33.707  40.773  1.00  0.00     0.127 S 
ATOM     80  O   UNL A   1      38.531  32.735  41.397  1.00  0.00    -0.237 OA
ATOM     81  O   UNL A   1      37.488  34.966  41.502  1.00  0.00    -0.237 OA
ATOM     82  O   UNL A   1      36.391  33.173  40.239  1.00  0.00    -0.744 OA
ENDBRANCH  76  79
ENDBRANCH  48  72
BRANCH  60  83
ATOM     83  C   UNL A   1      43.977  28.885  35.429  1.00  0.00     0.023 A 
ATOM     84  C   UNL A   1      45.251  29.472  35.301  1.00  0.00     0.012 A 
ATOM     85  C   UNL A   1      43.805  27.789  36.300  1.00  0.00     0.148 A 
ATOM     86  C   UNL A   1      46.343  28.955  35.997  1.00  0.00     0.002 A 
ATOM     87  C   UNL A   1      44.886  27.313  37.031  1.00  0.00     0.091 A 
ATOM     88  F   UNL A   1      42.587  27.234  36.396  1.00  0.00    -0.205 F 
ATOM     89  C   UNL A   1      46.159  27.885  36.870  1.00  0.00     0.022 A 
BRANCH  87  90
ATOM     90  S   UNL A   1      44.724  26.006  38.251  1.00  0.00     0.127 S 
ATOM     91  O   UNL A   1      43.803  26.608  39.213  1.00  0.00    -0.237 OA
ATOM     92  O   UNL A   1      44.154  24.914  37.461  1.00  0.00    -0.237 OA
ATOM     93  O   UNL A   1      46.069  25.752  38.750  1.00  0.00    -0.744 OA
ENDBRANCH  87  90
ENDBRANCH  60  83
ENDBRANCH  34  35
ENDBRANCH  26  29
ENDBRANCH  24  25
ENDBRANCH   1  24
TORSDOF 16
ENDMDL
MODEL 2
REMARK VINA RESULT:     -12.4      5.507      9.006
REMARK SMILES Cc1cc(C)cc(C(=O)N2CC[C@H](C(=O)NCCCCNC(=O)c3ccc(-c4c5nc(c(-c6cccc(S(=O)(=O)[O-])c6F)c6ccc([nH]6)c(-c6cccc(S(=O)(=O)[O-])c6F)c6nc(c(-c7cccc(S(=O)(=O)[O-])c7F)c7ccc4[nH]7)C=C6)C=C5)cc3)[C@@H]2C)c1
REMARK SMILES IDX 19 1 18 2 17 3 16 4 14 5 15 6 13 8 10 9 11 10 87 11 12 12
REMARK SMILES IDX 88 13 8 14 9 15 7 16 1 17 2 18 3 19 89 20 4 21 5 22 6 23
REMARK SMILES IDX 20 24 21 25 22 26 23 28 24 29 25 30 86 31 26 32 85 33 27 34
REMARK SMILES IDX 28 35 29 36 79 37 30 38 84 39 78 40 80 41 31 42 83 43 77 44
REMARK SMILES IDX 76 45 32 47 64 48 44 49 63 50 45 51 48 52 62 53 81 54 46 55
REMARK SMILES IDX 47 56 61 58 82 59 49 60 33 61 34 62 42 63 35 64 37 65 43 66
REMARK SMILES IDX 36 67 38 68 39 69 40 70 41 71 65 72 66 73 74 74 67 75 69 76
REMARK SMILES IDX 75 77 68 78 70 79 71 80 72 81 73 82 50 83 51 84 59 85 52 86
REMARK SMILES IDX 54 87 60 88 53 89 55 90 56 91 57 92 58 93
REMARK H PARENT 16 7 21 27 80 46 48 57
REMARK Flexibility Score: inf
ROOT
ATOM      1  C   UNL A   1      35.146  21.616  24.763  1.00  0.00     0.023 C 
ENDROOT
BRANCH   1   2
ATOM      2  C   UNL A   1      34.173  20.538  25.245  1.00  0.00     0.023 C 
BRANCH   2   3
ATOM      3  C   UNL A   1      32.717  20.979  25.351  1.00  0.00     0.116 C 
BRANCH   3   4
ATOM      4  N   UNL A   1      32.488  21.865  26.476  1.00  0.00    -0.356 N 
ATOM      5  C   UNL A   1      31.992  23.132  26.520  1.00  0.00     0.225 C 
ATOM      6  O   UNL A   1      31.819  23.649  27.624  1.00  0.00    -0.275 OA
ATOM      7  H   UNL A   1      32.732  21.488  27.352  1.00  0.00     0.163 HD
BRANCH   5   8
ATOM      8  C   UNL A   1      31.675  23.870  25.232  1.00  0.00     0.102 C 
ATOM      9  N   UNL A   1      32.079  26.176  24.781  1.00  0.00    -0.335 N 
ATOM     10  C   UNL A   1      30.941  26.120  25.671  1.00  0.00     0.121 C 
ATOM     11  C   UNL A   1      32.763  24.872  24.760  1.00  0.00     0.094 C 
ATOM     12  C   UNL A   1      30.407  24.728  25.415  1.00  0.00     0.037 C 
ATOM     13  C   UNL A   1      34.033  24.922  25.611  1.00  0.00     0.032 C 
BRANCH   9  14
ATOM     14  C   UNL A   1      32.426  27.387  24.211  1.00  0.00     0.254 C 
ATOM     15  O   UNL A   1      32.608  27.494  22.997  1.00  0.00    -0.269 OA
BRANCH  14  16
ATOM     16  C   UNL A   1      32.757  28.563  25.065  1.00  0.00     0.040 A 
ATOM     17  C   UNL A   1      31.124  31.702  26.484  1.00  0.00     0.044 C 
ATOM     18  C   UNL A   1      32.106  30.593  26.245  1.00  0.00    -0.050 A 
ATOM     19  C   UNL A   1      33.276  30.516  27.010  1.00  0.00     0.006 A 
ATOM     20  C   UNL A   1      31.837  29.591  25.304  1.00  0.00     0.017 A 
ATOM     21  C   UNL A   1      34.183  29.465  26.828  1.00  0.00    -0.050 A 
ATOM     22  C   UNL A   1      35.368  29.333  27.740  1.00  0.00     0.044 C 
ATOM     23  C   UNL A   1      33.927  28.507  25.838  1.00  0.00     0.017 A 
ENDBRANCH  14  16
ENDBRANCH   9  14
ENDBRANCH   5   8
ENDBRANCH   3   4
ENDBRANCH   2   3
ENDBRANCH   1   2
BRANCH   1  24
ATOM     24  C   UNL A   1      36.275  21.964  25.729  1.00  0.00     0.116 C 
BRANCH  24  25
ATOM     25  N   UNL A   1      37.340  20.971  25.739  1.00  0.00    -0.352 N 
ATOM     26  C   UNL A   1      38.680  21.134  26.001  1.00  0.00     0.251 C 
ATOM     27  H   UNL A   1      37.060  20.051  25.528  1.00  0.00     0.163 HD
ATOM     28  O   UNL A   1      39.452  20.193  25.825  1.00  0.00    -0.269 OA
BRANCH  26  29
ATOM     29  C   UNL A   1      39.195  22.442  26.465  1.00  0.00     0.039 A 
ATOM     30  C   UNL A   1      40.303  22.466  27.316  1.00  0.00     0.014 A 
ATOM     31  C   UNL A   1      38.600  23.638  26.057  1.00  0.00     0.014 A 
ATOM     32  C   UNL A   1      40.856  23.690  27.700  1.00  0.00     0.010 A 
ATOM     33  C   UNL A   1      39.199  24.855  26.378  1.00  0.00     0.010 A 
ATOM     34  C   UNL A   1      40.334  24.897  27.203  1.00  0.00    -0.014 A 
BRANCH  34  35
ATOM     35  C   UNL A   1      40.971  26.203  27.517  1.00  0.00     0.031 A 
ATOM     36  C   UNL A   1      42.385  26.486  27.084  1.00  0.00     0.074 A 
ATOM     37  C   UNL A   1      40.304  27.107  28.265  1.00  0.00     0.049 A 
ATOM     38  N   UNL A   1      43.125  27.539  27.322  1.00  0.00    -0.248 NA
ATOM     39  C   UNL A   1      43.067  25.442  26.301  1.00  0.00     0.031 C 
ATOM     40  C   UNL A   1      38.957  26.926  28.811  1.00  0.00     0.029 A 
ATOM     41  N   UNL A   1      40.680  28.348  28.721  1.00  0.00    -0.354 N 
ATOM     42  C   UNL A   1      44.363  27.274  26.749  1.00  0.00     0.074 A 
ATOM     43  C   UNL A   1      44.287  25.946  26.179  1.00  0.00     0.031 C 
ATOM     44  C   UNL A   1      38.620  28.013  29.524  1.00  0.00     0.029 A 
ATOM     45  C   UNL A   1      39.735  28.953  29.518  1.00  0.00     0.049 A 
ATOM     46  H   UNL A   1      41.543  28.764  28.498  1.00  0.00     0.167 HD
ATOM     47  C   UNL A   1      45.455  28.072  26.674  1.00  0.00     0.034 A 
ATOM     48  C   UNL A   1      39.768  30.126  30.182  1.00  0.00     0.034 A 
ATOM     49  C   UNL A   1      45.517  29.406  27.208  1.00  0.00     0.049 A 
ATOM     50  C   UNL A   1      40.987  31.001  30.063  1.00  0.00     0.074 A 
ATOM     51  C   UNL A   1      46.553  30.320  27.116  1.00  0.00     0.029 A 
ATOM     52  N   UNL A   1      44.511  30.016  27.937  1.00  0.00    -0.354 N 
ATOM     53  N   UNL A   1      42.090  30.793  29.385  1.00  0.00    -0.248 NA
ATOM     54  C   UNL A   1      40.954  32.290  30.769  1.00  0.00     0.031 C 
ATOM     55  C   UNL A   1      46.183  31.473  27.813  1.00  0.00     0.029 A 
ATOM     56  C   UNL A   1      44.902  31.291  28.309  1.00  0.00     0.049 A 
ATOM     57  H   UNL A   1      43.644  29.604  28.159  1.00  0.00     0.167 HD
ATOM     58  C   UNL A   1      42.860  31.939  29.550  1.00  0.00     0.074 A 
ATOM     59  C   UNL A   1      42.089  32.847  30.373  1.00  0.00     0.031 C 
ATOM     60  C   UNL A   1      44.102  32.209  29.076  1.00  0.00     0.034 A 
BRANCH  47  61
ATOM     61  C   UNL A   1      46.661  27.549  25.938  1.00  0.00     0.023 A 
ATOM     62  C   UNL A   1      46.801  27.811  24.560  1.00  0.00     0.012 A 
ATOM     63  C   UNL A   1      47.693  26.876  26.622  1.00  0.00     0.148 A 
ATOM     64  C   UNL A   1      47.934  27.387  23.866  1.00  0.00     0.002 A 
ATOM     65  C   UNL A   1      48.840  26.498  25.933  1.00  0.00     0.091 A 
ATOM     66  F   UNL A   1      47.536  26.623  27.929  1.00  0.00    -0.205 F 
ATOM     67  C   UNL A   1      48.957  26.742  24.554  1.00  0.00     0.022 A 
BRANCH  65  68
ATOM     68  S   UNL A   1      50.252  25.733  26.739  1.00  0.00     0.127 S 
ATOM     69  O   UNL A   1      51.208  25.645  25.637  1.00  0.00    -0.237 OA
ATOM     70  O   UNL A   1      50.592  26.722  27.764  1.00  0.00    -0.237 OA
ATOM     71  O   UNL A   1      49.780  24.456  27.255  1.00  0.00    -0.744 OA
ENDBRANCH  65  68
ENDBRANCH  47  61
BRANCH  48  72
ATOM     72  C   UNL A   1      38.593  30.572  30.986  1.00  0.00     0.023 A 
ATOM     73  C   UNL A   1      38.485  30.179  32.334  1.00  0.00     0.012 A 
ATOM     74  C   UNL A   1      37.582  31.373  30.422  1.00  0.00     0.148 A 
ATOM     75  C   UNL A   1      37.369  30.535  33.092  1.00  0.00     0.002 A 
ATOM     76  C   UNL A   1      36.503  31.775  31.200  1.00  0.00     0.091 A 
ATOM     77  F   UNL A   1      37.696  31.729  29.134  1.00  0.00    -0.205 F 
ATOM     78  C   UNL A   1      36.383  31.339  32.528  1.00  0.00     0.022 A 
BRANCH  76  79
ATOM     79  S   UNL A   1      35.256  32.919  30.595  1.00  0.00     0.127 S 
ATOM     80  O   UNL A   1      34.318  32.956  31.714  1.00  0.00    -0.237 OA
ATOM     81  O   UNL A   1      36.036  34.142  30.402  1.00  0.00    -0.237 OA
ATOM     82  O   UNL A   1      34.753  32.329  29.362  1.00  0.00    -0.744 OA
ENDBRANCH  76  79
ENDBRANCH  48  72
BRANCH  60  83
ATOM     83  C   UNL A   1      44.691  33.561  29.386  1.00  0.00     0.023 A 
ATOM     84  C   UNL A   1      45.407  33.762  30.582  1.00  0.00     0.012 A 
ATOM     85  C   UNL A   1      44.595  34.614  28.453  1.00  0.00     0.148 A 
ATOM     86  C   UNL A   1      45.986  34.999  30.863  1.00  0.00     0.002 A 
ATOM     87  C   UNL A   1      45.219  35.826  28.715  1.00  0.00     0.091 A 
ATOM     88  F   UNL A   1      43.895  34.408  27.327  1.00  0.00    -0.205 F 
ATOM     89  C   UNL A   1      45.903  36.026  29.926  1.00  0.00     0.022 A 
BRANCH  87  90
ATOM     90  S   UNL A   1      45.250  37.172  27.526  1.00  0.00     0.127 S 
ATOM     91  O   UNL A   1      45.956  36.561  26.402  1.00  0.00    -0.237 OA
ATOM     92  O   UNL A   1      43.825  37.413  27.295  1.00  0.00    -0.237 OA
ATOM     93  O   UNL A   1      45.951  38.270  28.179  1.00  0.00    -0.744 OA
ENDBRANCH  87  90
ENDBRANCH  60  83
ENDBRANCH  34  35
ENDBRANCH  26  29
ENDBRANCH  24  25
ENDBRANCH   1  24
TORSDOF 16
ENDMDL
MODEL 3
REMARK VINA RESULT:     -12.3      5.945     12.147
REMARK SMILES Cc1cc(C)cc(C(=O)N2CC[C@H](C(=O)NCCCCNC(=O)c3ccc(-c4c5nc(c(-c6cccc(S(=O)(=O)[O-])c6F)c6ccc([nH]6)c(-c6cccc(S(=O)(=O)[O-])c6F)c6nc(c(-c7cccc(S(=O)(=O)[O-])c7F)c7ccc4[nH]7)C=C6)C=C5)cc3)[C@@H]2C)c1
REMARK SMILES IDX 19 1 18 2 17 3 16 4 14 5 15 6 13 8 10 9 11 10 87 11 12 12
REMARK SMILES IDX 88 13 8 14 9 15 7 16 1 17 2 18 3 19 89 20 4 21 5 22 6 23
REMARK SMILES IDX 20 24 21 25 22 26 23 28 24 29 25 30 86 31 26 32 85 33 27 34
REMARK SMILES IDX 28 35 29 36 79 37 30 38 84 39 78 40 80 41 31 42 83 43 77 44
REMARK SMILES IDX 76 45 32 47 64 48 44 49 63 50 45 51 48 52 62 53 81 54 46 55
REMARK SMILES IDX 47 56 61 58 82 59 49 60 33 61 34 62 42 63 35 64 37 65 43 66
REMARK SMILES IDX 36 67 38 68 39 69 40 70 41 71 65 72 66 73 74 74 67 75 69 76
REMARK SMILES IDX 75 77 68 78 70 79 71 80 72 81 73 82 50 83 51 84 59 85 52 86
REMARK SMILES IDX 54 87 60 88 53 89 55 90 56 91 57 92 58 93
REMARK H PARENT 16 7 21 27 80 46 48 57
REMARK Flexibility Score: inf
ROOT
ATOM      1  C   UNL A   1      38.147  20.086  24.999  1.00  0.00     0.023 C 
ENDROOT
BRANCH   1   2
ATOM      2  C   UNL A   1      37.233  21.280  24.720  1.00  0.00     0.023 C 
BRANCH   2   3
ATOM      3  C   UNL A   1      36.171  21.546  25.782  1.00  0.00     0.116 C 
BRANCH   3   4
ATOM      4  N   UNL A   1      34.966  20.767  25.566  1.00  0.00    -0.356 N 
ATOM      5  C   UNL A   1      33.729  21.147  25.144  1.00  0.00     0.225 C 
ATOM      6  O   UNL A   1      32.884  20.270  24.963  1.00  0.00    -0.275 OA
ATOM      7  H   UNL A   1      35.058  19.806  25.756  1.00  0.00     0.163 HD
BRANCH   5   8
ATOM      8  C   UNL A   1      33.420  22.616  24.916  1.00  0.00     0.102 C 
ATOM      9  N   UNL A   1      31.528  23.812  25.737  1.00  0.00    -0.335 N 
ATOM     10  C   UNL A   1      31.056  22.982  24.652  1.00  0.00     0.121 C 
ATOM     11  C   UNL A   1      32.871  23.374  26.154  1.00  0.00     0.094 C 
ATOM     12  C   UNL A   1      32.319  22.763  23.847  1.00  0.00     0.037 C 
ATOM     13  C   UNL A   1      32.789  22.563  27.448  1.00  0.00     0.032 C 
BRANCH   9  14
ATOM     14  C   UNL A   1      30.674  24.751  26.284  1.00  0.00     0.254 C 
ATOM     15  O   UNL A   1      29.714  24.416  26.979  1.00  0.00    -0.269 OA
BRANCH  14  16
ATOM     16  C   UNL A   1      30.786  26.190  25.912  1.00  0.00     0.040 A 
ATOM     17  C   UNL A   1      32.545  29.377  27.043  1.00  0.00     0.044 C 
ATOM     18  C   UNL A   1      31.764  28.402  26.214  1.00  0.00    -0.050 A 
ATOM     19  C   UNL A   1      31.316  28.767  24.938  1.00  0.00     0.006 A 
ATOM     20  C   UNL A   1      31.529  27.100  26.674  1.00  0.00     0.017 A 
ATOM     21  C   UNL A   1      30.621  27.855  24.134  1.00  0.00    -0.050 A 
ATOM     22  C   UNL A   1      30.257  28.225  22.727  1.00  0.00     0.044 C 
ATOM     23  C   UNL A   1      30.341  26.578  24.639  1.00  0.00     0.017 A 
ENDBRANCH  14  16
ENDBRANCH   9  14
ENDBRANCH   5   8
ENDBRANCH   3   4
ENDBRANCH   2   3
ENDBRANCH   1   2
BRANCH   1  24
ATOM     24  C   UNL A   1      39.309  20.353  25.951  1.00  0.00     0.116 C 
BRANCH  24  25
ATOM     25  N   UNL A   1      40.274  19.264  25.990  1.00  0.00    -0.352 N 
ATOM     26  C   UNL A   1      41.640  19.316  26.140  1.00  0.00     0.251 C 
ATOM     27  H   UNL A   1      39.894  18.361  25.896  1.00  0.00     0.163 HD
ATOM     28  O   UNL A   1      42.304  18.290  26.009  1.00  0.00    -0.269 OA
BRANCH  26  29
ATOM     29  C   UNL A   1      42.310  20.603  26.430  1.00  0.00     0.039 A 
ATOM     30  C   UNL A   1      42.747  21.391  25.361  1.00  0.00     0.014 A 
ATOM     31  C   UNL A   1      42.499  21.040  27.743  1.00  0.00     0.014 A 
ATOM     32  C   UNL A   1      43.309  22.646  25.609  1.00  0.00     0.010 A 
ATOM     33  C   UNL A   1      42.987  22.323  27.984  1.00  0.00     0.010 A 
ATOM     34  C   UNL A   1      43.398  23.142  26.921  1.00  0.00    -0.014 A 
BRANCH  34  35
ATOM     35  C   UNL A   1      43.896  24.515  27.196  1.00  0.00     0.031 A 
ATOM     36  C   UNL A   1      42.962  25.578  27.713  1.00  0.00     0.074 A 
ATOM     37  C   UNL A   1      45.175  24.832  26.904  1.00  0.00     0.049 A 
ATOM     38  N   UNL A   1      43.200  26.842  27.950  1.00  0.00    -0.248 NA
ATOM     39  C   UNL A   1      41.571  25.173  27.978  1.00  0.00     0.031 C 
ATOM     40  C   UNL A   1      46.164  23.916  26.328  1.00  0.00     0.029 A 
ATOM     41  N   UNL A   1      45.856  26.019  27.022  1.00  0.00    -0.354 N 
ATOM     42  C   UNL A   1      41.991  27.390  28.359  1.00  0.00     0.074 A 
ATOM     43  C   UNL A   1      41.009  26.328  28.307  1.00  0.00     0.031 C 
ATOM     44  C   UNL A   1      47.320  24.573  26.147  1.00  0.00     0.029 A 
ATOM     45  C   UNL A   1      47.150  25.963  26.557  1.00  0.00     0.049 A 
ATOM     46  H   UNL A   1      45.456  26.833  27.404  1.00  0.00     0.167 HD
ATOM     47  C   UNL A   1      41.724  28.652  28.771  1.00  0.00     0.034 A 
ATOM     48  C   UNL A   1      48.090  26.925  26.457  1.00  0.00     0.034 A 
ATOM     49  C   UNL A   1      42.708  29.697  28.858  1.00  0.00     0.049 A 
ATOM     50  C   UNL A   1      47.771  28.314  26.942  1.00  0.00     0.074 A 
ATOM     51  C   UNL A   1      42.551  30.987  29.335  1.00  0.00     0.029 A 
ATOM     52  N   UNL A   1      44.028  29.580  28.455  1.00  0.00    -0.354 N 
ATOM     53  N   UNL A   1      46.660  28.769  27.470  1.00  0.00    -0.248 NA
ATOM     54  C   UNL A   1      48.845  29.313  26.853  1.00  0.00     0.031 C 
ATOM     55  C   UNL A   1      43.769  31.658  29.195  1.00  0.00     0.029 A 
ATOM     56  C   UNL A   1      44.695  30.775  28.665  1.00  0.00     0.049 A 
ATOM     57  H   UNL A   1      44.433  28.766  28.076  1.00  0.00     0.167 HD
ATOM     58  C   UNL A   1      46.917  30.092  27.812  1.00  0.00     0.074 A 
ATOM     59  C   UNL A   1      48.294  30.358  27.453  1.00  0.00     0.031 C 
ATOM     60  C   UNL A   1      46.082  31.010  28.360  1.00  0.00     0.034 A 
BRANCH  47  61
ATOM     61  C   UNL A   1      40.320  28.966  29.217  1.00  0.00     0.023 A 
ATOM     62  C   UNL A   1      39.347  29.311  28.258  1.00  0.00     0.012 A 
ATOM     63  C   UNL A   1      39.943  28.839  30.569  1.00  0.00     0.148 A 
ATOM     64  C   UNL A   1      38.027  29.553  28.638  1.00  0.00     0.002 A 
ATOM     65  C   UNL A   1      38.616  29.037  30.934  1.00  0.00     0.091 A 
ATOM     66  F   UNL A   1      40.885  28.526  31.470  1.00  0.00    -0.205 F 
ATOM     67  C   UNL A   1      37.660  29.404  29.972  1.00  0.00     0.022 A 
BRANCH  65  68
ATOM     68  S   UNL A   1      38.020  28.792  32.611  1.00  0.00     0.127 S 
ATOM     69  O   UNL A   1      36.646  29.284  32.510  1.00  0.00    -0.237 OA
ATOM     70  O   UNL A   1      38.138  27.342  32.769  1.00  0.00    -0.237 OA
ATOM     71  O   UNL A   1      38.898  29.573  33.470  1.00  0.00    -0.744 OA
ENDBRANCH  65  68
ENDBRANCH  47  61
BRANCH  48  72
ATOM     72  C   UNL A   1      49.443  26.605  25.916  1.00  0.00     0.023 A 
ATOM     73  C   UNL A   1      50.347  25.862  26.701  1.00  0.00     0.012 A 
ATOM     74  C   UNL A   1      49.841  27.036  24.637  1.00  0.00     0.148 A 
ATOM     75  C   UNL A   1      51.637  25.597  26.242  1.00  0.00     0.002 A 
ATOM     76  C   UNL A   1      51.107  26.717  24.160  1.00  0.00     0.091 A 
ATOM     77  F   UNL A   1      48.971  27.752  23.908  1.00  0.00    -0.205 F 
ATOM     78  C   UNL A   1      52.014  26.016  24.969  1.00  0.00     0.022 A 
BRANCH  76  79
ATOM     79  S   UNL A   1      51.627  27.101  22.484  1.00  0.00     0.127 S 
ATOM     80  O   UNL A   1      52.779  26.218  22.320  1.00  0.00    -0.237 OA
ATOM     81  O   UNL A   1      50.446  26.727  21.707  1.00  0.00    -0.237 OA
ATOM     82  O   UNL A   1      51.916  28.529  22.485  1.00  0.00    -0.744 OA
ENDBRANCH  76  79
ENDBRANCH  48  72
BRANCH  60  83
ATOM     83  C   UNL A   1      46.642  32.377  28.659  1.00  0.00     0.023 A 
ATOM     84  C   UNL A   1      47.262  32.630  29.899  1.00  0.00     0.012 A 
ATOM     85  C   UNL A   1      46.619  33.389  27.679  1.00  0.00     0.148 A 
ATOM     86  C   UNL A   1      47.815  33.880  30.173  1.00  0.00     0.002 A 
ATOM     87  C   UNL A   1      47.218  34.615  27.938  1.00  0.00     0.091 A 
ATOM     88  F   UNL A   1      46.010  33.134  26.511  1.00  0.00    -0.205 F 
ATOM     89  C   UNL A   1      47.804  34.867  29.190  1.00  0.00     0.022 A 
BRANCH  87  90
ATOM     90  S   UNL A   1      47.340  35.910  26.701  1.00  0.00     0.127 S 
ATOM     91  O   UNL A   1      48.347  36.791  27.290  1.00  0.00    -0.237 OA
ATOM     92  O   UNL A   1      47.791  35.171  25.522  1.00  0.00    -0.237 OA
ATOM     93  O   UNL A   1      46.005  36.481  26.583  1.00  0.00    -0.744 OA
ENDBRANCH  87  90
ENDBRANCH  60  83
ENDBRANCH  34  35
ENDBRANCH  26  29
ENDBRANCH  24  25
ENDBRANCH   1  24
TORSDOF 16
ENDMDL
