MODEL 1
REMARK VINA RESULT:     -12.6      0.000      0.000
REMARK SMILES Cc1ccc(S(=O)(=O)n2cc(C(=O)C(=O)N[C@@H](Cc3cnc[nH]3)C(=O)NCCCCNC(=O)c3ccc(-c4c5nc(c(-c6cccc(S(=O)(=O)[O-])c6F)c6ccc([nH]6)c(-c6cccc(S(=O)(=O)[O-])c6F)c6nc(c(-c7cccc(S(=O)(=O)[O-])c7F)c7ccc4[nH]7)C=C6)C=C5)cc3)c3ccccc32)cc1
REMARK SMILES IDX 27 1 26 2 24 3 25 4 17 6 16 7 14 8 15 9 12 11 13 12 11 13
REMARK SMILES IDX 9 14 10 15 102 16 97 17 101 18 98 19 100 20 99 21 6 22 7 23
REMARK SMILES IDX 8 24 5 25 1 26 2 27 3 28 104 29 4 30 103 31 18 32 19 33
REMARK SMILES IDX 20 34 23 35 21 36 22 37 28 39 29 40 30 41 31 42 32 43 33 45
REMARK SMILES IDX 34 46 35 47 96 48 36 49 95 50 37 51 38 52 39 53 89 54 40 55
REMARK SMILES IDX 94 56 88 57 90 58 41 59 93 60 87 61 86 62 42 64 74 65 54 66
REMARK SMILES IDX 73 67 55 68 58 69 72 70 91 71 56 72 57 73 71 75 92 76 59 77
REMARK SMILES IDX 43 78 44 79 52 80 45 81 47 82 53 83 46 84 48 85 49 86 50 87
REMARK SMILES IDX 51 88 75 89 76 90 84 91 77 92 79 93 85 94 78 95 80 96 81 97
REMARK SMILES IDX 82 98 83 99 60 100 61 101 69 102 62 103 64 104 70 105 63 106
REMARK SMILES IDX 65 107 66 108 67 109 68 110
REMARK H PARENT 26 5 16 10 23 38 31 44 90 63 58 74
REMARK Flexibility Score: inf
ROOT
ATOM      1  C   UNL A   1      33.289  29.713  27.184  1.00  0.00     0.116 C 
ENDROOT
BRANCH   1   2
ATOM      2  N   UNL A   1      32.505  30.494  26.249  1.00  0.00    -0.354 N 
ATOM      3  C   UNL A   1      31.649  30.059  25.275  1.00  0.00     0.242 C 
ATOM      4  O   UNL A   1      30.735  30.826  24.951  1.00  0.00    -0.273 OA
ATOM      5  H   UNL A   1      32.600  31.471  26.326  1.00  0.00     0.163 HD
BRANCH   3   6
ATOM      6  C   UNL A   1      31.732  28.647  24.638  1.00  0.00     0.177 C 
BRANCH   6   7
ATOM      7  N   UNL A   1      31.041  27.622  25.436  1.00  0.00    -0.337 N 
ATOM      8  C   UNL A   1      31.512  26.535  26.127  1.00  0.00     0.293 C 
ATOM      9  O   UNL A   1      30.755  25.984  26.921  1.00  0.00    -0.265 OA
ATOM     10  H   UNL A   1      30.064  27.737  25.484  1.00  0.00     0.164 HD
BRANCH   8  11
ATOM     11  C   UNL A   1      32.931  25.978  25.879  1.00  0.00     0.252 C 
ATOM     12  O   UNL A   1      33.893  26.595  26.326  1.00  0.00    -0.283 OA
BRANCH  11  13
ATOM     13  C   UNL A   1      33.161  24.774  25.073  1.00  0.00     0.054 A 
ATOM     14  N   UNL A   1      32.909  23.044  23.690  1.00  0.00    -0.240 N 
ATOM     15  C   UNL A   1      32.237  24.029  24.364  1.00  0.00     0.117 A 
ATOM     16  C   UNL A   1      34.262  23.091  23.951  1.00  0.00     0.065 A 
ATOM     17  C   UNL A   1      34.439  24.148  24.851  1.00  0.00     0.012 A 
ATOM     18  C   UNL A   1      35.344  22.306  23.512  1.00  0.00     0.028 A 
ATOM     19  C   UNL A   1      35.739  24.409  25.339  1.00  0.00     0.011 A 
ATOM     20  C   UNL A   1      36.615  22.584  24.023  1.00  0.00     0.002 A 
ATOM     21  C   UNL A   1      36.813  23.619  24.928  1.00  0.00     0.001 A 
BRANCH  14  22
ATOM     22  S   UNL A   1      32.143  21.889  22.704  1.00  0.00     0.268 S 
ATOM     23  O   UNL A   1      32.848  21.936  21.441  1.00  0.00    -0.201 OA
ATOM     24  O   UNL A   1      30.717  22.158  22.800  1.00  0.00    -0.201 OA
BRANCH  22  25
ATOM     25  C   UNL A   1      32.418  20.290  23.415  1.00  0.00     0.088 A 
ATOM     26  C   UNL A   1      32.775  16.510  25.430  1.00  0.00     0.044 C 
ATOM     27  C   UNL A   1      32.678  17.826  24.717  1.00  0.00    -0.051 A 
ATOM     28  C   UNL A   1      32.744  19.019  25.447  1.00  0.00     0.005 A 
ATOM     29  C   UNL A   1      32.520  17.881  23.327  1.00  0.00     0.005 A 
ATOM     30  C   UNL A   1      32.610  20.248  24.801  1.00  0.00     0.022 A 
ATOM     31  C   UNL A   1      32.404  19.110  22.670  1.00  0.00     0.022 A 
ENDBRANCH  22  25
ENDBRANCH  14  22
ENDBRANCH  11  13
ENDBRANCH   8  11
ENDBRANCH   6   7
BRANCH   6  32
ATOM     32  C   UNL A   1      31.396  28.591  23.131  1.00  0.00     0.090 C 
BRANCH  32  33
ATOM     33  C   UNL A   1      32.166  27.576  22.365  1.00  0.00     0.037 A 
ATOM     34  C   UNL A   1      33.507  27.253  22.353  1.00  0.00     0.134 A 
ATOM     35  N   UNL A   1      31.585  26.679  21.498  1.00  0.00    -0.348 N 
ATOM     36  N   UNL A   1      33.713  26.088  21.671  1.00  0.00    -0.245 NA
ATOM     37  C   UNL A   1      32.537  25.749  21.197  1.00  0.00     0.196 A 
ATOM     38  H   UNL A   1      30.660  26.705  21.160  1.00  0.00     0.167 HD
ENDBRANCH  32  33
ENDBRANCH   6  32
ENDBRANCH   3   6
ENDBRANCH   1   2
BRANCH   1  39
ATOM     39  C   UNL A   1      34.798  29.956  27.158  1.00  0.00     0.023 C 
BRANCH  39  40
ATOM     40  C   UNL A   1      35.288  31.276  27.756  1.00  0.00     0.023 C 
BRANCH  40  41
ATOM     41  C   UNL A   1      34.396  31.797  28.863  1.00  0.00     0.116 C 
BRANCH  41  42
ATOM     42  N   UNL A   1      34.197  33.224  28.899  1.00  0.00    -0.352 N 
ATOM     43  C   UNL A   1      34.814  34.157  29.715  1.00  0.00     0.251 C 
ATOM     44  H   UNL A   1      33.537  33.581  28.262  1.00  0.00     0.163 HD
ATOM     45  O   UNL A   1      34.224  35.221  29.889  1.00  0.00    -0.269 OA
BRANCH  43  46
ATOM     46  C   UNL A   1      36.196  33.950  30.249  1.00  0.00     0.039 A 
ATOM     47  C   UNL A   1      37.290  34.216  29.408  1.00  0.00     0.014 A 
ATOM     48  C   UNL A   1      36.435  33.294  31.450  1.00  0.00     0.014 A 
ATOM     49  C   UNL A   1      38.520  33.596  29.638  1.00  0.00     0.010 A 
ATOM     50  C   UNL A   1      37.603  32.621  31.645  1.00  0.00     0.010 A 
ATOM     51  C   UNL A   1      38.600  32.695  30.683  1.00  0.00    -0.014 A 
BRANCH  51  52
ATOM     52  C   UNL A   1      39.658  31.752  30.948  1.00  0.00     0.031 A 
ATOM     53  C   UNL A   1      39.705  30.521  30.157  1.00  0.00     0.074 A 
ATOM     54  C   UNL A   1      40.727  32.278  31.589  1.00  0.00     0.049 A 
ATOM     55  N   UNL A   1      40.350  29.473  30.514  1.00  0.00    -0.248 NA
ATOM     56  C   UNL A   1      39.010  30.386  28.877  1.00  0.00     0.031 C 
ATOM     57  C   UNL A   1      42.122  31.879  31.517  1.00  0.00     0.029 A 
ATOM     58  N   UNL A   1      40.721  33.311  32.537  1.00  0.00    -0.354 N 
ATOM     59  C   UNL A   1      40.422  28.667  29.399  1.00  0.00     0.074 A 
ATOM     60  C   UNL A   1      39.461  29.199  28.461  1.00  0.00     0.031 C 
ATOM     61  C   UNL A   1      42.784  32.443  32.545  1.00  0.00     0.029 A 
ATOM     62  C   UNL A   1      41.787  33.061  33.411  1.00  0.00     0.049 A 
ATOM     63  H   UNL A   1      40.090  34.066  32.580  1.00  0.00     0.167 HD
ATOM     64  C   UNL A   1      41.456  27.792  29.282  1.00  0.00     0.034 A 
ATOM     65  C   UNL A   1      41.599  32.779  34.736  1.00  0.00     0.034 A 
ATOM     66  C   UNL A   1      42.401  27.990  30.389  1.00  0.00     0.049 A 
ATOM     67  C   UNL A   1      42.035  31.364  35.069  1.00  0.00     0.074 A 
ATOM     68  C   UNL A   1      43.564  28.740  30.482  1.00  0.00     0.029 A 
ATOM     69  N   UNL A   1      42.015  27.703  31.692  1.00  0.00    -0.354 N 
ATOM     70  N   UNL A   1      42.330  30.465  34.172  1.00  0.00    -0.248 NA
ATOM     71  C   UNL A   1      42.161  30.847  36.426  1.00  0.00     0.031 C 
ATOM     72  C   UNL A   1      43.854  28.934  31.857  1.00  0.00     0.029 A 
ATOM     73  C   UNL A   1      42.881  28.290  32.602  1.00  0.00     0.049 A 
ATOM     74  H   UNL A   1      41.233  27.157  31.935  1.00  0.00     0.167 HD
ATOM     75  C   UNL A   1      42.546  29.253  34.770  1.00  0.00     0.074 A 
ATOM     76  C   UNL A   1      42.503  29.567  36.189  1.00  0.00     0.031 C 
ATOM     77  C   UNL A   1      42.684  28.104  34.037  1.00  0.00     0.034 A 
BRANCH  64  78
ATOM     78  C   UNL A   1      41.813  27.060  28.007  1.00  0.00     0.023 A 
ATOM     79  C   UNL A   1      41.887  27.825  26.822  1.00  0.00     0.012 A 
ATOM     80  C   UNL A   1      42.082  25.676  27.881  1.00  0.00     0.148 A 
ATOM     81  C   UNL A   1      42.128  27.254  25.571  1.00  0.00     0.002 A 
ATOM     82  C   UNL A   1      42.271  25.095  26.621  1.00  0.00     0.091 A 
ATOM     83  F   UNL A   1      42.216  24.926  28.982  1.00  0.00    -0.205 F 
ATOM     84  C   UNL A   1      42.293  25.884  25.465  1.00  0.00     0.022 A 
BRANCH  82  85
ATOM     85  S   UNL A   1      42.411  23.316  26.375  1.00  0.00     0.127 S 
ATOM     86  O   UNL A   1      42.704  23.222  24.942  1.00  0.00    -0.237 OA
ATOM     87  O   UNL A   1      43.530  22.963  27.244  1.00  0.00    -0.237 OA
ATOM     88  O   UNL A   1      41.116  22.758  26.747  1.00  0.00    -0.744 OA
ENDBRANCH  82  85
ENDBRANCH  64  78
BRANCH  65  89
ATOM     89  C   UNL A   1      40.406  33.467  35.330  1.00  0.00     0.023 A 
ATOM     90  C   UNL A   1      39.174  32.777  35.273  1.00  0.00     0.012 A 
ATOM     91  C   UNL A   1      40.571  34.470  36.302  1.00  0.00     0.148 A 
ATOM     92  C   UNL A   1      38.221  32.933  36.285  1.00  0.00     0.002 A 
ATOM     93  C   UNL A   1      39.619  34.615  37.312  1.00  0.00     0.091 A 
ATOM     94  F   UNL A   1      41.701  35.188  36.293  1.00  0.00    -0.205 F 
ATOM     95  C   UNL A   1      38.472  33.807  37.336  1.00  0.00     0.022 A 
BRANCH  93  96
ATOM     96  S   UNL A   1      39.898  35.732  38.691  1.00  0.00     0.127 S 
ATOM     97  O   UNL A   1      39.429  37.000  38.144  1.00  0.00    -0.237 OA
ATOM     98  O   UNL A   1      39.054  35.168  39.742  1.00  0.00    -0.237 OA
ATOM     99  O   UNL A   1      41.325  35.632  38.959  1.00  0.00    -0.744 OA
ENDBRANCH  93  96
ENDBRANCH  65  89
BRANCH  77 100
ATOM    100  C   UNL A   1      42.653  26.687  34.586  1.00  0.00     0.023 A 
ATOM    101  C   UNL A   1      41.548  26.172  35.286  1.00  0.00     0.012 A 
ATOM    102  C   UNL A   1      43.696  25.766  34.292  1.00  0.00     0.148 A 
ATOM    103  C   UNL A   1      41.502  24.845  35.729  1.00  0.00     0.002 A 
ATOM    104  C   UNL A   1      43.584  24.418  34.613  1.00  0.00     0.091 A 
ATOM    105  F   UNL A   1      44.833  26.192  33.721  1.00  0.00    -0.205 F 
ATOM    106  C   UNL A   1      42.507  23.961  35.369  1.00  0.00     0.022 A 
BRANCH 104 107
ATOM    107  S   UNL A   1      44.723  23.201  33.938  1.00  0.00     0.127 S 
ATOM    108  O   UNL A   1      44.241  21.966  34.554  1.00  0.00    -0.237 OA
ATOM    109  O   UNL A   1      44.472  23.305  32.500  1.00  0.00    -0.237 OA
ATOM    110  O   UNL A   1      46.048  23.647  34.346  1.00  0.00    -0.744 OA
ENDBRANCH 104 107
ENDBRANCH  77 100
ENDBRANCH  51  52
ENDBRANCH  43  46
ENDBRANCH  41  42
ENDBRANCH  40  41
ENDBRANCH  39  40
ENDBRANCH   1  39
TORSDOF 21
ENDMDL
MODEL 2
REMARK VINA RESULT:     -12.0      1.556      2.509
REMARK SMILES Cc1ccc(S(=O)(=O)n2cc(C(=O)C(=O)N[C@@H](Cc3cnc[nH]3)C(=O)NCCCCNC(=O)c3ccc(-c4c5nc(c(-c6cccc(S(=O)(=O)[O-])c6F)c6ccc([nH]6)c(-c6cccc(S(=O)(=O)[O-])c6F)c6nc(c(-c7cccc(S(=O)(=O)[O-])c7F)c7ccc4[nH]7)C=C6)C=C5)cc3)c3ccccc32)cc1
REMARK SMILES IDX 27 1 26 2 24 3 25 4 17 6 16 7 14 8 15 9 12 11 13 12 11 13
REMARK SMILES IDX 9 14 10 15 102 16 97 17 101 18 98 19 100 20 99 21 6 22 7 23
REMARK SMILES IDX 8 24 5 25 1 26 2 27 3 28 104 29 4 30 103 31 18 32 19 33
REMARK SMILES IDX 20 34 23 35 21 36 22 37 28 39 29 40 30 41 31 42 32 43 33 45
REMARK SMILES IDX 34 46 35 47 96 48 36 49 95 50 37 51 38 52 39 53 89 54 40 55
REMARK SMILES IDX 94 56 88 57 90 58 41 59 93 60 87 61 86 62 42 64 74 65 54 66
REMARK SMILES IDX 73 67 55 68 58 69 72 70 91 71 56 72 57 73 71 75 92 76 59 77
REMARK SMILES IDX 43 78 44 79 52 80 45 81 47 82 53 83 46 84 48 85 49 86 50 87
REMARK SMILES IDX 51 88 75 89 76 90 84 91 77 92 79 93 85 94 78 95 80 96 81 97
REMARK SMILES IDX 82 98 83 99 60 100 61 101 69 102 62 103 64 104 70 105 63 106
REMARK SMILES IDX 65 107 66 108 67 109 68 110
REMARK H PARENT 26 5 16 10 23 38 31 44 90 63 58 74
REMARK Flexibility Score: inf
ROOT
ATOM      1  C   UNL A   1      33.341  29.901  27.224  1.00  0.00     0.116 C 
ENDROOT
BRANCH   1   2
ATOM      2  N   UNL A   1      32.544  30.857  26.481  1.00  0.00    -0.354 N 
ATOM      3  C   UNL A   1      31.459  30.629  25.680  1.00  0.00     0.242 C 
ATOM      4  O   UNL A   1      30.648  31.555  25.562  1.00  0.00    -0.273 OA
ATOM      5  H   UNL A   1      32.820  31.798  26.566  1.00  0.00     0.163 HD
BRANCH   3   6
ATOM      6  C   UNL A   1      31.175  29.264  25.000  1.00  0.00     0.177 C 
BRANCH   6   7
ATOM      7  N   UNL A   1      30.674  29.407  23.624  1.00  0.00    -0.337 N 
ATOM      8  C   UNL A   1      29.707  28.724  22.932  1.00  0.00     0.293 C 
ATOM      9  O   UNL A   1      29.303  29.207  21.879  1.00  0.00    -0.265 OA
ATOM     10  H   UNL A   1      31.111  30.122  23.107  1.00  0.00     0.164 HD
BRANCH   8  11
ATOM     11  C   UNL A   1      29.177  27.359  23.425  1.00  0.00     0.252 C 
ATOM     12  O   UNL A   1      27.972  27.228  23.614  1.00  0.00    -0.283 OA
BRANCH  11  13
ATOM     13  C   UNL A   1      30.079  26.243  23.733  1.00  0.00     0.054 A 
ATOM     14  N   UNL A   1      31.085  24.514  24.715  1.00  0.00    -0.240 N 
ATOM     15  C   UNL A   1      30.168  25.513  24.904  1.00  0.00     0.117 A 
ATOM     16  C   UNL A   1      31.637  24.571  23.454  1.00  0.00     0.065 A 
ATOM     17  C   UNL A   1      31.046  25.677  22.831  1.00  0.00     0.012 A 
ATOM     18  C   UNL A   1      32.604  23.785  22.802  1.00  0.00     0.028 A 
ATOM     19  C   UNL A   1      31.458  26.013  21.522  1.00  0.00     0.011 A 
ATOM     20  C   UNL A   1      32.996  24.152  21.511  1.00  0.00     0.002 A 
ATOM     21  C   UNL A   1      32.436  25.255  20.878  1.00  0.00     0.001 A 
BRANCH  14  22
ATOM     22  S   UNL A   1      31.511  23.390  25.919  1.00  0.00     0.268 S 
ATOM     23  O   UNL A   1      30.966  22.126  25.472  1.00  0.00    -0.201 OA
ATOM     24  O   UNL A   1      31.124  23.990  27.187  1.00  0.00    -0.201 OA
BRANCH  22  25
ATOM     25  C   UNL A   1      33.276  23.241  25.932  1.00  0.00     0.088 A 
ATOM     26  C   UNL A   1      37.518  22.624  25.613  1.00  0.00     0.044 C 
ATOM     27  C   UNL A   1      36.041  22.846  25.753  1.00  0.00    -0.051 A 
ATOM     28  C   UNL A   1      35.172  21.748  25.769  1.00  0.00     0.005 A 
ATOM     29  C   UNL A   1      35.514  24.138  25.867  1.00  0.00     0.005 A 
ATOM     30  C   UNL A   1      33.793  21.943  25.854  1.00  0.00     0.022 A 
ATOM     31  C   UNL A   1      34.136  24.340  25.971  1.00  0.00     0.022 A 
ENDBRANCH  22  25
ENDBRANCH  14  22
ENDBRANCH  11  13
ENDBRANCH   8  11
ENDBRANCH   6   7
BRANCH   6  32
ATOM     32  C   UNL A   1      32.301  28.217  25.145  1.00  0.00     0.090 C 
BRANCH  32  33
ATOM     33  C   UNL A   1      33.262  28.183  24.011  1.00  0.00     0.037 A 
ATOM     34  C   UNL A   1      34.121  27.202  23.561  1.00  0.00     0.134 A 
ATOM     35  N   UNL A   1      33.417  29.218  23.118  1.00  0.00    -0.348 N 
ATOM     36  N   UNL A   1      34.629  27.535  22.337  1.00  0.00    -0.245 NA
ATOM     37  C   UNL A   1      34.163  28.736  22.081  1.00  0.00     0.196 A 
ATOM     38  H   UNL A   1      33.058  30.131  23.209  1.00  0.00     0.167 HD
ENDBRANCH  32  33
ENDBRANCH   6  32
ENDBRANCH   3   6
ENDBRANCH   1   2
BRANCH   1  39
ATOM     39  C   UNL A   1      34.835  30.206  27.320  1.00  0.00     0.023 C 
BRANCH  39  40
ATOM     40  C   UNL A   1      35.219  31.572  27.891  1.00  0.00     0.023 C 
BRANCH  40  41
ATOM     41  C   UNL A   1      34.364  31.987  29.069  1.00  0.00     0.116 C 
BRANCH  41  42
ATOM     42  N   UNL A   1      34.136  33.402  29.220  1.00  0.00    -0.352 N 
ATOM     43  C   UNL A   1      34.748  34.282  30.098  1.00  0.00     0.251 C 
ATOM     44  H   UNL A   1      33.457  33.794  28.624  1.00  0.00     0.163 HD
ATOM     45  O   UNL A   1      34.139  35.316  30.364  1.00  0.00    -0.269 OA
BRANCH  43  46
ATOM     46  C   UNL A   1      36.143  34.064  30.592  1.00  0.00     0.039 A 
ATOM     47  C   UNL A   1      37.215  34.336  29.725  1.00  0.00     0.014 A 
ATOM     48  C   UNL A   1      36.412  33.393  31.778  1.00  0.00     0.014 A 
ATOM     49  C   UNL A   1      38.448  33.709  29.914  1.00  0.00     0.010 A 
ATOM     50  C   UNL A   1      37.582  32.714  31.934  1.00  0.00     0.010 A 
ATOM     51  C   UNL A   1      38.553  32.795  30.946  1.00  0.00    -0.014 A 
BRANCH  51  52
ATOM     52  C   UNL A   1      39.614  31.845  31.171  1.00  0.00     0.031 A 
ATOM     53  C   UNL A   1      39.656  30.642  30.340  1.00  0.00     0.074 A 
ATOM     54  C   UNL A   1      40.688  32.351  31.821  1.00  0.00     0.049 A 
ATOM     55  N   UNL A   1      40.306  29.583  30.657  1.00  0.00    -0.248 NA
ATOM     56  C   UNL A   1      38.952  30.548  29.061  1.00  0.00     0.031 C 
ATOM     57  C   UNL A   1      42.082  31.958  31.725  1.00  0.00     0.029 A 
ATOM     58  N   UNL A   1      40.688  33.352  32.803  1.00  0.00    -0.354 N 
ATOM     59  C   UNL A   1      40.370  28.815  29.514  1.00  0.00     0.074 A 
ATOM     60  C   UNL A   1      39.402  29.377  28.602  1.00  0.00     0.031 C 
ATOM     61  C   UNL A   1      42.752  32.488  32.766  1.00  0.00     0.029 A 
ATOM     62  C   UNL A   1      41.761  33.075  33.660  1.00  0.00     0.049 A 
ATOM     63  H   UNL A   1      40.056  34.104  32.876  1.00  0.00     0.167 HD
ATOM     64  C   UNL A   1      41.404  27.946  29.361  1.00  0.00     0.034 A 
ATOM     65  C   UNL A   1      41.583  32.749  34.977  1.00  0.00     0.034 A 
ATOM     66  C   UNL A   1      42.357  28.109  30.467  1.00  0.00     0.049 A 
ATOM     67  C   UNL A   1      42.023  31.324  35.259  1.00  0.00     0.074 A 
ATOM     68  C   UNL A   1      43.521  28.856  30.576  1.00  0.00     0.029 A 
ATOM     69  N   UNL A   1      41.982  27.778  31.761  1.00  0.00    -0.354 N 
ATOM     70  N   UNL A   1      42.313  30.456  34.330  1.00  0.00    -0.248 NA
ATOM     71  C   UNL A   1      42.161  30.762  36.597  1.00  0.00     0.031 C 
ATOM     72  C   UNL A   1      43.821  29.005  31.954  1.00  0.00     0.029 A 
ATOM     73  C   UNL A   1      42.854  28.336  32.684  1.00  0.00     0.049 A 
ATOM     74  H   UNL A   1      41.202  27.223  31.993  1.00  0.00     0.167 HD
ATOM     75  C   UNL A   1      42.535  29.225  34.886  1.00  0.00     0.074 A 
ATOM     76  C   UNL A   1      42.502  29.492  36.315  1.00  0.00     0.031 C 
ATOM     77  C   UNL A   1      42.669  28.101  34.113  1.00  0.00     0.034 A 
BRANCH  64  78
ATOM     78  C   UNL A   1      41.753  27.257  28.059  1.00  0.00     0.023 A 
ATOM     79  C   UNL A   1      41.777  28.054  26.893  1.00  0.00     0.012 A 
ATOM     80  C   UNL A   1      42.057  25.885  27.891  1.00  0.00     0.148 A 
ATOM     81  C   UNL A   1      42.005  27.523  25.623  1.00  0.00     0.002 A 
ATOM     82  C   UNL A   1      42.233  25.343  26.612  1.00  0.00     0.091 A 
ATOM     83  F   UNL A   1      42.238  25.112  28.969  1.00  0.00    -0.205 F 
ATOM     84  C   UNL A   1      42.206  26.161  25.477  1.00  0.00     0.022 A 
BRANCH  82  85
ATOM     85  S   UNL A   1      42.418  23.575  26.317  1.00  0.00     0.127 S 
ATOM     86  O   UNL A   1      43.449  23.203  27.290  1.00  0.00    -0.237 OA
ATOM     87  O   UNL A   1      41.086  23.061  26.622  1.00  0.00    -0.237 OA
ATOM     88  O   UNL A   1      42.847  23.445  24.929  1.00  0.00    -0.744 OA
ENDBRANCH  82  85
ENDBRANCH  64  78
BRANCH  65  89
ATOM     89  C   UNL A   1      40.394  33.415  35.602  1.00  0.00     0.023 A 
ATOM     90  C   UNL A   1      39.193  32.672  35.645  1.00  0.00     0.012 A 
ATOM     91  C   UNL A   1      40.566  34.470  36.516  1.00  0.00     0.148 A 
ATOM     92  C   UNL A   1      38.288  32.838  36.700  1.00  0.00     0.002 A 
ATOM     93  C   UNL A   1      39.662  34.624  37.569  1.00  0.00     0.091 A 
ATOM     94  F   UNL A   1      41.661  35.233  36.412  1.00  0.00    -0.205 F 
ATOM     95  C   UNL A   1      38.555  33.771  37.694  1.00  0.00     0.022 A 
BRANCH  93  96
ATOM     96  S   UNL A   1      39.965  35.818  38.877  1.00  0.00     0.127 S 
ATOM     97  O   UNL A   1      39.772  37.081  38.174  1.00  0.00    -0.237 OA
ATOM     98  O   UNL A   1      38.927  35.497  39.856  1.00  0.00    -0.237 OA
ATOM     99  O   UNL A   1      41.318  35.529  39.330  1.00  0.00    -0.744 OA
ENDBRANCH  93  96
ENDBRANCH  65  89
BRANCH  77 100
ATOM    100  C   UNL A   1      42.643  26.667  34.616  1.00  0.00     0.023 A 
ATOM    101  C   UNL A   1      41.541  26.125  35.298  1.00  0.00     0.012 A 
ATOM    102  C   UNL A   1      43.690  25.760  34.290  1.00  0.00     0.148 A 
ATOM    103  C   UNL A   1      41.501  24.783  35.697  1.00  0.00     0.002 A 
ATOM    104  C   UNL A   1      43.584  24.402  34.566  1.00  0.00     0.091 A 
ATOM    105  F   UNL A   1      44.824  26.209  33.733  1.00  0.00    -0.205 F 
ATOM    106  C   UNL A   1      42.509  23.915  35.308  1.00  0.00     0.022 A 
BRANCH 104 107
ATOM    107  S   UNL A   1      44.727  23.212  33.851  1.00  0.00     0.127 S 
ATOM    108  O   UNL A   1      44.538  23.437  32.419  1.00  0.00    -0.237 OA
ATOM    109  O   UNL A   1      46.016  23.668  34.375  1.00  0.00    -0.237 OA
ATOM    110  O   UNL A   1      44.301  21.916  34.360  1.00  0.00    -0.744 OA
ENDBRANCH 104 107
ENDBRANCH  77 100
ENDBRANCH  51  52
ENDBRANCH  43  46
ENDBRANCH  41  42
ENDBRANCH  40  41
ENDBRANCH  39  40
ENDBRANCH   1  39
TORSDOF 21
ENDMDL
MODEL 3
REMARK VINA RESULT:     -11.4      4.192     10.327
REMARK SMILES Cc1ccc(S(=O)(=O)n2cc(C(=O)C(=O)N[C@@H](Cc3cnc[nH]3)C(=O)NCCCCNC(=O)c3ccc(-c4c5nc(c(-c6cccc(S(=O)(=O)[O-])c6F)c6ccc([nH]6)c(-c6cccc(S(=O)(=O)[O-])c6F)c6nc(c(-c7cccc(S(=O)(=O)[O-])c7F)c7ccc4[nH]7)C=C6)C=C5)cc3)c3ccccc32)cc1
REMARK SMILES IDX 27 1 26 2 24 3 25 4 17 6 16 7 14 8 15 9 12 11 13 12 11 13
REMARK SMILES IDX 9 14 10 15 102 16 97 17 101 18 98 19 100 20 99 21 6 22 7 23
REMARK SMILES IDX 8 24 5 25 1 26 2 27 3 28 104 29 4 30 103 31 18 32 19 33
REMARK SMILES IDX 20 34 23 35 21 36 22 37 28 39 29 40 30 41 31 42 32 43 33 45
REMARK SMILES IDX 34 46 35 47 96 48 36 49 95 50 37 51 38 52 39 53 89 54 40 55
REMARK SMILES IDX 94 56 88 57 90 58 41 59 93 60 87 61 86 62 42 64 74 65 54 66
REMARK SMILES IDX 73 67 55 68 58 69 72 70 91 71 56 72 57 73 71 75 92 76 59 77
REMARK SMILES IDX 43 78 44 79 52 80 45 81 47 82 53 83 46 84 48 85 49 86 50 87
REMARK SMILES IDX 51 88 75 89 76 90 84 91 77 92 79 93 85 94 78 95 80 96 81 97
REMARK SMILES IDX 82 98 83 99 60 100 61 101 69 102 62 103 64 104 70 105 63 106
REMARK SMILES IDX 65 107 66 108 67 109 68 110
REMARK H PARENT 26 5 16 10 23 38 31 44 90 63 58 74
REMARK Flexibility Score: inf
ROOT
ATOM      1  C   UNL A   1      33.895  27.824  26.235  1.00  0.00     0.116 C 
ENDROOT
BRANCH   1   2
ATOM      2  N   UNL A   1      32.506  27.432  26.369  1.00  0.00    -0.354 N 
ATOM      3  C   UNL A   1      31.958  26.181  26.291  1.00  0.00     0.242 C 
ATOM      4  O   UNL A   1      30.904  25.995  26.911  1.00  0.00    -0.273 OA
ATOM      5  H   UNL A   1      31.872  28.165  26.539  1.00  0.00     0.163 HD
BRANCH   3   6
ATOM      6  C   UNL A   1      32.632  25.001  25.545  1.00  0.00     0.177 C 
BRANCH   6   7
ATOM      7  N   UNL A   1      33.160  23.976  26.460  1.00  0.00    -0.337 N 
ATOM      8  C   UNL A   1      34.424  23.472  26.628  1.00  0.00     0.293 C 
ATOM      9  O   UNL A   1      34.649  22.806  27.635  1.00  0.00    -0.265 OA
ATOM     10  H   UNL A   1      32.486  23.583  27.059  1.00  0.00     0.164 HD
BRANCH   8  11
ATOM     11  C   UNL A   1      35.522  23.679  25.562  1.00  0.00     0.252 C 
ATOM     12  O   UNL A   1      35.198  24.094  24.455  1.00  0.00    -0.283 OA
BRANCH  11  13
ATOM     13  C   UNL A   1      36.926  23.334  25.818  1.00  0.00     0.054 A 
ATOM     14  N   UNL A   1      39.052  23.373  26.485  1.00  0.00    -0.240 N 
ATOM     15  C   UNL A   1      37.923  24.135  26.343  1.00  0.00     0.117 A 
ATOM     16  C   UNL A   1      38.847  22.085  26.040  1.00  0.00     0.065 A 
ATOM     17  C   UNL A   1      37.526  22.048  25.579  1.00  0.00     0.012 A 
ATOM     18  C   UNL A   1      39.685  20.956  25.975  1.00  0.00     0.028 A 
ATOM     19  C   UNL A   1      37.042  20.846  25.015  1.00  0.00     0.011 A 
ATOM     20  C   UNL A   1      39.177  19.787  25.401  1.00  0.00     0.002 A 
ATOM     21  C   UNL A   1      37.874  19.730  24.922  1.00  0.00     0.001 A 
BRANCH  14  22
ATOM     22  S   UNL A   1      40.524  23.978  27.086  1.00  0.00     0.268 S 
ATOM     23  O   UNL A   1      41.420  24.002  25.949  1.00  0.00    -0.201 OA
ATOM     24  O   UNL A   1      40.819  23.206  28.283  1.00  0.00    -0.201 OA
BRANCH  22  25
ATOM     25  C   UNL A   1      40.261  25.652  27.600  1.00  0.00     0.088 A 
ATOM     26  C   UNL A   1      39.458  29.790  28.449  1.00  0.00     0.044 C 
ATOM     27  C   UNL A   1      39.759  28.346  28.174  1.00  0.00    -0.051 A 
ATOM     28  C   UNL A   1      40.481  27.992  27.028  1.00  0.00     0.005 A 
ATOM     29  C   UNL A   1      39.326  27.341  29.047  1.00  0.00     0.005 A 
ATOM     30  C   UNL A   1      40.728  26.651  26.737  1.00  0.00     0.022 A 
ATOM     31  C   UNL A   1      39.587  25.996  28.773  1.00  0.00     0.022 A 
ENDBRANCH  22  25
ENDBRANCH  14  22
ENDBRANCH  11  13
ENDBRANCH   8  11
ENDBRANCH   6   7
BRANCH   6  32
ATOM     32  C   UNL A   1      31.814  24.421  24.370  1.00  0.00     0.090 C 
BRANCH  32  33
ATOM     33  C   UNL A   1      32.089  22.990  24.073  1.00  0.00     0.037 A 
ATOM     34  C   UNL A   1      31.755  21.830  24.740  1.00  0.00     0.134 A 
ATOM     35  N   UNL A   1      32.744  22.564  22.940  1.00  0.00    -0.348 N 
ATOM     36  N   UNL A   1      32.011  20.738  23.961  1.00  0.00    -0.245 NA
ATOM     37  C   UNL A   1      32.574  21.211  22.872  1.00  0.00     0.196 A 
ATOM     38  H   UNL A   1      33.240  23.126  22.302  1.00  0.00     0.167 HD
ENDBRANCH  32  33
ENDBRANCH   6  32
ENDBRANCH   3   6
ENDBRANCH   1   2
BRANCH   1  39
ATOM     39  C   UNL A   1      34.279  29.154  26.881  1.00  0.00     0.023 C 
BRANCH  39  40
ATOM     40  C   UNL A   1      35.740  29.312  27.304  1.00  0.00     0.023 C 
BRANCH  40  41
ATOM     41  C   UNL A   1      35.901  29.754  28.743  1.00  0.00     0.116 C 
BRANCH  41  42
ATOM     42  N   UNL A   1      35.175  30.938  29.129  1.00  0.00    -0.352 N 
ATOM     43  C   UNL A   1      35.530  31.896  30.063  1.00  0.00     0.251 C 
ATOM     44  H   UNL A   1      34.316  31.083  28.670  1.00  0.00     0.163 HD
ATOM     45  O   UNL A   1      34.620  32.569  30.543  1.00  0.00    -0.269 OA
BRANCH  43  46
ATOM     46  C   UNL A   1      36.959  32.205  30.376  1.00  0.00     0.039 A 
ATOM     47  C   UNL A   1      37.679  31.315  31.192  1.00  0.00     0.014 A 
ATOM     48  C   UNL A   1      37.531  33.437  30.087  1.00  0.00     0.014 A 
ATOM     49  C   UNL A   1      38.789  31.761  31.911  1.00  0.00     0.010 A 
ATOM     50  C   UNL A   1      38.564  33.911  30.839  1.00  0.00     0.010 A 
ATOM     51  C   UNL A   1      39.118  33.101  31.820  1.00  0.00    -0.014 A 
BRANCH  51  52
ATOM     52  C   UNL A   1      40.034  33.837  32.655  1.00  0.00     0.031 A 
ATOM     53  C   UNL A   1      39.521  34.439  33.886  1.00  0.00     0.074 A 
ATOM     54  C   UNL A   1      41.338  33.546  32.445  1.00  0.00     0.049 A 
ATOM     55  N   UNL A   1      40.115  35.385  34.515  1.00  0.00    -0.248 NA
ATOM     56  C   UNL A   1      38.271  34.004  34.509  1.00  0.00     0.031 C 
ATOM     57  C   UNL A   1      42.447  33.592  33.382  1.00  0.00     0.029 A 
ATOM     58  N   UNL A   1      41.939  33.183  31.231  1.00  0.00    -0.354 N 
ATOM     59  C   UNL A   1      39.517  35.458  35.754  1.00  0.00     0.074 A 
ATOM     60  C   UNL A   1      38.296  34.693  35.653  1.00  0.00     0.031 C 
ATOM     61  C   UNL A   1      43.599  33.544  32.688  1.00  0.00     0.029 A 
ATOM     62  C   UNL A   1      43.256  33.661  31.276  1.00  0.00     0.049 A 
ATOM     63  H   UNL A   1      41.518  32.690  30.490  1.00  0.00     0.167 HD
ATOM     64  C   UNL A   1      40.231  35.942  36.804  1.00  0.00     0.034 A 
ATOM     65  C   UNL A   1      43.717  34.624  30.421  1.00  0.00     0.034 A 
ATOM     66  C   UNL A   1      41.618  36.189  36.389  1.00  0.00     0.049 A 
ATOM     67  C   UNL A   1      44.072  35.899  31.163  1.00  0.00     0.074 A 
ATOM     68  C   UNL A   1      42.760  35.408  36.482  1.00  0.00     0.029 A 
ATOM     69  N   UNL A   1      41.898  37.180  35.457  1.00  0.00    -0.354 N 
ATOM     70  N   UNL A   1      43.762  36.125  32.409  1.00  0.00    -0.248 NA
ATOM     71  C   UNL A   1      44.787  37.020  30.564  1.00  0.00     0.031 C 
ATOM     72  C   UNL A   1      43.718  35.916  35.568  1.00  0.00     0.029 A 
ATOM     73  C   UNL A   1      43.170  37.015  34.930  1.00  0.00     0.049 A 
ATOM     74  H   UNL A   1      41.277  37.902  35.205  1.00  0.00     0.167 HD
ATOM     75  C   UNL A   1      44.086  37.410  32.752  1.00  0.00     0.074 A 
ATOM     76  C   UNL A   1      44.796  37.900  31.581  1.00  0.00     0.031 C 
ATOM     77  C   UNL A   1      43.690  37.958  33.944  1.00  0.00     0.034 A 
BRANCH  64  78
ATOM     78  C   UNL A   1      39.808  35.820  38.252  1.00  0.00     0.023 A 
ATOM     79  C   UNL A   1      39.371  36.997  38.898  1.00  0.00     0.012 A 
ATOM     80  C   UNL A   1      39.808  34.638  39.031  1.00  0.00     0.148 A 
ATOM     81  C   UNL A   1      39.032  37.032  40.252  1.00  0.00     0.002 A 
ATOM     82  C   UNL A   1      39.520  34.682  40.400  1.00  0.00     0.091 A 
ATOM     83  F   UNL A   1      40.028  33.457  38.438  1.00  0.00    -0.205 F 
ATOM     84  C   UNL A   1      39.133  35.880  41.012  1.00  0.00     0.022 A 
BRANCH  82  85
ATOM     85  S   UNL A   1      39.702  33.255  41.484  1.00  0.00     0.127 S 
ATOM     86  O   UNL A   1      38.606  33.448  42.439  1.00  0.00    -0.237 OA
ATOM     87  O   UNL A   1      39.515  32.134  40.568  1.00  0.00    -0.237 OA
ATOM     88  O   UNL A   1      41.028  33.373  42.081  1.00  0.00    -0.744 OA
ENDBRANCH  82  85
ENDBRANCH  64  78
BRANCH  65  89
ATOM     89  C   UNL A   1      43.079  34.574  29.064  1.00  0.00     0.023 A 
ATOM     90  C   UNL A   1      42.162  35.603  28.750  1.00  0.00     0.012 A 
ATOM     91  C   UNL A   1      43.696  33.878  28.011  1.00  0.00     0.148 A 
ATOM     92  C   UNL A   1      42.028  36.062  27.435  1.00  0.00     0.002 A 
ATOM     93  C   UNL A   1      43.563  34.347  26.703  1.00  0.00     0.091 A 
ATOM     94  F   UNL A   1      44.490  32.841  28.308  1.00  0.00    -0.205 F 
ATOM     95  C   UNL A   1      42.775  35.474  26.422  1.00  0.00     0.022 A 
BRANCH  93  96
ATOM     96  S   UNL A   1      44.508  33.618  25.359  1.00  0.00     0.127 S 
ATOM     97  O   UNL A   1      44.022  34.375  24.212  1.00  0.00    -0.237 OA
ATOM     98  O   UNL A   1      45.889  33.904  25.741  1.00  0.00    -0.237 OA
ATOM     99  O   UNL A   1      44.163  32.204  25.396  1.00  0.00    -0.744 OA
ENDBRANCH  93  96
ENDBRANCH  65  89
BRANCH  77 100
ATOM    100  C   UNL A   1      43.752  39.431  34.311  1.00  0.00     0.023 A 
ATOM    101  C   UNL A   1      43.016  40.413  33.625  1.00  0.00     0.012 A 
ATOM    102  C   UNL A   1      44.457  39.867  35.467  1.00  0.00     0.148 A 
ATOM    103  C   UNL A   1      43.028  41.757  34.014  1.00  0.00     0.002 A 
ATOM    104  C   UNL A   1      44.354  41.174  35.929  1.00  0.00     0.091 A 
ATOM    105  F   UNL A   1      45.267  39.023  36.123  1.00  0.00    -0.205 F 
ATOM    106  C   UNL A   1      43.675  42.134  35.181  1.00  0.00     0.022 A 
BRANCH 104 107
ATOM    107  S   UNL A   1      44.947  41.637  37.562  1.00  0.00     0.127 S 
ATOM    108  O   UNL A   1      44.121  40.799  38.430  1.00  0.00    -0.237 OA
ATOM    109  O   UNL A   1      46.357  41.247  37.501  1.00  0.00    -0.237 OA
ATOM    110  O   UNL A   1      44.728  43.073  37.658  1.00  0.00    -0.744 OA
ENDBRANCH 104 107
ENDBRANCH  77 100
ENDBRANCH  51  52
ENDBRANCH  43  46
ENDBRANCH  41  42
ENDBRANCH  40  41
ENDBRANCH  39  40
ENDBRANCH   1  39
TORSDOF 21
ENDMDL
