MODEL 1
REMARK VINA RESULT:     -12.9      0.000      0.000
REMARK SMILES COc1cc([C@@H]2CC(=O)Nc3c(C(=O)NCCCCNC(=O)c4ccc(-c5c6nc(c(-c7cccc(S(=O)(=O)[O-])c7F)c7ccc([nH]7)c(-c7cccc(S(=O)(=O)[O-])c7F)c7nc(c(-c8cccc(S(=O)(=O)[O-])c8F)c8ccc5[nH]8)C=C7)C=C6)cc4)cn(-c4ccc(F)cc4)c32)c(OC)c2c1OCO2
REMARK SMILES IDX 18 1 17 2 16 3 15 4 13 5 14 6 12 8 6 9 7 10 95 11 8 12 11 13
REMARK SMILES IDX 87 14 9 15 10 16 86 17 5 19 3 20 4 21 100 22 99 23 101 24
REMARK SMILES IDX 96 25 103 26 102 27 2 28 1 29 97 30 98 31 88 32 89 33 94 34
REMARK SMILES IDX 90 35 93 36 91 37 92 38 19 39 20 40 21 41 22 43 23 44 24 45
REMARK SMILES IDX 85 46 25 47 84 48 26 49 27 50 28 51 78 52 29 53 83 54 77 55
REMARK SMILES IDX 79 56 30 57 82 58 76 59 75 60 31 62 63 63 43 64 62 65 44 66
REMARK SMILES IDX 47 67 61 68 80 69 45 70 46 71 60 73 81 74 48 75 32 76 33 77
REMARK SMILES IDX 41 78 34 79 36 80 42 81 35 82 37 83 38 84 39 85 40 86 64 87
REMARK SMILES IDX 65 88 73 89 66 90 68 91 74 92 67 93 69 94 70 95 71 96 72 97
REMARK SMILES IDX 49 98 50 99 58 100 51 101 53 102 59 103 52 104 54 105 55 106
REMARK SMILES IDX 56 107 57 108
REMARK H PARENT 15 7 10 18 20 42 79 61 47 72
REMARK Flexibility Score: inf
ROOT
ATOM      1  C   UNL A   1      37.313  23.190  26.100  1.00  0.00     0.023 C 
ENDROOT
BRANCH   1   2
ATOM      2  C   UNL A   1      37.375  22.740  24.637  1.00  0.00     0.023 C 
BRANCH   2   3
ATOM      3  C   UNL A   1      36.048  22.778  23.857  1.00  0.00     0.116 C 
BRANCH   3   4
ATOM      4  N   UNL A   1      34.935  22.476  24.722  1.00  0.00    -0.352 N 
ATOM      5  C   UNL A   1      33.884  23.210  25.202  1.00  0.00     0.254 C 
ATOM      6  O   UNL A   1      33.165  22.618  26.015  1.00  0.00    -0.269 OA
ATOM      7  H   UNL A   1      34.930  21.542  25.033  1.00  0.00     0.163 HD
BRANCH   5   8
ATOM      8  C   UNL A   1      33.569  24.598  24.824  1.00  0.00     0.081 A 
ATOM      9  C   UNL A   1      32.569  27.719  23.022  1.00  0.00     0.082 C 
ATOM     10  C   UNL A   1      33.084  27.366  21.626  1.00  0.00     0.115 C 
ATOM     11  C   UNL A   1      32.965  26.647  23.997  1.00  0.00     0.055 A 
ATOM     12  C   UNL A   1      32.946  25.900  21.297  1.00  0.00     0.225 C 
ATOM     13  C   UNL A   1      33.246  25.340  23.646  1.00  0.00     0.076 A 
ATOM     14  N   UNL A   1      33.210  26.794  25.342  1.00  0.00    -0.317 N 
ATOM     15  O   UNL A   1      32.799  25.507  20.140  1.00  0.00    -0.275 OA
ATOM     16  N   UNL A   1      33.149  25.007  22.314  1.00  0.00    -0.324 N 
ATOM     17  C   UNL A   1      33.620  25.578  25.822  1.00  0.00     0.107 A 
ATOM     18  H   UNL A   1      33.232  24.055  22.075  1.00  0.00     0.170 HD
BRANCH   9  19
ATOM     19  C   UNL A   1      31.078  28.064  22.986  1.00  0.00     0.012 A 
ATOM     20  C   UNL A   1      29.421  29.768  22.353  1.00  0.00     0.165 A 
ATOM     21  C   UNL A   1      30.733  29.299  22.377  1.00  0.00     0.059 A 
ATOM     22  C   UNL A   1      28.442  28.953  22.886  1.00  0.00     0.211 A 
ATOM     23  C   UNL A   1      28.747  27.721  23.438  1.00  0.00     0.211 A 
ATOM     24  O   UNL A   1      27.103  29.209  22.911  1.00  0.00    -0.449 OA
ATOM     25  C   UNL A   1      30.049  27.242  23.505  1.00  0.00     0.168 A 
ATOM     26  O   UNL A   1      27.623  27.081  23.873  1.00  0.00    -0.449 OA
ATOM     27  C   UNL A   1      26.594  28.004  23.506  1.00  0.00     0.468 C 
BRANCH  20  28
ATOM     28  O   UNL A   1      29.238  30.980  21.755  1.00  0.00    -0.493 OA
ATOM     29  C   UNL A   1      28.955  32.040  22.662  1.00  0.00     0.278 C 
ENDBRANCH  20  28
BRANCH  25  30
ATOM     30  O   UNL A   1      30.431  26.039  24.013  1.00  0.00    -0.492 OA
ATOM     31  C   UNL A   1      29.920  25.605  25.267  1.00  0.00     0.278 C 
ENDBRANCH  25  30
ENDBRANCH   9  19
BRANCH  14  32
ATOM     32  C   UNL A   1      33.190  27.997  26.085  1.00  0.00     0.046 A 
ATOM     33  C   UNL A   1      31.971  28.544  26.495  1.00  0.00     0.029 A 
ATOM     34  C   UNL A   1      34.393  28.662  26.345  1.00  0.00     0.029 A 
ATOM     35  C   UNL A   1      31.942  29.806  27.087  1.00  0.00     0.041 A 
ATOM     36  C   UNL A   1      34.357  29.928  26.933  1.00  0.00     0.041 A 
ATOM     37  C   UNL A   1      33.133  30.494  27.281  1.00  0.00     0.123 A 
ATOM     38  F   UNL A   1      33.103  31.724  27.812  1.00  0.00    -0.207 F 
ENDBRANCH  14  32
ENDBRANCH   5   8
ENDBRANCH   3   4
ENDBRANCH   2   3
ENDBRANCH   1   2
BRANCH   1  39
ATOM     39  C   UNL A   1      38.462  24.102  26.518  1.00  0.00     0.116 C 
BRANCH  39  40
ATOM     40  N   UNL A   1      39.794  23.507  26.292  1.00  0.00    -0.352 N 
ATOM     41  C   UNL A   1      41.043  24.119  26.343  1.00  0.00     0.251 C 
ATOM     42  H   UNL A   1      39.799  22.547  26.077  1.00  0.00     0.163 HD
ATOM     43  O   UNL A   1      42.005  23.663  25.753  1.00  0.00    -0.269 OA
BRANCH  41  44
ATOM     44  C   UNL A   1      41.174  25.323  27.183  1.00  0.00     0.039 A 
ATOM     45  C   UNL A   1      41.768  25.339  28.451  1.00  0.00     0.014 A 
ATOM     46  C   UNL A   1      40.730  26.493  26.589  1.00  0.00     0.014 A 
ATOM     47  C   UNL A   1      41.921  26.572  29.087  1.00  0.00     0.010 A 
ATOM     48  C   UNL A   1      41.218  27.672  27.043  1.00  0.00     0.010 A 
ATOM     49  C   UNL A   1      41.626  27.731  28.361  1.00  0.00    -0.014 A 
BRANCH  49  50
ATOM     50  C   UNL A   1      41.729  29.080  28.874  1.00  0.00     0.031 A 
ATOM     51  C   UNL A   1      42.880  29.840  28.343  1.00  0.00     0.074 A 
ATOM     52  C   UNL A   1      40.677  29.658  29.498  1.00  0.00     0.049 A 
ATOM     53  N   UNL A   1      43.944  30.175  28.987  1.00  0.00    -0.248 NA
ATOM     54  C   UNL A   1      42.949  30.098  26.896  1.00  0.00     0.031 C 
ATOM     55  C   UNL A   1      39.332  29.104  29.743  1.00  0.00     0.029 A 
ATOM     56  N   UNL A   1      40.536  30.943  29.906  1.00  0.00    -0.354 N 
ATOM     57  C   UNL A   1      44.705  30.909  28.083  1.00  0.00     0.074 A 
ATOM     58  C   UNL A   1      44.180  30.601  26.781  1.00  0.00     0.031 C 
ATOM     59  C   UNL A   1      38.472  30.109  30.026  1.00  0.00     0.029 A 
ATOM     60  C   UNL A   1      39.223  31.345  30.131  1.00  0.00     0.049 A 
ATOM     61  H   UNL A   1      41.304  31.545  30.033  1.00  0.00     0.167 HD
ATOM     62  C   UNL A   1      45.520  31.916  28.505  1.00  0.00     0.034 A 
ATOM     63  C   UNL A   1      38.795  32.619  30.328  1.00  0.00     0.034 A 
ATOM     64  C   UNL A   1      45.618  31.922  29.947  1.00  0.00     0.049 A 
ATOM     65  C   UNL A   1      39.981  33.407  30.748  1.00  0.00     0.074 A 
ATOM     66  C   UNL A   1      46.045  31.010  30.892  1.00  0.00     0.029 A 
ATOM     67  N   UNL A   1      44.811  32.816  30.616  1.00  0.00    -0.354 N 
ATOM     68  N   UNL A   1      40.614  33.190  31.869  1.00  0.00    -0.248 NA
ATOM     69  C   UNL A   1      40.755  34.073  29.713  1.00  0.00     0.031 C 
ATOM     70  C   UNL A   1      45.093  31.111  31.948  1.00  0.00     0.029 A 
ATOM     71  C   UNL A   1      44.199  32.141  31.641  1.00  0.00     0.049 A 
ATOM     72  H   UNL A   1      44.693  33.768  30.396  1.00  0.00     0.167 HD
ATOM     73  C   UNL A   1      41.958  33.242  31.519  1.00  0.00     0.074 A 
ATOM     74  C   UNL A   1      41.985  33.898  30.210  1.00  0.00     0.031 C 
ATOM     75  C   UNL A   1      42.887  32.470  32.160  1.00  0.00     0.034 A 
BRANCH  62  76
ATOM     76  C   UNL A   1      45.950  33.112  27.694  1.00  0.00     0.023 A 
ATOM     77  C   UNL A   1      44.923  33.922  27.159  1.00  0.00     0.012 A 
ATOM     78  C   UNL A   1      47.261  33.352  27.226  1.00  0.00     0.148 A 
ATOM     79  C   UNL A   1      45.179  34.882  26.175  1.00  0.00     0.002 A 
ATOM     80  C   UNL A   1      47.524  34.361  26.304  1.00  0.00     0.091 A 
ATOM     81  F   UNL A   1      48.256  32.527  27.561  1.00  0.00    -0.205 F 
ATOM     82  C   UNL A   1      46.482  35.107  25.753  1.00  0.00     0.022 A 
BRANCH  80  83
ATOM     83  S   UNL A   1      49.196  34.725  25.755  1.00  0.00     0.127 S 
ATOM     84  O   UNL A   1      49.679  33.397  25.388  1.00  0.00    -0.237 OA
ATOM     85  O   UNL A   1      48.952  35.629  24.631  1.00  0.00    -0.237 OA
ATOM     86  O   UNL A   1      49.856  35.353  26.894  1.00  0.00    -0.744 OA
ENDBRANCH  80  83
ENDBRANCH  62  76
BRANCH  63  87
ATOM     87  C   UNL A   1      37.520  33.255  29.913  1.00  0.00     0.023 A 
ATOM     88  C   UNL A   1      37.085  33.180  28.575  1.00  0.00     0.012 A 
ATOM     89  C   UNL A   1      36.595  33.698  30.884  1.00  0.00     0.148 A 
ATOM     90  C   UNL A   1      35.768  33.509  28.222  1.00  0.00     0.002 A 
ATOM     91  C   UNL A   1      35.291  34.029  30.530  1.00  0.00     0.091 A 
ATOM     92  F   UNL A   1      36.963  33.699  32.172  1.00  0.00    -0.205 F 
ATOM     93  C   UNL A   1      34.868  33.926  29.200  1.00  0.00     0.022 A 
BRANCH  91  94
ATOM     94  S   UNL A   1      34.079  34.545  31.754  1.00  0.00     0.127 S 
ATOM     95  O   UNL A   1      32.955  34.958  30.913  1.00  0.00    -0.237 OA
ATOM     96  O   UNL A   1      33.868  33.310  32.503  1.00  0.00    -0.237 OA
ATOM     97  O   UNL A   1      34.707  35.636  32.491  1.00  0.00    -0.744 OA
ENDBRANCH  91  94
ENDBRANCH  63  87
BRANCH  75  98
ATOM     98  C   UNL A   1      42.444  31.693  33.382  1.00  0.00     0.023 A 
ATOM     99  C   UNL A   1      41.884  30.399  33.299  1.00  0.00     0.012 A 
ATOM    100  C   UNL A   1      42.785  32.194  34.648  1.00  0.00     0.148 A 
ATOM    101  C   UNL A   1      41.655  29.632  34.445  1.00  0.00     0.002 A 
ATOM    102  C   UNL A   1      42.602  31.412  35.782  1.00  0.00     0.091 A 
ATOM    103  F   UNL A   1      43.323  33.421  34.717  1.00  0.00    -0.205 F 
ATOM    104  C   UNL A   1      42.027  30.134  35.688  1.00  0.00     0.022 A 
BRANCH 102 105
ATOM    105  S   UNL A   1      43.188  31.948  37.389  1.00  0.00     0.127 S 
ATOM    106  O   UNL A   1      42.995  33.395  37.316  1.00  0.00    -0.237 OA
ATOM    107  O   UNL A   1      42.279  31.255  38.304  1.00  0.00    -0.237 OA
ATOM    108  O   UNL A   1      44.573  31.502  37.479  1.00  0.00    -0.744 OA
ENDBRANCH 102 105
ENDBRANCH  75  98
ENDBRANCH  49  50
ENDBRANCH  41  44
ENDBRANCH  39  40
ENDBRANCH   1  39
TORSDOF 18
ENDMDL
MODEL 2
REMARK VINA RESULT:     -12.7      2.008      2.268
REMARK SMILES COc1cc([C@@H]2CC(=O)Nc3c(C(=O)NCCCCNC(=O)c4ccc(-c5c6nc(c(-c7cccc(S(=O)(=O)[O-])c7F)c7ccc([nH]7)c(-c7cccc(S(=O)(=O)[O-])c7F)c7nc(c(-c8cccc(S(=O)(=O)[O-])c8F)c8ccc5[nH]8)C=C7)C=C6)cc4)cn(-c4ccc(F)cc4)c32)c(OC)c2c1OCO2
REMARK SMILES IDX 18 1 17 2 16 3 15 4 13 5 14 6 12 8 6 9 7 10 95 11 8 12 11 13
REMARK SMILES IDX 87 14 9 15 10 16 86 17 5 19 3 20 4 21 100 22 99 23 101 24
REMARK SMILES IDX 96 25 103 26 102 27 2 28 1 29 97 30 98 31 88 32 89 33 94 34
REMARK SMILES IDX 90 35 93 36 91 37 92 38 19 39 20 40 21 41 22 43 23 44 24 45
REMARK SMILES IDX 85 46 25 47 84 48 26 49 27 50 28 51 78 52 29 53 83 54 77 55
REMARK SMILES IDX 79 56 30 57 82 58 76 59 75 60 31 62 63 63 43 64 62 65 44 66
REMARK SMILES IDX 47 67 61 68 80 69 45 70 46 71 60 73 81 74 48 75 32 76 33 77
REMARK SMILES IDX 41 78 34 79 36 80 42 81 35 82 37 83 38 84 39 85 40 86 64 87
REMARK SMILES IDX 65 88 73 89 66 90 68 91 74 92 67 93 69 94 70 95 71 96 72 97
REMARK SMILES IDX 49 98 50 99 58 100 51 101 53 102 59 103 52 104 54 105 55 106
REMARK SMILES IDX 56 107 57 108
REMARK H PARENT 15 7 10 18 20 42 79 61 47 72
REMARK Flexibility Score: inf
ROOT
ATOM      1  C   UNL A   1      37.303  23.782  26.027  1.00  0.00     0.023 C 
ENDROOT
BRANCH   1   2
ATOM      2  C   UNL A   1      37.192  22.764  24.889  1.00  0.00     0.023 C 
BRANCH   2   3
ATOM      3  C   UNL A   1      35.826  22.680  24.183  1.00  0.00     0.116 C 
BRANCH   3   4
ATOM      4  N   UNL A   1      34.763  22.504  25.139  1.00  0.00    -0.352 N 
ATOM      5  C   UNL A   1      33.786  23.328  25.630  1.00  0.00     0.254 C 
ATOM      6  O   UNL A   1      33.097  22.838  26.531  1.00  0.00    -0.269 OA
ATOM      7  H   UNL A   1      34.733  21.597  25.521  1.00  0.00     0.163 HD
BRANCH   5   8
ATOM      8  C   UNL A   1      33.515  24.700  25.168  1.00  0.00     0.081 A 
ATOM      9  C   UNL A   1      32.640  27.739  23.171  1.00  0.00     0.082 C 
ATOM     10  C   UNL A   1      33.185  27.298  21.811  1.00  0.00     0.115 C 
ATOM     11  C   UNL A   1      32.984  26.714  24.214  1.00  0.00     0.055 A 
ATOM     12  C   UNL A   1      33.021  25.820  21.559  1.00  0.00     0.225 C 
ATOM     13  C   UNL A   1      33.243  25.383  23.942  1.00  0.00     0.076 A 
ATOM     14  N   UNL A   1      33.195  26.929  25.555  1.00  0.00    -0.317 N 
ATOM     15  O   UNL A   1      32.896  25.367  20.422  1.00  0.00    -0.275 OA
ATOM     16  N   UNL A   1      33.175  24.980  22.629  1.00  0.00    -0.324 N 
ATOM     17  C   UNL A   1      33.562  25.732  26.112  1.00  0.00     0.107 A 
ATOM     18  H   UNL A   1      33.241  24.015  22.444  1.00  0.00     0.170 HD
BRANCH   9  19
ATOM     19  C   UNL A   1      31.159  28.115  23.073  1.00  0.00     0.012 A 
ATOM     20  C   UNL A   1      29.566  29.850  22.367  1.00  0.00     0.165 A 
ATOM     21  C   UNL A   1      30.866  29.354  22.446  1.00  0.00     0.059 A 
ATOM     22  C   UNL A   1      28.549  29.058  22.863  1.00  0.00     0.211 A 
ATOM     23  C   UNL A   1      28.806  27.822  23.431  1.00  0.00     0.211 A 
ATOM     24  O   UNL A   1      27.216  29.343  22.833  1.00  0.00    -0.449 OA
ATOM     25  C   UNL A   1      30.093  27.317  23.553  1.00  0.00     0.168 A 
ATOM     26  O   UNL A   1      27.652  27.208  23.822  1.00  0.00    -0.449 OA
ATOM     27  C   UNL A   1      26.658  28.151  23.411  1.00  0.00     0.468 C 
BRANCH  20  28
ATOM     28  O   UNL A   1      29.433  31.063  21.758  1.00  0.00    -0.493 OA
ATOM     29  C   UNL A   1      28.211  31.227  21.047  1.00  0.00     0.278 C 
ENDBRANCH  20  28
BRANCH  25  30
ATOM     30  O   UNL A   1      30.429  26.108  24.080  1.00  0.00    -0.492 OA
ATOM     31  C   UNL A   1      29.909  25.717  25.344  1.00  0.00     0.278 C 
ENDBRANCH  25  30
ENDBRANCH   9  19
BRANCH  14  32
ATOM     32  C   UNL A   1      33.183  28.171  26.231  1.00  0.00     0.046 A 
ATOM     33  C   UNL A   1      31.978  28.853  26.418  1.00  0.00     0.029 A 
ATOM     34  C   UNL A   1      34.393  28.736  26.648  1.00  0.00     0.029 A 
ATOM     35  C   UNL A   1      31.987  30.145  26.941  1.00  0.00     0.041 A 
ATOM     36  C   UNL A   1      34.397  30.033  27.165  1.00  0.00     0.041 A 
ATOM     37  C   UNL A   1      33.198  30.730  27.289  1.00  0.00     0.123 A 
ATOM     38  F   UNL A   1      33.211  31.987  27.753  1.00  0.00    -0.207 F 
ENDBRANCH  14  32
ENDBRANCH   5   8
ENDBRANCH   3   4
ENDBRANCH   2   3
ENDBRANCH   1   2
BRANCH   1  39
ATOM     39  C   UNL A   1      38.738  24.164  26.381  1.00  0.00     0.116 C 
BRANCH  39  40
ATOM     40  N   UNL A   1      39.526  23.038  26.919  1.00  0.00    -0.352 N 
ATOM     41  C   UNL A   1      40.774  23.063  27.536  1.00  0.00     0.251 C 
ATOM     42  H   UNL A   1      39.113  22.149  26.831  1.00  0.00     0.163 HD
ATOM     43  O   UNL A   1      41.496  22.084  27.562  1.00  0.00    -0.269 OA
BRANCH  41  44
ATOM     44  C   UNL A   1      41.174  24.314  28.205  1.00  0.00     0.039 A 
ATOM     45  C   UNL A   1      42.483  24.612  28.604  1.00  0.00     0.014 A 
ATOM     46  C   UNL A   1      40.157  25.242  28.351  1.00  0.00     0.014 A 
ATOM     47  C   UNL A   1      42.736  25.880  29.128  1.00  0.00     0.010 A 
ATOM     48  C   UNL A   1      40.489  26.546  28.501  1.00  0.00     0.010 A 
ATOM     49  C   UNL A   1      41.712  26.832  29.076  1.00  0.00    -0.014 A 
BRANCH  49  50
ATOM     50  C   UNL A   1      41.812  28.186  29.578  1.00  0.00     0.031 A 
ATOM     51  C   UNL A   1      42.825  29.011  28.888  1.00  0.00     0.074 A 
ATOM     52  C   UNL A   1      40.831  28.703  30.355  1.00  0.00     0.049 A 
ATOM     53  N   UNL A   1      43.952  29.408  29.370  1.00  0.00    -0.248 NA
ATOM     54  C   UNL A   1      42.665  29.270  27.449  1.00  0.00     0.031 C 
ATOM     55  C   UNL A   1      39.571  28.072  30.790  1.00  0.00     0.029 A 
ATOM     56  N   UNL A   1      40.678  29.978  30.787  1.00  0.00    -0.354 N 
ATOM     57  C   UNL A   1      44.527  30.183  28.370  1.00  0.00     0.074 A 
ATOM     58  C   UNL A   1      43.834  29.844  27.157  1.00  0.00     0.031 C 
ATOM     59  C   UNL A   1      38.706  29.026  31.205  1.00  0.00     0.029 A 
ATOM     60  C   UNL A   1      39.392  30.304  31.207  1.00  0.00     0.049 A 
ATOM     61  H   UNL A   1      41.421  30.624  30.804  1.00  0.00     0.167 HD
ATOM     62  C   UNL A   1      45.336  31.237  28.674  1.00  0.00     0.034 A 
ATOM     63  C   UNL A   1      38.925  31.550  31.474  1.00  0.00     0.034 A 
ATOM     64  C   UNL A   1      45.645  31.251  30.086  1.00  0.00     0.049 A 
ATOM     65  C   UNL A   1      40.111  32.407  31.720  1.00  0.00     0.074 A 
ATOM     66  C   UNL A   1      46.258  30.367  30.952  1.00  0.00     0.029 A 
ATOM     67  N   UNL A   1      44.895  32.097  30.873  1.00  0.00    -0.354 N 
ATOM     68  N   UNL A   1      40.914  32.229  32.733  1.00  0.00    -0.248 NA
ATOM     69  C   UNL A   1      40.684  33.115  30.586  1.00  0.00     0.031 C 
ATOM     70  C   UNL A   1      45.468  30.415  32.137  1.00  0.00     0.029 A 
ATOM     71  C   UNL A   1      44.481  31.389  31.972  1.00  0.00     0.049 A 
ATOM     72  H   UNL A   1      44.692  33.041  30.679  1.00  0.00     0.167 HD
ATOM     73  C   UNL A   1      42.187  32.358  32.190  1.00  0.00     0.074 A 
ATOM     74  C   UNL A   1      41.983  33.013  30.895  1.00  0.00     0.031 C 
ATOM     75  C   UNL A   1      43.243  31.643  32.682  1.00  0.00     0.034 A 
BRANCH  62  76
ATOM     76  C   UNL A   1      45.572  32.455  27.817  1.00  0.00     0.023 A 
ATOM     77  C   UNL A   1      46.846  32.575  27.217  1.00  0.00     0.012 A 
ATOM     78  C   UNL A   1      44.729  33.587  27.757  1.00  0.00     0.148 A 
ATOM     79  C   UNL A   1      47.277  33.772  26.637  1.00  0.00     0.002 A 
ATOM     80  C   UNL A   1      45.132  34.751  27.111  1.00  0.00     0.091 A 
ATOM     81  F   UNL A   1      43.580  33.605  28.437  1.00  0.00    -0.205 F 
ATOM     82  C   UNL A   1      46.417  34.859  26.577  1.00  0.00     0.022 A 
BRANCH  80  83
ATOM     83  S   UNL A   1      44.043  36.174  26.966  1.00  0.00     0.127 S 
ATOM     84  O   UNL A   1      43.042  35.682  26.024  1.00  0.00    -0.237 OA
ATOM     85  O   UNL A   1      43.574  36.334  28.343  1.00  0.00    -0.237 OA
ATOM     86  O   UNL A   1      44.885  37.266  26.492  1.00  0.00    -0.744 OA
ENDBRANCH  80  83
ENDBRANCH  62  76
BRANCH  63  87
ATOM     87  C   UNL A   1      37.568  32.110  31.255  1.00  0.00     0.023 A 
ATOM     88  C   UNL A   1      36.814  31.740  30.124  1.00  0.00     0.012 A 
ATOM     89  C   UNL A   1      36.902  32.794  32.297  1.00  0.00     0.148 A 
ATOM     90  C   UNL A   1      35.441  32.017  30.046  1.00  0.00     0.002 A 
ATOM     91  C   UNL A   1      35.542  33.073  32.214  1.00  0.00     0.091 A 
ATOM     92  F   UNL A   1      37.581  33.083  33.415  1.00  0.00    -0.205 F 
ATOM     93  C   UNL A   1      34.802  32.676  31.093  1.00  0.00     0.022 A 
BRANCH  91  94
ATOM     94  S   UNL A   1      34.660  33.895  33.548  1.00  0.00     0.127 S 
ATOM     95  O   UNL A   1      33.273  33.519  33.273  1.00  0.00    -0.237 OA
ATOM     96  O   UNL A   1      35.247  33.263  34.727  1.00  0.00    -0.237 OA
ATOM     97  O   UNL A   1      34.939  35.317  33.384  1.00  0.00    -0.744 OA
ENDBRANCH  91  94
ENDBRANCH  63  87
BRANCH  75  98
ATOM     98  C   UNL A   1      43.031  30.843  33.950  1.00  0.00     0.023 A 
ATOM     99  C   UNL A   1      42.979  31.442  35.227  1.00  0.00     0.012 A 
ATOM    100  C   UNL A   1      42.678  29.491  33.831  1.00  0.00     0.148 A 
ATOM    101  C   UNL A   1      42.601  30.711  36.357  1.00  0.00     0.002 A 
ATOM    102  C   UNL A   1      42.256  28.777  34.946  1.00  0.00     0.091 A 
ATOM    103  F   UNL A   1      42.724  28.930  32.612  1.00  0.00    -0.205 F 
ATOM    104  C   UNL A   1      42.225  29.379  36.214  1.00  0.00     0.022 A 
BRANCH 102 105
ATOM    105  S   UNL A   1      41.629  27.103  34.801  1.00  0.00     0.127 S 
ATOM    106  O   UNL A   1      42.777  26.397  34.237  1.00  0.00    -0.237 OA
ATOM    107  O   UNL A   1      41.322  26.760  36.191  1.00  0.00    -0.237 OA
ATOM    108  O   UNL A   1      40.457  27.189  33.939  1.00  0.00    -0.744 OA
ENDBRANCH 102 105
ENDBRANCH  75  98
ENDBRANCH  49  50
ENDBRANCH  41  44
ENDBRANCH  39  40
ENDBRANCH   1  39
TORSDOF 18
ENDMDL
MODEL 3
REMARK VINA RESULT:     -12.1      5.272      8.958
REMARK SMILES COc1cc([C@@H]2CC(=O)Nc3c(C(=O)NCCCCNC(=O)c4ccc(-c5c6nc(c(-c7cccc(S(=O)(=O)[O-])c7F)c7ccc([nH]7)c(-c7cccc(S(=O)(=O)[O-])c7F)c7nc(c(-c8cccc(S(=O)(=O)[O-])c8F)c8ccc5[nH]8)C=C7)C=C6)cc4)cn(-c4ccc(F)cc4)c32)c(OC)c2c1OCO2
REMARK SMILES IDX 18 1 17 2 16 3 15 4 13 5 14 6 12 8 6 9 7 10 95 11 8 12 11 13
REMARK SMILES IDX 87 14 9 15 10 16 86 17 5 19 3 20 4 21 100 22 99 23 101 24
REMARK SMILES IDX 96 25 103 26 102 27 2 28 1 29 97 30 98 31 88 32 89 33 94 34
REMARK SMILES IDX 90 35 93 36 91 37 92 38 19 39 20 40 21 41 22 43 23 44 24 45
REMARK SMILES IDX 85 46 25 47 84 48 26 49 27 50 28 51 78 52 29 53 83 54 77 55
REMARK SMILES IDX 79 56 30 57 82 58 76 59 75 60 31 62 63 63 43 64 62 65 44 66
REMARK SMILES IDX 47 67 61 68 80 69 45 70 46 71 60 73 81 74 48 75 32 76 33 77
REMARK SMILES IDX 41 78 34 79 36 80 42 81 35 82 37 83 38 84 39 85 40 86 64 87
REMARK SMILES IDX 65 88 73 89 66 90 68 91 74 92 67 93 69 94 70 95 71 96 72 97
REMARK SMILES IDX 49 98 50 99 58 100 51 101 53 102 59 103 52 104 54 105 55 106
REMARK SMILES IDX 56 107 57 108
REMARK H PARENT 15 7 10 18 20 42 79 61 47 72
REMARK Flexibility Score: inf
ROOT
ATOM      1  C   UNL A   1      39.140  23.161  26.743  1.00  0.00     0.023 C 
ENDROOT
BRANCH   1   2
ATOM      2  C   UNL A   1      38.832  24.659  26.831  1.00  0.00     0.023 C 
BRANCH   2   3
ATOM      3  C   UNL A   1      39.636  25.458  27.874  1.00  0.00     0.116 C 
BRANCH   3   4
ATOM      4  N   UNL A   1      40.325  26.562  27.256  1.00  0.00    -0.352 N 
ATOM      5  C   UNL A   1      40.219  27.923  27.366  1.00  0.00     0.254 C 
ATOM      6  O   UNL A   1      40.933  28.564  26.587  1.00  0.00    -0.269 OA
ATOM      7  H   UNL A   1      41.019  26.277  26.619  1.00  0.00     0.163 HD
BRANCH   5   8
ATOM      8  C   UNL A   1      39.349  28.638  28.315  1.00  0.00     0.081 A 
ATOM      9  C   UNL A   1      37.665  29.985  31.370  1.00  0.00     0.082 C 
ATOM     10  C   UNL A   1      37.775  28.752  32.269  1.00  0.00     0.115 C 
ATOM     11  C   UNL A   1      38.176  29.661  29.996  1.00  0.00     0.055 A 
ATOM     12  C   UNL A   1      39.051  27.976  32.056  1.00  0.00     0.225 C 
ATOM     13  C   UNL A   1      39.076  28.648  29.718  1.00  0.00     0.076 A 
ATOM     14  N   UNL A   1      37.776  30.221  28.805  1.00  0.00    -0.317 N 
ATOM     15  O   UNL A   1      39.568  27.319  32.959  1.00  0.00    -0.275 OA
ATOM     16  N   UNL A   1      39.532  27.898  30.777  1.00  0.00    -0.324 N 
ATOM     17  C   UNL A   1      38.443  29.571  27.800  1.00  0.00     0.107 A 
ATOM     18  H   UNL A   1      40.260  27.258  30.603  1.00  0.00     0.170 HD
BRANCH   9  19
ATOM     19  C   UNL A   1      38.295  31.210  32.040  1.00  0.00     0.012 A 
ATOM     20  C   UNL A   1      40.369  32.499  32.334  1.00  0.00     0.165 A 
ATOM     21  C   UNL A   1      39.656  31.466  31.729  1.00  0.00     0.059 A 
ATOM     22  C   UNL A   1      39.684  33.320  33.207  1.00  0.00     0.211 A 
ATOM     23  C   UNL A   1      38.343  33.123  33.486  1.00  0.00     0.211 A 
ATOM     24  O   UNL A   1      40.189  34.409  33.856  1.00  0.00    -0.449 OA
ATOM     25  C   UNL A   1      37.616  32.083  32.922  1.00  0.00     0.168 A 
ATOM     26  O   UNL A   1      37.872  34.070  34.348  1.00  0.00    -0.449 OA
ATOM     27  C   UNL A   1      39.025  34.892  34.546  1.00  0.00     0.468 C 
BRANCH  20  28
ATOM     28  O   UNL A   1      41.675  32.615  31.958  1.00  0.00    -0.493 OA
ATOM     29  C   UNL A   1      42.595  31.998  32.851  1.00  0.00     0.278 C 
ENDBRANCH  20  28
BRANCH  25  30
ATOM     30  O   UNL A   1      36.295  31.831  33.129  1.00  0.00    -0.492 OA
ATOM     31  C   UNL A   1      35.322  32.385  32.253  1.00  0.00     0.278 C 
ENDBRANCH  25  30
ENDBRANCH   9  19
BRANCH  14  32
ATOM     32  C   UNL A   1      36.762  31.188  28.617  1.00  0.00     0.046 A 
ATOM     33  C   UNL A   1      35.500  30.796  28.165  1.00  0.00     0.029 A 
ATOM     34  C   UNL A   1      37.058  32.540  28.823  1.00  0.00     0.029 A 
ATOM     35  C   UNL A   1      34.554  31.763  27.828  1.00  0.00     0.041 A 
ATOM     36  C   UNL A   1      36.108  33.504  28.478  1.00  0.00     0.041 A 
ATOM     37  C   UNL A   1      34.875  33.107  27.968  1.00  0.00     0.123 A 
ATOM     38  F   UNL A   1      33.981  34.038  27.606  1.00  0.00    -0.207 F 
ENDBRANCH  14  32
ENDBRANCH   5   8
ENDBRANCH   3   4
ENDBRANCH   2   3
ENDBRANCH   1   2
BRANCH   1  39
ATOM     39  C   UNL A   1      40.369  22.732  27.540  1.00  0.00     0.116 C 
BRANCH  39  40
ATOM     40  N   UNL A   1      41.082  21.586  26.943  1.00  0.00    -0.352 N 
ATOM     41  C   UNL A   1      42.206  21.591  26.121  1.00  0.00     0.251 C 
ATOM     42  H   UNL A   1      40.714  20.699  27.155  1.00  0.00     0.163 HD
ATOM     43  O   UNL A   1      42.455  20.666  25.370  1.00  0.00    -0.269 OA
BRANCH  41  44
ATOM     44  C   UNL A   1      43.120  22.743  26.229  1.00  0.00     0.039 A 
ATOM     45  C   UNL A   1      43.056  23.879  25.414  1.00  0.00     0.014 A 
ATOM     46  C   UNL A   1      44.027  22.663  27.271  1.00  0.00     0.014 A 
ATOM     47  C   UNL A   1      43.916  24.940  25.701  1.00  0.00     0.010 A 
ATOM     48  C   UNL A   1      44.564  23.812  27.748  1.00  0.00     0.010 A 
ATOM     49  C   UNL A   1      44.674  24.876  26.875  1.00  0.00    -0.014 A 
BRANCH  49  50
ATOM     50  C   UNL A   1      45.612  25.888  27.313  1.00  0.00     0.031 A 
ATOM     51  C   UNL A   1      46.933  25.810  26.656  1.00  0.00     0.074 A 
ATOM     52  C   UNL A   1      45.178  26.977  27.991  1.00  0.00     0.049 A 
ATOM     53  N   UNL A   1      48.040  25.433  27.196  1.00  0.00    -0.248 NA
ATOM     54  C   UNL A   1      47.008  25.990  25.198  1.00  0.00     0.031 C 
ATOM     55  C   UNL A   1      43.799  27.339  28.369  1.00  0.00     0.029 A 
ATOM     56  N   UNL A   1      45.873  28.084  28.347  1.00  0.00    -0.354 N 
ATOM     57  C   UNL A   1      49.000  25.571  26.200  1.00  0.00     0.074 A 
ATOM     58  C   UNL A   1      48.278  25.654  24.960  1.00  0.00     0.031 C 
ATOM     59  C   UNL A   1      43.743  28.656  28.672  1.00  0.00     0.029 A 
ATOM     60  C   UNL A   1      45.090  29.192  28.657  1.00  0.00     0.049 A 
ATOM     61  H   UNL A   1      46.857  28.103  28.383  1.00  0.00     0.167 HD
ATOM     62  C   UNL A   1      50.291  25.883  26.507  1.00  0.00     0.034 A 
ATOM     63  C   UNL A   1      45.530  30.465  28.827  1.00  0.00     0.034 A 
ATOM     64  C   UNL A   1      50.506  25.815  27.935  1.00  0.00     0.049 A 
ATOM     65  C   UNL A   1      46.985  30.380  29.112  1.00  0.00     0.074 A 
ATOM     66  C   UNL A   1      50.388  24.821  28.885  1.00  0.00     0.029 A 
ATOM     67  N   UNL A   1      50.461  27.008  28.622  1.00  0.00    -0.354 N 
ATOM     68  N   UNL A   1      47.462  29.815  30.188  1.00  0.00    -0.248 NA
ATOM     69  C   UNL A   1      47.903  30.458  27.987  1.00  0.00     0.031 C 
ATOM     70  C   UNL A   1      49.789  25.463  30.008  1.00  0.00     0.029 A 
ATOM     71  C   UNL A   1      49.665  26.825  29.724  1.00  0.00     0.049 A 
ATOM     72  H   UNL A   1      50.917  27.842  28.367  1.00  0.00     0.167 HD
ATOM     73  C   UNL A   1      48.530  29.053  29.729  1.00  0.00     0.074 A 
ATOM     74  C   UNL A   1      48.823  29.574  28.392  1.00  0.00     0.031 C 
ATOM     75  C   UNL A   1      48.867  27.872  30.330  1.00  0.00     0.034 A 
BRANCH  62  76
ATOM     76  C   UNL A   1      51.274  26.589  25.607  1.00  0.00     0.023 A 
ATOM     77  C   UNL A   1      52.481  25.911  25.324  1.00  0.00     0.012 A 
ATOM     78  C   UNL A   1      51.201  27.948  25.225  1.00  0.00     0.148 A 
ATOM     79  C   UNL A   1      53.573  26.561  24.742  1.00  0.00     0.002 A 
ATOM     80  C   UNL A   1      52.262  28.571  24.576  1.00  0.00     0.091 A 
ATOM     81  F   UNL A   1      50.161  28.696  25.601  1.00  0.00    -0.205 F 
ATOM     82  C   UNL A   1      53.461  27.891  24.360  1.00  0.00     0.022 A 
BRANCH  80  83
ATOM     83  S   UNL A   1      52.156  30.277  24.021  1.00  0.00     0.127 S 
ATOM     84  O   UNL A   1      53.562  30.599  23.795  1.00  0.00    -0.237 OA
ATOM     85  O   UNL A   1      51.347  30.148  22.808  1.00  0.00    -0.237 OA
ATOM     86  O   UNL A   1      51.499  31.002  25.102  1.00  0.00    -0.744 OA
ENDBRANCH  80  83
ENDBRANCH  62  76
BRANCH  63  87
ATOM     87  C   UNL A   1      44.858  31.743  28.485  1.00  0.00     0.023 A 
ATOM     88  C   UNL A   1      44.485  32.649  29.498  1.00  0.00     0.012 A 
ATOM     89  C   UNL A   1      44.831  32.201  27.149  1.00  0.00     0.148 A 
ATOM     90  C   UNL A   1      44.123  33.970  29.192  1.00  0.00     0.002 A 
ATOM     91  C   UNL A   1      44.467  33.509  26.848  1.00  0.00     0.091 A 
ATOM     92  F   UNL A   1      45.260  31.381  26.179  1.00  0.00    -0.205 F 
ATOM     93  C   UNL A   1      44.122  34.403  27.868  1.00  0.00     0.022 A 
BRANCH  91  94
ATOM     94  S   UNL A   1      44.475  34.130  25.161  1.00  0.00     0.127 S 
ATOM     95  O   UNL A   1      43.572  35.278  25.255  1.00  0.00    -0.237 OA
ATOM     96  O   UNL A   1      45.884  34.468  24.975  1.00  0.00    -0.237 OA
ATOM     97  O   UNL A   1      43.971  33.037  24.338  1.00  0.00    -0.744 OA
ENDBRANCH  91  94
ENDBRANCH  63  87
BRANCH  75  98
ATOM     98  C   UNL A   1      48.163  27.504  31.619  1.00  0.00     0.023 A 
ATOM     99  C   UNL A   1      48.514  28.067  32.866  1.00  0.00     0.012 A 
ATOM    100  C   UNL A   1      46.994  26.731  31.541  1.00  0.00     0.148 A 
ATOM    101  C   UNL A   1      47.734  27.852  34.006  1.00  0.00     0.002 A 
ATOM    102  C   UNL A   1      46.194  26.557  32.664  1.00  0.00     0.091 A 
ATOM    103  F   UNL A   1      46.663  26.205  30.351  1.00  0.00    -0.205 F 
ATOM    104  C   UNL A   1      46.564  27.107  33.902  1.00  0.00     0.022 A 
BRANCH 102 105
ATOM    105  S   UNL A   1      44.608  25.727  32.559  1.00  0.00     0.127 S 
ATOM    106  O   UNL A   1      43.747  26.782  32.030  1.00  0.00    -0.237 OA
ATOM    107  O   UNL A   1      44.884  24.636  31.622  1.00  0.00    -0.237 OA
ATOM    108  O   UNL A   1      44.300  25.281  33.912  1.00  0.00    -0.744 OA
ENDBRANCH 102 105
ENDBRANCH  75  98
ENDBRANCH  49  50
ENDBRANCH  41  44
ENDBRANCH  39  40
ENDBRANCH   1  39
TORSDOF 18
ENDMDL
