MODEL 1
REMARK VINA RESULT:     -12.3      0.000      0.000
REMARK SMILES C[C@@H](C(=O)NCCCCNC(=O)c1ccc(-c2c3nc(c(-c4cccc(S(=O)(=O)[O-])c4F)c4ccc([nH]4)c(-c4cccc(S(=O)(=O)[O-])c4F)c4nc(c(-c5cccc(S(=O)(=O)[O-])c5F)c5ccc2[nH]5)C=C4)C=C3)cc1)N(C)c1ccc(C(N)=O)nn1
REMARK SMILES IDX 7 1 6 2 5 3 3 4 4 5 2 7 1 8 76 9 77 10 78 11 79 12 86 13
REMARK SMILES IDX 80 14 85 15 81 16 82 17 83 18 84 19 8 22 9 23 10 24 11 25
REMARK SMILES IDX 12 27 13 28 14 29 75 30 15 31 74 32 16 33 17 34 18 35 68 36
REMARK SMILES IDX 19 37 73 38 67 39 69 40 20 41 72 42 66 43 65 44 21 46 53 47
REMARK SMILES IDX 33 48 52 49 34 50 37 51 51 52 70 53 35 54 36 55 50 57 71 58
REMARK SMILES IDX 38 59 22 60 23 61 31 62 24 63 26 64 32 65 25 66 27 67 28 68
REMARK SMILES IDX 29 69 30 70 54 71 55 72 63 73 56 74 58 75 64 76 57 77 59 78
REMARK SMILES IDX 60 79 61 80 62 81 39 82 40 83 48 84 41 85 43 86 49 87 42 88
REMARK SMILES IDX 44 89 45 90 46 91 47 92
REMARK H PARENT 5 6 83 20 83 21 10 26 69 45 37 56
REMARK Flexibility Score: inf
ROOT
ATOM      1  C   UNL A   1      31.878  30.264  26.690  1.00  0.00     0.023 C 
ENDROOT
BRANCH   1   2
ATOM      2  C   UNL A   1      33.279  29.779  26.316  1.00  0.00     0.116 C 
BRANCH   2   3
ATOM      3  N   UNL A   1      33.437  29.669  24.881  1.00  0.00    -0.354 N 
ATOM      4  C   UNL A   1      32.803  28.865  23.977  1.00  0.00     0.242 C 
ATOM      5  O   UNL A   1      33.133  29.014  22.798  1.00  0.00    -0.273 OA
ATOM      6  H   UNL A   1      34.111  30.272  24.494  1.00  0.00     0.163 HD
BRANCH   4   7
ATOM      7  C   UNL A   1      31.675  27.889  24.437  1.00  0.00     0.169 C 
ATOM      8  C   UNL A   1      32.155  26.472  24.748  1.00  0.00     0.042 C 
BRANCH   7   9
ATOM      9  N   UNL A   1      30.503  27.862  23.509  1.00  0.00    -0.346 N 
ATOM     10  C   UNL A   1      29.508  26.822  23.760  1.00  0.00     0.146 C 
BRANCH   9  11
ATOM     11  C   UNL A   1      29.960  29.060  23.023  1.00  0.00     0.151 A 
ATOM     12  C   UNL A   1      29.550  30.076  23.883  1.00  0.00     0.051 A 
ATOM     13  N   UNL A   1      29.853  29.277  21.688  1.00  0.00    -0.132 NA
ATOM     14  C   UNL A   1      28.963  31.240  23.390  1.00  0.00     0.040 A 
ATOM     15  N   UNL A   1      29.261  30.420  21.175  1.00  0.00    -0.143 NA
ATOM     16  C   UNL A   1      28.812  31.365  22.026  1.00  0.00     0.150 A 
BRANCH  16  17
ATOM     17  C   UNL A   1      28.166  32.570  21.443  1.00  0.00     0.269 C 
ATOM     18  N   UNL A   1      27.711  32.457  20.157  1.00  0.00    -0.364 N 
ATOM     19  O   UNL A   1      28.042  33.615  22.074  1.00  0.00    -0.268 OA
ATOM     20  H   UNL A   1      27.821  31.609  19.669  1.00  0.00     0.160 HD
ATOM     21  H   UNL A   1      27.274  33.224  19.721  1.00  0.00     0.160 HD
ENDBRANCH  16  17
ENDBRANCH   9  11
ENDBRANCH   7   9
ENDBRANCH   4   7
ENDBRANCH   2   3
ENDBRANCH   1   2
BRANCH   1  22
ATOM     22  C   UNL A   1      31.713  31.786  26.690  1.00  0.00     0.023 C 
BRANCH  22  23
ATOM     23  C   UNL A   1      32.859  32.568  27.326  1.00  0.00     0.116 C 
BRANCH  23  24
ATOM     24  N   UNL A   1      32.506  33.949  27.625  1.00  0.00    -0.352 N 
ATOM     25  C   UNL A   1      33.044  34.795  28.566  1.00  0.00     0.251 C 
ATOM     26  H   UNL A   1      31.782  34.329  27.077  1.00  0.00     0.163 HD
ATOM     27  O   UNL A   1      32.527  35.890  28.768  1.00  0.00    -0.269 OA
BRANCH  25  28
ATOM     28  C   UNL A   1      34.220  34.368  29.352  1.00  0.00     0.039 A 
ATOM     29  C   UNL A   1      34.015  33.733  30.579  1.00  0.00     0.014 A 
ATOM     30  C   UNL A   1      35.518  34.566  28.871  1.00  0.00     0.014 A 
ATOM     31  C   UNL A   1      35.108  33.227  31.287  1.00  0.00     0.010 A 
ATOM     32  C   UNL A   1      36.598  33.997  29.542  1.00  0.00     0.010 A 
ATOM     33  C   UNL A   1      36.404  33.314  30.752  1.00  0.00    -0.014 A 
BRANCH  33  34
ATOM     34  C   UNL A   1      37.555  32.651  31.420  1.00  0.00     0.031 A 
ATOM     35  C   UNL A   1      38.256  31.488  30.770  1.00  0.00     0.074 A 
ATOM     36  C   UNL A   1      37.915  33.046  32.659  1.00  0.00     0.049 A 
ATOM     37  N   UNL A   1      39.243  30.765  31.228  1.00  0.00    -0.248 NA
ATOM     38  C   UNL A   1      37.771  31.070  29.444  1.00  0.00     0.031 C 
ATOM     39  C   UNL A   1      37.263  34.107  33.431  1.00  0.00     0.029 A 
ATOM     40  N   UNL A   1      38.897  32.584  33.499  1.00  0.00    -0.354 N 
ATOM     41  C   UNL A   1      39.479  29.788  30.268  1.00  0.00     0.074 A 
ATOM     42  C   UNL A   1      38.513  29.995  29.211  1.00  0.00     0.031 C 
ATOM     43  C   UNL A   1      37.863  34.216  34.627  1.00  0.00     0.029 A 
ATOM     44  C   UNL A   1      38.916  33.211  34.724  1.00  0.00     0.049 A 
ATOM     45  H   UNL A   1      39.529  31.871  33.250  1.00  0.00     0.167 HD
ATOM     46  C   UNL A   1      40.428  28.822  30.256  1.00  0.00     0.034 A 
ATOM     47  C   UNL A   1      39.681  32.991  35.812  1.00  0.00     0.034 A 
ATOM     48  C   UNL A   1      41.408  28.638  31.292  1.00  0.00     0.049 A 
ATOM     49  C   UNL A   1      40.741  31.925  35.757  1.00  0.00     0.074 A 
ATOM     50  C   UNL A   1      42.466  27.747  31.324  1.00  0.00     0.029 A 
ATOM     51  N   UNL A   1      41.444  29.342  32.485  1.00  0.00    -0.354 N 
ATOM     52  N   UNL A   1      41.058  31.125  34.769  1.00  0.00    -0.248 NA
ATOM     53  C   UNL A   1      41.574  31.752  36.958  1.00  0.00     0.031 C 
ATOM     54  C   UNL A   1      43.119  27.885  32.552  1.00  0.00     0.029 A 
ATOM     55  C   UNL A   1      42.493  28.891  33.269  1.00  0.00     0.049 A 
ATOM     56  H   UNL A   1      40.816  30.056  32.738  1.00  0.00     0.167 HD
ATOM     57  C   UNL A   1      42.145  30.382  35.213  1.00  0.00     0.074 A 
ATOM     58  C   UNL A   1      42.450  30.846  36.551  1.00  0.00     0.031 C 
ATOM     59  C   UNL A   1      42.821  29.393  34.578  1.00  0.00     0.034 A 
BRANCH  46  60
ATOM     60  C   UNL A   1      40.489  27.903  29.062  1.00  0.00     0.023 A 
ATOM     61  C   UNL A   1      39.523  26.886  28.915  1.00  0.00     0.012 A 
ATOM     62  C   UNL A   1      41.440  28.107  28.043  1.00  0.00     0.148 A 
ATOM     63  C   UNL A   1      39.518  26.072  27.784  1.00  0.00     0.002 A 
ATOM     64  C   UNL A   1      41.400  27.321  26.899  1.00  0.00     0.091 A 
ATOM     65  F   UNL A   1      42.360  29.068  28.212  1.00  0.00    -0.205 F 
ATOM     66  C   UNL A   1      40.447  26.297  26.772  1.00  0.00     0.022 A 
BRANCH  64  67
ATOM     67  S   UNL A   1      42.497  27.582  25.500  1.00  0.00     0.127 S 
ATOM     68  O   UNL A   1      43.785  27.767  26.168  1.00  0.00    -0.237 OA
ATOM     69  O   UNL A   1      42.364  26.324  24.767  1.00  0.00    -0.237 OA
ATOM     70  O   UNL A   1      41.989  28.755  24.801  1.00  0.00    -0.744 OA
ENDBRANCH  64  67
ENDBRANCH  46  60
BRANCH  47  71
ATOM     71  C   UNL A   1      39.501  33.820  37.039  1.00  0.00     0.023 A 
ATOM     72  C   UNL A   1      39.997  35.138  37.068  1.00  0.00     0.012 A 
ATOM     73  C   UNL A   1      38.845  33.310  38.175  1.00  0.00     0.148 A 
ATOM     74  C   UNL A   1      39.883  35.916  38.222  1.00  0.00     0.002 A 
ATOM     75  C   UNL A   1      38.679  34.110  39.298  1.00  0.00     0.091 A 
ATOM     76  F   UNL A   1      38.389  32.048  38.132  1.00  0.00    -0.205 F 
ATOM     77  C   UNL A   1      39.217  35.406  39.332  1.00  0.00     0.022 A 
BRANCH  75  78
ATOM     78  S   UNL A   1      37.718  33.582  40.719  1.00  0.00     0.127 S 
ATOM     79  O   UNL A   1      37.705  34.792  41.537  1.00  0.00    -0.237 OA
ATOM     80  O   UNL A   1      36.435  33.238  40.105  1.00  0.00    -0.237 OA
ATOM     81  O   UNL A   1      38.437  32.445  41.278  1.00  0.00    -0.744 OA
ENDBRANCH  75  78
ENDBRANCH  47  71
BRANCH  59  82
ATOM     82  C   UNL A   1      43.987  28.768  35.298  1.00  0.00     0.023 A 
ATOM     83  C   UNL A   1      45.288  29.273  35.106  1.00  0.00     0.012 A 
ATOM     84  C   UNL A   1      43.781  27.719  36.217  1.00  0.00     0.148 A 
ATOM     85  C   UNL A   1      46.371  28.718  35.787  1.00  0.00     0.002 A 
ATOM     86  C   UNL A   1      44.858  27.208  36.932  1.00  0.00     0.091 A 
ATOM     87  F   UNL A   1      42.538  27.241  36.374  1.00  0.00    -0.205 F 
ATOM     88  C   UNL A   1      46.155  27.696  36.707  1.00  0.00     0.022 A 
BRANCH  86  89
ATOM     89  S   UNL A   1      44.662  25.959  38.208  1.00  0.00     0.127 S 
ATOM     90  O   UNL A   1      46.022  25.853  38.732  1.00  0.00    -0.237 OA
ATOM     91  O   UNL A   1      43.705  26.594  39.116  1.00  0.00    -0.237 OA
ATOM     92  O   UNL A   1      44.158  24.770  37.535  1.00  0.00    -0.744 OA
ENDBRANCH  86  89
ENDBRANCH  59  82
ENDBRANCH  33  34
ENDBRANCH  25  28
ENDBRANCH  23  24
ENDBRANCH  22  23
ENDBRANCH   1  22
TORSDOF 17
ENDMDL
MODEL 2
REMARK VINA RESULT:     -11.9      7.476     12.612
REMARK SMILES C[C@@H](C(=O)NCCCCNC(=O)c1ccc(-c2c3nc(c(-c4cccc(S(=O)(=O)[O-])c4F)c4ccc([nH]4)c(-c4cccc(S(=O)(=O)[O-])c4F)c4nc(c(-c5cccc(S(=O)(=O)[O-])c5F)c5ccc2[nH]5)C=C4)C=C3)cc1)N(C)c1ccc(C(N)=O)nn1
REMARK SMILES IDX 7 1 6 2 5 3 3 4 4 5 2 7 1 8 76 9 77 10 78 11 79 12 86 13
REMARK SMILES IDX 80 14 85 15 81 16 82 17 83 18 84 19 8 22 9 23 10 24 11 25
REMARK SMILES IDX 12 27 13 28 14 29 75 30 15 31 74 32 16 33 17 34 18 35 68 36
REMARK SMILES IDX 19 37 73 38 67 39 69 40 20 41 72 42 66 43 65 44 21 46 53 47
REMARK SMILES IDX 33 48 52 49 34 50 37 51 51 52 70 53 35 54 36 55 50 57 71 58
REMARK SMILES IDX 38 59 22 60 23 61 31 62 24 63 26 64 32 65 25 66 27 67 28 68
REMARK SMILES IDX 29 69 30 70 54 71 55 72 63 73 56 74 58 75 64 76 57 77 59 78
REMARK SMILES IDX 60 79 61 80 62 81 39 82 40 83 48 84 41 85 43 86 49 87 42 88
REMARK SMILES IDX 44 89 45 90 46 91 47 92
REMARK H PARENT 5 6 83 20 83 21 10 26 69 45 37 56
REMARK Flexibility Score: inf
ROOT
ATOM      1  C   UNL A   1      37.042  21.435  24.385  1.00  0.00     0.023 C 
ENDROOT
BRANCH   1   2
ATOM      2  C   UNL A   1      36.527  22.437  25.420  1.00  0.00     0.116 C 
BRANCH   2   3
ATOM      3  N   UNL A   1      35.747  21.782  26.449  1.00  0.00    -0.354 N 
ATOM      4  C   UNL A   1      34.394  21.692  26.616  1.00  0.00     0.242 C 
ATOM      5  O   UNL A   1      34.014  21.037  27.589  1.00  0.00    -0.273 OA
ATOM      6  H   UNL A   1      36.279  21.327  27.140  1.00  0.00     0.163 HD
BRANCH   4   7
ATOM      7  C   UNL A   1      33.422  22.325  25.572  1.00  0.00     0.169 C 
ATOM      8  C   UNL A   1      32.241  23.078  26.185  1.00  0.00     0.042 C 
BRANCH   7   9
ATOM      9  N   UNL A   1      32.953  21.353  24.537  1.00  0.00    -0.346 N 
ATOM     10  C   UNL A   1      33.136  21.758  23.146  1.00  0.00     0.146 C 
BRANCH   9  11
ATOM     11  C   UNL A   1      33.095  19.974  24.749  1.00  0.00     0.151 A 
ATOM     12  C   UNL A   1      34.226  19.284  24.322  1.00  0.00     0.051 A 
ATOM     13  N   UNL A   1      32.139  19.278  25.414  1.00  0.00    -0.132 NA
ATOM     14  C   UNL A   1      34.332  17.904  24.492  1.00  0.00     0.040 A 
ATOM     15  N   UNL A   1      32.216  17.904  25.582  1.00  0.00    -0.143 NA
ATOM     16  C   UNL A   1      33.291  17.244  25.106  1.00  0.00     0.150 A 
BRANCH  16  17
ATOM     17  C   UNL A   1      33.332  15.768  25.288  1.00  0.00     0.269 C 
ATOM     18  N   UNL A   1      32.125  15.133  25.397  1.00  0.00    -0.364 N 
ATOM     19  O   UNL A   1      34.388  15.145  25.337  1.00  0.00    -0.268 OA
ATOM     20  H   UNL A   1      31.290  15.652  25.356  1.00  0.00     0.160 HD
ATOM     21  H   UNL A   1      32.092  14.156  25.518  1.00  0.00     0.160 HD
ENDBRANCH  16  17
ENDBRANCH   9  11
ENDBRANCH   7   9
ENDBRANCH   4   7
ENDBRANCH   2   3
ENDBRANCH   1   2
BRANCH   1  22
ATOM     22  C   UNL A   1      37.763  20.223  24.981  1.00  0.00     0.023 C 
BRANCH  22  23
ATOM     23  C   UNL A   1      38.952  20.547  25.881  1.00  0.00     0.116 C 
BRANCH  23  24
ATOM     24  N   UNL A   1      39.932  19.471  25.934  1.00  0.00    -0.352 N 
ATOM     25  C   UNL A   1      41.291  19.547  26.127  1.00  0.00     0.251 C 
ATOM     26  H   UNL A   1      39.572  18.562  25.816  1.00  0.00     0.163 HD
ATOM     27  O   UNL A   1      41.983  18.540  26.008  1.00  0.00    -0.269 OA
BRANCH  25  28
ATOM     28  C   UNL A   1      41.917  20.849  26.444  1.00  0.00     0.039 A 
ATOM     29  C   UNL A   1      42.217  21.723  25.397  1.00  0.00     0.014 A 
ATOM     30  C   UNL A   1      42.180  21.218  27.766  1.00  0.00     0.014 A 
ATOM     31  C   UNL A   1      42.709  23.000  25.682  1.00  0.00     0.010 A 
ATOM     32  C   UNL A   1      42.601  22.515  28.051  1.00  0.00     0.010 A 
ATOM     33  C   UNL A   1      42.862  23.422  27.013  1.00  0.00    -0.014 A 
BRANCH  33  34
ATOM     34  C   UNL A   1      43.241  24.824  27.334  1.00  0.00     0.031 A 
ATOM     35  C   UNL A   1      42.239  25.774  27.932  1.00  0.00     0.074 A 
ATOM     36  C   UNL A   1      44.473  25.265  27.004  1.00  0.00     0.049 A 
ATOM     37  N   UNL A   1      42.383  27.038  28.231  1.00  0.00    -0.248 NA
ATOM     38  C   UNL A   1      40.894  25.243  28.209  1.00  0.00     0.031 C 
ATOM     39  C   UNL A   1      45.509  24.465  26.346  1.00  0.00     0.029 A 
ATOM     40  N   UNL A   1      45.054  26.500  27.150  1.00  0.00    -0.354 N 
ATOM     41  C   UNL A   1      41.147  27.464  28.701  1.00  0.00     0.074 A 
ATOM     42  C   UNL A   1      40.254  26.329  28.623  1.00  0.00     0.031 C 
ATOM     43  C   UNL A   1      46.596  25.227  26.148  1.00  0.00     0.029 A 
ATOM     44  C   UNL A   1      46.325  26.578  26.629  1.00  0.00     0.049 A 
ATOM     45  H   UNL A   1      44.603  27.260  27.586  1.00  0.00     0.167 HD
ATOM     46  C   UNL A   1      40.793  28.682  29.175  1.00  0.00     0.034 A 
ATOM     47  C   UNL A   1      47.172  27.622  26.530  1.00  0.00     0.034 A 
ATOM     48  C   UNL A   1      41.691  29.801  29.282  1.00  0.00     0.049 A 
ATOM     49  C   UNL A   1      46.756  28.956  27.087  1.00  0.00     0.074 A 
ATOM     50  C   UNL A   1      41.449  31.045  29.836  1.00  0.00     0.029 A 
ATOM     51  N   UNL A   1      42.995  29.820  28.813  1.00  0.00    -0.354 N 
ATOM     52  N   UNL A   1      45.638  29.290  27.684  1.00  0.00    -0.248 NA
ATOM     53  C   UNL A   1      47.733  30.051  26.989  1.00  0.00     0.031 C 
ATOM     54  C   UNL A   1      42.594  31.830  29.668  1.00  0.00     0.029 A 
ATOM     55  C   UNL A   1      43.563  31.061  29.046  1.00  0.00     0.049 A 
ATOM     56  H   UNL A   1      43.449  29.063  28.378  1.00  0.00     0.167 HD
ATOM     57  C   UNL A   1      45.790  30.618  28.063  1.00  0.00     0.074 A 
ATOM     58  C   UNL A   1      47.120  31.020  27.652  1.00  0.00     0.031 C 
ATOM     59  C   UNL A   1      44.904  31.437  28.680  1.00  0.00     0.034 A 
BRANCH  46  60
ATOM     60  C   UNL A   1      39.378  28.870  29.660  1.00  0.00     0.023 A 
ATOM     61  C   UNL A   1      39.034  28.481  30.971  1.00  0.00     0.012 A 
ATOM     62  C   UNL A   1      38.419  29.516  28.856  1.00  0.00     0.148 A 
ATOM     63  C   UNL A   1      37.750  28.711  31.465  1.00  0.00     0.002 A 
ATOM     64  C   UNL A   1      37.157  29.782  29.370  1.00  0.00     0.091 A 
ATOM     65  F   UNL A   1      38.763  29.861  27.606  1.00  0.00    -0.205 F 
ATOM     66  C   UNL A   1      36.818  29.372  30.669  1.00  0.00     0.022 A 
BRANCH  64  67
ATOM     67  S   UNL A   1      35.909  30.700  28.460  1.00  0.00     0.127 S 
ATOM     68  O   UNL A   1      35.050  31.179  29.542  1.00  0.00    -0.237 OA
ATOM     69  O   UNL A   1      36.707  31.739  27.809  1.00  0.00    -0.237 OA
ATOM     70  O   UNL A   1      35.287  29.747  27.551  1.00  0.00    -0.744 OA
ENDBRANCH  64  67
ENDBRANCH  46  60
BRANCH  47  71
ATOM     71  C   UNL A   1      48.516  27.444  25.909  1.00  0.00     0.023 A 
ATOM     72  C   UNL A   1      49.623  27.128  26.722  1.00  0.00     0.012 A 
ATOM     73  C   UNL A   1      48.705  27.588  24.522  1.00  0.00     0.148 A 
ATOM     74  C   UNL A   1      50.899  27.005  26.170  1.00  0.00     0.002 A 
ATOM     75  C   UNL A   1      49.966  27.404  23.970  1.00  0.00     0.091 A 
ATOM     76  F   UNL A   1      47.642  27.900  23.765  1.00  0.00    -0.205 F 
ATOM     77  C   UNL A   1      51.069  27.133  24.795  1.00  0.00     0.022 A 
BRANCH  75  78
ATOM     78  S   UNL A   1      50.250  27.416  22.198  1.00  0.00     0.127 S 
ATOM     79  O   UNL A   1      49.978  28.811  21.861  1.00  0.00    -0.237 OA
ATOM     80  O   UNL A   1      51.658  27.024  22.114  1.00  0.00    -0.237 OA
ATOM     81  O   UNL A   1      49.323  26.437  21.646  1.00  0.00    -0.744 OA
ENDBRANCH  75  78
ENDBRANCH  47  71
BRANCH  59  82
ATOM     82  C   UNL A   1      45.349  32.842  28.992  1.00  0.00     0.023 A 
ATOM     83  C   UNL A   1      46.036  33.114  30.192  1.00  0.00     0.012 A 
ATOM     84  C   UNL A   1      45.142  33.882  28.063  1.00  0.00     0.148 A 
ATOM     85  C   UNL A   1      46.476  34.407  30.479  1.00  0.00     0.002 A 
ATOM     86  C   UNL A   1      45.630  35.154  28.332  1.00  0.00     0.091 A 
ATOM     87  F   UNL A   1      44.472  33.606  26.935  1.00  0.00    -0.205 F 
ATOM     88  C   UNL A   1      46.283  35.422  29.546  1.00  0.00     0.022 A 
BRANCH  86  89
ATOM     89  S   UNL A   1      45.516  36.501  27.149  1.00  0.00     0.127 S 
ATOM     90  O   UNL A   1      46.211  37.576  27.854  1.00  0.00    -0.237 OA
ATOM     91  O   UNL A   1      46.239  35.960  25.996  1.00  0.00    -0.237 OA
ATOM     92  O   UNL A   1      44.095  36.721  26.922  1.00  0.00    -0.744 OA
ENDBRANCH  86  89
ENDBRANCH  59  82
ENDBRANCH  33  34
ENDBRANCH  25  28
ENDBRANCH  23  24
ENDBRANCH  22  23
ENDBRANCH   1  22
TORSDOF 17
ENDMDL
MODEL 3
REMARK VINA RESULT:     -11.8      3.814      9.454
REMARK SMILES C[C@@H](C(=O)NCCCCNC(=O)c1ccc(-c2c3nc(c(-c4cccc(S(=O)(=O)[O-])c4F)c4ccc([nH]4)c(-c4cccc(S(=O)(=O)[O-])c4F)c4nc(c(-c5cccc(S(=O)(=O)[O-])c5F)c5ccc2[nH]5)C=C4)C=C3)cc1)N(C)c1ccc(C(N)=O)nn1
REMARK SMILES IDX 7 1 6 2 5 3 3 4 4 5 2 7 1 8 76 9 77 10 78 11 79 12 86 13
REMARK SMILES IDX 80 14 85 15 81 16 82 17 83 18 84 19 8 22 9 23 10 24 11 25
REMARK SMILES IDX 12 27 13 28 14 29 75 30 15 31 74 32 16 33 17 34 18 35 68 36
REMARK SMILES IDX 19 37 73 38 67 39 69 40 20 41 72 42 66 43 65 44 21 46 53 47
REMARK SMILES IDX 33 48 52 49 34 50 37 51 51 52 70 53 35 54 36 55 50 57 71 58
REMARK SMILES IDX 38 59 22 60 23 61 31 62 24 63 26 64 32 65 25 66 27 67 28 68
REMARK SMILES IDX 29 69 30 70 54 71 55 72 63 73 56 74 58 75 64 76 57 77 59 78
REMARK SMILES IDX 60 79 61 80 62 81 39 82 40 83 48 84 41 85 43 86 49 87 42 88
REMARK SMILES IDX 44 89 45 90 46 91 47 92
REMARK H PARENT 5 6 83 20 83 21 10 26 69 45 37 56
REMARK Flexibility Score: inf
ROOT
ATOM      1  C   UNL A   1      31.645  28.176  26.736  1.00  0.00     0.023 C 
ENDROOT
BRANCH   1   2
ATOM      2  C   UNL A   1      31.106  27.148  25.740  1.00  0.00     0.116 C 
BRANCH   2   3
ATOM      3  N   UNL A   1      30.776  27.762  24.471  1.00  0.00    -0.354 N 
ATOM      4  C   UNL A   1      31.517  27.901  23.332  1.00  0.00     0.242 C 
ATOM      5  O   UNL A   1      30.953  28.454  22.386  1.00  0.00    -0.273 OA
ATOM      6  H   UNL A   1      29.869  28.140  24.422  1.00  0.00     0.163 HD
BRANCH   4   7
ATOM      7  C   UNL A   1      32.959  27.308  23.246  1.00  0.00     0.169 C 
ATOM      8  C   UNL A   1      33.916  28.101  22.358  1.00  0.00     0.042 C 
BRANCH   7   9
ATOM      9  N   UNL A   1      32.979  25.856  22.887  1.00  0.00    -0.346 N 
ATOM     10  C   UNL A   1      32.622  25.530  21.509  1.00  0.00     0.146 C 
BRANCH   9  11
ATOM     11  C   UNL A   1      33.952  25.008  23.437  1.00  0.00     0.151 A 
ATOM     12  C   UNL A   1      34.370  25.138  24.759  1.00  0.00     0.051 A 
ATOM     13  N   UNL A   1      34.489  24.006  22.697  1.00  0.00    -0.132 NA
ATOM     14  C   UNL A   1      35.375  24.324  25.277  1.00  0.00     0.040 A 
ATOM     15  N   UNL A   1      35.500  23.193  23.186  1.00  0.00    -0.143 NA
ATOM     16  C   UNL A   1      35.935  23.376  24.449  1.00  0.00     0.150 A 
BRANCH  16  17
ATOM     17  C   UNL A   1      37.032  22.497  24.936  1.00  0.00     0.269 C 
ATOM     18  N   UNL A   1      37.615  22.850  26.123  1.00  0.00    -0.364 N 
ATOM     19  O   UNL A   1      37.399  21.506  24.314  1.00  0.00    -0.268 OA
ATOM     20  H   UNL A   1      37.304  23.650  26.605  1.00  0.00     0.160 HD
ATOM     21  H   UNL A   1      38.345  22.304  26.494  1.00  0.00     0.160 HD
ENDBRANCH  16  17
ENDBRANCH   9  11
ENDBRANCH   7   9
ENDBRANCH   4   7
ENDBRANCH   2   3
ENDBRANCH   1   2
BRANCH   1  22
ATOM     22  C   UNL A   1      33.169  28.181  26.880  1.00  0.00     0.023 C 
BRANCH  22  23
ATOM     23  C   UNL A   1      33.895  29.279  26.108  1.00  0.00     0.116 C 
BRANCH  23  24
ATOM     24  N   UNL A   1      33.818  30.578  26.762  1.00  0.00    -0.352 N 
ATOM     25  C   UNL A   1      34.644  31.114  27.720  1.00  0.00     0.251 C 
ATOM     26  H   UNL A   1      33.069  31.151  26.480  1.00  0.00     0.163 HD
ATOM     27  O   UNL A   1      34.347  32.177  28.259  1.00  0.00    -0.269 OA
BRANCH  25  28
ATOM     28  C   UNL A   1      35.870  30.392  28.122  1.00  0.00     0.039 A 
ATOM     29  C   UNL A   1      37.027  30.552  27.356  1.00  0.00     0.014 A 
ATOM     30  C   UNL A   1      35.888  29.585  29.264  1.00  0.00     0.014 A 
ATOM     31  C   UNL A   1      38.222  29.965  27.778  1.00  0.00     0.010 A 
ATOM     32  C   UNL A   1      37.096  29.061  29.720  1.00  0.00     0.010 A 
ATOM     33  C   UNL A   1      38.277  29.252  28.988  1.00  0.00    -0.014 A 
BRANCH  33  34
ATOM     34  C   UNL A   1      39.569  28.750  29.524  1.00  0.00     0.031 A 
ATOM     35  C   UNL A   1      40.273  29.474  30.640  1.00  0.00     0.074 A 
ATOM     36  C   UNL A   1      40.154  27.682  28.942  1.00  0.00     0.049 A 
ATOM     37  N   UNL A   1      41.424  29.204  31.197  1.00  0.00    -0.248 NA
ATOM     38  C   UNL A   1      39.608  30.668  31.188  1.00  0.00     0.031 C 
ATOM     39  C   UNL A   1      39.613  26.941  27.799  1.00  0.00     0.029 A 
ATOM     40  N   UNL A   1      41.343  27.051  29.210  1.00  0.00    -0.354 N 
ATOM     41  C   UNL A   1      41.640  30.206  32.135  1.00  0.00     0.074 A 
ATOM     42  C   UNL A   1      40.511  31.107  32.055  1.00  0.00     0.031 C 
ATOM     43  C   UNL A   1      40.465  25.958  27.467  1.00  0.00     0.029 A 
ATOM     44  C   UNL A   1      41.627  26.018  28.346  1.00  0.00     0.049 A 
ATOM     45  H   UNL A   1      41.936  27.312  29.951  1.00  0.00     0.167 HD
ATOM     46  C   UNL A   1      42.672  30.350  33.000  1.00  0.00     0.034 A 
ATOM     47  C   UNL A   1      42.711  25.221  28.256  1.00  0.00     0.034 A 
ATOM     48  C   UNL A   1      43.778  29.436  33.100  1.00  0.00     0.049 A 
ATOM     49  C   UNL A   1      43.830  25.394  29.247  1.00  0.00     0.074 A 
ATOM     50  C   UNL A   1      44.822  29.448  34.008  1.00  0.00     0.029 A 
ATOM     51  N   UNL A   1      43.995  28.357  32.257  1.00  0.00    -0.354 N 
ATOM     52  N   UNL A   1      43.932  26.245  30.238  1.00  0.00    -0.248 NA
ATOM     53  C   UNL A   1      44.970  24.472  29.129  1.00  0.00     0.031 C 
ATOM     54  C   UNL A   1      45.691  28.400  33.691  1.00  0.00     0.029 A 
ATOM     55  C   UNL A   1      45.166  27.709  32.611  1.00  0.00     0.049 A 
ATOM     56  H   UNL A   1      43.403  28.091  31.517  1.00  0.00     0.167 HD
ATOM     57  C   UNL A   1      45.126  25.940  30.881  1.00  0.00     0.074 A 
ATOM     58  C   UNL A   1      45.698  24.807  30.184  1.00  0.00     0.031 C 
ATOM     59  C   UNL A   1      45.703  26.552  31.944  1.00  0.00     0.034 A 
BRANCH  46  60
ATOM     60  C   UNL A   1      42.644  31.522  33.947  1.00  0.00     0.023 A 
ATOM     61  C   UNL A   1      43.125  32.777  33.519  1.00  0.00     0.012 A 
ATOM     62  C   UNL A   1      42.055  31.405  35.222  1.00  0.00     0.148 A 
ATOM     63  C   UNL A   1      43.043  33.890  34.354  1.00  0.00     0.002 A 
ATOM     64  C   UNL A   1      41.936  32.529  36.030  1.00  0.00     0.091 A 
ATOM     65  F   UNL A   1      41.620  30.199  35.615  1.00  0.00    -0.205 F 
ATOM     66  C   UNL A   1      42.438  33.769  35.602  1.00  0.00     0.022 A 
BRANCH  64  67
ATOM     67  S   UNL A   1      41.099  32.500  37.619  1.00  0.00     0.127 S 
ATOM     68  O   UNL A   1      39.789  31.964  37.252  1.00  0.00    -0.237 OA
ATOM     69  O   UNL A   1      41.939  31.584  38.392  1.00  0.00    -0.237 OA
ATOM     70  O   UNL A   1      41.093  33.875  38.099  1.00  0.00    -0.744 OA
ENDBRANCH  64  67
ENDBRANCH  46  60
BRANCH  47  71
ATOM     71  C   UNL A   1      42.780  24.160  27.211  1.00  0.00     0.023 A 
ATOM     72  C   UNL A   1      43.588  24.354  26.073  1.00  0.00     0.012 A 
ATOM     73  C   UNL A   1      42.049  22.963  27.336  1.00  0.00     0.148 A 
ATOM     74  C   UNL A   1      43.630  23.396  25.058  1.00  0.00     0.002 A 
ATOM     75  C   UNL A   1      42.144  21.987  26.352  1.00  0.00     0.091 A 
ATOM     76  F   UNL A   1      41.277  22.801  28.421  1.00  0.00    -0.205 F 
ATOM     77  C   UNL A   1      42.917  22.210  25.202  1.00  0.00     0.022 A 
BRANCH  75  78
ATOM     78  S   UNL A   1      41.368  20.377  26.521  1.00  0.00     0.127 S 
ATOM     79  O   UNL A   1      41.857  19.944  27.827  1.00  0.00    -0.237 OA
ATOM     80  O   UNL A   1      39.946  20.721  26.478  1.00  0.00    -0.237 OA
ATOM     81  O   UNL A   1      41.829  19.598  25.379  1.00  0.00    -0.744 OA
ENDBRANCH  75  78
ENDBRANCH  47  71
BRANCH  59  82
ATOM     82  C   UNL A   1      47.005  25.990  32.452  1.00  0.00     0.023 A 
ATOM     83  C   UNL A   1      48.228  26.519  31.995  1.00  0.00     0.012 A 
ATOM     84  C   UNL A   1      47.013  24.978  33.433  1.00  0.00     0.148 A 
ATOM     85  C   UNL A   1      49.440  26.023  32.478  1.00  0.00     0.002 A 
ATOM     86  C   UNL A   1      48.223  24.527  33.948  1.00  0.00     0.091 A 
ATOM     87  F   UNL A   1      45.840  24.476  33.843  1.00  0.00    -0.205 F 
ATOM     88  C   UNL A   1      49.437  25.038  33.461  1.00  0.00     0.022 A 
BRANCH  86  89
ATOM     89  S   UNL A   1      48.315  23.332  35.286  1.00  0.00     0.127 S 
ATOM     90  O   UNL A   1      49.752  23.293  35.552  1.00  0.00    -0.237 OA
ATOM     91  O   UNL A   1      47.517  23.975  36.330  1.00  0.00    -0.237 OA
ATOM     92  O   UNL A   1      47.745  22.097  34.764  1.00  0.00    -0.744 OA
ENDBRANCH  86  89
ENDBRANCH  59  82
ENDBRANCH  33  34
ENDBRANCH  25  28
ENDBRANCH  23  24
ENDBRANCH  22  23
ENDBRANCH   1  22
TORSDOF 17
ENDMDL
