MODEL 1
REMARK VINA RESULT:     -12.0      0.000      0.000
REMARK SMILES [NH3+][C@H](c1ccc(C(=O)NCCCCNC(=O)c2ccc(-c3c4nc(c(-c5cccc(S(=O)(=O)[O-])c5F)c5ccc([nH]5)c(-c5cccc(S(=O)(=O)[O-])c5F)c5nc(c(-c6cccc(S(=O)(=O)[O-])c6F)c6ccc3[nH]6)C=C5)C=C4)cc2)cc1Cl)C(F)(F)F
REMARK SMILES IDX 12 1 11 2 10 3 9 4 7 5 8 6 6 8 3 9 4 10 81 11 5 12 80 13
REMARK SMILES IDX 82 14 2 15 1 16 83 20 84 21 85 22 86 23 13 24 14 25 15 26
REMARK SMILES IDX 16 28 17 29 18 30 79 31 19 32 78 33 20 34 21 35 22 36 72 37
REMARK SMILES IDX 23 38 77 39 71 40 73 41 24 42 76 43 70 44 69 45 25 47 57 48
REMARK SMILES IDX 37 49 56 50 38 51 41 52 55 53 74 54 39 55 40 56 54 58 75 59
REMARK SMILES IDX 42 60 26 61 27 62 35 63 28 64 30 65 36 66 29 67 31 68 32 69
REMARK SMILES IDX 33 70 34 71 58 72 59 73 67 74 60 75 62 76 68 77 61 78 63 79
REMARK SMILES IDX 64 80 65 81 66 82 43 83 44 84 52 85 45 86 47 87 53 88 46 89
REMARK SMILES IDX 48 90 49 91 50 92 51 93
REMARK H PARENT 9 7 1 17 1 18 1 19 14 27 73 46 41 57
REMARK Flexibility Score: inf
ROOT
ATOM      1  C   UNL A   1      31.795  28.667  26.440  1.00  0.00     0.023 C 
ENDROOT
BRANCH   1   2
ATOM      2  C   UNL A   1      32.310  27.231  26.560  1.00  0.00     0.023 C 
BRANCH   2   3
ATOM      3  C   UNL A   1      31.254  26.152  26.300  1.00  0.00     0.116 C 
BRANCH   3   4
ATOM      4  N   UNL A   1      31.521  25.458  25.055  1.00  0.00    -0.352 N 
ATOM      5  C   UNL A   1      31.256  25.780  23.749  1.00  0.00     0.251 C 
ATOM      6  O   UNL A   1      31.652  25.012  22.871  1.00  0.00    -0.269 OA
ATOM      7  H   UNL A   1      31.980  24.594  25.168  1.00  0.00     0.163 HD
BRANCH   5   8
ATOM      8  C   UNL A   1      30.554  27.028  23.334  1.00  0.00     0.041 A 
ATOM      9  C   UNL A   1      29.384  29.481  22.489  1.00  0.00     0.037 A 
ATOM     10  C   UNL A   1      30.762  29.240  22.339  1.00  0.00     0.012 A 
ATOM     11  C   UNL A   1      28.603  28.455  23.044  1.00  0.00     0.051 A 
ATOM     12  C   UNL A   1      31.336  28.036  22.759  1.00  0.00     0.014 A 
ATOM     13  C   UNL A   1      29.179  27.238  23.430  1.00  0.00     0.034 A 
ATOM     14  Cl  UNL A   1      26.896  28.603  23.282  1.00  0.00    -0.084 Cl
BRANCH   9  15
ATOM     15  C   UNL A   1      28.847  30.848  22.072  1.00  0.00     0.320 C 
BRANCH  15  16
ATOM     16  N   UNL A   1      27.793  30.730  21.028  1.00  0.00    -0.344 N 
ATOM     17  H   UNL A   1      27.684  31.626  20.554  1.00  0.00     0.345 HD
ATOM     18  H   UNL A   1      26.909  30.467  21.465  1.00  0.00     0.345 HD
ATOM     19  H   UNL A   1      28.064  30.017  20.351  1.00  0.00     0.345 HD
ENDBRANCH  15  16
BRANCH  15  20
ATOM     20  C   UNL A   1      28.519  31.735  23.317  1.00  0.00     0.445 C 
ATOM     21  F   UNL A   1      29.363  31.468  24.344  1.00  0.00    -0.165 F 
ATOM     22  F   UNL A   1      28.665  33.052  23.027  1.00  0.00    -0.165 F 
ATOM     23  F   UNL A   1      27.258  31.560  23.767  1.00  0.00    -0.165 F 
ENDBRANCH  15  20
ENDBRANCH   9  15
ENDBRANCH   5   8
ENDBRANCH   3   4
ENDBRANCH   2   3
ENDBRANCH   1   2
BRANCH   1  24
ATOM     24  C   UNL A   1      32.813  29.672  25.916  1.00  0.00     0.116 C 
BRANCH  24  25
ATOM     25  N   UNL A   1      32.521  31.043  26.305  1.00  0.00    -0.352 N 
ATOM     26  C   UNL A   1      33.215  31.847  27.180  1.00  0.00     0.251 C 
ATOM     27  H   UNL A   1      31.726  31.448  25.890  1.00  0.00     0.163 HD
ATOM     28  O   UNL A   1      32.781  32.951  27.481  1.00  0.00    -0.269 OA
BRANCH  26  29
ATOM     29  C   UNL A   1      34.468  31.343  27.783  1.00  0.00     0.039 A 
ATOM     30  C   UNL A   1      35.533  32.230  27.962  1.00  0.00     0.014 A 
ATOM     31  C   UNL A   1      34.579  30.012  28.194  1.00  0.00     0.014 A 
ATOM     32  C   UNL A   1      36.694  31.793  28.604  1.00  0.00     0.010 A 
ATOM     33  C   UNL A   1      35.706  29.600  28.895  1.00  0.00     0.010 A 
ATOM     34  C   UNL A   1      36.778  30.481  29.098  1.00  0.00    -0.014 A 
BRANCH  34  35
ATOM     35  C   UNL A   1      37.984  30.003  29.819  1.00  0.00     0.031 A 
ATOM     36  C   UNL A   1      38.264  30.487  31.215  1.00  0.00     0.074 A 
ATOM     37  C   UNL A   1      38.871  29.211  29.185  1.00  0.00     0.049 A 
ATOM     38  N   UNL A   1      39.291  30.239  31.984  1.00  0.00    -0.248 NA
ATOM     39  C   UNL A   1      37.273  31.398  31.815  1.00  0.00     0.031 C 
ATOM     40  C   UNL A   1      38.754  28.746  27.801  1.00  0.00     0.029 A 
ATOM     41  N   UNL A   1      40.061  28.680  29.614  1.00  0.00    -0.354 N 
ATOM     42  C   UNL A   1      39.094  30.990  33.136  1.00  0.00     0.074 A 
ATOM     43  C   UNL A   1      37.865  31.732  32.952  1.00  0.00     0.031 C 
ATOM     44  C   UNL A   1      39.827  27.998  27.497  1.00  0.00     0.029 A 
ATOM     45  C   UNL A   1      40.716  27.946  28.653  1.00  0.00     0.049 A 
ATOM     46  H   UNL A   1      40.412  28.812  30.524  1.00  0.00     0.167 HD
ATOM     47  C   UNL A   1      39.847  31.033  34.260  1.00  0.00     0.034 A 
ATOM     48  C   UNL A   1      41.900  27.302  28.701  1.00  0.00     0.034 A 
ATOM     49  C   UNL A   1      41.032  30.246  34.462  1.00  0.00     0.049 A 
ATOM     50  C   UNL A   1      42.681  27.307  29.988  1.00  0.00     0.074 A 
ATOM     51  C   UNL A   1      41.813  30.142  35.599  1.00  0.00     0.029 A 
ATOM     52  N   UNL A   1      41.605  29.423  33.505  1.00  0.00    -0.354 N 
ATOM     53  N   UNL A   1      42.391  27.891  31.127  1.00  0.00    -0.248 NA
ATOM     54  C   UNL A   1      43.929  26.532  30.012  1.00  0.00     0.031 C 
ATOM     55  C   UNL A   1      42.865  29.261  35.326  1.00  0.00     0.029 A 
ATOM     56  C   UNL A   1      42.730  28.806  34.024  1.00  0.00     0.049 A 
ATOM     57  H   UNL A   1      41.263  29.296  32.590  1.00  0.00     0.167 HD
ATOM     58  C   UNL A   1      43.399  27.523  32.010  1.00  0.00     0.074 A 
ATOM     59  C   UNL A   1      44.296  26.651  31.281  1.00  0.00     0.031 C 
ATOM     60  C   UNL A   1      43.576  27.889  33.305  1.00  0.00     0.034 A 
BRANCH  47  61
ATOM     61  C   UNL A   1      39.370  31.912  35.385  1.00  0.00     0.023 A 
ATOM     62  C   UNL A   1      38.476  31.385  36.342  1.00  0.00     0.012 A 
ATOM     63  C   UNL A   1      39.837  33.232  35.529  1.00  0.00     0.148 A 
ATOM     64  C   UNL A   1      38.026  32.170  37.402  1.00  0.00     0.002 A 
ATOM     65  C   UNL A   1      39.417  33.995  36.614  1.00  0.00     0.091 A 
ATOM     66  F   UNL A   1      40.667  33.723  34.599  1.00  0.00    -0.205 F 
ATOM     67  C   UNL A   1      38.504  33.470  37.544  1.00  0.00     0.022 A 
BRANCH  65  68
ATOM     68  S   UNL A   1      40.032  35.653  36.927  1.00  0.00     0.127 S 
ATOM     69  O   UNL A   1      39.352  35.990  38.176  1.00  0.00    -0.237 OA
ATOM     70  O   UNL A   1      41.472  35.430  37.057  1.00  0.00    -0.237 OA
ATOM     71  O   UNL A   1      39.646  36.447  35.768  1.00  0.00    -0.744 OA
ENDBRANCH  65  68
ENDBRANCH  47  61
BRANCH  48  72
ATOM     72  C   UNL A   1      42.373  26.526  27.521  1.00  0.00     0.023 A 
ATOM     73  C   UNL A   1      43.156  27.172  26.543  1.00  0.00     0.012 A 
ATOM     74  C   UNL A   1      42.085  25.157  27.373  1.00  0.00     0.148 A 
ATOM     75  C   UNL A   1      43.616  26.477  25.425  1.00  0.00     0.002 A 
ATOM     76  C   UNL A   1      42.590  24.457  26.283  1.00  0.00     0.091 A 
ATOM     77  F   UNL A   1      41.327  24.562  28.306  1.00  0.00    -0.205 F 
ATOM     78  C   UNL A   1      43.342  25.118  25.299  1.00  0.00     0.022 A 
BRANCH  76  79
ATOM     79  S   UNL A   1      42.395  22.679  26.108  1.00  0.00     0.127 S 
ATOM     80  O   UNL A   1      43.016  22.434  24.810  1.00  0.00    -0.237 OA
ATOM     81  O   UNL A   1      43.147  22.175  27.258  1.00  0.00    -0.237 OA
ATOM     82  O   UNL A   1      40.959  22.437  26.183  1.00  0.00    -0.744 OA
ENDBRANCH  76  79
ENDBRANCH  48  72
BRANCH  60  83
ATOM     83  C   UNL A   1      44.762  27.320  34.037  1.00  0.00     0.023 A 
ATOM     84  C   UNL A   1      46.003  27.983  33.972  1.00  0.00     0.012 A 
ATOM     85  C   UNL A   1      44.625  26.181  34.854  1.00  0.00     0.148 A 
ATOM     86  C   UNL A   1      47.098  27.504  34.691  1.00  0.00     0.002 A 
ATOM     87  C   UNL A   1      45.708  25.737  35.603  1.00  0.00     0.091 A 
ATOM     88  F   UNL A   1      43.441  25.554  34.884  1.00  0.00    -0.205 F 
ATOM     89  C   UNL A   1      46.948  26.391  35.515  1.00  0.00     0.022 A 
BRANCH  87  90
ATOM     90  S   UNL A   1      45.575  24.370  36.761  1.00  0.00     0.127 S 
ATOM     91  O   UNL A   1      44.519  24.838  37.655  1.00  0.00    -0.237 OA
ATOM     92  O   UNL A   1      45.189  23.258  35.890  1.00  0.00    -0.237 OA
ATOM     93  O   UNL A   1      46.894  24.230  37.363  1.00  0.00    -0.744 OA
ENDBRANCH  87  90
ENDBRANCH  60  83
ENDBRANCH  34  35
ENDBRANCH  26  29
ENDBRANCH  24  25
ENDBRANCH   1  24
TORSDOF 17
ENDMDL
MODEL 2
REMARK VINA RESULT:     -11.7      1.276      1.648
REMARK SMILES [NH3+][C@H](c1ccc(C(=O)NCCCCNC(=O)c2ccc(-c3c4nc(c(-c5cccc(S(=O)(=O)[O-])c5F)c5ccc([nH]5)c(-c5cccc(S(=O)(=O)[O-])c5F)c5nc(c(-c6cccc(S(=O)(=O)[O-])c6F)c6ccc3[nH]6)C=C5)C=C4)cc2)cc1Cl)C(F)(F)F
REMARK SMILES IDX 12 1 11 2 10 3 9 4 7 5 8 6 6 8 3 9 4 10 81 11 5 12 80 13
REMARK SMILES IDX 82 14 2 15 1 16 83 20 84 21 85 22 86 23 13 24 14 25 15 26
REMARK SMILES IDX 16 28 17 29 18 30 79 31 19 32 78 33 20 34 21 35 22 36 72 37
REMARK SMILES IDX 23 38 77 39 71 40 73 41 24 42 76 43 70 44 69 45 25 47 57 48
REMARK SMILES IDX 37 49 56 50 38 51 41 52 55 53 74 54 39 55 40 56 54 58 75 59
REMARK SMILES IDX 42 60 26 61 27 62 35 63 28 64 30 65 36 66 29 67 31 68 32 69
REMARK SMILES IDX 33 70 34 71 58 72 59 73 67 74 60 75 62 76 68 77 61 78 63 79
REMARK SMILES IDX 64 80 65 81 66 82 43 83 44 84 52 85 45 86 47 87 53 88 46 89
REMARK SMILES IDX 48 90 49 91 50 92 51 93
REMARK H PARENT 9 7 1 17 1 18 1 19 14 27 73 46 41 57
REMARK Flexibility Score: inf
ROOT
ATOM      1  C   UNL A   1      31.704  28.967  26.966  1.00  0.00     0.023 C 
ENDROOT
BRANCH   1   2
ATOM      2  C   UNL A   1      31.915  27.461  26.802  1.00  0.00     0.023 C 
BRANCH   2   3
ATOM      3  C   UNL A   1      32.932  27.073  25.725  1.00  0.00     0.116 C 
BRANCH   3   4
ATOM      4  N   UNL A   1      32.431  25.984  24.910  1.00  0.00    -0.352 N 
ATOM      5  C   UNL A   1      31.505  25.944  23.899  1.00  0.00     0.251 C 
ATOM      6  O   UNL A   1      31.310  24.866  23.335  1.00  0.00    -0.269 OA
ATOM      7  H   UNL A   1      32.830  25.109  25.121  1.00  0.00     0.163 HD
BRANCH   5   8
ATOM      8  C   UNL A   1      30.756  27.140  23.420  1.00  0.00     0.041 A 
ATOM      9  C   UNL A   1      29.493  29.498  22.447  1.00  0.00     0.037 A 
ATOM     10  C   UNL A   1      30.880  29.303  22.309  1.00  0.00     0.012 A 
ATOM     11  C   UNL A   1      28.752  28.474  23.057  1.00  0.00     0.051 A 
ATOM     12  C   UNL A   1      31.500  28.145  22.791  1.00  0.00     0.014 A 
ATOM     13  C   UNL A   1      29.374  27.302  23.507  1.00  0.00     0.034 A 
ATOM     14  Cl  UNL A   1      27.040  28.569  23.289  1.00  0.00    -0.084 Cl
BRANCH   9  15
ATOM     15  C   UNL A   1      28.905  30.819  21.959  1.00  0.00     0.320 C 
BRANCH  15  16
ATOM     16  N   UNL A   1      27.830  30.605  20.952  1.00  0.00    -0.344 N 
ATOM     17  H   UNL A   1      27.117  31.325  21.059  1.00  0.00     0.345 HD
ATOM     18  H   UNL A   1      27.411  29.686  21.093  1.00  0.00     0.345 HD
ATOM     19  H   UNL A   1      28.229  30.657  20.015  1.00  0.00     0.345 HD
ENDBRANCH  15  16
BRANCH  15  20
ATOM     20  C   UNL A   1      28.580  31.775  23.153  1.00  0.00     0.445 C 
ATOM     21  F   UNL A   1      27.253  31.773  23.433  1.00  0.00    -0.165 F 
ATOM     22  F   UNL A   1      29.215  31.375  24.283  1.00  0.00    -0.165 F 
ATOM     23  F   UNL A   1      28.946  33.053  22.916  1.00  0.00    -0.165 F 
ENDBRANCH  15  20
ENDBRANCH   9  15
ENDBRANCH   5   8
ENDBRANCH   3   4
ENDBRANCH   2   3
ENDBRANCH   1   2
BRANCH   1  24
ATOM     24  C   UNL A   1      32.786  29.839  26.340  1.00  0.00     0.116 C 
BRANCH  24  25
ATOM     25  N   UNL A   1      32.622  31.256  26.627  1.00  0.00    -0.352 N 
ATOM     26  C   UNL A   1      33.432  32.070  27.385  1.00  0.00     0.251 C 
ATOM     27  H   UNL A   1      31.833  31.687  26.229  1.00  0.00     0.163 HD
ATOM     28  O   UNL A   1      33.101  33.225  27.616  1.00  0.00    -0.269 OA
BRANCH  26  29
ATOM     29  C   UNL A   1      34.683  31.520  27.949  1.00  0.00     0.039 A 
ATOM     30  C   UNL A   1      35.802  32.351  28.044  1.00  0.00     0.014 A 
ATOM     31  C   UNL A   1      34.741  30.201  28.407  1.00  0.00     0.014 A 
ATOM     32  C   UNL A   1      36.966  31.874  28.649  1.00  0.00     0.010 A 
ATOM     33  C   UNL A   1      35.876  29.752  29.072  1.00  0.00     0.010 A 
ATOM     34  C   UNL A   1      37.003  30.580  29.190  1.00  0.00    -0.014 A 
BRANCH  34  35
ATOM     35  C   UNL A   1      38.214  30.062  29.874  1.00  0.00     0.031 A 
ATOM     36  C   UNL A   1      38.552  30.534  31.262  1.00  0.00     0.074 A 
ATOM     37  C   UNL A   1      39.056  29.243  29.213  1.00  0.00     0.049 A 
ATOM     38  N   UNL A   1      39.594  30.251  31.999  1.00  0.00    -0.248 NA
ATOM     39  C   UNL A   1      37.609  31.474  31.893  1.00  0.00     0.031 C 
ATOM     40  C   UNL A   1      38.883  28.785  27.833  1.00  0.00     0.029 A 
ATOM     41  N   UNL A   1      40.241  28.674  29.605  1.00  0.00    -0.354 N 
ATOM     42  C   UNL A   1      39.456  31.006  33.157  1.00  0.00     0.074 A 
ATOM     43  C   UNL A   1      38.246  31.787  33.012  1.00  0.00     0.031 C 
ATOM     44  C   UNL A   1      39.922  28.003  27.495  1.00  0.00     0.029 A 
ATOM     45  C   UNL A   1      40.843  27.921  28.623  1.00  0.00     0.049 A 
ATOM     46  H   UNL A   1      40.624  28.792  30.504  1.00  0.00     0.167 HD
ATOM     47  C   UNL A   1      40.243  31.023  34.258  1.00  0.00     0.034 A 
ATOM     48  C   UNL A   1      42.007  27.240  28.635  1.00  0.00     0.034 A 
ATOM     49  C   UNL A   1      41.408  30.198  34.423  1.00  0.00     0.049 A 
ATOM     50  C   UNL A   1      42.826  27.218  29.898  1.00  0.00     0.074 A 
ATOM     51  C   UNL A   1      42.220  30.067  35.535  1.00  0.00     0.029 A 
ATOM     52  N   UNL A   1      41.926  29.359  33.448  1.00  0.00    -0.354 N 
ATOM     53  N   UNL A   1      42.590  27.808  31.045  1.00  0.00    -0.248 NA
ATOM     54  C   UNL A   1      44.049  26.403  29.883  1.00  0.00     0.031 C 
ATOM     55  C   UNL A   1      43.234  29.153  35.230  1.00  0.00     0.029 A 
ATOM     56  C   UNL A   1      43.046  28.706  33.932  1.00  0.00     0.049 A 
ATOM     57  H   UNL A   1      41.552  29.245  32.544  1.00  0.00     0.167 HD
ATOM     58  C   UNL A   1      43.611  27.406  31.898  1.00  0.00     0.074 A 
ATOM     59  C   UNL A   1      44.458  26.507  31.141  1.00  0.00     0.031 C 
ATOM     60  C   UNL A   1      43.839  27.763  33.186  1.00  0.00     0.034 A 
BRANCH  47  61
ATOM     61  C   UNL A   1      39.828  31.914  35.398  1.00  0.00     0.023 A 
ATOM     62  C   UNL A   1      40.327  33.233  35.461  1.00  0.00     0.012 A 
ATOM     63  C   UNL A   1      38.915  31.474  36.374  1.00  0.00     0.148 A 
ATOM     64  C   UNL A   1      39.952  34.085  36.497  1.00  0.00     0.002 A 
ATOM     65  C   UNL A   1      38.512  32.344  37.381  1.00  0.00     0.091 A 
ATOM     66  F   UNL A   1      38.471  30.211  36.312  1.00  0.00    -0.205 F 
ATOM     67  C   UNL A   1      39.038  33.646  37.451  1.00  0.00     0.022 A 
BRANCH  65  68
ATOM     68  S   UNL A   1      37.283  31.898  38.613  1.00  0.00     0.127 S 
ATOM     69  O   UNL A   1      37.069  30.483  38.316  1.00  0.00    -0.237 OA
ATOM     70  O   UNL A   1      37.992  32.158  39.866  1.00  0.00    -0.237 OA
ATOM     71  O   UNL A   1      36.142  32.770  38.371  1.00  0.00    -0.744 OA
ENDBRANCH  65  68
ENDBRANCH  47  61
BRANCH  48  72
ATOM     72  C   UNL A   1      42.419  26.452  27.440  1.00  0.00     0.023 A 
ATOM     73  C   UNL A   1      43.156  27.086  26.420  1.00  0.00     0.012 A 
ATOM     74  C   UNL A   1      42.118  25.082  27.318  1.00  0.00     0.148 A 
ATOM     75  C   UNL A   1      43.559  26.379  25.287  1.00  0.00     0.002 A 
ATOM     76  C   UNL A   1      42.567  24.371  26.211  1.00  0.00     0.091 A 
ATOM     77  F   UNL A   1      41.405  24.499  28.293  1.00  0.00    -0.205 F 
ATOM     78  C   UNL A   1      43.273  25.020  25.186  1.00  0.00     0.022 A 
BRANCH  76  79
ATOM     79  S   UNL A   1      42.357  22.593  26.062  1.00  0.00     0.127 S 
ATOM     80  O   UNL A   1      43.105  22.103  27.216  1.00  0.00    -0.237 OA
ATOM     81  O   UNL A   1      40.903  22.448  26.162  1.00  0.00    -0.237 OA
ATOM     82  O   UNL A   1      42.901  22.245  24.755  1.00  0.00    -0.744 OA
ENDBRANCH  76  79
ENDBRANCH  48  72
BRANCH  60  83
ATOM     83  C   UNL A   1      45.028  27.156  33.881  1.00  0.00     0.023 A 
ATOM     84  C   UNL A   1      46.265  27.830  33.864  1.00  0.00     0.012 A 
ATOM     85  C   UNL A   1      44.898  25.965  34.621  1.00  0.00     0.148 A 
ATOM     86  C   UNL A   1      47.361  27.312  34.551  1.00  0.00     0.002 A 
ATOM     87  C   UNL A   1      45.983  25.479  35.341  1.00  0.00     0.091 A 
ATOM     88  F   UNL A   1      43.718  25.328  34.608  1.00  0.00    -0.205 F 
ATOM     89  C   UNL A   1      47.218  26.146  35.300  1.00  0.00     0.022 A 
BRANCH  87  90
ATOM     90  S   UNL A   1      45.858  24.037  36.406  1.00  0.00     0.127 S 
ATOM     91  O   UNL A   1      47.227  23.912  36.900  1.00  0.00    -0.237 OA
ATOM     92  O   UNL A   1      44.885  24.472  37.409  1.00  0.00    -0.237 OA
ATOM     93  O   UNL A   1      45.394  22.952  35.552  1.00  0.00    -0.744 OA
ENDBRANCH  87  90
ENDBRANCH  60  83
ENDBRANCH  34  35
ENDBRANCH  26  29
ENDBRANCH  24  25
ENDBRANCH   1  24
TORSDOF 17
ENDMDL
MODEL 3
REMARK VINA RESULT:     -11.6      1.881      2.487
REMARK SMILES [NH3+][C@H](c1ccc(C(=O)NCCCCNC(=O)c2ccc(-c3c4nc(c(-c5cccc(S(=O)(=O)[O-])c5F)c5ccc([nH]5)c(-c5cccc(S(=O)(=O)[O-])c5F)c5nc(c(-c6cccc(S(=O)(=O)[O-])c6F)c6ccc3[nH]6)C=C5)C=C4)cc2)cc1Cl)C(F)(F)F
REMARK SMILES IDX 12 1 11 2 10 3 9 4 7 5 8 6 6 8 3 9 4 10 81 11 5 12 80 13
REMARK SMILES IDX 82 14 2 15 1 16 83 20 84 21 85 22 86 23 13 24 14 25 15 26
REMARK SMILES IDX 16 28 17 29 18 30 79 31 19 32 78 33 20 34 21 35 22 36 72 37
REMARK SMILES IDX 23 38 77 39 71 40 73 41 24 42 76 43 70 44 69 45 25 47 57 48
REMARK SMILES IDX 37 49 56 50 38 51 41 52 55 53 74 54 39 55 40 56 54 58 75 59
REMARK SMILES IDX 42 60 26 61 27 62 35 63 28 64 30 65 36 66 29 67 31 68 32 69
REMARK SMILES IDX 33 70 34 71 58 72 59 73 67 74 60 75 62 76 68 77 61 78 63 79
REMARK SMILES IDX 64 80 65 81 66 82 43 83 44 84 52 85 45 86 47 87 53 88 46 89
REMARK SMILES IDX 48 90 49 91 50 92 51 93
REMARK H PARENT 9 7 1 17 1 18 1 19 14 27 73 46 41 57
REMARK Flexibility Score: inf
ROOT
ATOM      1  C   UNL A   1      32.615  28.295  26.161  1.00  0.00     0.023 C 
ENDROOT
BRANCH   1   2
ATOM      2  C   UNL A   1      32.745  26.771  26.203  1.00  0.00     0.023 C 
BRANCH   2   3
ATOM      3  C   UNL A   1      31.414  26.022  26.321  1.00  0.00     0.116 C 
BRANCH   3   4
ATOM      4  N   UNL A   1      31.223  25.128  25.196  1.00  0.00    -0.352 N 
ATOM      5  C   UNL A   1      30.693  25.324  23.947  1.00  0.00     0.251 C 
ATOM      6  O   UNL A   1      30.706  24.378  23.158  1.00  0.00    -0.269 OA
ATOM      7  H   UNL A   1      31.532  24.207  25.360  1.00  0.00     0.163 HD
BRANCH   5   8
ATOM      8  C   UNL A   1      30.145  26.628  23.480  1.00  0.00     0.041 A 
ATOM      9  C   UNL A   1      29.274  29.166  22.529  1.00  0.00     0.037 A 
ATOM     10  C   UNL A   1      30.608  28.746  22.371  1.00  0.00     0.012 A 
ATOM     11  C   UNL A   1      28.383  28.275  23.148  1.00  0.00     0.051 A 
ATOM     12  C   UNL A   1      31.035  27.500  22.842  1.00  0.00     0.014 A 
ATOM     13  C   UNL A   1      28.810  27.015  23.586  1.00  0.00     0.034 A 
ATOM     14  Cl  UNL A   1      26.713  28.649  23.404  1.00  0.00    -0.084 Cl
BRANCH   9  15
ATOM     15  C   UNL A   1      28.904  30.568  22.052  1.00  0.00     0.320 C 
BRANCH  15  16
ATOM     16  N   UNL A   1      27.808  30.535  21.045  1.00  0.00    -0.344 N 
ATOM     17  H   UNL A   1      26.997  30.063  21.442  1.00  0.00     0.345 HD
ATOM     18  H   UNL A   1      28.123  30.032  20.215  1.00  0.00     0.345 HD
ATOM     19  H   UNL A   1      27.555  31.489  20.788  1.00  0.00     0.345 HD
ENDBRANCH  15  16
BRANCH  15  20
ATOM     20  C   UNL A   1      28.737  31.554  23.253  1.00  0.00     0.445 C 
ATOM     21  F   UNL A   1      29.167  32.797  22.927  1.00  0.00    -0.165 F 
ATOM     22  F   UNL A   1      27.433  31.674  23.606  1.00  0.00    -0.165 F 
ATOM     23  F   UNL A   1      29.416  31.161  24.352  1.00  0.00    -0.165 F 
ENDBRANCH  15  20
ENDBRANCH   9  15
ENDBRANCH   5   8
ENDBRANCH   3   4
ENDBRANCH   2   3
ENDBRANCH   1   2
BRANCH   1  24
ATOM     24  C   UNL A   1      33.938  29.052  26.158  1.00  0.00     0.116 C 
BRANCH  24  25
ATOM     25  N   UNL A   1      33.826  30.409  26.671  1.00  0.00    -0.352 N 
ATOM     26  C   UNL A   1      34.644  31.048  27.574  1.00  0.00     0.251 C 
ATOM     27  H   UNL A   1      33.069  30.937  26.330  1.00  0.00     0.163 HD
ATOM     28  O   UNL A   1      34.355  32.164  27.985  1.00  0.00    -0.269 OA
BRANCH  26  29
ATOM     29  C   UNL A   1      35.850  30.353  28.072  1.00  0.00     0.039 A 
ATOM     30  C   UNL A   1      37.027  30.425  27.321  1.00  0.00     0.014 A 
ATOM     31  C   UNL A   1      35.827  29.659  29.284  1.00  0.00     0.014 A 
ATOM     32  C   UNL A   1      38.197  29.845  27.815  1.00  0.00     0.010 A 
ATOM     33  C   UNL A   1      37.008  29.144  29.806  1.00  0.00     0.010 A 
ATOM     34  C   UNL A   1      38.201  29.222  29.073  1.00  0.00    -0.014 A 
BRANCH  34  35
ATOM     35  C   UNL A   1      39.440  28.633  29.638  1.00  0.00     0.031 A 
ATOM     36  C   UNL A   1      40.069  29.240  30.862  1.00  0.00     0.074 A 
ATOM     37  C   UNL A   1      40.047  27.613  29.000  1.00  0.00     0.049 A 
ATOM     38  N   UNL A   1      41.181  28.913  31.467  1.00  0.00    -0.248 NA
ATOM     39  C   UNL A   1      39.374  30.390  31.467  1.00  0.00     0.031 C 
ATOM     40  C   UNL A   1      39.581  26.995  27.756  1.00  0.00     0.029 A 
ATOM     41  N   UNL A   1      41.202  26.935  29.294  1.00  0.00    -0.354 N 
ATOM     42  C   UNL A   1      41.340  29.836  32.493  1.00  0.00     0.074 A 
ATOM     43  C   UNL A   1      40.229  30.759  32.409  1.00  0.00     0.031 C 
ATOM     44  C   UNL A   1      40.441  26.028  27.396  1.00  0.00     0.029 A 
ATOM     45  C   UNL A   1      41.528  25.970  28.368  1.00  0.00     0.049 A 
ATOM     46  H   UNL A   1      41.748  27.122  30.092  1.00  0.00     0.167 HD
ATOM     47  C   UNL A   1      42.303  29.892  33.443  1.00  0.00     0.034 A 
ATOM     48  C   UNL A   1      42.583  25.133  28.313  1.00  0.00     0.034 A 
ATOM     49  C   UNL A   1      43.369  28.935  33.561  1.00  0.00     0.049 A 
ATOM     50  C   UNL A   1      43.600  25.168  29.422  1.00  0.00     0.074 A 
ATOM     51  C   UNL A   1      44.339  28.843  34.542  1.00  0.00     0.029 A 
ATOM     52  N   UNL A   1      43.602  27.899  32.669  1.00  0.00    -0.354 N 
ATOM     53  N   UNL A   1      43.642  25.943  30.480  1.00  0.00    -0.248 NA
ATOM     54  C   UNL A   1      44.692  24.187  29.354  1.00  0.00     0.031 C 
ATOM     55  C   UNL A   1      45.165  27.755  34.239  1.00  0.00     0.029 A 
ATOM     56  C   UNL A   1      44.700  27.162  33.076  1.00  0.00     0.049 A 
ATOM     57  H   UNL A   1      43.065  27.715  31.864  1.00  0.00     0.167 HD
ATOM     58  C   UNL A   1      44.739  25.519  31.220  1.00  0.00     0.074 A 
ATOM     59  C   UNL A   1      45.324  24.406  30.501  1.00  0.00     0.031 C 
ATOM     60  C   UNL A   1      45.230  26.016  32.383  1.00  0.00     0.034 A 
BRANCH  47  61
ATOM     61  C   UNL A   1      42.206  30.986  34.472  1.00  0.00     0.023 A 
ATOM     62  C   UNL A   1      41.538  30.734  35.688  1.00  0.00     0.012 A 
ATOM     63  C   UNL A   1      42.812  32.240  34.263  1.00  0.00     0.148 A 
ATOM     64  C   UNL A   1      41.442  31.723  36.665  1.00  0.00     0.002 A 
ATOM     65  C   UNL A   1      42.750  33.207  35.261  1.00  0.00     0.091 A 
ATOM     66  F   UNL A   1      43.422  32.470  33.093  1.00  0.00    -0.205 F 
ATOM     67  C   UNL A   1      42.056  32.955  36.456  1.00  0.00     0.022 A 
BRANCH  65  68
ATOM     68  S   UNL A   1      43.572  34.798  35.118  1.00  0.00     0.127 S 
ATOM     69  O   UNL A   1      43.122  35.473  36.334  1.00  0.00    -0.237 OA
ATOM     70  O   UNL A   1      44.985  34.418  35.119  1.00  0.00    -0.237 OA
ATOM     71  O   UNL A   1      43.102  35.379  33.868  1.00  0.00    -0.744 OA
ENDBRANCH  65  68
ENDBRANCH  47  61
BRANCH  48  72
ATOM     72  C   UNL A   1      42.681  24.131  27.215  1.00  0.00     0.023 A 
ATOM     73  C   UNL A   1      43.408  24.456  26.052  1.00  0.00     0.012 A 
ATOM     74  C   UNL A   1      42.092  22.857  27.322  1.00  0.00     0.148 A 
ATOM     75  C   UNL A   1      43.520  23.543  25.004  1.00  0.00     0.002 A 
ATOM     76  C   UNL A   1      42.252  21.933  26.296  1.00  0.00     0.091 A 
ATOM     77  F   UNL A   1      41.394  22.571  28.430  1.00  0.00    -0.205 F 
ATOM     78  C   UNL A   1      42.951  22.278  25.128  1.00  0.00     0.022 A 
BRANCH  76  79
ATOM     79  S   UNL A   1      41.664  20.240  26.427  1.00  0.00     0.127 S 
ATOM     80  O   UNL A   1      42.190  19.839  27.729  1.00  0.00    -0.237 OA
ATOM     81  O   UNL A   1      40.212  20.417  26.375  1.00  0.00    -0.237 OA
ATOM     82  O   UNL A   1      42.220  19.545  25.273  1.00  0.00    -0.744 OA
ENDBRANCH  76  79
ENDBRANCH  48  72
BRANCH  60  83
ATOM     83  C   UNL A   1      46.437  25.343  32.978  1.00  0.00     0.023 A 
ATOM     84  C   UNL A   1      47.723  25.844  32.695  1.00  0.00     0.012 A 
ATOM     85  C   UNL A   1      46.292  24.273  33.882  1.00  0.00     0.148 A 
ATOM     86  C   UNL A   1      48.850  25.271  33.284  1.00  0.00     0.002 A 
ATOM     87  C   UNL A   1      47.416  23.737  34.499  1.00  0.00     0.091 A 
ATOM     88  F   UNL A   1      45.062  23.799  34.120  1.00  0.00    -0.205 F 
ATOM     89  C   UNL A   1      48.696  24.228  34.195  1.00  0.00     0.022 A 
BRANCH  87  90
ATOM     90  S   UNL A   1      47.299  22.457  35.755  1.00  0.00     0.127 S 
ATOM     91  O   UNL A   1      46.420  23.083  36.739  1.00  0.00    -0.237 OA
ATOM     92  O   UNL A   1      46.695  21.348  35.016  1.00  0.00    -0.237 OA
ATOM     93  O   UNL A   1      48.665  22.209  36.197  1.00  0.00    -0.744 OA
ENDBRANCH  87  90
ENDBRANCH  60  83
ENDBRANCH  34  35
ENDBRANCH  26  29
ENDBRANCH  24  25
ENDBRANCH   1  24
TORSDOF 17
ENDMDL
