MODEL 1
REMARK VINA RESULT:     -11.7      0.000      0.000
REMARK SMILES C[NH2+][C@]1(C(=O)NCCCCNC(=O)c2ccc(-c3c4nc(c(-c5cccc(S(=O)(=O)[O-])c5F)c5ccc([nH]5)c(-c5cccc(S(=O)(=O)[O-])c5F)c5nc(c(-c6cccc(S(=O)(=O)[O-])c6F)c6ccc3[nH]6)C=C5)C=C4)cc2)CCC[C@@H]1CCOC[C@@H]1CCCO1
REMARK SMILES IDX 7 1 6 2 4 3 5 4 3 6 77 7 80 8 78 9 79 10 2 11 1 12 81 15
REMARK SMILES IDX 82 16 83 17 84 18 85 19 86 20 89 21 87 22 88 23 8 24 9 25
REMARK SMILES IDX 10 26 11 27 12 28 13 30 14 31 15 32 76 33 16 34 75 35 17 36
REMARK SMILES IDX 18 37 19 38 69 39 20 40 74 41 68 42 70 43 21 44 73 45 67 46
REMARK SMILES IDX 66 47 22 49 54 50 34 51 53 52 35 53 38 54 52 55 71 56 36 57
REMARK SMILES IDX 37 58 51 60 72 61 39 62 23 63 24 64 32 65 25 66 27 67 33 68
REMARK SMILES IDX 26 69 28 70 29 71 30 72 31 73 55 74 56 75 64 76 57 77 59 78
REMARK SMILES IDX 65 79 58 80 60 81 61 82 62 83 63 84 40 85 41 86 49 87 42 88
REMARK SMILES IDX 44 89 50 90 43 91 45 92 46 93 47 94 48 95
REMARK H PARENT 6 5 2 13 2 14 11 29 70 48 38 59
REMARK Flexibility Score: inf
ROOT
ATOM      1  C   UNL A   1      34.029  23.398  25.639  1.00  0.00     0.116 C 
ENDROOT
BRANCH   1   2
ATOM      2  N   UNL A   1      32.758  23.551  26.317  1.00  0.00    -0.351 N 
ATOM      3  C   UNL A   1      31.919  24.597  26.539  1.00  0.00     0.281 C 
ATOM      4  O   UNL A   1      30.942  24.321  27.249  1.00  0.00    -0.268 OA
ATOM      5  H   UNL A   1      32.427  22.708  26.703  1.00  0.00     0.163 HD
BRANCH   3   6
ATOM      6  C   UNL A   1      32.128  26.064  25.980  1.00  0.00     0.178 C 
ATOM      7  C   UNL A   1      33.615  26.474  26.025  1.00  0.00     0.079 C 
ATOM      8  C   UNL A   1      31.792  26.158  24.463  1.00  0.00     0.063 C 
ATOM      9  C   UNL A   1      33.832  27.450  24.868  1.00  0.00     0.008 C 
ATOM     10  C   UNL A   1      32.577  27.396  23.994  1.00  0.00     0.011 C 
BRANCH   6  11
ATOM     11  N   UNL A   1      31.360  26.951  26.892  1.00  0.00    -0.336 N 
ATOM     12  C   UNL A   1      31.940  28.087  27.560  1.00  0.00     0.331 C 
ATOM     13  H   UNL A   1      30.584  27.318  26.338  1.00  0.00     0.346 HD
ATOM     14  H   UNL A   1      31.177  26.326  27.676  1.00  0.00     0.346 HD
ENDBRANCH   6  11
BRANCH   8  15
ATOM     15  C   UNL A   1      30.293  26.146  24.115  1.00  0.00     0.039 C 
BRANCH  15  16
ATOM     16  C   UNL A   1      29.688  27.469  23.628  1.00  0.00     0.161 C 
BRANCH  16  17
ATOM     17  O   UNL A   1      28.303  27.419  23.328  1.00  0.00    -0.379 OA
BRANCH  17  18
ATOM     18  C   UNL A   1      27.553  28.611  23.127  1.00  0.00     0.192 C 
BRANCH  18  19
ATOM     19  C   UNL A   1      28.285  29.891  22.684  1.00  0.00     0.144 C 
ATOM     20  C   UNL A   1      27.694  31.181  23.219  1.00  0.00     0.037 C 
ATOM     21  O   UNL A   1      28.358  30.021  21.256  1.00  0.00    -0.376 OA
ATOM     22  C   UNL A   1      28.049  32.193  22.164  1.00  0.00     0.031 C 
ATOM     23  C   UNL A   1      28.028  31.368  20.896  1.00  0.00     0.160 C 
ENDBRANCH  18  19
ENDBRANCH  17  18
ENDBRANCH  16  17
ENDBRANCH  15  16
ENDBRANCH   8  15
ENDBRANCH   3   6
ENDBRANCH   1   2
BRANCH   1  24
ATOM     24  C   UNL A   1      34.916  22.349  26.304  1.00  0.00     0.023 C 
BRANCH  24  25
ATOM     25  C   UNL A   1      35.603  21.376  25.342  1.00  0.00     0.023 C 
BRANCH  25  26
ATOM     26  C   UNL A   1      37.065  21.673  25.024  1.00  0.00     0.116 C 
BRANCH  26  27
ATOM     27  N   UNL A   1      37.964  20.583  25.376  1.00  0.00    -0.352 N 
ATOM     28  C   UNL A   1      39.186  20.631  26.011  1.00  0.00     0.251 C 
ATOM     29  H   UNL A   1      37.655  19.683  25.123  1.00  0.00     0.163 HD
ATOM     30  O   UNL A   1      39.853  19.613  26.125  1.00  0.00    -0.269 OA
BRANCH  28  31
ATOM     31  C   UNL A   1      39.698  21.924  26.520  1.00  0.00     0.039 A 
ATOM     32  C   UNL A   1      40.794  21.920  27.388  1.00  0.00     0.014 A 
ATOM     33  C   UNL A   1      39.121  23.133  26.126  1.00  0.00     0.014 A 
ATOM     34  C   UNL A   1      41.359  23.131  27.796  1.00  0.00     0.010 A 
ATOM     35  C   UNL A   1      39.728  24.336  26.475  1.00  0.00     0.010 A 
ATOM     36  C   UNL A   1      40.856  24.349  27.311  1.00  0.00    -0.014 A 
BRANCH  36  37
ATOM     37  C   UNL A   1      41.509  25.643  27.641  1.00  0.00     0.031 A 
ATOM     38  C   UNL A   1      40.749  26.715  28.376  1.00  0.00     0.074 A 
ATOM     39  C   UNL A   1      42.756  25.893  27.192  1.00  0.00     0.049 A 
ATOM     40  N   UNL A   1      41.132  27.924  28.694  1.00  0.00    -0.248 NA
ATOM     41  C   UNL A   1      39.370  26.397  28.780  1.00  0.00     0.031 C 
ATOM     42  C   UNL A   1      43.567  24.971  26.393  1.00  0.00     0.029 A 
ATOM     43  N   UNL A   1      43.548  27.007  27.317  1.00  0.00    -0.354 N 
ATOM     44  C   UNL A   1      40.034  28.524  29.300  1.00  0.00     0.074 A 
ATOM     45  C   UNL A   1      38.959  27.557  29.276  1.00  0.00     0.031 C 
ATOM     46  C   UNL A   1      44.739  25.557  26.101  1.00  0.00     0.029 A 
ATOM     47  C   UNL A   1      44.755  26.903  26.665  1.00  0.00     0.049 A 
ATOM     48  H   UNL A   1      43.278  27.807  27.824  1.00  0.00     0.167 HD
ATOM     49  C   UNL A   1      39.935  29.758  29.851  1.00  0.00     0.034 A 
ATOM     50  C   UNL A   1      45.759  27.793  26.528  1.00  0.00     0.034 A 
ATOM     51  C   UNL A   1      41.018  30.702  29.916  1.00  0.00     0.049 A 
ATOM     52  C   UNL A   1      45.644  29.137  27.195  1.00  0.00     0.074 A 
ATOM     53  C   UNL A   1      41.047  31.935  30.541  1.00  0.00     0.029 A 
ATOM     54  N   UNL A   1      42.262  30.521  29.329  1.00  0.00    -0.354 N 
ATOM     55  N   UNL A   1      44.658  29.619  27.913  1.00  0.00    -0.248 NA
ATOM     56  C   UNL A   1      46.792  30.044  27.066  1.00  0.00     0.031 C 
ATOM     57  C   UNL A   1      42.301  32.511  30.314  1.00  0.00     0.029 A 
ATOM     58  C   UNL A   1      43.062  31.625  29.569  1.00  0.00     0.049 A 
ATOM     59  H   UNL A   1      42.535  29.726  28.816  1.00  0.00     0.167 HD
ATOM     60  C   UNL A   1      45.081  30.870  28.349  1.00  0.00     0.074 A 
ATOM     61  C   UNL A   1      46.422  31.061  27.834  1.00  0.00     0.031 C 
ATOM     62  C   UNL A   1      44.414  31.783  29.098  1.00  0.00     0.034 A 
BRANCH  49  63
ATOM     63  C   UNL A   1      38.621  30.139  30.482  1.00  0.00     0.023 A 
ATOM     64  C   UNL A   1      38.350  29.750  31.809  1.00  0.00     0.012 A 
ATOM     65  C   UNL A   1      37.686  30.933  29.790  1.00  0.00     0.148 A 
ATOM     66  C   UNL A   1      37.153  30.113  32.426  1.00  0.00     0.002 A 
ATOM     67  C   UNL A   1      36.515  31.330  30.428  1.00  0.00     0.091 A 
ATOM     68  F   UNL A   1      37.952  31.279  28.522  1.00  0.00    -0.205 F 
ATOM     69  C   UNL A   1      36.243  30.910  31.740  1.00  0.00     0.022 A 
BRANCH  67  70
ATOM     70  S   UNL A   1      35.316  32.425  29.659  1.00  0.00     0.127 S 
ATOM     71  O   UNL A   1      34.764  31.568  28.610  1.00  0.00    -0.237 OA
ATOM     72  O   UNL A   1      34.399  32.701  30.765  1.00  0.00    -0.237 OA
ATOM     73  O   UNL A   1      36.069  33.580  29.193  1.00  0.00    -0.744 OA
ENDBRANCH  67  70
ENDBRANCH  49  63
BRANCH  50  74
ATOM     74  C   UNL A   1      46.994  27.411  25.787  1.00  0.00     0.023 A 
ATOM     75  C   UNL A   1      48.005  26.689  26.452  1.00  0.00     0.012 A 
ATOM     76  C   UNL A   1      47.163  27.730  24.424  1.00  0.00     0.148 A 
ATOM     77  C   UNL A   1      49.172  26.319  25.785  1.00  0.00     0.002 A 
ATOM     78  C   UNL A   1      48.304  27.310  23.751  1.00  0.00     0.091 A 
ATOM     79  F   UNL A   1      46.195  28.428  23.812  1.00  0.00    -0.205 F 
ATOM     80  C   UNL A   1      49.318  26.620  24.434  1.00  0.00     0.022 A 
BRANCH  78  81
ATOM     81  S   UNL A   1      48.516  27.534  21.982  1.00  0.00     0.127 S 
ATOM     82  O   UNL A   1      47.294  28.248  21.622  1.00  0.00    -0.237 OA
ATOM     83  O   UNL A   1      49.739  28.337  21.924  1.00  0.00    -0.237 OA
ATOM     84  O   UNL A   1      48.654  26.193  21.430  1.00  0.00    -0.744 OA
ENDBRANCH  78  81
ENDBRANCH  50  74
BRANCH  62  85
ATOM     85  C   UNL A   1      45.128  33.063  29.442  1.00  0.00     0.023 A 
ATOM     86  C   UNL A   1      45.925  33.131  30.602  1.00  0.00     0.012 A 
ATOM     87  C   UNL A   1      45.072  34.173  28.575  1.00  0.00     0.148 A 
ATOM     88  C   UNL A   1      46.631  34.294  30.910  1.00  0.00     0.002 A 
ATOM     89  C   UNL A   1      45.817  35.310  28.862  1.00  0.00     0.091 A 
ATOM     90  F   UNL A   1      44.294  34.096  27.487  1.00  0.00    -0.205 F 
ATOM     91  C   UNL A   1      46.588  35.377  30.036  1.00  0.00     0.022 A 
BRANCH  89  92
ATOM     92  S   UNL A   1      45.897  36.715  27.746  1.00  0.00     0.127 S 
ATOM     93  O   UNL A   1      46.658  37.682  28.536  1.00  0.00    -0.237 OA
ATOM     94  O   UNL A   1      46.618  36.162  26.600  1.00  0.00    -0.237 OA
ATOM     95  O   UNL A   1      44.515  37.085  27.467  1.00  0.00    -0.744 OA
ENDBRANCH  89  92
ENDBRANCH  62  85
ENDBRANCH  36  37
ENDBRANCH  28  31
ENDBRANCH  26  27
ENDBRANCH  25  26
ENDBRANCH  24  25
ENDBRANCH   1  24
TORSDOF 20
ENDMDL
MODEL 2
REMARK VINA RESULT:     -11.6      5.405      8.560
REMARK SMILES C[NH2+][C@]1(C(=O)NCCCCNC(=O)c2ccc(-c3c4nc(c(-c5cccc(S(=O)(=O)[O-])c5F)c5ccc([nH]5)c(-c5cccc(S(=O)(=O)[O-])c5F)c5nc(c(-c6cccc(S(=O)(=O)[O-])c6F)c6ccc3[nH]6)C=C5)C=C4)cc2)CCC[C@@H]1CCOC[C@@H]1CCCO1
REMARK SMILES IDX 7 1 6 2 4 3 5 4 3 6 77 7 80 8 78 9 79 10 2 11 1 12 81 15
REMARK SMILES IDX 82 16 83 17 84 18 85 19 86 20 89 21 87 22 88 23 8 24 9 25
REMARK SMILES IDX 10 26 11 27 12 28 13 30 14 31 15 32 76 33 16 34 75 35 17 36
REMARK SMILES IDX 18 37 19 38 69 39 20 40 74 41 68 42 70 43 21 44 73 45 67 46
REMARK SMILES IDX 66 47 22 49 54 50 34 51 53 52 35 53 38 54 52 55 71 56 36 57
REMARK SMILES IDX 37 58 51 60 72 61 39 62 23 63 24 64 32 65 25 66 27 67 33 68
REMARK SMILES IDX 26 69 28 70 29 71 30 72 31 73 55 74 56 75 64 76 57 77 59 78
REMARK SMILES IDX 65 79 58 80 60 81 61 82 62 83 63 84 40 85 41 86 49 87 42 88
REMARK SMILES IDX 44 89 50 90 43 91 45 92 46 93 47 94 48 95
REMARK H PARENT 6 5 2 13 2 14 11 29 70 48 38 59
REMARK Flexibility Score: inf
ROOT
ATOM      1  C   UNL A   1      31.308  26.218  24.647  1.00  0.00     0.116 C 
ENDROOT
BRANCH   1   2
ATOM      2  N   UNL A   1      32.141  26.055  23.473  1.00  0.00    -0.351 N 
ATOM      3  C   UNL A   1      33.206  25.268  23.164  1.00  0.00     0.281 C 
ATOM      4  O   UNL A   1      33.696  25.493  22.048  1.00  0.00    -0.268 OA
ATOM      5  H   UNL A   1      31.877  26.646  22.731  1.00  0.00     0.163 HD
BRANCH   3   6
ATOM      6  C   UNL A   1      33.819  24.157  24.110  1.00  0.00     0.178 C 
ATOM      7  C   UNL A   1      34.594  24.789  25.286  1.00  0.00     0.079 C 
ATOM      8  C   UNL A   1      32.711  23.336  24.833  1.00  0.00     0.063 C 
ATOM      9  C   UNL A   1      34.480  23.812  26.457  1.00  0.00     0.008 C 
ATOM     10  C   UNL A   1      33.428  22.770  26.071  1.00  0.00     0.011 C 
BRANCH   6  11
ATOM     11  N   UNL A   1      34.773  23.394  23.264  1.00  0.00    -0.336 N 
ATOM     12  C   UNL A   1      36.181  23.305  23.548  1.00  0.00     0.331 C 
ATOM     13  H   UNL A   1      34.428  22.433  23.251  1.00  0.00     0.346 HD
ATOM     14  H   UNL A   1      34.773  23.948  22.408  1.00  0.00     0.346 HD
ENDBRANCH   6  11
BRANCH   8  15
ATOM     15  C   UNL A   1      31.974  22.306  23.958  1.00  0.00     0.039 C 
BRANCH  15  16
ATOM     16  C   UNL A   1      32.392  20.839  24.121  1.00  0.00     0.161 C 
BRANCH  16  17
ATOM     17  O   UNL A   1      32.222  20.037  22.964  1.00  0.00    -0.379 OA
BRANCH  17  18
ATOM     18  C   UNL A   1      32.182  18.617  23.055  1.00  0.00     0.192 C 
BRANCH  18  19
ATOM     19  C   UNL A   1      32.976  17.916  24.172  1.00  0.00     0.144 C 
ATOM     20  C   UNL A   1      33.881  16.794  23.702  1.00  0.00     0.037 C 
ATOM     21  O   UNL A   1      32.130  17.375  25.197  1.00  0.00    -0.376 OA
ATOM     22  C   UNL A   1      33.944  15.874  24.891  1.00  0.00     0.031 C 
ATOM     23  C   UNL A   1      32.578  16.053  25.518  1.00  0.00     0.160 C 
ENDBRANCH  18  19
ENDBRANCH  17  18
ENDBRANCH  16  17
ENDBRANCH  15  16
ENDBRANCH   8  15
ENDBRANCH   3   6
ENDBRANCH   1   2
BRANCH   1  24
ATOM     24  C   UNL A   1      31.961  27.109  25.700  1.00  0.00     0.023 C 
BRANCH  24  25
ATOM     25  C   UNL A   1      31.629  28.598  25.584  1.00  0.00     0.023 C 
BRANCH  25  26
ATOM     26  C   UNL A   1      32.820  29.552  25.617  1.00  0.00     0.116 C 
BRANCH  26  27
ATOM     27  N   UNL A   1      32.490  30.869  26.144  1.00  0.00    -0.352 N 
ATOM     28  C   UNL A   1      33.140  31.611  27.106  1.00  0.00     0.251 C 
ATOM     29  H   UNL A   1      31.688  31.289  25.758  1.00  0.00     0.163 HD
ATOM     30  O   UNL A   1      32.650  32.659  27.501  1.00  0.00    -0.269 OA
BRANCH  28  31
ATOM     31  C   UNL A   1      34.412  31.115  27.680  1.00  0.00     0.039 A 
ATOM     32  C   UNL A   1      35.414  32.038  27.995  1.00  0.00     0.014 A 
ATOM     33  C   UNL A   1      34.606  29.755  27.932  1.00  0.00     0.014 A 
ATOM     34  C   UNL A   1      36.579  31.604  28.634  1.00  0.00     0.010 A 
ATOM     35  C   UNL A   1      35.734  29.336  28.632  1.00  0.00     0.010 A 
ATOM     36  C   UNL A   1      36.731  30.255  28.995  1.00  0.00    -0.014 A 
BRANCH  36  37
ATOM     37  C   UNL A   1      37.910  29.791  29.774  1.00  0.00     0.031 A 
ATOM     38  C   UNL A   1      38.157  30.312  31.164  1.00  0.00     0.074 A 
ATOM     39  C   UNL A   1      38.812  28.975  29.193  1.00  0.00     0.049 A 
ATOM     40  N   UNL A   1      39.161  30.071  31.967  1.00  0.00    -0.248 NA
ATOM     41  C   UNL A   1      37.164  31.250  31.712  1.00  0.00     0.031 C 
ATOM     42  C   UNL A   1      38.734  28.468  27.820  1.00  0.00     0.029 A 
ATOM     43  N   UNL A   1      39.988  28.452  29.671  1.00  0.00    -0.354 N 
ATOM     44  C   UNL A   1      38.942  30.852  33.095  1.00  0.00     0.074 A 
ATOM     45  C   UNL A   1      37.727  31.600  32.861  1.00  0.00     0.031 C 
ATOM     46  C   UNL A   1      39.812  27.709  27.569  1.00  0.00     0.029 A 
ATOM     47  C   UNL A   1      40.673  27.696  28.747  1.00  0.00     0.049 A 
ATOM     48  H   UNL A   1      40.312  28.605  30.588  1.00  0.00     0.167 HD
ATOM     49  C   UNL A   1      39.670  30.922  34.236  1.00  0.00     0.034 A 
ATOM     50  C   UNL A   1      41.863  27.069  28.835  1.00  0.00     0.034 A 
ATOM     51  C   UNL A   1      40.853  30.142  34.487  1.00  0.00     0.049 A 
ATOM     52  C   UNL A   1      42.625  27.120  30.132  1.00  0.00     0.074 A 
ATOM     53  C   UNL A   1      41.601  30.067  35.648  1.00  0.00     0.029 A 
ATOM     54  N   UNL A   1      41.463  29.310  33.562  1.00  0.00    -0.354 N 
ATOM     55  N   UNL A   1      42.310  27.729  31.250  1.00  0.00    -0.248 NA
ATOM     56  C   UNL A   1      43.886  26.368  30.193  1.00  0.00     0.031 C 
ATOM     57  C   UNL A   1      42.679  29.205  35.418  1.00  0.00     0.029 A 
ATOM     58  C   UNL A   1      42.586  28.724  34.122  1.00  0.00     0.049 A 
ATOM     59  H   UNL A   1      41.146  29.158  32.643  1.00  0.00     0.167 HD
ATOM     60  C   UNL A   1      43.315  27.405  32.156  1.00  0.00     0.074 A 
ATOM     61  C   UNL A   1      44.236  26.528  31.462  1.00  0.00     0.031 C 
ATOM     62  C   UNL A   1      43.466  27.809  33.441  1.00  0.00     0.034 A 
BRANCH  49  63
ATOM     63  C   UNL A   1      39.175  31.833  35.328  1.00  0.00     0.023 A 
ATOM     64  C   UNL A   1      38.194  31.370  36.228  1.00  0.00     0.012 A 
ATOM     65  C   UNL A   1      39.721  33.120  35.504  1.00  0.00     0.148 A 
ATOM     66  C   UNL A   1      37.738  32.184  37.264  1.00  0.00     0.002 A 
ATOM     67  C   UNL A   1      39.294  33.909  36.567  1.00  0.00     0.091 A 
ATOM     68  F   UNL A   1      40.639  33.552  34.627  1.00  0.00    -0.205 F 
ATOM     69  C   UNL A   1      38.295  33.447  37.439  1.00  0.00     0.022 A 
BRANCH  67  70
ATOM     70  S   UNL A   1      40.008  35.517  36.928  1.00  0.00     0.127 S 
ATOM     71  O   UNL A   1      39.388  35.833  38.215  1.00  0.00    -0.237 OA
ATOM     72  O   UNL A   1      41.437  35.210  37.001  1.00  0.00    -0.237 OA
ATOM     73  O   UNL A   1      39.630  36.382  35.821  1.00  0.00    -0.744 OA
ENDBRANCH  67  70
ENDBRANCH  49  63
BRANCH  50  74
ATOM     74  C   UNL A   1      42.372  26.276  27.681  1.00  0.00     0.023 A 
ATOM     75  C   UNL A   1      43.297  26.862  26.794  1.00  0.00     0.012 A 
ATOM     76  C   UNL A   1      41.973  24.941  27.471  1.00  0.00     0.148 A 
ATOM     77  C   UNL A   1      43.791  26.145  25.704  1.00  0.00     0.002 A 
ATOM     78  C   UNL A   1      42.511  24.215  26.415  1.00  0.00     0.091 A 
ATOM     79  F   UNL A   1      41.083  24.404  28.319  1.00  0.00    -0.205 F 
ATOM     80  C   UNL A   1      43.406  24.821  25.520  1.00  0.00     0.022 A 
BRANCH  78  81
ATOM     81  S   UNL A   1      42.178  22.466  26.180  1.00  0.00     0.127 S 
ATOM     82  O   UNL A   1      42.930  22.179  24.961  1.00  0.00    -0.237 OA
ATOM     83  O   UNL A   1      42.737  21.884  27.401  1.00  0.00    -0.237 OA
ATOM     84  O   UNL A   1      40.729  22.354  26.073  1.00  0.00    -0.744 OA
ENDBRANCH  78  81
ENDBRANCH  50  74
BRANCH  62  85
ATOM     85  C   UNL A   1      44.653  27.284  34.205  1.00  0.00     0.023 A 
ATOM     86  C   UNL A   1      45.856  28.018  34.223  1.00  0.00     0.012 A 
ATOM     87  C   UNL A   1      44.551  26.104  34.968  1.00  0.00     0.148 A 
ATOM     88  C   UNL A   1      46.949  27.569  34.965  1.00  0.00     0.002 A 
ATOM     89  C   UNL A   1      45.627  25.689  35.744  1.00  0.00     0.091 A 
ATOM     90  F   UNL A   1      43.405  25.410  34.923  1.00  0.00    -0.205 F 
ATOM     91  C   UNL A   1      46.831  26.414  35.734  1.00  0.00     0.022 A 
BRANCH  89  92
ATOM     92  S   UNL A   1      45.533  24.268  36.839  1.00  0.00     0.127 S 
ATOM     93  O   UNL A   1      46.923  24.130  37.270  1.00  0.00    -0.237 OA
ATOM     94  O   UNL A   1      44.616  24.735  37.878  1.00  0.00    -0.237 OA
ATOM     95  O   UNL A   1      45.017  23.172  36.029  1.00  0.00    -0.744 OA
ENDBRANCH  89  92
ENDBRANCH  62  85
ENDBRANCH  36  37
ENDBRANCH  28  31
ENDBRANCH  26  27
ENDBRANCH  25  26
ENDBRANCH  24  25
ENDBRANCH   1  24
TORSDOF 20
ENDMDL
MODEL 3
REMARK VINA RESULT:     -11.6      5.808      8.633
REMARK SMILES C[NH2+][C@]1(C(=O)NCCCCNC(=O)c2ccc(-c3c4nc(c(-c5cccc(S(=O)(=O)[O-])c5F)c5ccc([nH]5)c(-c5cccc(S(=O)(=O)[O-])c5F)c5nc(c(-c6cccc(S(=O)(=O)[O-])c6F)c6ccc3[nH]6)C=C5)C=C4)cc2)CCC[C@@H]1CCOC[C@@H]1CCCO1
REMARK SMILES IDX 7 1 6 2 4 3 5 4 3 6 77 7 80 8 78 9 79 10 2 11 1 12 81 15
REMARK SMILES IDX 82 16 83 17 84 18 85 19 86 20 89 21 87 22 88 23 8 24 9 25
REMARK SMILES IDX 10 26 11 27 12 28 13 30 14 31 15 32 76 33 16 34 75 35 17 36
REMARK SMILES IDX 18 37 19 38 69 39 20 40 74 41 68 42 70 43 21 44 73 45 67 46
REMARK SMILES IDX 66 47 22 49 54 50 34 51 53 52 35 53 38 54 52 55 71 56 36 57
REMARK SMILES IDX 37 58 51 60 72 61 39 62 23 63 24 64 32 65 25 66 27 67 33 68
REMARK SMILES IDX 26 69 28 70 29 71 30 72 31 73 55 74 56 75 64 76 57 77 59 78
REMARK SMILES IDX 65 79 58 80 60 81 61 82 62 83 63 84 40 85 41 86 49 87 42 88
REMARK SMILES IDX 44 89 50 90 43 91 45 92 46 93 47 94 48 95
REMARK H PARENT 6 5 2 13 2 14 11 29 70 48 38 59
REMARK Flexibility Score: inf
ROOT
ATOM      1  C   UNL A   1      33.211  29.738  25.916  1.00  0.00     0.116 C 
ENDROOT
BRANCH   1   2
ATOM      2  N   UNL A   1      33.582  29.316  24.580  1.00  0.00    -0.351 N 
ATOM      3  C   UNL A   1      33.455  28.159  23.879  1.00  0.00     0.281 C 
ATOM      4  O   UNL A   1      33.987  28.184  22.759  1.00  0.00    -0.268 OA
ATOM      5  H   UNL A   1      34.025  30.028  24.064  1.00  0.00     0.163 HD
BRANCH   3   6
ATOM      6  C   UNL A   1      32.719  26.857  24.399  1.00  0.00     0.178 C 
ATOM      7  C   UNL A   1      33.250  26.430  25.784  1.00  0.00     0.079 C 
ATOM      8  C   UNL A   1      31.210  27.117  24.676  1.00  0.00     0.063 C 
ATOM      9  C   UNL A   1      32.088  25.742  26.501  1.00  0.00     0.008 C 
ATOM     10  C   UNL A   1      30.828  26.011  25.675  1.00  0.00     0.011 C 
BRANCH   6  11
ATOM     11  N   UNL A   1      33.045  25.794  23.413  1.00  0.00    -0.336 N 
ATOM     12  C   UNL A   1      34.024  24.767  23.655  1.00  0.00     0.331 C 
ATOM     13  H   UNL A   1      32.167  25.305  23.228  1.00  0.00     0.346 HD
ATOM     14  H   UNL A   1      33.495  26.333  22.674  1.00  0.00     0.346 HD
ENDBRANCH   6  11
BRANCH   8  15
ATOM     15  C   UNL A   1      30.317  27.228  23.428  1.00  0.00     0.039 C 
BRANCH  15  16
ATOM     16  C   UNL A   1      30.500  28.480  22.560  1.00  0.00     0.161 C 
BRANCH  16  17
ATOM     17  O   UNL A   1      29.913  29.661  23.081  1.00  0.00    -0.379 OA
BRANCH  17  18
ATOM     18  C   UNL A   1      28.502  29.781  23.216  1.00  0.00     0.192 C 
BRANCH  18  19
ATOM     19  C   UNL A   1      27.740  30.750  22.294  1.00  0.00     0.144 C 
ATOM     20  C   UNL A   1      28.249  30.805  20.867  1.00  0.00     0.037 C 
ATOM     21  O   UNL A   1      27.734  32.097  22.791  1.00  0.00    -0.376 OA
ATOM     22  C   UNL A   1      27.907  32.201  20.426  1.00  0.00     0.031 C 
ATOM     23  C   UNL A   1      28.025  32.991  21.711  1.00  0.00     0.160 C 
ENDBRANCH  18  19
ENDBRANCH  17  18
ENDBRANCH  16  17
ENDBRANCH  15  16
ENDBRANCH   8  15
ENDBRANCH   3   6
ENDBRANCH   1   2
BRANCH   1  24
ATOM     24  C   UNL A   1      31.885  30.493  25.937  1.00  0.00     0.023 C 
BRANCH  24  25
ATOM     25  C   UNL A   1      31.770  31.570  27.017  1.00  0.00     0.023 C 
BRANCH  25  26
ATOM     26  C   UNL A   1      32.983  32.482  27.182  1.00  0.00     0.116 C 
BRANCH  26  27
ATOM     27  N   UNL A   1      32.636  33.833  27.599  1.00  0.00    -0.352 N 
ATOM     28  C   UNL A   1      33.176  34.599  28.610  1.00  0.00     0.251 C 
ATOM     29  H   UNL A   1      31.914  34.261  27.085  1.00  0.00     0.163 HD
ATOM     30  O   UNL A   1      32.678  35.681  28.886  1.00  0.00    -0.269 OA
BRANCH  28  31
ATOM     31  C   UNL A   1      34.333  34.088  29.380  1.00  0.00     0.039 A 
ATOM     32  C   UNL A   1      34.096  33.289  30.502  1.00  0.00     0.014 A 
ATOM     33  C   UNL A   1      35.642  34.372  28.984  1.00  0.00     0.014 A 
ATOM     34  C   UNL A   1      35.173  32.711  31.180  1.00  0.00     0.010 A 
ATOM     35  C   UNL A   1      36.708  33.738  29.617  1.00  0.00     0.010 A 
ATOM     36  C   UNL A   1      36.486  32.897  30.719  1.00  0.00    -0.014 A 
BRANCH  36  37
ATOM     37  C   UNL A   1      37.636  32.202  31.356  1.00  0.00     0.031 A 
ATOM     38  C   UNL A   1      38.219  32.717  32.644  1.00  0.00     0.074 A 
ATOM     39  C   UNL A   1      38.220  31.165  30.722  1.00  0.00     0.049 A 
ATOM     40  N   UNL A   1      39.256  32.281  33.311  1.00  0.00    -0.248 NA
ATOM     41  C   UNL A   1      37.570  33.892  33.248  1.00  0.00     0.031 C 
ATOM     42  C   UNL A   1      37.807  30.625  29.424  1.00  0.00     0.029 A 
ATOM     43  N   UNL A   1      39.306  30.399  31.068  1.00  0.00    -0.354 N 
ATOM     44  C   UNL A   1      39.408  33.146  34.388  1.00  0.00     0.074 A 
ATOM     45  C   UNL A   1      38.376  34.153  34.268  1.00  0.00     0.031 C 
ATOM     46  C   UNL A   1      38.626  29.617  29.086  1.00  0.00     0.029 A 
ATOM     47  C   UNL A   1      39.639  29.455  30.123  1.00  0.00     0.049 A 
ATOM     48  H   UNL A   1      39.800  30.514  31.911  1.00  0.00     0.167 HD
ATOM     49  C   UNL A   1      40.307  33.095  35.400  1.00  0.00     0.034 A 
ATOM     50  C   UNL A   1      40.652  28.565  30.091  1.00  0.00     0.034 A 
ATOM     51  C   UNL A   1      41.303  32.067  35.543  1.00  0.00     0.049 A 
ATOM     52  C   UNL A   1      41.604  28.495  31.254  1.00  0.00     0.074 A 
ATOM     53  C   UNL A   1      42.192  31.871  36.585  1.00  0.00     0.029 A 
ATOM     54  N   UNL A   1      41.548  31.067  34.614  1.00  0.00    -0.354 N 
ATOM     55  N   UNL A   1      41.623  29.217  32.349  1.00  0.00    -0.248 NA
ATOM     56  C   UNL A   1      42.651  27.466  31.196  1.00  0.00     0.031 C 
ATOM     57  C   UNL A   1      42.990  30.765  36.276  1.00  0.00     0.029 A 
ATOM     58  C   UNL A   1      42.581  30.257  35.054  1.00  0.00     0.049 A 
ATOM     59  H   UNL A   1      41.060  30.951  33.767  1.00  0.00     0.167 HD
ATOM     60  C   UNL A   1      42.659  28.706  33.124  1.00  0.00     0.074 A 
ATOM     61  C   UNL A   1      43.229  27.599  32.382  1.00  0.00     0.031 C 
ATOM     62  C   UNL A   1      43.105  29.125  34.334  1.00  0.00     0.034 A 
BRANCH  49  63
ATOM     63  C   UNL A   1      40.218  34.152  36.470  1.00  0.00     0.023 A 
ATOM     64  C   UNL A   1      40.617  35.472  36.177  1.00  0.00     0.012 A 
ATOM     65  C   UNL A   1      39.685  33.858  37.739  1.00  0.00     0.148 A 
ATOM     66  C   UNL A   1      40.521  36.475  37.140  1.00  0.00     0.002 A 
ATOM     67  C   UNL A   1      39.549  34.874  38.680  1.00  0.00     0.091 A 
ATOM     68  F   UNL A   1      39.328  32.593  38.008  1.00  0.00    -0.205 F 
ATOM     69  C   UNL A   1      39.977  36.178  38.386  1.00  0.00     0.022 A 
BRANCH  67  70
ATOM     70  S   UNL A   1      38.785  34.612  40.285  1.00  0.00     0.127 S 
ATOM     71  O   UNL A   1      37.679  33.717  39.943  1.00  0.00    -0.237 OA
ATOM     72  O   UNL A   1      39.867  33.980  41.041  1.00  0.00    -0.237 OA
ATOM     73  O   UNL A   1      38.399  35.930  40.766  1.00  0.00    -0.744 OA
ENDBRANCH  67  70
ENDBRANCH  49  63
BRANCH  50  74
ATOM     74  C   UNL A   1      40.771  27.617  28.948  1.00  0.00     0.023 A 
ATOM     75  C   UNL A   1      39.899  26.514  28.870  1.00  0.00     0.012 A 
ATOM     76  C   UNL A   1      41.719  27.815  27.924  1.00  0.00     0.148 A 
ATOM     77  C   UNL A   1      39.986  25.609  27.813  1.00  0.00     0.002 A 
ATOM     78  C   UNL A   1      41.764  26.940  26.844  1.00  0.00     0.091 A 
ATOM     79  F   UNL A   1      42.548  28.864  28.020  1.00  0.00    -0.205 F 
ATOM     80  C   UNL A   1      40.911  25.826  26.796  1.00  0.00     0.022 A 
BRANCH  78  81
ATOM     81  S   UNL A   1      42.828  27.216  25.424  1.00  0.00     0.127 S 
ATOM     82  O   UNL A   1      44.126  27.432  26.060  1.00  0.00    -0.237 OA
ATOM     83  O   UNL A   1      42.700  25.951  24.700  1.00  0.00    -0.237 OA
ATOM     84  O   UNL A   1      42.264  28.365  24.728  1.00  0.00    -0.744 OA
ENDBRANCH  78  81
ENDBRANCH  50  74
BRANCH  62  85
ATOM     85  C   UNL A   1      44.247  28.367  34.960  1.00  0.00     0.023 A 
ATOM     86  C   UNL A   1      45.571  28.641  34.563  1.00  0.00     0.012 A 
ATOM     87  C   UNL A   1      44.013  27.442  35.996  1.00  0.00     0.148 A 
ATOM     88  C   UNL A   1      46.642  27.983  35.166  1.00  0.00     0.002 A 
ATOM     89  C   UNL A   1      45.087  26.827  36.627  1.00  0.00     0.091 A 
ATOM     90  F   UNL A   1      42.745  27.181  36.346  1.00  0.00    -0.205 F 
ATOM     91  C   UNL A   1      46.402  27.086  36.205  1.00  0.00     0.022 A 
BRANCH  89  92
ATOM     92  S   UNL A   1      44.878  25.732  38.036  1.00  0.00     0.127 S 
ATOM     93  O   UNL A   1      44.140  26.583  38.968  1.00  0.00    -0.237 OA
ATOM     94  O   UNL A   1      44.098  24.634  37.464  1.00  0.00    -0.237 OA
ATOM     95  O   UNL A   1      46.222  25.360  38.458  1.00  0.00    -0.744 OA
ENDBRANCH  89  92
ENDBRANCH  62  85
ENDBRANCH  36  37
ENDBRANCH  28  31
ENDBRANCH  26  27
ENDBRANCH  25  26
ENDBRANCH  24  25
ENDBRANCH   1  24
TORSDOF 20
ENDMDL
