MODEL 1
REMARK VINA RESULT:     -11.3      0.000      0.000
REMARK SMILES CC[NH2+][C@]1(C(=O)NCCCCNC(=O)c2ccc(-c3c4nc(c(-c5cccc(S(=O)(=O)[O-])c5F)c5ccc([nH]5)c(-c5cccc(S(=O)(=O)[O-])c5F)c5nc(c(-c6cccc(S(=O)(=O)[O-])c6F)c6ccc3[nH]6)C=C5)C=C4)cc2)CCC[C@@H]1CCSc1ccccc1F
REMARK SMILES IDX 9 1 8 2 7 3 5 4 6 5 4 7 78 8 81 9 79 10 80 11 3 12 2 15 1 16
REMARK SMILES IDX 82 17 83 18 84 19 85 20 86 21 90 22 87 23 89 24 91 25 88 26
REMARK SMILES IDX 10 27 11 28 12 29 13 30 14 32 15 33 16 34 77 35 17 36 76 37
REMARK SMILES IDX 18 38 19 39 20 40 70 41 21 42 75 43 69 44 71 45 22 46 74 47
REMARK SMILES IDX 68 48 67 49 23 51 55 52 35 53 54 54 36 55 39 56 53 57 72 58
REMARK SMILES IDX 37 59 38 60 52 62 73 63 40 64 24 65 25 66 33 67 26 68 28 69
REMARK SMILES IDX 34 70 27 71 29 72 30 73 31 74 32 75 56 76 57 77 65 78 58 79
REMARK SMILES IDX 60 80 66 81 59 82 61 83 62 84 63 85 64 86 41 87 42 88 50 89
REMARK SMILES IDX 43 90 45 91 51 92 44 93 46 94 47 95 48 96 49 97
REMARK H PARENT 7 6 3 13 3 14 12 31 71 50 39 61
REMARK Flexibility Score: inf
ROOT
ATOM      1  C   UNL A   1      37.172  21.213  24.849  1.00  0.00     0.023 C 
ENDROOT
BRANCH   1   2
ATOM      2  C   UNL A   1      35.707  20.867  25.115  1.00  0.00     0.116 C 
BRANCH   2   3
ATOM      3  N   UNL A   1      35.217  21.413  26.361  1.00  0.00    -0.351 N 
ATOM      4  C   UNL A   1      34.453  22.483  26.688  1.00  0.00     0.281 C 
ATOM      5  O   UNL A   1      34.245  22.590  27.905  1.00  0.00    -0.268 OA
ATOM      6  H   UNL A   1      35.501  20.890  27.146  1.00  0.00     0.163 HD
BRANCH   4   7
ATOM      7  C   UNL A   1      33.949  23.613  25.705  1.00  0.00     0.178 C 
ATOM      8  C   UNL A   1      35.030  24.455  25.007  1.00  0.00     0.079 C 
ATOM      9  C   UNL A   1      33.340  22.895  24.457  1.00  0.00     0.061 C 
ATOM     10  C   UNL A   1      34.449  24.934  23.681  1.00  0.00     0.008 C 
ATOM     11  C   UNL A   1      33.374  23.921  23.309  1.00  0.00     0.011 C 
BRANCH   7  12
ATOM     12  N   UNL A   1      32.955  24.374  26.491  1.00  0.00    -0.334 N 
ATOM     13  H   UNL A   1      32.081  23.852  26.430  1.00  0.00     0.347 HD
ATOM     14  H   UNL A   1      33.416  24.459  27.397  1.00  0.00     0.347 HD
BRANCH  12  15
ATOM     15  C   UNL A   1      32.631  25.747  26.182  1.00  0.00     0.257 C 
ATOM     16  C   UNL A   1      31.152  25.815  25.814  1.00  0.00     0.071 C 
ENDBRANCH  12  15
ENDBRANCH   7  12
BRANCH   9  17
ATOM     17  C   UNL A   1      31.954  22.241  24.624  1.00  0.00     0.022 C 
BRANCH  17  18
ATOM     18  C   UNL A   1      32.015  20.740  24.946  1.00  0.00     0.075 C 
BRANCH  18  19
ATOM     19  S   UNL A   1      32.224  19.639  23.489  1.00  0.00    -0.123 SA
BRANCH  19  20
ATOM     20  C   UNL A   1      32.822  18.104  24.181  1.00  0.00     0.043 A 
ATOM     21  C   UNL A   1      32.557  17.739  25.507  1.00  0.00     0.018 A 
ATOM     22  C   UNL A   1      33.631  17.254  23.414  1.00  0.00     0.136 A 
ATOM     23  C   UNL A   1      33.024  16.525  26.022  1.00  0.00     0.001 A 
ATOM     24  C   UNL A   1      34.108  16.048  23.927  1.00  0.00     0.040 A 
ATOM     25  F   UNL A   1      33.965  17.570  22.153  1.00  0.00    -0.206 F 
ATOM     26  C   UNL A   1      33.794  15.674  25.230  1.00  0.00     0.003 A 
ENDBRANCH  19  20
ENDBRANCH  18  19
ENDBRANCH  17  18
ENDBRANCH   9  17
ENDBRANCH   4   7
ENDBRANCH   2   3
ENDBRANCH   1   2
BRANCH   1  27
ATOM     27  C   UNL A   1      38.178  20.070  24.991  1.00  0.00     0.023 C 
BRANCH  27  28
ATOM     28  C   UNL A   1      39.301  20.292  26.000  1.00  0.00     0.116 C 
BRANCH  28  29
ATOM     29  N   UNL A   1      40.310  19.244  25.982  1.00  0.00    -0.352 N 
ATOM     30  C   UNL A   1      41.677  19.324  26.114  1.00  0.00     0.251 C 
ATOM     31  H   UNL A   1      39.959  18.333  25.854  1.00  0.00     0.163 HD
ATOM     32  O   UNL A   1      42.358  18.313  25.951  1.00  0.00    -0.269 OA
BRANCH  30  33
ATOM     33  C   UNL A   1      42.335  20.613  26.420  1.00  0.00     0.039 A 
ATOM     34  C   UNL A   1      42.833  21.380  25.362  1.00  0.00     0.014 A 
ATOM     35  C   UNL A   1      42.476  21.065  27.735  1.00  0.00     0.014 A 
ATOM     36  C   UNL A   1      43.398  22.635  25.616  1.00  0.00     0.010 A 
ATOM     37  C   UNL A   1      42.976  22.345  27.980  1.00  0.00     0.010 A 
ATOM     38  C   UNL A   1      43.438  23.145  26.923  1.00  0.00    -0.014 A 
BRANCH  38  39
ATOM     39  C   UNL A   1      43.928  24.523  27.198  1.00  0.00     0.031 A 
ATOM     40  C   UNL A   1      42.990  25.580  27.719  1.00  0.00     0.074 A 
ATOM     41  C   UNL A   1      45.200  24.850  26.888  1.00  0.00     0.049 A 
ATOM     42  N   UNL A   1      43.228  26.841  27.970  1.00  0.00    -0.248 NA
ATOM     43  C   UNL A   1      41.596  25.176  27.971  1.00  0.00     0.031 C 
ATOM     44  C   UNL A   1      46.187  23.944  26.295  1.00  0.00     0.029 A 
ATOM     45  N   UNL A   1      45.873  26.043  26.998  1.00  0.00    -0.354 N 
ATOM     46  C   UNL A   1      42.014  27.391  28.361  1.00  0.00     0.074 A 
ATOM     47  C   UNL A   1      41.032  26.330  28.301  1.00  0.00     0.031 C 
ATOM     48  C   UNL A   1      47.334  24.612  26.093  1.00  0.00     0.029 A 
ATOM     49  C   UNL A   1      47.162  25.998  26.515  1.00  0.00     0.049 A 
ATOM     50  H   UNL A   1      45.472  26.854  27.385  1.00  0.00     0.167 HD
ATOM     51  C   UNL A   1      41.745  28.657  28.759  1.00  0.00     0.034 A 
ATOM     52  C   UNL A   1      48.098  26.964  26.419  1.00  0.00     0.034 A 
ATOM     53  C   UNL A   1      42.733  29.693  28.883  1.00  0.00     0.049 A 
ATOM     54  C   UNL A   1      47.781  28.345  26.929  1.00  0.00     0.074 A 
ATOM     55  C   UNL A   1      42.579  30.970  29.396  1.00  0.00     0.029 A 
ATOM     56  N   UNL A   1      44.055  29.581  28.485  1.00  0.00    -0.354 N 
ATOM     57  N   UNL A   1      46.679  28.788  27.483  1.00  0.00    -0.248 NA
ATOM     58  C   UNL A   1      48.851  29.351  26.836  1.00  0.00     0.031 C 
ATOM     59  C   UNL A   1      43.803  31.636  29.289  1.00  0.00     0.029 A 
ATOM     60  C   UNL A   1      44.724  30.768  28.728  1.00  0.00     0.049 A 
ATOM     61  H   UNL A   1      44.459  28.776  28.088  1.00  0.00     0.167 HD
ATOM     62  C   UNL A   1      46.937  30.107  27.841  1.00  0.00     0.074 A 
ATOM     63  C   UNL A   1      48.305  30.384  27.463  1.00  0.00     0.031 C 
ATOM     64  C   UNL A   1      46.106  31.012  28.415  1.00  0.00     0.034 A 
BRANCH  51  65
ATOM     65  C   UNL A   1      40.332  28.993  29.157  1.00  0.00     0.023 A 
ATOM     66  C   UNL A   1      39.381  29.284  28.160  1.00  0.00     0.012 A 
ATOM     67  C   UNL A   1      39.923  28.915  30.503  1.00  0.00     0.148 A 
ATOM     68  C   UNL A   1      38.047  29.511  28.495  1.00  0.00     0.002 A 
ATOM     69  C   UNL A   1      38.584  29.100  30.826  1.00  0.00     0.091 A 
ATOM     70  F   UNL A   1      40.848  28.652  31.437  1.00  0.00    -0.205 F 
ATOM     71  C   UNL A   1      37.647  29.407  29.825  1.00  0.00     0.022 A 
BRANCH  69  72
ATOM     72  S   UNL A   1      37.950  28.913  32.496  1.00  0.00     0.127 S 
ATOM     73  O   UNL A   1      36.572  29.379  32.343  1.00  0.00    -0.237 OA
ATOM     74  O   UNL A   1      38.086  27.472  32.715  1.00  0.00    -0.237 OA
ATOM     75  O   UNL A   1      38.795  29.741  33.345  1.00  0.00    -0.744 OA
ENDBRANCH  69  72
ENDBRANCH  51  65
BRANCH  52  76
ATOM     76  C   UNL A   1      49.452  26.652  25.877  1.00  0.00     0.023 A 
ATOM     77  C   UNL A   1      50.367  25.941  26.677  1.00  0.00     0.012 A 
ATOM     78  C   UNL A   1      49.841  27.057  24.586  1.00  0.00     0.148 A 
ATOM     79  C   UNL A   1      51.659  25.678  26.220  1.00  0.00     0.002 A 
ATOM     80  C   UNL A   1      51.111  26.743  24.115  1.00  0.00     0.091 A 
ATOM     81  F   UNL A   1      48.965  27.750  23.843  1.00  0.00    -0.205 F 
ATOM     82  C   UNL A   1      52.029  26.071  24.937  1.00  0.00     0.022 A 
BRANCH  80  83
ATOM     83  S   UNL A   1      51.612  27.097  22.427  1.00  0.00     0.127 S 
ATOM     84  O   UNL A   1      51.826  28.540  22.474  1.00  0.00    -0.237 OA
ATOM     85  O   UNL A   1      52.832  26.298  22.292  1.00  0.00    -0.237 OA
ATOM     86  O   UNL A   1      50.506  26.637  21.598  1.00  0.00    -0.744 OA
ENDBRANCH  80  83
ENDBRANCH  52  76
BRANCH  64  87
ATOM     87  C   UNL A   1      46.659  32.379  28.717  1.00  0.00     0.023 A 
ATOM     88  C   UNL A   1      47.229  32.641  29.978  1.00  0.00     0.012 A 
ATOM     89  C   UNL A   1      46.690  33.378  27.723  1.00  0.00     0.148 A 
ATOM     90  C   UNL A   1      47.792  33.886  30.257  1.00  0.00     0.002 A 
ATOM     91  C   UNL A   1      47.295  34.600  27.992  1.00  0.00     0.091 A 
ATOM     92  F   UNL A   1      46.125  33.116  26.535  1.00  0.00    -0.205 F 
ATOM     93  C   UNL A   1      47.836  34.859  29.261  1.00  0.00     0.022 A 
BRANCH  91  94
ATOM     94  S   UNL A   1      47.484  35.873  26.738  1.00  0.00     0.127 S 
ATOM     95  O   UNL A   1      48.051  35.113  25.625  1.00  0.00    -0.237 OA
ATOM     96  O   UNL A   1      46.105  36.318  26.533  1.00  0.00    -0.237 OA
ATOM     97  O   UNL A   1      48.360  36.880  27.321  1.00  0.00    -0.744 OA
ENDBRANCH  91  94
ENDBRANCH  64  87
ENDBRANCH  38  39
ENDBRANCH  30  33
ENDBRANCH  28  29
ENDBRANCH  27  28
ENDBRANCH   1  27
TORSDOF 20
ENDMDL
MODEL 2
REMARK VINA RESULT:     -11.1      5.906      8.653
REMARK SMILES CC[NH2+][C@]1(C(=O)NCCCCNC(=O)c2ccc(-c3c4nc(c(-c5cccc(S(=O)(=O)[O-])c5F)c5ccc([nH]5)c(-c5cccc(S(=O)(=O)[O-])c5F)c5nc(c(-c6cccc(S(=O)(=O)[O-])c6F)c6ccc3[nH]6)C=C5)C=C4)cc2)CCC[C@@H]1CCSc1ccccc1F
REMARK SMILES IDX 9 1 8 2 7 3 5 4 6 5 4 7 78 8 81 9 79 10 80 11 3 12 2 15 1 16
REMARK SMILES IDX 82 17 83 18 84 19 85 20 86 21 90 22 87 23 89 24 91 25 88 26
REMARK SMILES IDX 10 27 11 28 12 29 13 30 14 32 15 33 16 34 77 35 17 36 76 37
REMARK SMILES IDX 18 38 19 39 20 40 70 41 21 42 75 43 69 44 71 45 22 46 74 47
REMARK SMILES IDX 68 48 67 49 23 51 55 52 35 53 54 54 36 55 39 56 53 57 72 58
REMARK SMILES IDX 37 59 38 60 52 62 73 63 40 64 24 65 25 66 33 67 26 68 28 69
REMARK SMILES IDX 34 70 27 71 29 72 30 73 31 74 32 75 56 76 57 77 65 78 58 79
REMARK SMILES IDX 60 80 66 81 59 82 61 83 62 84 63 85 64 86 41 87 42 88 50 89
REMARK SMILES IDX 43 90 45 91 51 92 44 93 46 94 47 95 48 96 49 97
REMARK H PARENT 7 6 3 13 3 14 12 31 71 50 39 61
REMARK Flexibility Score: inf
ROOT
ATOM      1  C   UNL A   1      32.969  29.287  24.452  1.00  0.00     0.023 C 
ENDROOT
BRANCH   1   2
ATOM      2  C   UNL A   1      32.267  28.767  23.197  1.00  0.00     0.116 C 
BRANCH   2   3
ATOM      3  N   UNL A   1      33.074  27.833  22.446  1.00  0.00    -0.351 N 
ATOM      4  C   UNL A   1      33.143  26.481  22.381  1.00  0.00     0.281 C 
ATOM      5  O   UNL A   1      33.985  26.065  21.574  1.00  0.00    -0.268 OA
ATOM      6  H   UNL A   1      33.717  28.278  21.847  1.00  0.00     0.163 HD
BRANCH   4   7
ATOM      7  C   UNL A   1      32.368  25.457  23.302  1.00  0.00     0.178 C 
ATOM      8  C   UNL A   1      30.914  25.142  22.915  1.00  0.00     0.079 C 
ATOM      9  C   UNL A   1      33.006  24.050  23.060  1.00  0.00     0.061 C 
ATOM     10  C   UNL A   1      30.604  23.734  23.410  1.00  0.00     0.008 C 
ATOM     11  C   UNL A   1      31.947  23.017  23.484  1.00  0.00     0.011 C 
BRANCH   7  12
ATOM     12  N   UNL A   1      32.567  25.967  24.676  1.00  0.00    -0.334 N 
ATOM     13  H   UNL A   1      33.308  25.399  25.087  1.00  0.00     0.347 HD
ATOM     14  H   UNL A   1      32.739  26.959  24.515  1.00  0.00     0.347 HD
BRANCH  12  15
ATOM     15  C   UNL A   1      31.494  25.995  25.640  1.00  0.00     0.257 C 
ATOM     16  C   UNL A   1      31.746  24.893  26.665  1.00  0.00     0.071 C 
ENDBRANCH  12  15
ENDBRANCH   7  12
BRANCH   9  17
ATOM     17  C   UNL A   1      34.384  23.780  23.697  1.00  0.00     0.022 C 
BRANCH  17  18
ATOM     18  C   UNL A   1      34.832  22.314  23.598  1.00  0.00     0.075 C 
BRANCH  18  19
ATOM     19  S   UNL A   1      34.678  21.346  25.152  1.00  0.00    -0.123 SA
BRANCH  19  20
ATOM     20  C   UNL A   1      34.121  19.736  24.613  1.00  0.00     0.043 A 
ATOM     21  C   UNL A   1      32.777  19.481  24.314  1.00  0.00     0.018 A 
ATOM     22  C   UNL A   1      35.026  18.668  24.535  1.00  0.00     0.136 A 
ATOM     23  C   UNL A   1      32.368  18.215  23.880  1.00  0.00     0.001 A 
ATOM     24  C   UNL A   1      34.620  17.402  24.113  1.00  0.00     0.040 A 
ATOM     25  F   UNL A   1      36.319  18.833  24.857  1.00  0.00    -0.206 F 
ATOM     26  C   UNL A   1      33.290  17.177  23.771  1.00  0.00     0.003 A 
ENDBRANCH  19  20
ENDBRANCH  18  19
ENDBRANCH  17  18
ENDBRANCH   9  17
ENDBRANCH   4   7
ENDBRANCH   2   3
ENDBRANCH   1   2
BRANCH   1  27
ATOM     27  C   UNL A   1      32.065  29.723  25.606  1.00  0.00     0.023 C 
BRANCH  27  28
ATOM     28  C   UNL A   1      32.774  30.089  26.906  1.00  0.00     0.116 C 
BRANCH  28  29
ATOM     29  N   UNL A   1      32.888  31.524  27.118  1.00  0.00    -0.352 N 
ATOM     30  C   UNL A   1      33.864  32.255  27.754  1.00  0.00     0.251 C 
ATOM     31  H   UNL A   1      32.147  32.057  26.749  1.00  0.00     0.163 HD
ATOM     32  O   UNL A   1      33.701  33.462  27.921  1.00  0.00    -0.269 OA
BRANCH  30  33
ATOM     33  C   UNL A   1      35.091  31.600  28.262  1.00  0.00     0.039 A 
ATOM     34  C   UNL A   1      36.300  32.297  28.193  1.00  0.00     0.014 A 
ATOM     35  C   UNL A   1      35.061  30.308  28.792  1.00  0.00     0.014 A 
ATOM     36  C   UNL A   1      37.463  31.732  28.728  1.00  0.00     0.010 A 
ATOM     37  C   UNL A   1      36.204  29.774  29.387  1.00  0.00     0.010 A 
ATOM     38  C   UNL A   1      37.416  30.482  29.366  1.00  0.00    -0.014 A 
BRANCH  38  39
ATOM     39  C   UNL A   1      38.615  29.917  30.043  1.00  0.00     0.031 A 
ATOM     40  C   UNL A   1      39.051  30.435  31.389  1.00  0.00     0.074 A 
ATOM     41  C   UNL A   1      39.369  28.999  29.402  1.00  0.00     0.049 A 
ATOM     42  N   UNL A   1      40.092  30.096  32.103  1.00  0.00    -0.248 NA
ATOM     43  C   UNL A   1      38.223  31.487  32.003  1.00  0.00     0.031 C 
ATOM     44  C   UNL A   1      39.108  28.477  28.058  1.00  0.00     0.029 A 
ATOM     45  N   UNL A   1      40.529  28.366  29.781  1.00  0.00    -0.354 N 
ATOM     46  C   UNL A   1      40.073  30.919  33.223  1.00  0.00     0.074 A 
ATOM     47  C   UNL A   1      38.924  31.788  33.088  1.00  0.00     0.031 C 
ATOM     48  C   UNL A   1      40.076  27.607  27.727  1.00  0.00     0.029 A 
ATOM     49  C   UNL A   1      41.041  27.526  28.818  1.00  0.00     0.049 A 
ATOM     50  H   UNL A   1      40.953  28.500  30.659  1.00  0.00     0.167 HD
ATOM     51  C   UNL A   1      40.919  30.934  34.279  1.00  0.00     0.034 A 
ATOM     52  C   UNL A   1      42.164  26.780  28.812  1.00  0.00     0.034 A 
ATOM     53  C   UNL A   1      42.022  30.026  34.445  1.00  0.00     0.049 A 
ATOM     54  C   UNL A   1      43.049  26.776  30.029  1.00  0.00     0.074 A 
ATOM     55  C   UNL A   1      42.859  29.883  35.539  1.00  0.00     0.029 A 
ATOM     56  N   UNL A   1      42.449  29.114  33.494  1.00  0.00    -0.354 N 
ATOM     57  N   UNL A   1      42.898  27.418  31.162  1.00  0.00    -0.248 NA
ATOM     58  C   UNL A   1      44.241  25.914  29.984  1.00  0.00     0.031 C 
ATOM     59  C   UNL A   1      43.805  28.898  35.240  1.00  0.00     0.029 A 
ATOM     60  C   UNL A   1      43.544  28.414  33.970  1.00  0.00     0.049 A 
ATOM     61  H   UNL A   1      42.034  28.983  32.611  1.00  0.00     0.167 HD
ATOM     62  C   UNL A   1      43.947  27.006  31.976  1.00  0.00     0.074 A 
ATOM     63  C   UNL A   1      44.715  26.043  31.216  1.00  0.00     0.031 C 
ATOM     64  C   UNL A   1      44.258  27.405  33.234  1.00  0.00     0.034 A 
BRANCH  51  65
ATOM     65  C   UNL A   1      40.661  31.922  35.385  1.00  0.00     0.023 A 
ATOM     66  C   UNL A   1      41.463  33.076  35.486  1.00  0.00     0.012 A 
ATOM     67  C   UNL A   1      39.562  31.764  36.253  1.00  0.00     0.148 A 
ATOM     68  C   UNL A   1      41.188  34.050  36.445  1.00  0.00     0.002 A 
ATOM     69  C   UNL A   1      39.269  32.759  37.179  1.00  0.00     0.091 A 
ATOM     70  F   UNL A   1      38.822  30.650  36.149  1.00  0.00    -0.205 F 
ATOM     71  C   UNL A   1      40.086  33.897  37.281  1.00  0.00     0.022 A 
BRANCH  69  72
ATOM     72  S   UNL A   1      37.829  32.697  38.250  1.00  0.00     0.127 S 
ATOM     73  O   UNL A   1      38.050  33.860  39.109  1.00  0.00    -0.237 OA
ATOM     74  O   UNL A   1      36.730  32.844  37.295  1.00  0.00    -0.237 OA
ATOM     75  O   UNL A   1      37.882  31.408  38.925  1.00  0.00    -0.744 OA
ENDBRANCH  69  72
ENDBRANCH  51  65
BRANCH  52  76
ATOM     76  C   UNL A   1      42.490  25.918  27.639  1.00  0.00     0.023 A 
ATOM     77  C   UNL A   1      43.232  26.459  26.571  1.00  0.00     0.012 A 
ATOM     78  C   UNL A   1      42.068  24.577  27.568  1.00  0.00     0.148 A 
ATOM     79  C   UNL A   1      43.510  25.696  25.436  1.00  0.00     0.002 A 
ATOM     80  C   UNL A   1      42.395  23.806  26.459  1.00  0.00     0.091 A 
ATOM     81  F   UNL A   1      41.345  24.082  28.583  1.00  0.00    -0.205 F 
ATOM     82  C   UNL A   1      43.099  24.367  25.383  1.00  0.00     0.022 A 
BRANCH  80  83
ATOM     83  S   UNL A   1      42.017  22.051  26.378  1.00  0.00     0.127 S 
ATOM     84  O   UNL A   1      40.575  22.065  26.154  1.00  0.00    -0.237 OA
ATOM     85  O   UNL A   1      42.815  21.615  25.230  1.00  0.00    -0.237 OA
ATOM     86  O   UNL A   1      42.465  21.507  27.653  1.00  0.00    -0.744 OA
ENDBRANCH  80  83
ENDBRANCH  52  76
BRANCH  64  87
ATOM     87  C   UNL A   1      45.452  26.772  33.896  1.00  0.00     0.023 A 
ATOM     88  C   UNL A   1      46.713  27.393  33.807  1.00  0.00     0.012 A 
ATOM     89  C   UNL A   1      45.309  25.607  34.676  1.00  0.00     0.148 A 
ATOM     90  C   UNL A   1      47.820  26.848  34.457  1.00  0.00     0.002 A 
ATOM     91  C   UNL A   1      46.405  25.097  35.360  1.00  0.00     0.091 A 
ATOM     92  F   UNL A   1      44.105  25.020  34.734  1.00  0.00    -0.205 F 
ATOM     93  C   UNL A   1      47.663  25.709  35.243  1.00  0.00     0.022 A 
BRANCH  91  94
ATOM     94  S   UNL A   1      46.272  23.692  36.473  1.00  0.00     0.127 S 
ATOM     95  O   UNL A   1      47.672  23.307  36.637  1.00  0.00    -0.237 OA
ATOM     96  O   UNL A   1      45.661  24.291  37.661  1.00  0.00    -0.237 OA
ATOM     97  O   UNL A   1      45.429  22.720  35.790  1.00  0.00    -0.744 OA
ENDBRANCH  91  94
ENDBRANCH  64  87
ENDBRANCH  38  39
ENDBRANCH  30  33
ENDBRANCH  28  29
ENDBRANCH  27  28
ENDBRANCH   1  27
TORSDOF 20
ENDMDL
MODEL 3
REMARK VINA RESULT:     -11.0      1.853      2.260
REMARK SMILES CC[NH2+][C@]1(C(=O)NCCCCNC(=O)c2ccc(-c3c4nc(c(-c5cccc(S(=O)(=O)[O-])c5F)c5ccc([nH]5)c(-c5cccc(S(=O)(=O)[O-])c5F)c5nc(c(-c6cccc(S(=O)(=O)[O-])c6F)c6ccc3[nH]6)C=C5)C=C4)cc2)CCC[C@@H]1CCSc1ccccc1F
REMARK SMILES IDX 9 1 8 2 7 3 5 4 6 5 4 7 78 8 81 9 79 10 80 11 3 12 2 15 1 16
REMARK SMILES IDX 82 17 83 18 84 19 85 20 86 21 90 22 87 23 89 24 91 25 88 26
REMARK SMILES IDX 10 27 11 28 12 29 13 30 14 32 15 33 16 34 77 35 17 36 76 37
REMARK SMILES IDX 18 38 19 39 20 40 70 41 21 42 75 43 69 44 71 45 22 46 74 47
REMARK SMILES IDX 68 48 67 49 23 51 55 52 35 53 54 54 36 55 39 56 53 57 72 58
REMARK SMILES IDX 37 59 38 60 52 62 73 63 40 64 24 65 25 66 33 67 26 68 28 69
REMARK SMILES IDX 34 70 27 71 29 72 30 73 31 74 32 75 56 76 57 77 65 78 58 79
REMARK SMILES IDX 60 80 66 81 59 82 61 83 62 84 63 85 64 86 41 87 42 88 50 89
REMARK SMILES IDX 43 90 45 91 51 92 44 93 46 94 47 95 48 96 49 97
REMARK H PARENT 7 6 3 13 3 14 12 31 71 50 39 61
REMARK Flexibility Score: inf
ROOT
ATOM      1  C   UNL A   1      37.848  23.362  25.753  1.00  0.00     0.023 C 
ENDROOT
BRANCH   1   2
ATOM      2  C   UNL A   1      36.493  23.800  25.198  1.00  0.00     0.116 C 
BRANCH   2   3
ATOM      3  N   UNL A   1      35.398  23.523  26.100  1.00  0.00    -0.351 N 
ATOM      4  C   UNL A   1      34.065  23.760  26.070  1.00  0.00     0.281 C 
ATOM      5  O   UNL A   1      33.462  23.334  27.065  1.00  0.00    -0.268 OA
ATOM      6  H   UNL A   1      35.686  23.057  26.919  1.00  0.00     0.163 HD
BRANCH   4   7
ATOM      7  C   UNL A   1      33.286  24.608  24.986  1.00  0.00     0.178 C 
ATOM      8  C   UNL A   1      33.982  25.878  24.472  1.00  0.00     0.079 C 
ATOM      9  C   UNL A   1      33.281  23.768  23.667  1.00  0.00     0.061 C 
ATOM     10  C   UNL A   1      33.483  26.129  23.053  1.00  0.00     0.008 C 
ATOM     11  C   UNL A   1      33.050  24.769  22.520  1.00  0.00     0.011 C 
BRANCH   7  12
ATOM     12  N   UNL A   1      31.941  24.805  25.566  1.00  0.00    -0.334 N 
ATOM     13  H   UNL A   1      31.278  24.437  24.883  1.00  0.00     0.347 HD
ATOM     14  H   UNL A   1      32.025  24.343  26.471  1.00  0.00     0.347 HD
BRANCH  12  15
ATOM     15  C   UNL A   1      31.456  26.115  25.934  1.00  0.00     0.257 C 
ATOM     16  C   UNL A   1      30.193  26.400  25.128  1.00  0.00     0.071 C 
ENDBRANCH  12  15
ENDBRANCH   7  12
BRANCH   9  17
ATOM     17  C   UNL A   1      32.323  22.562  23.601  1.00  0.00     0.022 C 
BRANCH  17  18
ATOM     18  C   UNL A   1      33.026  21.207  23.772  1.00  0.00     0.075 C 
BRANCH  18  19
ATOM     19  S   UNL A   1      32.207  19.792  22.931  1.00  0.00    -0.123 SA
BRANCH  19  20
ATOM     20  C   UNL A   1      32.942  18.349  23.685  1.00  0.00     0.043 A 
ATOM     21  C   UNL A   1      33.612  17.380  22.928  1.00  0.00     0.018 A 
ATOM     22  C   UNL A   1      32.805  18.128  25.063  1.00  0.00     0.136 A 
ATOM     23  C   UNL A   1      34.191  16.265  23.544  1.00  0.00     0.001 A 
ATOM     24  C   UNL A   1      33.371  17.012  25.679  1.00  0.00     0.040 A 
ATOM     25  F   UNL A   1      32.130  18.992  25.837  1.00  0.00    -0.206 F 
ATOM     26  C   UNL A   1      34.078  16.084  24.920  1.00  0.00     0.003 A 
ENDBRANCH  19  20
ENDBRANCH  18  19
ENDBRANCH  17  18
ENDBRANCH   9  17
ENDBRANCH   4   7
ENDBRANCH   2   3
ENDBRANCH   1   2
BRANCH   1  27
ATOM     27  C   UNL A   1      37.966  21.899  26.185  1.00  0.00     0.023 C 
BRANCH  27  28
ATOM     28  C   UNL A   1      38.332  20.907  25.085  1.00  0.00     0.116 C 
BRANCH  28  29
ATOM     29  N   UNL A   1      39.190  19.825  25.544  1.00  0.00    -0.352 N 
ATOM     30  C   UNL A   1      40.430  19.864  26.136  1.00  0.00     0.251 C 
ATOM     31  H   UNL A   1      38.825  18.921  25.408  1.00  0.00     0.163 HD
ATOM     32  O   UNL A   1      41.034  18.813  26.341  1.00  0.00    -0.269 OA
BRANCH  30  33
ATOM     33  C   UNL A   1      41.056  21.155  26.501  1.00  0.00     0.039 A 
ATOM     34  C   UNL A   1      41.694  21.898  25.503  1.00  0.00     0.014 A 
ATOM     35  C   UNL A   1      41.030  21.632  27.814  1.00  0.00     0.014 A 
ATOM     36  C   UNL A   1      42.233  23.153  25.804  1.00  0.00     0.010 A 
ATOM     37  C   UNL A   1      41.507  22.912  28.099  1.00  0.00     0.010 A 
ATOM     38  C   UNL A   1      42.109  23.688  27.096  1.00  0.00    -0.014 A 
BRANCH  38  39
ATOM     39  C   UNL A   1      42.572  25.068  27.406  1.00  0.00     0.031 A 
ATOM     40  C   UNL A   1      41.641  26.063  28.048  1.00  0.00     0.074 A 
ATOM     41  C   UNL A   1      43.807  25.456  27.024  1.00  0.00     0.049 A 
ATOM     42  N   UNL A   1      41.856  27.318  28.346  1.00  0.00    -0.248 NA
ATOM     43  C   UNL A   1      40.283  25.597  28.377  1.00  0.00     0.031 C 
ATOM     44  C   UNL A   1      44.777  24.616  26.316  1.00  0.00     0.029 A 
ATOM     45  N   UNL A   1      44.447  26.666  27.147  1.00  0.00    -0.354 N 
ATOM     46  C   UNL A   1      40.657  27.804  28.852  1.00  0.00     0.074 A 
ATOM     47  C   UNL A   1      39.708  26.712  28.807  1.00  0.00     0.031 C 
ATOM     48  C   UNL A   1      45.884  25.335  26.067  1.00  0.00     0.029 A 
ATOM     49  C   UNL A   1      45.698  26.691  26.572  1.00  0.00     0.049 A 
ATOM     50  H   UNL A   1      44.049  27.441  27.604  1.00  0.00     0.167 HD
ATOM     51  C   UNL A   1      40.376  29.037  29.333  1.00  0.00     0.034 A 
ATOM     52  C   UNL A   1      46.592  27.694  26.460  1.00  0.00     0.034 A 
ATOM     53  C   UNL A   1      41.337  30.101  29.440  1.00  0.00     0.049 A 
ATOM     54  C   UNL A   1      46.269  29.036  27.062  1.00  0.00     0.074 A 
ATOM     55  C   UNL A   1      41.178  31.345  30.028  1.00  0.00     0.029 A 
ATOM     56  N   UNL A   1      42.628  30.057  28.943  1.00  0.00    -0.354 N 
ATOM     57  N   UNL A   1      45.196  29.411  27.716  1.00  0.00    -0.248 NA
ATOM     58  C   UNL A   1      47.296  30.083  26.945  1.00  0.00     0.031 C 
ATOM     59  C   UNL A   1      42.369  32.060  29.869  1.00  0.00     0.029 A 
ATOM     60  C   UNL A   1      43.274  31.254  29.199  1.00  0.00     0.049 A 
ATOM     61  H   UNL A   1      43.028  29.287  28.477  1.00  0.00     0.167 HD
ATOM     62  C   UNL A   1      45.437  30.718  28.122  1.00  0.00     0.074 A 
ATOM     63  C   UNL A   1      46.764  31.064  27.663  1.00  0.00     0.031 C 
ATOM     64  C   UNL A   1      44.622  31.563  28.801  1.00  0.00     0.034 A 
BRANCH  51  65
ATOM     65  C   UNL A   1      38.986  29.302  29.848  1.00  0.00     0.023 A 
ATOM     66  C   UNL A   1      38.669  28.986  31.184  1.00  0.00     0.012 A 
ATOM     67  C   UNL A   1      38.032  29.959  29.046  1.00  0.00     0.148 A 
ATOM     68  C   UNL A   1      37.418  29.302  31.710  1.00  0.00     0.002 A 
ATOM     69  C   UNL A   1      36.801  30.309  29.590  1.00  0.00     0.091 A 
ATOM     70  F   UNL A   1      38.350  30.235  27.773  1.00  0.00    -0.205 F 
ATOM     71  C   UNL A   1      36.490  29.974  30.918  1.00  0.00     0.022 A 
BRANCH  69  72
ATOM     72  S   UNL A   1      35.566  31.243  28.681  1.00  0.00     0.127 S 
ATOM     73  O   UNL A   1      34.919  30.191  27.897  1.00  0.00    -0.237 OA
ATOM     74  O   UNL A   1      34.743  31.793  29.759  1.00  0.00    -0.237 OA
ATOM     75  O   UNL A   1      36.298  32.235  27.905  1.00  0.00    -0.744 OA
ENDBRANCH  69  72
ENDBRANCH  51  65
BRANCH  52  76
ATOM     76  C   UNL A   1      47.912  27.459  25.806  1.00  0.00     0.023 A 
ATOM     77  C   UNL A   1      49.029  27.141  26.604  1.00  0.00     0.012 A 
ATOM     78  C   UNL A   1      48.073  27.553  24.411  1.00  0.00     0.148 A 
ATOM     79  C   UNL A   1      50.288  26.966  26.029  1.00  0.00     0.002 A 
ATOM     80  C   UNL A   1      49.319  27.323  23.840  1.00  0.00     0.091 A 
ATOM     81  F   UNL A   1      47.004  27.876  23.666  1.00  0.00    -0.205 F 
ATOM     82  C   UNL A   1      50.432  27.048  24.648  1.00  0.00     0.022 A 
BRANCH  80  83
ATOM     83  S   UNL A   1      49.553  27.279  22.059  1.00  0.00     0.127 S 
ATOM     84  O   UNL A   1      49.195  28.641  21.676  1.00  0.00    -0.237 OA
ATOM     85  O   UNL A   1      50.978  26.961  21.943  1.00  0.00    -0.237 OA
ATOM     86  O   UNL A   1      48.669  26.224  21.585  1.00  0.00    -0.744 OA
ENDBRANCH  80  83
ENDBRANCH  52  76
BRANCH  64  87
ATOM     87  C   UNL A   1      45.150  32.933  29.133  1.00  0.00     0.023 A 
ATOM     88  C   UNL A   1      45.863  33.137  30.330  1.00  0.00     0.012 A 
ATOM     89  C   UNL A   1      45.012  33.998  28.220  1.00  0.00     0.148 A 
ATOM     90  C   UNL A   1      46.404  34.386  30.630  1.00  0.00     0.002 A 
ATOM     91  C   UNL A   1      45.595  35.228  28.503  1.00  0.00     0.091 A 
ATOM     92  F   UNL A   1      44.314  33.790  27.095  1.00  0.00    -0.205 F 
ATOM     93  C   UNL A   1      46.281  35.427  29.712  1.00  0.00     0.022 A 
BRANCH  91  94
ATOM     94  S   UNL A   1      45.570  36.592  27.334  1.00  0.00     0.127 S 
ATOM     95  O   UNL A   1      44.142  36.893  27.257  1.00  0.00    -0.237 OA
ATOM     96  O   UNL A   1      46.372  37.606  28.019  1.00  0.00    -0.237 OA
ATOM     97  O   UNL A   1      46.169  36.079  26.109  1.00  0.00    -0.744 OA
ENDBRANCH  91  94
ENDBRANCH  64  87
ENDBRANCH  38  39
ENDBRANCH  30  33
ENDBRANCH  28  29
ENDBRANCH  27  28
ENDBRANCH   1  27
TORSDOF 20
ENDMDL
