MODEL 1
REMARK VINA RESULT:     -12.4      0.000      0.000
REMARK SMILES O=C(NCCCCNC(=O)[C@H]1Cc2c([nH]c3ccccc23)[C@@H](c2ccc(OC(F)(F)F)cc2)[NH2+]1)c1ccc(-c2c3nc(c(-c4cccc(S(=O)(=O)[O-])c4F)c4ccc([nH]4)c(-c4cccc(S(=O)(=O)[O-])c4F)c4nc(c(-c5cccc(S(=O)(=O)[O-])c5F)c5ccc2[nH]5)C=C4)C=C3)cc1
REMARK SMILES IDX 5 1 4 2 3 3 1 4 2 5 35 7 36 8 97 9 37 10 96 11 38 12 39 13
REMARK SMILES IDX 40 14 90 15 41 16 95 17 89 18 91 19 42 20 94 21 88 22 87 23
REMARK SMILES IDX 43 25 75 26 55 27 74 28 56 29 59 30 73 31 92 32 57 33 58 34
REMARK SMILES IDX 72 36 93 37 60 38 44 39 45 40 53 41 46 42 48 43 54 44 47 45
REMARK SMILES IDX 49 46 50 47 51 48 52 49 76 50 77 51 85 52 78 53 80 54 86 55
REMARK SMILES IDX 79 56 81 57 82 58 83 59 84 60 61 61 62 62 70 63 63 64 65 65
REMARK SMILES IDX 71 66 64 67 66 68 67 69 68 70 69 71 6 72 7 73 8 74 9 75
REMARK SMILES IDX 10 77 11 78 12 79 34 80 13 81 22 82 14 85 21 86 15 87 16 88
REMARK SMILES IDX 20 89 17 91 19 92 18 93 23 94 24 95 33 96 25 97 32 98 26 99
REMARK SMILES IDX 27 100 28 101 29 102 30 103 31 104
REMARK H PARENT 3 6 91 24 59 35 8 76 34 83 34 84 15 90
REMARK Flexibility Score: inf
ROOT
ATOM      1  C   UNL A   1      35.590  23.531  24.863  1.00  0.00     0.023 C 
ENDROOT
BRANCH   1   2
ATOM      2  C   UNL A   1      36.625  23.722  25.965  1.00  0.00     0.116 C 
BRANCH   2   3
ATOM      3  N   UNL A   1      37.623  22.664  25.992  1.00  0.00    -0.352 N 
ATOM      4  O   UNL A   1      39.685  21.768  26.131  1.00  0.00    -0.269 OA
ATOM      5  C   UNL A   1      38.959  22.743  26.306  1.00  0.00     0.251 C 
ATOM      6  H   UNL A   1      37.297  21.767  25.750  1.00  0.00     0.163 HD
BRANCH   5   7
ATOM      7  C   UNL A   1      39.518  24.013  26.821  1.00  0.00     0.039 A 
ATOM      8  C   UNL A   1      39.519  24.287  28.191  1.00  0.00     0.014 A 
ATOM      9  C   UNL A   1      40.032  24.947  25.917  1.00  0.00     0.014 A 
ATOM     10  C   UNL A   1      39.897  25.547  28.642  1.00  0.00     0.010 A 
ATOM     11  C   UNL A   1      40.488  26.183  26.383  1.00  0.00     0.010 A 
ATOM     12  C   UNL A   1      40.389  26.509  27.744  1.00  0.00    -0.014 A 
BRANCH  12  13
ATOM     13  C   UNL A   1      40.853  27.821  28.262  1.00  0.00     0.031 A 
ATOM     14  C   UNL A   1      42.309  28.195  28.258  1.00  0.00     0.074 A 
ATOM     15  C   UNL A   1      39.936  28.685  28.740  1.00  0.00     0.049 A 
ATOM     16  N   UNL A   1      42.869  29.316  28.637  1.00  0.00    -0.248 NA
ATOM     17  C   UNL A   1      43.262  27.184  27.774  1.00  0.00     0.031 C 
ATOM     18  C   UNL A   1      38.500  28.415  28.837  1.00  0.00     0.029 A 
ATOM     19  N   UNL A   1      40.069  29.959  29.230  1.00  0.00    -0.354 N 
ATOM     20  C   UNL A   1      44.238  29.133  28.479  1.00  0.00     0.074 A 
ATOM     21  C   UNL A   1      44.426  27.790  27.975  1.00  0.00     0.031 C 
ATOM     22  C   UNL A   1      37.881  29.499  29.326  1.00  0.00     0.029 A 
ATOM     23  C   UNL A   1      38.877  30.522  29.619  1.00  0.00     0.049 A 
ATOM     24  H   UNL A   1      40.934  30.425  29.295  1.00  0.00     0.167 HD
ATOM     25  C   UNL A   1      45.243  30.012  28.713  1.00  0.00     0.034 A 
ATOM     26  C   UNL A   1      38.612  31.727  30.160  1.00  0.00     0.034 A 
ATOM     27  C   UNL A   1      45.048  31.361  29.175  1.00  0.00     0.049 A 
ATOM     28  C   UNL A   1      39.742  32.690  30.381  1.00  0.00     0.074 A 
ATOM     29  C   UNL A   1      45.997  32.350  29.371  1.00  0.00     0.029 A 
ATOM     30  N   UNL A   1      43.822  31.911  29.521  1.00  0.00    -0.354 N 
ATOM     31  N   UNL A   1      41.013  32.547  30.095  1.00  0.00    -0.248 NA
ATOM     32  C   UNL A   1      39.399  33.989  30.975  1.00  0.00     0.031 C 
ATOM     33  C   UNL A   1      45.346  33.493  29.850  1.00  0.00     0.029 A 
ATOM     34  C   UNL A   1      43.990  33.221  29.940  1.00  0.00     0.049 A 
ATOM     35  H   UNL A   1      42.959  31.439  29.475  1.00  0.00     0.167 HD
ATOM     36  C   UNL A   1      41.620  33.744  30.453  1.00  0.00     0.074 A 
ATOM     37  C   UNL A   1      40.571  34.610  30.953  1.00  0.00     0.031 C 
ATOM     38  C   UNL A   1      42.930  34.087  30.392  1.00  0.00     0.034 A 
BRANCH  25  39
ATOM     39  C   UNL A   1      46.651  29.556  28.430  1.00  0.00     0.023 A 
ATOM     40  C   UNL A   1      47.223  29.813  27.167  1.00  0.00     0.012 A 
ATOM     41  C   UNL A   1      47.429  28.929  29.423  1.00  0.00     0.148 A 
ATOM     42  C   UNL A   1      48.534  29.426  26.887  1.00  0.00     0.002 A 
ATOM     43  C   UNL A   1      48.747  28.579  29.149  1.00  0.00     0.091 A 
ATOM     44  F   UNL A   1      46.864  28.668  30.611  1.00  0.00    -0.205 F 
ATOM     45  C   UNL A   1      49.299  28.819  27.880  1.00  0.00     0.022 A 
BRANCH  43  46
ATOM     46  S   UNL A   1      49.826  27.857  30.392  1.00  0.00     0.127 S 
ATOM     47  O   UNL A   1      51.059  27.658  29.634  1.00  0.00    -0.237 OA
ATOM     48  O   UNL A   1      49.896  28.915  31.400  1.00  0.00    -0.237 OA
ATOM     49  O   UNL A   1      49.153  26.645  30.840  1.00  0.00    -0.744 OA
ENDBRANCH  43  46
ENDBRANCH  25  39
BRANCH  26  50
ATOM     50  C   UNL A   1      37.202  32.098  30.461  1.00  0.00     0.023 A 
ATOM     51  C   UNL A   1      36.665  31.796  31.726  1.00  0.00     0.012 A 
ATOM     52  C   UNL A   1      36.420  32.815  29.534  1.00  0.00     0.148 A 
ATOM     53  C   UNL A   1      35.370  32.190  32.060  1.00  0.00     0.002 A 
ATOM     54  C   UNL A   1      35.152  33.254  29.893  1.00  0.00     0.091 A 
ATOM     55  F   UNL A   1      36.946  33.078  28.329  1.00  0.00    -0.205 F 
ATOM     56  C   UNL A   1      34.619  32.931  31.150  1.00  0.00     0.022 A 
BRANCH  54  57
ATOM     57  S   UNL A   1      34.179  34.338  28.841  1.00  0.00     0.127 S 
ATOM     58  O   UNL A   1      33.846  33.453  27.727  1.00  0.00    -0.237 OA
ATOM     59  O   UNL A   1      33.055  34.681  29.714  1.00  0.00    -0.237 OA
ATOM     60  O   UNL A   1      35.052  35.460  28.522  1.00  0.00    -0.744 OA
ENDBRANCH  54  57
ENDBRANCH  26  50
BRANCH  38  61
ATOM     61  C   UNL A   1      43.306  35.464  30.867  1.00  0.00     0.023 A 
ATOM     62  C   UNL A   1      43.491  36.497  29.925  1.00  0.00     0.012 A 
ATOM     63  C   UNL A   1      43.415  35.754  32.241  1.00  0.00     0.148 A 
ATOM     64  C   UNL A   1      43.807  37.789  30.343  1.00  0.00     0.002 A 
ATOM     65  C   UNL A   1      43.686  37.054  32.651  1.00  0.00     0.091 A 
ATOM     66  F   UNL A   1      43.258  34.754  33.120  1.00  0.00    -0.205 F 
ATOM     67  C   UNL A   1      43.893  38.069  31.704  1.00  0.00     0.022 A 
BRANCH  65  68
ATOM     68  S   UNL A   1      43.728  37.520  34.386  1.00  0.00     0.127 S 
ATOM     69  O   UNL A   1      42.377  37.173  34.821  1.00  0.00    -0.237 OA
ATOM     70  O   UNL A   1      44.781  36.654  34.918  1.00  0.00    -0.237 OA
ATOM     71  O   UNL A   1      44.052  38.940  34.408  1.00  0.00    -0.744 OA
ENDBRANCH  65  68
ENDBRANCH  38  61
ENDBRANCH  12  13
ENDBRANCH   5   7
ENDBRANCH   2   3
ENDBRANCH   1   2
BRANCH   1  72
ATOM     72  C   UNL A   1      34.536  22.458  25.136  1.00  0.00     0.023 C 
BRANCH  72  73
ATOM     73  C   UNL A   1      33.196  22.679  24.440  1.00  0.00     0.116 C 
BRANCH  73  74
ATOM     74  N   UNL A   1      33.352  23.227  23.105  1.00  0.00    -0.351 N 
ATOM     75  C   UNL A   1      33.046  24.475  22.638  1.00  0.00     0.278 C 
ATOM     76  H   UNL A   1      33.735  22.611  22.439  1.00  0.00     0.163 HD
ATOM     77  O   UNL A   1      33.178  24.685  21.431  1.00  0.00    -0.268 OA
BRANCH  75  78
ATOM     78  C   UNL A   1      32.506  25.526  23.620  1.00  0.00     0.277 C 
ATOM     79  C   UNL A   1      33.619  26.537  23.985  1.00  0.00     0.114 C 
ATOM     80  N   UNL A   1      31.355  26.250  23.021  1.00  0.00    -0.325 N 
ATOM     81  C   UNL A   1      33.031  27.554  24.898  1.00  0.00    -0.006 A 
ATOM     82  C   UNL A   1      30.664  27.157  23.956  1.00  0.00     0.262 C 
ATOM     83  H   UNL A   1      30.681  25.562  22.686  1.00  0.00     0.347 HD
ATOM     84  H   UNL A   1      31.730  26.831  22.271  1.00  0.00     0.347 HD
ATOM     85  C   UNL A   1      31.670  27.797  24.880  1.00  0.00     0.083 A 
ATOM     86  C   UNL A   1      33.622  28.413  25.853  1.00  0.00     0.003 A 
ATOM     87  N   UNL A   1      31.400  28.705  25.869  1.00  0.00    -0.353 N 
ATOM     88  C   UNL A   1      32.580  29.136  26.443  1.00  0.00     0.046 A 
ATOM     89  C   UNL A   1      34.944  28.659  26.269  1.00  0.00     0.010 A 
ATOM     90  H   UNL A   1      30.501  29.005  26.132  1.00  0.00     0.166 HD
ATOM     91  C   UNL A   1      32.806  30.106  27.427  1.00  0.00     0.026 A 
ATOM     92  C   UNL A   1      35.184  29.632  27.245  1.00  0.00     0.001 A 
ATOM     93  C   UNL A   1      34.130  30.345  27.812  1.00  0.00     0.002 A 
BRANCH  82  94
ATOM     94  C   UNL A   1      29.842  28.152  23.135  1.00  0.00     0.016 A 
ATOM     95  C   UNL A   1      28.447  28.259  23.244  1.00  0.00     0.014 A 
ATOM     96  C   UNL A   1      30.503  29.068  22.296  1.00  0.00     0.014 A 
ATOM     97  C   UNL A   1      27.740  29.219  22.516  1.00  0.00     0.047 A 
ATOM     98  C   UNL A   1      29.795  30.052  21.592  1.00  0.00     0.047 A 
ATOM     99  C   UNL A   1      28.408  30.132  21.699  1.00  0.00     0.129 A 
BRANCH  99 100
ATOM    100  O   UNL A   1      27.592  31.030  21.078  1.00  0.00    -0.406 OA
BRANCH 100 101
ATOM    101  C   UNL A   1      28.132  32.303  20.775  1.00  0.00     0.573 C 
ATOM    102  F   UNL A   1      28.949  32.741  21.755  1.00  0.00    -0.132 F 
ATOM    103  F   UNL A   1      28.801  32.282  19.602  1.00  0.00    -0.132 F 
ATOM    104  F   UNL A   1      27.113  33.185  20.654  1.00  0.00    -0.132 F 
ENDBRANCH 100 101
ENDBRANCH  99 100
ENDBRANCH  82  94
ENDBRANCH  75  78
ENDBRANCH  73  74
ENDBRANCH  72  73
ENDBRANCH   1  72
TORSDOF 17
ENDMDL
MODEL 2
REMARK VINA RESULT:     -12.3      5.161     10.085
REMARK SMILES O=C(NCCCCNC(=O)[C@H]1Cc2c([nH]c3ccccc23)[C@@H](c2ccc(OC(F)(F)F)cc2)[NH2+]1)c1ccc(-c2c3nc(c(-c4cccc(S(=O)(=O)[O-])c4F)c4ccc([nH]4)c(-c4cccc(S(=O)(=O)[O-])c4F)c4nc(c(-c5cccc(S(=O)(=O)[O-])c5F)c5ccc2[nH]5)C=C4)C=C3)cc1
REMARK SMILES IDX 5 1 4 2 3 3 1 4 2 5 35 7 36 8 97 9 37 10 96 11 38 12 39 13
REMARK SMILES IDX 40 14 90 15 41 16 95 17 89 18 91 19 42 20 94 21 88 22 87 23
REMARK SMILES IDX 43 25 75 26 55 27 74 28 56 29 59 30 73 31 92 32 57 33 58 34
REMARK SMILES IDX 72 36 93 37 60 38 44 39 45 40 53 41 46 42 48 43 54 44 47 45
REMARK SMILES IDX 49 46 50 47 51 48 52 49 76 50 77 51 85 52 78 53 80 54 86 55
REMARK SMILES IDX 79 56 81 57 82 58 83 59 84 60 61 61 62 62 70 63 63 64 65 65
REMARK SMILES IDX 71 66 64 67 66 68 67 69 68 70 69 71 6 72 7 73 8 74 9 75
REMARK SMILES IDX 10 77 11 78 12 79 34 80 13 81 22 82 14 85 21 86 15 87 16 88
REMARK SMILES IDX 20 89 17 91 19 92 18 93 23 94 24 95 33 96 25 97 32 98 26 99
REMARK SMILES IDX 27 100 28 101 29 102 30 103 31 104
REMARK H PARENT 3 6 91 24 59 35 8 76 34 83 34 84 15 90
REMARK Flexibility Score: inf
ROOT
ATOM      1  C   UNL A   1      33.069  29.372  24.348  1.00  0.00     0.023 C 
ENDROOT
BRANCH   1   2
ATOM      2  C   UNL A   1      32.705  29.509  25.822  1.00  0.00     0.116 C 
BRANCH   2   3
ATOM      3  N   UNL A   1      32.355  30.871  26.193  1.00  0.00    -0.352 N 
ATOM      4  O   UNL A   1      32.453  32.780  27.384  1.00  0.00    -0.269 OA
ATOM      5  C   UNL A   1      32.977  31.711  27.086  1.00  0.00     0.251 C 
ATOM      6  H   UNL A   1      31.562  31.243  25.744  1.00  0.00     0.163 HD
BRANCH   5   7
ATOM      7  C   UNL A   1      34.257  31.303  27.706  1.00  0.00     0.039 A 
ATOM      8  C   UNL A   1      34.471  29.979  28.098  1.00  0.00     0.014 A 
ATOM      9  C   UNL A   1      35.252  32.264  27.912  1.00  0.00     0.014 A 
ATOM     10  C   UNL A   1      35.610  29.648  28.822  1.00  0.00     0.010 A 
ATOM     11  C   UNL A   1      36.433  31.910  28.569  1.00  0.00     0.010 A 
ATOM     12  C   UNL A   1      36.606  30.608  29.064  1.00  0.00    -0.014 A 
BRANCH  12  13
ATOM     13  C   UNL A   1      37.846  30.210  29.779  1.00  0.00     0.031 A 
ATOM     14  C   UNL A   1      38.128  30.682  31.179  1.00  0.00     0.074 A 
ATOM     15  C   UNL A   1      38.724  29.407  29.148  1.00  0.00     0.049 A 
ATOM     16  N   UNL A   1      39.143  30.392  31.953  1.00  0.00    -0.248 NA
ATOM     17  C   UNL A   1      37.154  31.602  31.788  1.00  0.00     0.031 C 
ATOM     18  C   UNL A   1      38.579  28.923  27.774  1.00  0.00     0.029 A 
ATOM     19  N   UNL A   1      39.905  28.856  29.573  1.00  0.00    -0.354 N 
ATOM     20  C   UNL A   1      38.955  31.122  33.121  1.00  0.00     0.074 A 
ATOM     21  C   UNL A   1      37.730  31.875  32.952  1.00  0.00     0.031 C 
ATOM     22  C   UNL A   1      39.615  28.124  27.478  1.00  0.00     0.029 A 
ATOM     23  C   UNL A   1      40.517  28.075  28.623  1.00  0.00     0.049 A 
ATOM     24  H   UNL A   1      40.278  29.004  30.472  1.00  0.00     0.167 HD
ATOM     25  C   UNL A   1      39.721  31.146  34.239  1.00  0.00     0.034 A 
ATOM     26  C   UNL A   1      41.681  27.397  28.660  1.00  0.00     0.034 A 
ATOM     27  C   UNL A   1      40.915  30.362  34.418  1.00  0.00     0.049 A 
ATOM     28  C   UNL A   1      42.494  27.419  29.922  1.00  0.00     0.074 A 
ATOM     29  C   UNL A   1      41.719  30.262  35.540  1.00  0.00     0.029 A 
ATOM     30  N   UNL A   1      41.484  29.551  33.447  1.00  0.00    -0.354 N 
ATOM     31  N   UNL A   1      42.228  28.005  31.063  1.00  0.00    -0.248 NA
ATOM     32  C   UNL A   1      43.756  26.666  29.910  1.00  0.00     0.031 C 
ATOM     33  C   UNL A   1      42.782  29.401  35.243  1.00  0.00     0.029 A 
ATOM     34  C   UNL A   1      42.634  28.954  33.939  1.00  0.00     0.049 A 
ATOM     35  H   UNL A   1      41.123  29.418  32.540  1.00  0.00     0.167 HD
ATOM     36  C   UNL A   1      43.275  27.674  31.914  1.00  0.00     0.074 A 
ATOM     37  C   UNL A   1      44.168  26.815  31.162  1.00  0.00     0.031 C 
ATOM     38  C   UNL A   1      43.489  28.065  33.194  1.00  0.00     0.034 A 
BRANCH  25  39
ATOM     39  C   UNL A   1      39.267  32.017  35.381  1.00  0.00     0.023 A 
ATOM     40  C   UNL A   1      38.385  31.491  36.347  1.00  0.00     0.012 A 
ATOM     41  C   UNL A   1      39.752  33.330  35.534  1.00  0.00     0.148 A 
ATOM     42  C   UNL A   1      37.969  32.267  37.430  1.00  0.00     0.002 A 
ATOM     43  C   UNL A   1      39.363  34.086  36.636  1.00  0.00     0.091 A 
ATOM     44  F   UNL A   1      40.570  33.826  34.594  1.00  0.00    -0.205 F 
ATOM     45  C   UNL A   1      38.466  33.559  37.579  1.00  0.00     0.022 A 
BRANCH  43  46
ATOM     46  S   UNL A   1      40.009  35.734  36.945  1.00  0.00     0.127 S 
ATOM     47  O   UNL A   1      39.342  36.083  38.197  1.00  0.00    -0.237 OA
ATOM     48  O   UNL A   1      41.447  35.490  37.069  1.00  0.00    -0.237 OA
ATOM     49  O   UNL A   1      39.633  36.528  35.783  1.00  0.00    -0.744 OA
ENDBRANCH  43  46
ENDBRANCH  25  39
BRANCH  26  50
ATOM     50  C   UNL A   1      42.096  26.592  27.478  1.00  0.00     0.023 A 
ATOM     51  C   UNL A   1      42.533  27.252  26.315  1.00  0.00     0.012 A 
ATOM     52  C   UNL A   1      42.135  25.185  27.529  1.00  0.00     0.148 A 
ATOM     53  C   UNL A   1      42.991  26.525  25.217  1.00  0.00     0.002 A 
ATOM     54  C   UNL A   1      42.646  24.469  26.453  1.00  0.00     0.091 A 
ATOM     55  F   UNL A   1      41.699  24.577  28.642  1.00  0.00    -0.205 F 
ATOM     56  C   UNL A   1      43.061  25.135  25.291  1.00  0.00     0.022 A 
BRANCH  54  57
ATOM     57  S   UNL A   1      42.910  22.693  26.522  1.00  0.00     0.127 S 
ATOM     58  O   UNL A   1      42.059  22.308  27.646  1.00  0.00    -0.237 OA
ATOM     59  O   UNL A   1      42.428  22.263  25.209  1.00  0.00    -0.237 OA
ATOM     60  O   UNL A   1      44.342  22.518  26.720  1.00  0.00    -0.744 OA
ENDBRANCH  54  57
ENDBRANCH  26  50
BRANCH  38  61
ATOM     61  C   UNL A   1      44.731  27.556  33.873  1.00  0.00     0.023 A 
ATOM     62  C   UNL A   1      45.918  28.313  33.809  1.00  0.00     0.012 A 
ATOM     63  C   UNL A   1      44.711  26.366  34.626  1.00  0.00     0.148 A 
ATOM     64  C   UNL A   1      47.073  27.879  34.457  1.00  0.00     0.002 A 
ATOM     65  C   UNL A   1      45.854  25.962  35.307  1.00  0.00     0.091 A 
ATOM     66  F   UNL A   1      43.579  25.647  34.658  1.00  0.00    -0.205 F 
ATOM     67  C   UNL A   1      47.037  26.712  35.215  1.00  0.00     0.022 A 
BRANCH  65  68
ATOM     68  S   UNL A   1      45.870  24.518  36.375  1.00  0.00     0.127 S 
ATOM     69  O   UNL A   1      47.041  24.778  37.211  1.00  0.00    -0.237 OA
ATOM     70  O   UNL A   1      44.588  24.629  37.072  1.00  0.00    -0.237 OA
ATOM     71  O   UNL A   1      45.972  23.368  35.487  1.00  0.00    -0.744 OA
ENDBRANCH  65  68
ENDBRANCH  38  61
ENDBRANCH  12  13
ENDBRANCH   5   7
ENDBRANCH   2   3
ENDBRANCH   1   2
BRANCH   1  72
ATOM     72  C   UNL A   1      33.632  28.013  23.937  1.00  0.00     0.023 C 
BRANCH  72  73
ATOM     73  C   UNL A   1      32.656  27.110  23.186  1.00  0.00     0.116 C 
BRANCH  73  74
ATOM     74  N   UNL A   1      31.700  26.473  24.074  1.00  0.00    -0.351 N 
ATOM     75  C   UNL A   1      31.741  25.232  24.646  1.00  0.00     0.278 C 
ATOM     76  H   UNL A   1      30.908  27.014  24.298  1.00  0.00     0.163 HD
ATOM     77  O   UNL A   1      30.759  24.867  25.295  1.00  0.00    -0.268 OA
BRANCH  75  78
ATOM     78  C   UNL A   1      32.970  24.342  24.408  1.00  0.00     0.277 C 
ATOM     79  C   UNL A   1      33.969  24.486  25.582  1.00  0.00     0.114 C 
ATOM     80  N   UNL A   1      32.562  22.919  24.276  1.00  0.00    -0.325 N 
ATOM     81  C   UNL A   1      35.113  23.572  25.323  1.00  0.00    -0.006 A 
ATOM     82  C   UNL A   1      33.655  22.015  23.875  1.00  0.00     0.262 C 
ATOM     83  H   UNL A   1      31.823  22.860  23.575  1.00  0.00     0.347 HD
ATOM     84  H   UNL A   1      32.253  22.615  25.200  1.00  0.00     0.347 HD
ATOM     85  C   UNL A   1      34.945  22.463  24.516  1.00  0.00     0.083 A 
ATOM     86  C   UNL A   1      36.451  23.588  25.781  1.00  0.00     0.003 A 
ATOM     87  N   UNL A   1      36.168  21.859  24.384  1.00  0.00    -0.353 N 
ATOM     88  C   UNL A   1      37.092  22.496  25.188  1.00  0.00     0.046 A 
ATOM     89  C   UNL A   1      37.181  24.417  26.653  1.00  0.00     0.010 A 
ATOM     90  H   UNL A   1      36.359  21.088  23.803  1.00  0.00     0.166 HD
ATOM     91  C   UNL A   1      38.435  22.190  25.439  1.00  0.00     0.026 A 
ATOM     92  C   UNL A   1      38.521  24.117  26.920  1.00  0.00     0.001 A 
ATOM     93  C   UNL A   1      39.135  23.018  26.323  1.00  0.00     0.002 A 
BRANCH  82  94
ATOM     94  C   UNL A   1      33.242  20.585  24.223  1.00  0.00     0.016 A 
ATOM     95  C   UNL A   1      33.367  20.050  25.515  1.00  0.00     0.014 A 
ATOM     96  C   UNL A   1      32.627  19.784  23.244  1.00  0.00     0.014 A 
ATOM     97  C   UNL A   1      32.927  18.757  25.805  1.00  0.00     0.047 A 
ATOM     98  C   UNL A   1      32.156  18.499  23.544  1.00  0.00     0.047 A 
ATOM     99  C   UNL A   1      32.304  17.979  24.829  1.00  0.00     0.129 A 
BRANCH  99 100
ATOM    100  O   UNL A   1      31.898  16.752  25.264  1.00  0.00    -0.406 OA
BRANCH 100 101
ATOM    101  C   UNL A   1      32.805  15.674  25.121  1.00  0.00     0.573 C 
ATOM    102  F   UNL A   1      32.164  14.487  25.091  1.00  0.00    -0.132 F 
ATOM    103  F   UNL A   1      33.554  15.814  24.006  1.00  0.00    -0.132 F 
ATOM    104  F   UNL A   1      33.642  15.673  26.184  1.00  0.00    -0.132 F 
ENDBRANCH 100 101
ENDBRANCH  99 100
ENDBRANCH  82  94
ENDBRANCH  75  78
ENDBRANCH  73  74
ENDBRANCH  72  73
ENDBRANCH   1  72
TORSDOF 17
ENDMDL
MODEL 3
REMARK VINA RESULT:     -12.2      5.112     10.366
REMARK SMILES O=C(NCCCCNC(=O)[C@H]1Cc2c([nH]c3ccccc23)[C@@H](c2ccc(OC(F)(F)F)cc2)[NH2+]1)c1ccc(-c2c3nc(c(-c4cccc(S(=O)(=O)[O-])c4F)c4ccc([nH]4)c(-c4cccc(S(=O)(=O)[O-])c4F)c4nc(c(-c5cccc(S(=O)(=O)[O-])c5F)c5ccc2[nH]5)C=C4)C=C3)cc1
REMARK SMILES IDX 5 1 4 2 3 3 1 4 2 5 35 7 36 8 97 9 37 10 96 11 38 12 39 13
REMARK SMILES IDX 40 14 90 15 41 16 95 17 89 18 91 19 42 20 94 21 88 22 87 23
REMARK SMILES IDX 43 25 75 26 55 27 74 28 56 29 59 30 73 31 92 32 57 33 58 34
REMARK SMILES IDX 72 36 93 37 60 38 44 39 45 40 53 41 46 42 48 43 54 44 47 45
REMARK SMILES IDX 49 46 50 47 51 48 52 49 76 50 77 51 85 52 78 53 80 54 86 55
REMARK SMILES IDX 79 56 81 57 82 58 83 59 84 60 61 61 62 62 70 63 63 64 65 65
REMARK SMILES IDX 71 66 64 67 66 68 67 69 68 70 69 71 6 72 7 73 8 74 9 75
REMARK SMILES IDX 10 77 11 78 12 79 34 80 13 81 22 82 14 85 21 86 15 87 16 88
REMARK SMILES IDX 20 89 17 91 19 92 18 93 23 94 24 95 33 96 25 97 32 98 26 99
REMARK SMILES IDX 27 100 28 101 29 102 30 103 31 104
REMARK H PARENT 3 6 91 24 59 35 8 76 34 83 34 84 15 90
REMARK Flexibility Score: inf
ROOT
ATOM      1  C   UNL A   1      33.229  28.457  24.829  1.00  0.00     0.023 C 
ENDROOT
BRANCH   1   2
ATOM      2  C   UNL A   1      34.013  29.079  25.978  1.00  0.00     0.116 C 
BRANCH   2   3
ATOM      3  N   UNL A   1      33.522  30.397  26.349  1.00  0.00    -0.352 N 
ATOM      4  O   UNL A   1      33.338  32.258  27.604  1.00  0.00    -0.269 OA
ATOM      5  C   UNL A   1      33.972  31.242  27.336  1.00  0.00     0.251 C 
ATOM      6  H   UNL A   1      32.761  30.730  25.821  1.00  0.00     0.163 HD
BRANCH   5   7
ATOM      7  C   UNL A   1      35.198  30.901  28.090  1.00  0.00     0.039 A 
ATOM      8  C   UNL A   1      35.279  29.714  28.822  1.00  0.00     0.014 A 
ATOM      9  C   UNL A   1      36.277  31.790  28.074  1.00  0.00     0.014 A 
ATOM     10  C   UNL A   1      36.371  29.486  29.652  1.00  0.00     0.010 A 
ATOM     11  C   UNL A   1      37.410  31.519  28.846  1.00  0.00     0.010 A 
ATOM     12  C   UNL A   1      37.452  30.384  29.671  1.00  0.00    -0.014 A 
BRANCH  12  13
ATOM     13  C   UNL A   1      38.637  30.082  30.513  1.00  0.00     0.031 A 
ATOM     14  C   UNL A   1      38.805  30.691  31.877  1.00  0.00     0.074 A 
ATOM     15  C   UNL A   1      39.571  29.239  30.030  1.00  0.00     0.049 A 
ATOM     16  N   UNL A   1      39.762  30.497  32.750  1.00  0.00    -0.248 NA
ATOM     17  C   UNL A   1      37.777  31.645  32.320  1.00  0.00     0.031 C 
ATOM     18  C   UNL A   1      39.538  28.623  28.703  1.00  0.00     0.029 A 
ATOM     19  N   UNL A   1      40.723  28.755  30.594  1.00  0.00    -0.354 N 
ATOM     20  C   UNL A   1      39.476  31.331  33.824  1.00  0.00     0.074 A 
ATOM     21  C   UNL A   1      38.258  32.040  33.491  1.00  0.00     0.031 C 
ATOM     22  C   UNL A   1      40.603  27.819  28.564  1.00  0.00     0.029 A 
ATOM     23  C   UNL A   1      41.416  27.898  29.772  1.00  0.00     0.049 A 
ATOM     24  H   UNL A   1      41.024  28.996  31.500  1.00  0.00     0.167 HD
ATOM     25  C   UNL A   1      40.154  31.477  34.988  1.00  0.00     0.034 A 
ATOM     26  C   UNL A   1      42.582  27.251  29.963  1.00  0.00     0.034 A 
ATOM     27  C   UNL A   1      41.341  30.739  35.332  1.00  0.00     0.049 A 
ATOM     28  C   UNL A   1      43.296  27.410  31.274  1.00  0.00     0.074 A 
ATOM     29  C   UNL A   1      42.057  30.762  36.516  1.00  0.00     0.029 A 
ATOM     30  N   UNL A   1      41.992  29.849  34.490  1.00  0.00    -0.354 N 
ATOM     31  N   UNL A   1      42.935  28.097  32.330  1.00  0.00    -0.248 NA
ATOM     32  C   UNL A   1      44.564  26.684  31.430  1.00  0.00     0.031 C 
ATOM     33  C   UNL A   1      43.150  29.898  36.384  1.00  0.00     0.029 A 
ATOM     34  C   UNL A   1      43.108  29.326  35.122  1.00  0.00     0.049 A 
ATOM     35  H   UNL A   1      41.704  29.623  33.576  1.00  0.00     0.167 HD
ATOM     36  C   UNL A   1      43.919  27.871  33.284  1.00  0.00     0.074 A 
ATOM     37  C   UNL A   1      44.877  26.961  32.688  1.00  0.00     0.031 C 
ATOM     38  C   UNL A   1      44.029  28.386  34.533  1.00  0.00     0.034 A 
BRANCH  25  39
ATOM     39  C   UNL A   1      39.603  32.445  36.003  1.00  0.00     0.023 A 
ATOM     40  C   UNL A   1      38.636  32.003  36.930  1.00  0.00     0.012 A 
ATOM     41  C   UNL A   1      40.078  33.769  36.082  1.00  0.00     0.148 A 
ATOM     42  C   UNL A   1      38.128  32.871  37.897  1.00  0.00     0.002 A 
ATOM     43  C   UNL A   1      39.594  34.618  37.073  1.00  0.00     0.091 A 
ATOM     44  F   UNL A   1      40.978  34.182  35.179  1.00  0.00    -0.205 F 
ATOM     45  C   UNL A   1      38.614  34.174  37.975  1.00  0.00     0.022 A 
BRANCH  43  46
ATOM     46  S   UNL A   1      40.216  36.289  37.290  1.00  0.00     0.127 S 
ATOM     47  O   UNL A   1      41.626  36.044  37.589  1.00  0.00    -0.237 OA
ATOM     48  O   UNL A   1      39.968  36.891  35.979  1.00  0.00    -0.237 OA
ATOM     49  O   UNL A   1      39.429  36.864  38.373  1.00  0.00    -0.744 OA
ENDBRANCH  43  46
ENDBRANCH  25  39
BRANCH  26  50
ATOM     50  C   UNL A   1      43.096  26.344  28.899  1.00  0.00     0.023 A 
ATOM     51  C   UNL A   1      42.576  25.041  28.795  1.00  0.00     0.012 A 
ATOM     52  C   UNL A   1      44.034  26.790  27.948  1.00  0.00     0.148 A 
ATOM     53  C   UNL A   1      42.989  24.193  27.768  1.00  0.00     0.002 A 
ATOM     54  C   UNL A   1      44.399  25.960  26.895  1.00  0.00     0.091 A 
ATOM     55  F   UNL A   1      44.529  28.030  28.076  1.00  0.00    -0.205 F 
ATOM     56  C   UNL A   1      43.889  24.656  26.811  1.00  0.00     0.022 A 
BRANCH  54  57
ATOM     57  S   UNL A   1      45.434  26.528  25.541  1.00  0.00     0.127 S 
ATOM     58  O   UNL A   1      45.461  25.353  24.673  1.00  0.00    -0.237 OA
ATOM     59  O   UNL A   1      44.663  27.659  25.023  1.00  0.00    -0.237 OA
ATOM     60  O   UNL A   1      46.705  26.898  26.148  1.00  0.00    -0.744 OA
ENDBRANCH  54  57
ENDBRANCH  26  50
BRANCH  38  61
ATOM     61  C   UNL A   1      45.222  27.969  35.350  1.00  0.00     0.023 A 
ATOM     62  C   UNL A   1      46.399  28.743  35.304  1.00  0.00     0.012 A 
ATOM     63  C   UNL A   1      45.160  26.855  36.208  1.00  0.00     0.148 A 
ATOM     64  C   UNL A   1      47.506  28.396  36.077  1.00  0.00     0.002 A 
ATOM     65  C   UNL A   1      46.252  26.540  37.009  1.00  0.00     0.091 A 
ATOM     66  F   UNL A   1      44.040  26.118  36.222  1.00  0.00    -0.205 F 
ATOM     67  C   UNL A   1      47.429  27.303  36.937  1.00  0.00     0.022 A 
BRANCH  65  68
ATOM     68  S   UNL A   1      46.206  25.203  38.208  1.00  0.00     0.127 S 
ATOM     69  O   UNL A   1      45.069  25.590  39.043  1.00  0.00    -0.237 OA
ATOM     70  O   UNL A   1      45.970  24.032  37.362  1.00  0.00    -0.237 OA
ATOM     71  O   UNL A   1      47.504  25.215  38.867  1.00  0.00    -0.744 OA
ENDBRANCH  65  68
ENDBRANCH  38  61
ENDBRANCH  12  13
ENDBRANCH   5   7
ENDBRANCH   2   3
ENDBRANCH   1   2
BRANCH   1  72
ATOM     72  C   UNL A   1      31.934  27.751  25.229  1.00  0.00     0.023 C 
BRANCH  72  73
ATOM     73  C   UNL A   1      31.723  26.380  24.592  1.00  0.00     0.116 C 
BRANCH  73  74
ATOM     74  N   UNL A   1      32.444  26.239  23.339  1.00  0.00    -0.351 N 
ATOM     75  C   UNL A   1      33.270  25.233  22.922  1.00  0.00     0.278 C 
ATOM     76  H   UNL A   1      32.318  26.974  22.696  1.00  0.00     0.163 HD
ATOM     77  O   UNL A   1      33.853  25.378  21.846  1.00  0.00    -0.268 OA
BRANCH  75  78
ATOM     78  C   UNL A   1      33.474  24.012  23.832  1.00  0.00     0.277 C 
ATOM     79  C   UNL A   1      33.275  22.706  23.025  1.00  0.00     0.114 C 
ATOM     80  N   UNL A   1      34.839  24.027  24.420  1.00  0.00    -0.325 N 
ATOM     81  C   UNL A   1      33.528  21.561  23.939  1.00  0.00    -0.006 A 
ATOM     82  C   UNL A   1      35.064  22.987  25.440  1.00  0.00     0.262 C 
ATOM     83  H   UNL A   1      34.993  24.938  24.853  1.00  0.00     0.347 HD
ATOM     84  H   UNL A   1      35.490  23.838  23.658  1.00  0.00     0.347 HD
ATOM     85  C   UNL A   1      34.331  21.727  25.051  1.00  0.00     0.083 A 
ATOM     86  C   UNL A   1      33.099  20.214  23.899  1.00  0.00     0.003 A 
ATOM     87  N   UNL A   1      34.320  20.548  25.748  1.00  0.00    -0.353 N 
ATOM     88  C   UNL A   1      33.618  19.593  25.040  1.00  0.00     0.046 A 
ATOM     89  C   UNL A   1      32.329  19.454  22.999  1.00  0.00     0.010 A 
ATOM     90  H   UNL A   1      34.747  20.403  26.623  1.00  0.00     0.166 HD
ATOM     91  C   UNL A   1      33.407  18.237  25.314  1.00  0.00     0.026 A 
ATOM     92  C   UNL A   1      32.118  18.096  23.256  1.00  0.00     0.001 A 
ATOM     93  C   UNL A   1      32.653  17.498  24.396  1.00  0.00     0.002 A 
BRANCH  82  94
ATOM     94  C   UNL A   1      36.573  22.809  25.614  1.00  0.00     0.016 A 
ATOM     95  C   UNL A   1      37.388  23.775  26.224  1.00  0.00     0.014 A 
ATOM     96  C   UNL A   1      37.174  21.596  25.233  1.00  0.00     0.014 A 
ATOM     97  C   UNL A   1      38.754  23.550  26.412  1.00  0.00     0.047 A 
ATOM     98  C   UNL A   1      38.538  21.358  25.452  1.00  0.00     0.047 A 
ATOM     99  C   UNL A   1      39.335  22.336  26.045  1.00  0.00     0.129 A 
BRANCH  99 100
ATOM    100  O   UNL A   1      40.668  22.247  26.319  1.00  0.00    -0.406 OA
BRANCH 100 101
ATOM    101  C   UNL A   1      41.141  21.034  26.875  1.00  0.00     0.573 C 
ATOM    102  F   UNL A   1      40.687  19.964  26.191  1.00  0.00    -0.132 F 
ATOM    103  F   UNL A   1      42.491  21.010  26.913  1.00  0.00    -0.132 F 
ATOM    104  F   UNL A   1      40.690  20.940  28.147  1.00  0.00    -0.132 F 
ENDBRANCH 100 101
ENDBRANCH  99 100
ENDBRANCH  82  94
ENDBRANCH  75  78
ENDBRANCH  73  74
ENDBRANCH  72  73
ENDBRANCH   1  72
TORSDOF 17
ENDMDL
