MODEL 1
REMARK VINA RESULT:     -13.0      0.000      0.000
REMARK SMILES Cc1cc(C(=O)N2[C@@H](C(=O)NCCCCNC(=O)c3ccc(-c4c5nc(c(-c6cccc(S(=O)(=O)[O-])c6F)c6ccc([nH]6)c(-c6cccc(S(=O)(=O)[O-])c6F)c6nc(c(-c7cccc(S(=O)(=O)[O-])c7F)c7ccc4[nH]7)C=C6)C=C5)cc3)C[C@H]3CCCC[C@H]32)c(C)s1
REMARK SMILES IDX 14 1 13 2 12 3 11 4 9 5 10 6 8 8 7 9 88 10 82 11 83 12 87 13
REMARK SMILES IDX 84 14 86 15 85 16 5 17 6 18 4 19 1 20 2 21 3 22 91 23 89 24
REMARK SMILES IDX 90 25 15 26 16 27 17 28 18 30 19 31 20 32 81 33 21 34 80 35
REMARK SMILES IDX 22 36 23 37 24 38 74 39 25 40 79 41 73 42 75 43 26 44 78 45
REMARK SMILES IDX 72 46 71 47 27 49 59 50 39 51 58 52 40 53 43 54 57 55 76 56
REMARK SMILES IDX 41 57 42 58 56 60 77 61 44 62 28 63 29 64 37 65 30 66 32 67
REMARK SMILES IDX 38 68 31 69 33 70 34 71 35 72 36 73 60 74 61 75 69 76 62 77
REMARK SMILES IDX 64 78 70 79 63 80 65 81 66 82 67 83 68 84 45 85 46 86 54 87
REMARK SMILES IDX 47 88 49 89 55 90 48 91 50 92 51 93 52 94 53 95
REMARK H PARENT 11 7 16 29 75 48 43 59
REMARK Flexibility Score: inf
ROOT
ATOM      1  C   UNL A   1      31.640  29.521  26.947  1.00  0.00     0.023 C 
ENDROOT
BRANCH   1   2
ATOM      2  C   UNL A   1      31.774  28.160  27.616  1.00  0.00     0.023 C 
BRANCH   2   3
ATOM      3  C   UNL A   1      32.498  27.091  26.799  1.00  0.00     0.116 C 
BRANCH   3   4
ATOM      4  N   UNL A   1      31.808  25.817  26.797  1.00  0.00    -0.354 N 
ATOM      5  C   UNL A   1      32.156  24.581  26.352  1.00  0.00     0.242 C 
ATOM      6  O   UNL A   1      31.372  23.663  26.634  1.00  0.00    -0.273 OA
ATOM      7  H   UNL A   1      30.910  25.854  27.196  1.00  0.00     0.163 HD
BRANCH   5   8
ATOM      8  C   UNL A   1      33.361  24.259  25.427  1.00  0.00     0.175 C 
ATOM      9  N   UNL A   1      33.190  23.979  23.995  1.00  0.00    -0.323 N 
ATOM     10  C   UNL A   1      33.525  22.590  23.684  1.00  0.00     0.089 C 
ATOM     11  C   UNL A   1      34.056  22.989  25.976  1.00  0.00     0.041 C 
ATOM     12  C   UNL A   1      34.604  22.290  24.726  1.00  0.00     0.014 C 
ATOM     13  C   UNL A   1      32.320  21.654  23.801  1.00  0.00     0.025 C 
ATOM     14  C   UNL A   1      34.922  20.807  24.891  1.00  0.00     0.006 C 
ATOM     15  C   UNL A   1      32.717  20.186  23.839  1.00  0.00     0.002 C 
ATOM     16  C   UNL A   1      33.686  19.918  24.986  1.00  0.00     0.000 C 
BRANCH   9  17
ATOM     17  C   UNL A   1      32.974  24.885  22.966  1.00  0.00     0.255 C 
ATOM     18  O   UNL A   1      33.682  24.888  21.960  1.00  0.00    -0.269 OA
BRANCH  17  19
ATOM     19  C   UNL A   1      31.916  25.884  23.136  1.00  0.00     0.053 A 
ATOM     20  C   UNL A   1      28.285  26.749  23.847  1.00  0.00     0.056 C 
ATOM     21  C   UNL A   1      29.748  26.688  23.573  1.00  0.00     0.003 A 
ATOM     22  C   UNL A   1      30.521  25.579  23.318  1.00  0.00     0.029 A 
ATOM     23  S   UNL A   1      30.690  28.107  23.599  1.00  0.00    -0.145 S 
ATOM     24  C   UNL A   1      32.143  27.243  23.309  1.00  0.00     0.014 A 
ATOM     25  C   UNL A   1      33.433  27.997  23.303  1.00  0.00     0.057 C 
ENDBRANCH  17  19
ENDBRANCH   9  17
ENDBRANCH   5   8
ENDBRANCH   3   4
ENDBRANCH   2   3
ENDBRANCH   1   2
BRANCH   1  26
ATOM     26  C   UNL A   1      32.945  30.262  26.705  1.00  0.00     0.116 C 
BRANCH  26  27
ATOM     27  N   UNL A   1      32.911  31.672  27.081  1.00  0.00    -0.352 N 
ATOM     28  C   UNL A   1      33.876  32.401  27.738  1.00  0.00     0.251 C 
ATOM     29  H   UNL A   1      32.094  32.162  26.835  1.00  0.00     0.163 HD
ATOM     30  O   UNL A   1      33.678  33.571  28.047  1.00  0.00    -0.269 OA
BRANCH  28  31
ATOM     31  C   UNL A   1      35.139  31.730  28.105  1.00  0.00     0.039 A 
ATOM     32  C   UNL A   1      36.305  32.491  28.209  1.00  0.00     0.014 A 
ATOM     33  C   UNL A   1      35.133  30.379  28.457  1.00  0.00     0.014 A 
ATOM     34  C   UNL A   1      37.451  31.913  28.757  1.00  0.00     0.010 A 
ATOM     35  C   UNL A   1      36.245  29.836  29.086  1.00  0.00     0.010 A 
ATOM     36  C   UNL A   1      37.414  30.596  29.246  1.00  0.00    -0.014 A 
BRANCH  36  37
ATOM     37  C   UNL A   1      38.576  29.991  29.943  1.00  0.00     0.031 A 
ATOM     38  C   UNL A   1      38.941  30.454  31.326  1.00  0.00     0.074 A 
ATOM     39  C   UNL A   1      39.367  29.115  29.290  1.00  0.00     0.049 A 
ATOM     40  N   UNL A   1      39.971  30.125  32.062  1.00  0.00    -0.248 NA
ATOM     41  C   UNL A   1      38.054  31.452  31.951  1.00  0.00     0.031 C 
ATOM     42  C   UNL A   1      39.176  28.663  27.910  1.00  0.00     0.029 A 
ATOM     43  N   UNL A   1      40.511  28.471  29.692  1.00  0.00    -0.354 N 
ATOM     44  C   UNL A   1      39.882  30.906  33.207  1.00  0.00     0.074 A 
ATOM     45  C   UNL A   1      38.722  31.754  33.054  1.00  0.00     0.031 C 
ATOM     46  C   UNL A   1      40.161  27.810  27.584  1.00  0.00     0.029 A 
ATOM     47  C   UNL A   1      41.067  27.671  28.721  1.00  0.00     0.049 A 
ATOM     48  H   UNL A   1      40.898  28.572  30.592  1.00  0.00     0.167 HD
ATOM     49  C   UNL A   1      40.671  30.892  34.306  1.00  0.00     0.034 A 
ATOM     50  C   UNL A   1      42.178  26.909  28.745  1.00  0.00     0.034 A 
ATOM     51  C   UNL A   1      41.777  29.992  34.486  1.00  0.00     0.049 A 
ATOM     52  C   UNL A   1      42.988  26.845  30.011  1.00  0.00     0.074 A 
ATOM     53  C   UNL A   1      42.574  29.821  35.604  1.00  0.00     0.029 A 
ATOM     54  N   UNL A   1      42.235  29.104  33.526  1.00  0.00    -0.354 N 
ATOM     55  N   UNL A   1      42.790  27.468  31.149  1.00  0.00    -0.248 NA
ATOM     56  C   UNL A   1      44.152  25.947  30.014  1.00  0.00     0.031 C 
ATOM     57  C   UNL A   1      43.518  28.829  35.317  1.00  0.00     0.029 A 
ATOM     58  C   UNL A   1      43.303  28.379  34.024  1.00  0.00     0.049 A 
ATOM     59  H   UNL A   1      41.858  29.005  32.622  1.00  0.00     0.167 HD
ATOM     60  C   UNL A   1      43.780  27.010  32.011  1.00  0.00     0.074 A 
ATOM     61  C   UNL A   1      44.564  26.043  31.271  1.00  0.00     0.031 C 
ATOM     62  C   UNL A   1      44.030  27.372  33.294  1.00  0.00     0.034 A 
BRANCH  49  63
ATOM     63  C   UNL A   1      40.314  31.825  35.431  1.00  0.00     0.023 A 
ATOM     64  C   UNL A   1      41.074  32.997  35.622  1.00  0.00     0.012 A 
ATOM     65  C   UNL A   1      39.212  31.572  36.269  1.00  0.00     0.148 A 
ATOM     66  C   UNL A   1      40.767  33.885  36.652  1.00  0.00     0.002 A 
ATOM     67  C   UNL A   1      38.885  32.483  37.268  1.00  0.00     0.091 A 
ATOM     68  F   UNL A   1      38.516  30.441  36.090  1.00  0.00    -0.205 F 
ATOM     69  C   UNL A   1      39.668  33.633  37.467  1.00  0.00     0.022 A 
BRANCH  67  70
ATOM     70  S   UNL A   1      37.444  32.286  38.321  1.00  0.00     0.127 S 
ATOM     71  O   UNL A   1      37.881  32.948  39.548  1.00  0.00    -0.237 OA
ATOM     72  O   UNL A   1      36.412  33.007  37.574  1.00  0.00    -0.237 OA
ATOM     73  O   UNL A   1      37.221  30.851  38.425  1.00  0.00    -0.744 OA
ENDBRANCH  67  70
ENDBRANCH  49  63
BRANCH  50  74
ATOM     74  C   UNL A   1      42.533  26.070  27.565  1.00  0.00     0.023 A 
ATOM     75  C   UNL A   1      43.360  26.615  26.563  1.00  0.00     0.012 A 
ATOM     76  C   UNL A   1      42.093  24.740  27.441  1.00  0.00     0.148 A 
ATOM     77  C   UNL A   1      43.719  25.860  25.446  1.00  0.00     0.002 A 
ATOM     78  C   UNL A   1      42.495  23.976  26.350  1.00  0.00     0.091 A 
ATOM     79  F   UNL A   1      41.295  24.241  28.397  1.00  0.00    -0.205 F 
ATOM     80  C   UNL A   1      43.295  24.539  25.344  1.00  0.00     0.022 A 
BRANCH  78  81
ATOM     81  S   UNL A   1      42.102  22.228  26.207  1.00  0.00     0.127 S 
ATOM     82  O   UNL A   1      42.824  21.856  24.994  1.00  0.00    -0.237 OA
ATOM     83  O   UNL A   1      42.659  21.686  27.447  1.00  0.00    -0.237 OA
ATOM     84  O   UNL A   1      40.649  22.163  26.129  1.00  0.00    -0.744 OA
ENDBRANCH  78  81
ENDBRANCH  50  74
BRANCH  62  85
ATOM     85  C   UNL A   1      45.179  26.703  33.999  1.00  0.00     0.023 A 
ATOM     86  C   UNL A   1      46.474  27.242  33.882  1.00  0.00     0.012 A 
ATOM     87  C   UNL A   1      44.960  25.598  34.843  1.00  0.00     0.148 A 
ATOM     88  C   UNL A   1      47.541  26.677  34.579  1.00  0.00     0.002 A 
ATOM     89  C   UNL A   1      46.020  25.066  35.568  1.00  0.00     0.091 A 
ATOM     90  F   UNL A   1      43.723  25.086  34.923  1.00  0.00    -0.205 F 
ATOM     91  C   UNL A   1      47.312  25.598  35.430  1.00  0.00     0.022 A 
BRANCH  89  92
ATOM     92  S   UNL A   1      45.794  23.738  36.757  1.00  0.00     0.127 S 
ATOM     93  O   UNL A   1      44.826  24.326  37.681  1.00  0.00    -0.237 OA
ATOM     94  O   UNL A   1      45.262  22.658  35.924  1.00  0.00    -0.237 OA
ATOM     95  O   UNL A   1      47.114  23.472  37.312  1.00  0.00    -0.744 OA
ENDBRANCH  89  92
ENDBRANCH  62  85
ENDBRANCH  36  37
ENDBRANCH  28  31
ENDBRANCH  26  27
ENDBRANCH   1  26
TORSDOF 16
ENDMDL
MODEL 2
REMARK VINA RESULT:     -12.9      1.904      3.086
REMARK SMILES Cc1cc(C(=O)N2[C@@H](C(=O)NCCCCNC(=O)c3ccc(-c4c5nc(c(-c6cccc(S(=O)(=O)[O-])c6F)c6ccc([nH]6)c(-c6cccc(S(=O)(=O)[O-])c6F)c6nc(c(-c7cccc(S(=O)(=O)[O-])c7F)c7ccc4[nH]7)C=C6)C=C5)cc3)C[C@H]3CCCC[C@H]32)c(C)s1
REMARK SMILES IDX 14 1 13 2 12 3 11 4 9 5 10 6 8 8 7 9 88 10 82 11 83 12 87 13
REMARK SMILES IDX 84 14 86 15 85 16 5 17 6 18 4 19 1 20 2 21 3 22 91 23 89 24
REMARK SMILES IDX 90 25 15 26 16 27 17 28 18 30 19 31 20 32 81 33 21 34 80 35
REMARK SMILES IDX 22 36 23 37 24 38 74 39 25 40 79 41 73 42 75 43 26 44 78 45
REMARK SMILES IDX 72 46 71 47 27 49 59 50 39 51 58 52 40 53 43 54 57 55 76 56
REMARK SMILES IDX 41 57 42 58 56 60 77 61 44 62 28 63 29 64 37 65 30 66 32 67
REMARK SMILES IDX 38 68 31 69 33 70 34 71 35 72 36 73 60 74 61 75 69 76 62 77
REMARK SMILES IDX 64 78 70 79 63 80 65 81 66 82 67 83 68 84 45 85 46 86 54 87
REMARK SMILES IDX 47 88 49 89 55 90 48 91 50 92 51 93 52 94 53 95
REMARK H PARENT 11 7 16 29 75 48 43 59
REMARK Flexibility Score: inf
ROOT
ATOM      1  C   UNL A   1      31.996  29.441  24.925  1.00  0.00     0.023 C 
ENDROOT
BRANCH   1   2
ATOM      2  C   UNL A   1      31.237  28.124  24.844  1.00  0.00     0.023 C 
BRANCH   2   3
ATOM      3  C   UNL A   1      32.085  26.890  24.537  1.00  0.00     0.116 C 
BRANCH   3   4
ATOM      4  N   UNL A   1      32.199  25.987  25.663  1.00  0.00    -0.354 N 
ATOM      5  C   UNL A   1      32.696  24.728  25.789  1.00  0.00     0.242 C 
ATOM      6  O   UNL A   1      32.766  24.287  26.945  1.00  0.00    -0.273 OA
ATOM      7  H   UNL A   1      31.846  26.357  26.504  1.00  0.00     0.163 HD
BRANCH   5   8
ATOM      8  C   UNL A   1      33.049  23.774  24.616  1.00  0.00     0.175 C 
ATOM      9  N   UNL A   1      33.199  22.325  24.809  1.00  0.00    -0.323 N 
ATOM     10  C   UNL A   1      34.583  21.904  24.597  1.00  0.00     0.089 C 
ATOM     11  C   UNL A   1      34.415  24.218  24.037  1.00  0.00     0.041 C 
ATOM     12  C   UNL A   1      35.058  22.913  23.551  1.00  0.00     0.014 C 
ATOM     13  C   UNL A   1      35.415  21.954  25.881  1.00  0.00     0.025 C 
ATOM     14  C   UNL A   1      36.572  22.960  23.366  1.00  0.00     0.006 C 
ATOM     15  C   UNL A   1      36.912  21.874  25.616  1.00  0.00     0.002 C 
ATOM     16  C   UNL A   1      37.354  22.991  24.676  1.00  0.00     0.000 C 
BRANCH   9  17
ATOM     17  C   UNL A   1      32.199  21.372  24.942  1.00  0.00     0.255 C 
ATOM     18  O   UNL A   1      31.172  21.611  25.575  1.00  0.00    -0.269 OA
BRANCH  17  19
ATOM     19  C   UNL A   1      32.425  20.048  24.359  1.00  0.00     0.053 A 
ATOM     20  C   UNL A   1      32.960  16.310  24.781  1.00  0.00     0.056 C 
ATOM     21  C   UNL A   1      32.746  17.716  24.341  1.00  0.00     0.003 A 
ATOM     22  C   UNL A   1      32.688  18.852  25.116  1.00  0.00     0.029 A 
ATOM     23  S   UNL A   1      32.482  18.074  22.697  1.00  0.00    -0.145 S 
ATOM     24  C   UNL A   1      32.250  19.744  23.016  1.00  0.00     0.014 A 
ATOM     25  C   UNL A   1      31.874  20.641  21.882  1.00  0.00     0.057 C 
ENDBRANCH  17  19
ENDBRANCH   9  17
ENDBRANCH   5   8
ENDBRANCH   3   4
ENDBRANCH   2   3
ENDBRANCH   1   2
BRANCH   1  26
ATOM     26  C   UNL A   1      32.513  29.814  26.306  1.00  0.00     0.116 C 
BRANCH  26  27
ATOM     27  N   UNL A   1      32.356  31.225  26.641  1.00  0.00    -0.352 N 
ATOM     28  C   UNL A   1      33.240  32.045  27.306  1.00  0.00     0.251 C 
ATOM     29  H   UNL A   1      31.512  31.644  26.357  1.00  0.00     0.163 HD
ATOM     30  O   UNL A   1      32.942  33.204  27.576  1.00  0.00    -0.269 OA
BRANCH  28  31
ATOM     31  C   UNL A   1      34.539  31.486  27.730  1.00  0.00     0.039 A 
ATOM     32  C   UNL A   1      35.615  32.352  27.933  1.00  0.00     0.014 A 
ATOM     33  C   UNL A   1      34.646  30.128  28.035  1.00  0.00     0.014 A 
ATOM     34  C   UNL A   1      36.778  31.866  28.533  1.00  0.00     0.010 A 
ATOM     35  C   UNL A   1      35.766  29.671  28.716  1.00  0.00     0.010 A 
ATOM     36  C   UNL A   1      36.842  30.533  28.975  1.00  0.00    -0.014 A 
BRANCH  36  37
ATOM     37  C   UNL A   1      38.014  30.017  29.724  1.00  0.00     0.031 A 
ATOM     38  C   UNL A   1      38.276  30.494  31.126  1.00  0.00     0.074 A 
ATOM     39  C   UNL A   1      38.903  29.213  29.106  1.00  0.00     0.049 A 
ATOM     40  N   UNL A   1      39.292  30.242  31.908  1.00  0.00    -0.248 NA
ATOM     41  C   UNL A   1      37.283  31.413  31.712  1.00  0.00     0.031 C 
ATOM     42  C   UNL A   1      38.815  28.759  27.715  1.00  0.00     0.029 A 
ATOM     43  N   UNL A   1      40.075  28.658  29.558  1.00  0.00    -0.354 N 
ATOM     44  C   UNL A   1      39.087  31.003  33.051  1.00  0.00     0.074 A 
ATOM     45  C   UNL A   1      37.871  31.758  32.847  1.00  0.00     0.031 C 
ATOM     46  C   UNL A   1      39.880  27.990  27.433  1.00  0.00     0.029 A 
ATOM     47  C   UNL A   1      40.738  27.914  28.611  1.00  0.00     0.049 A 
ATOM     48  H   UNL A   1      40.409  28.782  30.477  1.00  0.00     0.167 HD
ATOM     49  C   UNL A   1      39.821  31.042  34.188  1.00  0.00     0.034 A 
ATOM     50  C   UNL A   1      41.905  27.243  28.685  1.00  0.00     0.034 A 
ATOM     51  C   UNL A   1      40.986  30.232  34.416  1.00  0.00     0.049 A 
ATOM     52  C   UNL A   1      42.656  27.232  29.988  1.00  0.00     0.074 A 
ATOM     53  C   UNL A   1      41.740  30.115  35.570  1.00  0.00     0.029 A 
ATOM     54  N   UNL A   1      41.559  29.392  33.474  1.00  0.00    -0.354 N 
ATOM     55  N   UNL A   1      42.355  27.827  31.119  1.00  0.00    -0.248 NA
ATOM     56  C   UNL A   1      43.887  26.430  30.042  1.00  0.00     0.031 C 
ATOM     57  C   UNL A   1      42.773  29.204  35.323  1.00  0.00     0.029 A 
ATOM     58  C   UNL A   1      42.656  28.750  34.019  1.00  0.00     0.049 A 
ATOM     59  H   UNL A   1      41.234  29.271  32.553  1.00  0.00     0.167 HD
ATOM     60  C   UNL A   1      43.336  27.442  32.025  1.00  0.00     0.074 A 
ATOM     61  C   UNL A   1      44.230  26.547  31.318  1.00  0.00     0.031 C 
ATOM     62  C   UNL A   1      43.495  27.811  33.320  1.00  0.00     0.034 A 
BRANCH  49  63
ATOM     63  C   UNL A   1      39.337  31.934  35.299  1.00  0.00     0.023 A 
ATOM     64  C   UNL A   1      38.392  31.436  36.219  1.00  0.00     0.012 A 
ATOM     65  C   UNL A   1      39.840  33.238  35.462  1.00  0.00     0.148 A 
ATOM     66  C   UNL A   1      37.925  32.234  37.262  1.00  0.00     0.002 A 
ATOM     67  C   UNL A   1      39.401  34.014  36.530  1.00  0.00     0.091 A 
ATOM     68  F   UNL A   1      40.718  33.704  34.564  1.00  0.00    -0.205 F 
ATOM     69  C   UNL A   1      38.437  33.518  37.423  1.00  0.00     0.022 A 
BRANCH  67  70
ATOM     70  S   UNL A   1      40.057  35.653  36.866  1.00  0.00     0.127 S 
ATOM     71  O   UNL A   1      39.541  36.415  35.732  1.00  0.00    -0.237 OA
ATOM     72  O   UNL A   1      39.438  35.977  38.152  1.00  0.00    -0.237 OA
ATOM     73  O   UNL A   1      41.504  35.499  36.915  1.00  0.00    -0.744 OA
ENDBRANCH  67  70
ENDBRANCH  49  63
BRANCH  50  74
ATOM     74  C   UNL A   1      42.382  26.446  27.519  1.00  0.00     0.023 A 
ATOM     75  C   UNL A   1      43.224  27.059  26.570  1.00  0.00     0.012 A 
ATOM     76  C   UNL A   1      42.041  25.090  27.358  1.00  0.00     0.148 A 
ATOM     77  C   UNL A   1      43.695  26.345  25.468  1.00  0.00     0.002 A 
ATOM     78  C   UNL A   1      42.555  24.369  26.285  1.00  0.00     0.091 A 
ATOM     79  F   UNL A   1      41.228  24.526  28.263  1.00  0.00    -0.205 F 
ATOM     80  C   UNL A   1      43.369  24.999  25.330  1.00  0.00     0.022 A 
BRANCH  78  81
ATOM     81  S   UNL A   1      42.291  22.601  26.103  1.00  0.00     0.127 S 
ATOM     82  O   UNL A   1      42.952  22.328  24.831  1.00  0.00    -0.237 OA
ATOM     83  O   UNL A   1      42.977  22.067  27.281  1.00  0.00    -0.237 OA
ATOM     84  O   UNL A   1      40.846  22.421  26.124  1.00  0.00    -0.744 OA
ENDBRANCH  78  81
ENDBRANCH  50  74
BRANCH  62  85
ATOM     85  C   UNL A   1      44.659  27.229  34.076  1.00  0.00     0.023 A 
ATOM     86  C   UNL A   1      45.896  27.901  34.071  1.00  0.00     0.012 A 
ATOM     87  C   UNL A   1      44.502  26.069  34.858  1.00  0.00     0.148 A 
ATOM     88  C   UNL A   1      46.968  27.415  34.818  1.00  0.00     0.002 A 
ATOM     89  C   UNL A   1      45.562  25.614  35.633  1.00  0.00     0.091 A 
ATOM     90  F   UNL A   1      43.322  25.432  34.831  1.00  0.00    -0.205 F 
ATOM     91  C   UNL A   1      46.798  26.279  35.607  1.00  0.00     0.022 A 
BRANCH  89  92
ATOM     92  S   UNL A   1      45.398  24.216  36.750  1.00  0.00     0.127 S 
ATOM     93  O   UNL A   1      44.358  24.684  37.663  1.00  0.00    -0.237 OA
ATOM     94  O   UNL A   1      44.980  23.141  35.848  1.00  0.00    -0.237 OA
ATOM     95  O   UNL A   1      46.716  24.023  37.341  1.00  0.00    -0.744 OA
ENDBRANCH  89  92
ENDBRANCH  62  85
ENDBRANCH  36  37
ENDBRANCH  28  31
ENDBRANCH  26  27
ENDBRANCH   1  26
TORSDOF 16
ENDMDL
MODEL 3
REMARK VINA RESULT:     -12.9      4.960     10.008
REMARK SMILES Cc1cc(C(=O)N2[C@@H](C(=O)NCCCCNC(=O)c3ccc(-c4c5nc(c(-c6cccc(S(=O)(=O)[O-])c6F)c6ccc([nH]6)c(-c6cccc(S(=O)(=O)[O-])c6F)c6nc(c(-c7cccc(S(=O)(=O)[O-])c7F)c7ccc4[nH]7)C=C6)C=C5)cc3)C[C@H]3CCCC[C@H]32)c(C)s1
REMARK SMILES IDX 14 1 13 2 12 3 11 4 9 5 10 6 8 8 7 9 88 10 82 11 83 12 87 13
REMARK SMILES IDX 84 14 86 15 85 16 5 17 6 18 4 19 1 20 2 21 3 22 91 23 89 24
REMARK SMILES IDX 90 25 15 26 16 27 17 28 18 30 19 31 20 32 81 33 21 34 80 35
REMARK SMILES IDX 22 36 23 37 24 38 74 39 25 40 79 41 73 42 75 43 26 44 78 45
REMARK SMILES IDX 72 46 71 47 27 49 59 50 39 51 58 52 40 53 43 54 57 55 76 56
REMARK SMILES IDX 41 57 42 58 56 60 77 61 44 62 28 63 29 64 37 65 30 66 32 67
REMARK SMILES IDX 38 68 31 69 33 70 34 71 35 72 36 73 60 74 61 75 69 76 62 77
REMARK SMILES IDX 64 78 70 79 63 80 65 81 66 82 67 83 68 84 45 85 46 86 54 87
REMARK SMILES IDX 47 88 49 89 55 90 48 91 50 92 51 93 52 94 53 95
REMARK H PARENT 11 7 16 29 75 48 43 59
REMARK Flexibility Score: inf
ROOT
ATOM      1  C   UNL A   1      35.473  21.429  25.561  1.00  0.00     0.023 C 
ENDROOT
BRANCH   1   2
ATOM      2  C   UNL A   1      34.549  22.426  26.245  1.00  0.00     0.023 C 
BRANCH   2   3
ATOM      3  C   UNL A   1      33.381  22.932  25.400  1.00  0.00     0.116 C 
BRANCH   3   4
ATOM      4  N   UNL A   1      33.792  23.851  24.359  1.00  0.00    -0.354 N 
ATOM      5  C   UNL A   1      33.375  25.097  24.012  1.00  0.00     0.242 C 
ATOM      6  O   UNL A   1      34.045  25.669  23.140  1.00  0.00    -0.273 OA
ATOM      7  H   UNL A   1      34.516  23.504  23.790  1.00  0.00     0.163 HD
BRANCH   5   8
ATOM      8  C   UNL A   1      32.079  25.789  24.514  1.00  0.00     0.175 C 
ATOM      9  N   UNL A   1      31.601  27.056  23.943  1.00  0.00    -0.323 N 
ATOM     10  C   UNL A   1      31.681  28.141  24.919  1.00  0.00     0.089 C 
ATOM     11  C   UNL A   1      32.262  26.104  26.019  1.00  0.00     0.041 C 
ATOM     12  C   UNL A   1      31.457  27.392  26.234  1.00  0.00     0.014 C 
ATOM     13  C   UNL A   1      33.027  28.869  24.880  1.00  0.00     0.025 C 
ATOM     14  C   UNL A   1      31.823  28.191  27.481  1.00  0.00     0.006 C 
ATOM     15  C   UNL A   1      33.261  29.739  26.106  1.00  0.00     0.002 C 
ATOM     16  C   UNL A   1      33.165  28.910  27.383  1.00  0.00     0.000 C 
BRANCH   9  17
ATOM     17  C   UNL A   1      30.933  27.253  22.742  1.00  0.00     0.255 C 
ATOM     18  O   UNL A   1      31.289  26.682  21.713  1.00  0.00    -0.269 OA
BRANCH  17  19
ATOM     19  C   UNL A   1      29.826  28.211  22.718  1.00  0.00     0.053 A 
ATOM     20  C   UNL A   1      28.302  31.454  21.453  1.00  0.00     0.056 C 
ATOM     21  C   UNL A   1      28.649  30.145  22.072  1.00  0.00     0.003 A 
ATOM     22  C   UNL A   1      29.855  29.484  22.045  1.00  0.00     0.029 A 
ATOM     23  S   UNL A   1      27.467  29.244  22.903  1.00  0.00    -0.145 S 
ATOM     24  C   UNL A   1      28.550  27.946  23.198  1.00  0.00     0.014 A 
ATOM     25  C   UNL A   1      28.029  26.722  23.877  1.00  0.00     0.057 C 
ENDBRANCH  17  19
ENDBRANCH   9  17
ENDBRANCH   5   8
ENDBRANCH   3   4
ENDBRANCH   2   3
ENDBRANCH   1   2
BRANCH   1  26
ATOM     26  C   UNL A   1      36.888  21.921  25.300  1.00  0.00     0.116 C 
BRANCH  26  27
ATOM     27  N   UNL A   1      37.916  20.896  25.453  1.00  0.00    -0.352 N 
ATOM     28  C   UNL A   1      39.161  21.019  26.026  1.00  0.00     0.251 C 
ATOM     29  H   UNL A   1      37.689  20.005  25.103  1.00  0.00     0.163 HD
ATOM     30  O   UNL A   1      39.949  20.079  26.026  1.00  0.00    -0.269 OA
BRANCH  28  31
ATOM     31  C   UNL A   1      39.548  22.323  26.601  1.00  0.00     0.039 A 
ATOM     32  C   UNL A   1      40.589  22.372  27.529  1.00  0.00     0.014 A 
ATOM     33  C   UNL A   1      38.956  23.495  26.127  1.00  0.00     0.014 A 
ATOM     34  C   UNL A   1      41.101  23.611  27.917  1.00  0.00     0.010 A 
ATOM     35  C   UNL A   1      39.528  24.720  26.442  1.00  0.00     0.010 A 
ATOM     36  C   UNL A   1      40.608  24.792  27.337  1.00  0.00    -0.014 A 
BRANCH  36  37
ATOM     37  C   UNL A   1      41.209  26.116  27.634  1.00  0.00     0.031 A 
ATOM     38  C   UNL A   1      42.620  26.410  27.204  1.00  0.00     0.074 A 
ATOM     39  C   UNL A   1      40.532  27.006  28.388  1.00  0.00     0.049 A 
ATOM     40  N   UNL A   1      43.356  27.461  27.452  1.00  0.00    -0.248 NA
ATOM     41  C   UNL A   1      43.310  25.364  26.427  1.00  0.00     0.031 C 
ATOM     42  C   UNL A   1      39.194  26.799  28.951  1.00  0.00     0.029 A 
ATOM     43  N   UNL A   1      40.888  28.253  28.839  1.00  0.00    -0.354 N 
ATOM     44  C   UNL A   1      44.604  27.185  26.908  1.00  0.00     0.074 A 
ATOM     45  C   UNL A   1      44.539  25.852  26.351  1.00  0.00     0.031 C 
ATOM     46  C   UNL A   1      38.842  27.883  29.661  1.00  0.00     0.029 A 
ATOM     47  C   UNL A   1      39.933  28.851  29.626  1.00  0.00     0.049 A 
ATOM     48  H   UNL A   1      41.748  28.679  28.618  1.00  0.00     0.167 HD
ATOM     49  C   UNL A   1      45.695  27.982  26.840  1.00  0.00     0.034 A 
ATOM     50  C   UNL A   1      39.935  30.048  30.246  1.00  0.00     0.034 A 
ATOM     51  C   UNL A   1      45.730  29.334  27.326  1.00  0.00     0.049 A 
ATOM     52  C   UNL A   1      41.128  30.951  30.082  1.00  0.00     0.074 A 
ATOM     53  C   UNL A   1      46.748  30.263  27.212  1.00  0.00     0.029 A 
ATOM     54  N   UNL A   1      44.696  29.952  28.010  1.00  0.00    -0.354 N 
ATOM     55  N   UNL A   1      42.238  30.737  29.416  1.00  0.00    -0.248 NA
ATOM     56  C   UNL A   1      41.055  32.274  30.718  1.00  0.00     0.031 C 
ATOM     57  C   UNL A   1      46.328  31.446  27.831  1.00  0.00     0.029 A 
ATOM     58  C   UNL A   1      45.048  31.253  28.324  1.00  0.00     0.049 A 
ATOM     59  H   UNL A   1      43.838  29.529  28.241  1.00  0.00     0.167 HD
ATOM     60  C   UNL A   1      42.978  31.908  29.524  1.00  0.00     0.074 A 
ATOM     61  C   UNL A   1      42.183  32.835  30.301  1.00  0.00     0.031 C 
ATOM     62  C   UNL A   1      44.215  32.184  29.040  1.00  0.00     0.034 A 
BRANCH  49  63
ATOM     63  C   UNL A   1      46.914  27.437  26.145  1.00  0.00     0.023 A 
ATOM     64  C   UNL A   1      47.065  27.640  24.758  1.00  0.00     0.012 A 
ATOM     65  C   UNL A   1      47.924  26.766  26.859  1.00  0.00     0.148 A 
ATOM     66  C   UNL A   1      48.183  27.151  24.084  1.00  0.00     0.002 A 
ATOM     67  C   UNL A   1      49.057  26.317  26.188  1.00  0.00     0.091 A 
ATOM     68  F   UNL A   1      47.752  26.558  28.172  1.00  0.00    -0.205 F 
ATOM     69  C   UNL A   1      49.182  26.500  24.801  1.00  0.00     0.022 A 
BRANCH  67  70
ATOM     70  S   UNL A   1      50.434  25.534  27.035  1.00  0.00     0.127 S 
ATOM     71  O   UNL A   1      51.362  25.295  25.932  1.00  0.00    -0.237 OA
ATOM     72  O   UNL A   1      50.855  26.577  27.972  1.00  0.00    -0.237 OA
ATOM     73  O   UNL A   1      49.886  24.342  27.666  1.00  0.00    -0.744 OA
ENDBRANCH  67  70
ENDBRANCH  49  63
BRANCH  50  74
ATOM     74  C   UNL A   1      38.729  30.501  30.998  1.00  0.00     0.023 A 
ATOM     75  C   UNL A   1      38.669  30.284  32.388  1.00  0.00     0.012 A 
ATOM     76  C   UNL A   1      37.666  31.168  30.361  1.00  0.00     0.148 A 
ATOM     77  C   UNL A   1      37.560  30.697  33.127  1.00  0.00     0.002 A 
ATOM     78  C   UNL A   1      36.586  31.623  31.112  1.00  0.00     0.091 A 
ATOM     79  F   UNL A   1      37.733  31.354  29.035  1.00  0.00    -0.205 F 
ATOM     80  C   UNL A   1      36.524  31.374  32.492  1.00  0.00     0.022 A 
BRANCH  78  81
ATOM     81  S   UNL A   1      35.272  32.617  30.395  1.00  0.00     0.127 S 
ATOM     82  O   UNL A   1      35.988  33.829  30.010  1.00  0.00    -0.237 OA
ATOM     83  O   UNL A   1      34.831  31.781  29.277  1.00  0.00    -0.237 OA
ATOM     84  O   UNL A   1      34.280  32.768  31.451  1.00  0.00    -0.744 OA
ENDBRANCH  78  81
ENDBRANCH  50  74
BRANCH  62  85
ATOM     85  C   UNL A   1      44.780  33.553  29.306  1.00  0.00     0.023 A 
ATOM     86  C   UNL A   1      45.504  33.788  30.490  1.00  0.00     0.012 A 
ATOM     87  C   UNL A   1      44.670  34.577  28.345  1.00  0.00     0.148 A 
ATOM     88  C   UNL A   1      46.092  35.030  30.725  1.00  0.00     0.002 A 
ATOM     89  C   UNL A   1      45.294  35.798  28.566  1.00  0.00     0.091 A 
ATOM     90  F   UNL A   1      43.958  34.339  27.234  1.00  0.00    -0.205 F 
ATOM     91  C   UNL A   1      45.998  36.030  29.759  1.00  0.00     0.022 A 
BRANCH  89  92
ATOM     92  S   UNL A   1      45.302  37.105  27.334  1.00  0.00     0.127 S 
ATOM     93  O   UNL A   1      46.118  36.513  26.276  1.00  0.00    -0.237 OA
ATOM     94  O   UNL A   1      43.881  37.237  27.007  1.00  0.00    -0.237 OA
ATOM     95  O   UNL A   1      45.875  38.270  27.995  1.00  0.00    -0.744 OA
ENDBRANCH  89  92
ENDBRANCH  62  85
ENDBRANCH  36  37
ENDBRANCH  28  31
ENDBRANCH  26  27
ENDBRANCH   1  26
TORSDOF 16
ENDMDL
