MODEL 1
REMARK VINA RESULT:     -11.2      0.000      0.000
REMARK SMILES CCCC[C@H](C(=O)NCCCCNC(=O)c1ccc(-c2c3nc(c(-c4cccc(S(=O)(=O)[O-])c4F)c4ccc([nH]4)c(-c4cccc(S(=O)(=O)[O-])c4F)c4nc(c(-c5cccc(S(=O)(=O)[O-])c5F)c5ccc2[nH]5)C=C4)C=C3)cc1)N1C(=O)/C(=C/c2ccc(C)cc2)SC1=S
REMARK SMILES IDX 10 1 9 2 8 3 6 4 7 5 5 7 4 8 3 9 2 10 1 11 79 12 80 13 92 14
REMARK SMILES IDX 81 15 82 16 91 17 93 18 83 19 84 20 85 21 90 22 86 23 89 24
REMARK SMILES IDX 87 25 88 26 11 27 12 28 13 29 14 30 15 32 16 33 17 34 78 35
REMARK SMILES IDX 18 36 77 37 19 38 20 39 21 40 71 41 22 42 76 43 70 44 72 45
REMARK SMILES IDX 23 46 75 47 69 48 68 49 24 51 56 52 36 53 55 54 37 55 40 56
REMARK SMILES IDX 54 57 73 58 38 59 39 60 53 62 74 63 41 64 25 65 26 66 34 67
REMARK SMILES IDX 27 68 29 69 35 70 28 71 30 72 31 73 32 74 33 75 57 76 58 77
REMARK SMILES IDX 66 78 59 79 61 80 67 81 60 82 62 83 63 84 64 85 65 86 42 87
REMARK SMILES IDX 43 88 51 89 44 90 46 91 52 92 45 93 47 94 48 95 49 96 50 97
REMARK H PARENT 8 6 13 31 72 50 40 61
REMARK Flexibility Score: inf
ROOT
ATOM      1  C   UNL A   1      32.399  30.514  27.092  1.00  0.00     0.023 C 
ENDROOT
BRANCH   1   2
ATOM      2  C   UNL A   1      31.860  29.525  26.065  1.00  0.00     0.116 C 
BRANCH   2   3
ATOM      3  N   UNL A   1      32.598  29.554  24.814  1.00  0.00    -0.354 N 
ATOM      4  C   UNL A   1      32.503  28.773  23.700  1.00  0.00     0.243 C 
ATOM      5  O   UNL A   1      33.281  29.012  22.772  1.00  0.00    -0.273 OA
ATOM      6  H   UNL A   1      33.285  30.259  24.761  1.00  0.00     0.163 HD
BRANCH   4   7
ATOM      7  C   UNL A   1      31.504  27.600  23.627  1.00  0.00     0.181 C 
BRANCH   7   8
ATOM      8  C   UNL A   1      30.613  27.707  22.369  1.00  0.00     0.036 C 
BRANCH   8   9
ATOM      9  C   UNL A   1      29.936  29.066  22.131  1.00  0.00     0.002 C 
BRANCH   9  10
ATOM     10  C   UNL A   1      29.036  29.624  23.229  1.00  0.00    -0.003 C 
ATOM     11  C   UNL A   1      27.552  29.616  22.911  1.00  0.00     0.004 C 
ENDBRANCH   9  10
ENDBRANCH   8   9
ENDBRANCH   7   8
BRANCH   7  12
ATOM     12  N   UNL A   1      32.347  26.370  23.698  1.00  0.00    -0.280 N 
ATOM     13  C   UNL A   1      32.813  25.864  24.908  1.00  0.00     0.266 C 
ATOM     14  C   UNL A   1      32.641  25.602  22.584  1.00  0.00     0.149 C 
ATOM     15  O   UNL A   1      32.670  26.339  26.021  1.00  0.00    -0.268 OA
ATOM     16  C   UNL A   1      33.648  24.651  24.666  1.00  0.00     0.081 C 
ATOM     17  S   UNL A   1      33.437  24.113  23.055  1.00  0.00    -0.054 SA
ATOM     18  S   UNL A   1      32.399  25.950  20.971  1.00  0.00    -0.052 S 
ATOM     19  C   UNL A   1      34.479  24.155  25.594  1.00  0.00     0.029 C 
BRANCH  19  20
ATOM     20  C   UNL A   1      35.391  23.015  25.415  1.00  0.00    -0.024 A 
ATOM     21  C   UNL A   1      34.865  21.720  25.383  1.00  0.00     0.008 A 
ATOM     22  C   UNL A   1      36.776  23.184  25.300  1.00  0.00     0.008 A 
ATOM     23  C   UNL A   1      35.705  20.620  25.183  1.00  0.00     0.004 A 
ATOM     24  C   UNL A   1      37.615  22.087  25.088  1.00  0.00     0.004 A 
ATOM     25  C   UNL A   1      37.084  20.797  25.017  1.00  0.00    -0.051 A 
ATOM     26  C   UNL A   1      37.969  19.612  24.770  1.00  0.00     0.044 C 
ENDBRANCH  19  20
ENDBRANCH   7  12
ENDBRANCH   4   7
ENDBRANCH   2   3
ENDBRANCH   1   2
BRANCH   1  27
ATOM     27  C   UNL A   1      31.747  31.893  27.061  1.00  0.00     0.023 C 
BRANCH  27  28
ATOM     28  C   UNL A   1      32.688  33.050  26.749  1.00  0.00     0.116 C 
BRANCH  28  29
ATOM     29  N   UNL A   1      32.423  34.233  27.555  1.00  0.00    -0.352 N 
ATOM     30  C   UNL A   1      33.052  34.662  28.700  1.00  0.00     0.251 C 
ATOM     31  H   UNL A   1      31.689  34.807  27.236  1.00  0.00     0.163 HD
ATOM     32  O   UNL A   1      32.599  35.611  29.332  1.00  0.00    -0.269 OA
BRANCH  30  33
ATOM     33  C   UNL A   1      34.260  33.955  29.177  1.00  0.00     0.039 A 
ATOM     34  C   UNL A   1      35.518  34.481  28.877  1.00  0.00     0.014 A 
ATOM     35  C   UNL A   1      34.146  32.797  29.952  1.00  0.00     0.014 A 
ATOM     36  C   UNL A   1      36.661  33.885  29.417  1.00  0.00     0.010 A 
ATOM     37  C   UNL A   1      35.275  32.263  30.562  1.00  0.00     0.010 A 
ATOM     38  C   UNL A   1      36.546  32.795  30.297  1.00  0.00    -0.014 A 
BRANCH  38  39
ATOM     39  C   UNL A   1      37.738  32.204  30.957  1.00  0.00     0.031 A 
ATOM     40  C   UNL A   1      38.610  31.229  30.210  1.00  0.00     0.074 A 
ATOM     41  C   UNL A   1      37.988  32.476  32.254  1.00  0.00     0.049 A 
ATOM     42  N   UNL A   1      39.652  30.562  30.635  1.00  0.00    -0.248 NA
ATOM     43  C   UNL A   1      38.247  30.943  28.811  1.00  0.00     0.031 C 
ATOM     44  C   UNL A   1      37.175  33.341  33.112  1.00  0.00     0.029 A 
ATOM     45  N   UNL A   1      38.986  32.031  33.086  1.00  0.00    -0.354 N 
ATOM     46  C   UNL A   1      40.045  29.756  29.573  1.00  0.00     0.074 A 
ATOM     47  C   UNL A   1      39.108  29.987  28.496  1.00  0.00     0.031 C 
ATOM     48  C   UNL A   1      37.710  33.370  34.343  1.00  0.00     0.029 A 
ATOM     49  C   UNL A   1      38.880  32.500  34.376  1.00  0.00     0.049 A 
ATOM     50  H   UNL A   1      39.708  31.431  32.789  1.00  0.00     0.167 HD
ATOM     51  C   UNL A   1      41.110  28.924  29.488  1.00  0.00     0.034 A 
ATOM     52  C   UNL A   1      39.634  32.249  35.464  1.00  0.00     0.034 A 
ATOM     53  C   UNL A   1      42.065  28.727  30.544  1.00  0.00     0.049 A 
ATOM     54  C   UNL A   1      40.827  31.340  35.334  1.00  0.00     0.074 A 
ATOM     55  C   UNL A   1      43.222  27.970  30.526  1.00  0.00     0.029 A 
ATOM     56  N   UNL A   1      41.968  29.282  31.811  1.00  0.00    -0.354 N 
ATOM     57  N   UNL A   1      41.273  30.710  34.273  1.00  0.00    -0.248 NA
ATOM     58  C   UNL A   1      41.642  31.136  36.540  1.00  0.00     0.031 C 
ATOM     59  C   UNL A   1      43.811  28.043  31.793  1.00  0.00     0.029 A 
ATOM     60  C   UNL A   1      43.040  28.875  32.588  1.00  0.00     0.049 A 
ATOM     61  H   UNL A   1      41.245  29.878  32.114  1.00  0.00     0.167 HD
ATOM     62  C   UNL A   1      42.439  30.067  34.674  1.00  0.00     0.074 A 
ATOM     63  C   UNL A   1      42.643  30.404  36.068  1.00  0.00     0.031 C 
ATOM     64  C   UNL A   1      43.260  29.260  33.957  1.00  0.00     0.034 A 
BRANCH  51  65
ATOM     65  C   UNL A   1      41.330  28.198  28.185  1.00  0.00     0.023 A 
ATOM     66  C   UNL A   1      41.773  28.915  27.054  1.00  0.00     0.012 A 
ATOM     67  C   UNL A   1      41.164  26.803  28.095  1.00  0.00     0.148 A 
ATOM     68  C   UNL A   1      42.011  28.262  25.846  1.00  0.00     0.002 A 
ATOM     69  C   UNL A   1      41.450  26.151  26.902  1.00  0.00     0.091 A 
ATOM     70  F   UNL A   1      40.725  26.140  29.175  1.00  0.00    -0.205 F 
ATOM     71  C   UNL A   1      41.861  26.880  25.773  1.00  0.00     0.022 A 
BRANCH  69  72
ATOM     72  S   UNL A   1      41.368  24.365  26.724  1.00  0.00     0.127 S 
ATOM     73  O   UNL A   1      41.911  23.917  28.006  1.00  0.00    -0.237 OA
ATOM     74  O   UNL A   1      39.932  24.139  26.557  1.00  0.00    -0.237 OA
ATOM     75  O   UNL A   1      42.177  24.039  25.558  1.00  0.00    -0.744 OA
ENDBRANCH  69  72
ENDBRANCH  51  65
BRANCH  52  76
ATOM     76  C   UNL A   1      39.320  32.909  36.764  1.00  0.00     0.023 A 
ATOM     77  C   UNL A   1      39.937  34.134  37.086  1.00  0.00     0.012 A 
ATOM     78  C   UNL A   1      38.414  32.338  37.677  1.00  0.00     0.148 A 
ATOM     79  C   UNL A   1      39.690  34.757  38.311  1.00  0.00     0.002 A 
ATOM     80  C   UNL A   1      38.127  32.991  38.869  1.00  0.00     0.091 A 
ATOM     81  F   UNL A   1      37.845  31.167  37.358  1.00  0.00    -0.205 F 
ATOM     82  C   UNL A   1      38.778  34.190  39.198  1.00  0.00     0.022 A 
BRANCH  80  83
ATOM     83  S   UNL A   1      36.874  32.403  40.013  1.00  0.00     0.127 S 
ATOM     84  O   UNL A   1      35.699  32.314  39.150  1.00  0.00    -0.237 OA
ATOM     85  O   UNL A   1      37.429  31.116  40.435  1.00  0.00    -0.237 OA
ATOM     86  O   UNL A   1      36.808  33.403  41.071  1.00  0.00    -0.744 OA
ENDBRANCH  80  83
ENDBRANCH  52  76
BRANCH  64  87
ATOM     87  C   UNL A   1      44.484  28.717  34.647  1.00  0.00     0.023 A 
ATOM     88  C   UNL A   1      45.683  29.457  34.642  1.00  0.00     0.012 A 
ATOM     89  C   UNL A   1      44.422  27.505  35.363  1.00  0.00     0.148 A 
ATOM     90  C   UNL A   1      46.812  28.980  35.308  1.00  0.00     0.002 A 
ATOM     91  C   UNL A   1      45.534  27.064  36.068  1.00  0.00     0.091 A 
ATOM     92  F   UNL A   1      43.277  26.808  35.342  1.00  0.00    -0.205 F 
ATOM     93  C   UNL A   1      46.735  27.792  36.030  1.00  0.00     0.022 A 
BRANCH  91  94
ATOM     94  S   UNL A   1      45.498  25.598  37.107  1.00  0.00     0.127 S 
ATOM     95  O   UNL A   1      44.446  25.938  38.064  1.00  0.00    -0.237 OA
ATOM     96  O   UNL A   1      45.138  24.551  36.151  1.00  0.00    -0.237 OA
ATOM     97  O   UNL A   1      46.836  25.470  37.669  1.00  0.00    -0.744 OA
ENDBRANCH  91  94
ENDBRANCH  64  87
ENDBRANCH  38  39
ENDBRANCH  30  33
ENDBRANCH  28  29
ENDBRANCH  27  28
ENDBRANCH   1  27
TORSDOF 19
ENDMDL
MODEL 2
REMARK VINA RESULT:     -11.1      2.142      7.781
REMARK SMILES CCCC[C@H](C(=O)NCCCCNC(=O)c1ccc(-c2c3nc(c(-c4cccc(S(=O)(=O)[O-])c4F)c4ccc([nH]4)c(-c4cccc(S(=O)(=O)[O-])c4F)c4nc(c(-c5cccc(S(=O)(=O)[O-])c5F)c5ccc2[nH]5)C=C4)C=C3)cc1)N1C(=O)/C(=C/c2ccc(C)cc2)SC1=S
REMARK SMILES IDX 10 1 9 2 8 3 6 4 7 5 5 7 4 8 3 9 2 10 1 11 79 12 80 13 92 14
REMARK SMILES IDX 81 15 82 16 91 17 93 18 83 19 84 20 85 21 90 22 86 23 89 24
REMARK SMILES IDX 87 25 88 26 11 27 12 28 13 29 14 30 15 32 16 33 17 34 78 35
REMARK SMILES IDX 18 36 77 37 19 38 20 39 21 40 71 41 22 42 76 43 70 44 72 45
REMARK SMILES IDX 23 46 75 47 69 48 68 49 24 51 56 52 36 53 55 54 37 55 40 56
REMARK SMILES IDX 54 57 73 58 38 59 39 60 53 62 74 63 41 64 25 65 26 66 34 67
REMARK SMILES IDX 27 68 29 69 35 70 28 71 30 72 31 73 32 74 33 75 57 76 58 77
REMARK SMILES IDX 66 78 59 79 61 80 67 81 60 82 62 83 63 84 64 85 65 86 42 87
REMARK SMILES IDX 43 88 51 89 44 90 46 91 52 92 45 93 47 94 48 95 49 96 50 97
REMARK H PARENT 8 6 13 31 72 50 40 61
REMARK Flexibility Score: inf
ROOT
ATOM      1  C   UNL A   1      31.633  28.648  27.647  1.00  0.00     0.023 C 
ENDROOT
BRANCH   1   2
ATOM      2  C   UNL A   1      31.786  27.318  26.918  1.00  0.00     0.116 C 
BRANCH   2   3
ATOM      3  N   UNL A   1      32.892  27.318  25.975  1.00  0.00    -0.354 N 
ATOM      4  C   UNL A   1      32.947  26.958  24.660  1.00  0.00     0.243 C 
ATOM      5  O   UNL A   1      34.041  27.042  24.096  1.00  0.00    -0.273 OA
ATOM      6  H   UNL A   1      33.748  27.632  26.349  1.00  0.00     0.163 HD
BRANCH   4   7
ATOM      7  C   UNL A   1      31.706  26.410  23.927  1.00  0.00     0.181 C 
BRANCH   7   8
ATOM      8  C   UNL A   1      31.408  27.231  22.652  1.00  0.00     0.036 C 
BRANCH   8   9
ATOM      9  C   UNL A   1      30.107  28.049  22.659  1.00  0.00     0.002 C 
BRANCH   9  10
ATOM     10  C   UNL A   1      30.097  29.377  23.411  1.00  0.00    -0.003 C 
ATOM     11  C   UNL A   1      28.815  30.180  23.279  1.00  0.00     0.004 C 
ENDBRANCH   9  10
ENDBRANCH   8   9
ENDBRANCH   7   8
BRANCH   7  12
ATOM     12  N   UNL A   1      32.001  24.966  23.691  1.00  0.00    -0.280 N 
ATOM     13  C   UNL A   1      31.809  24.004  24.678  1.00  0.00     0.266 C 
ATOM     14  C   UNL A   1      32.395  24.478  22.457  1.00  0.00     0.149 C 
ATOM     15  O   UNL A   1      31.450  24.175  25.829  1.00  0.00    -0.268 OA
ATOM     16  C   UNL A   1      32.215  22.662  24.166  1.00  0.00     0.081 C 
ATOM     17  S   UNL A   1      32.420  22.725  22.468  1.00  0.00    -0.054 SA
ATOM     18  S   UNL A   1      32.872  25.315  21.095  1.00  0.00    -0.052 S 
ATOM     19  C   UNL A   1      32.444  21.622  24.981  1.00  0.00     0.029 C 
BRANCH  19  20
ATOM     20  C   UNL A   1      32.919  20.292  24.571  1.00  0.00    -0.024 A 
ATOM     21  C   UNL A   1      34.245  19.933  24.828  1.00  0.00     0.008 A 
ATOM     22  C   UNL A   1      32.088  19.380  23.908  1.00  0.00     0.008 A 
ATOM     23  C   UNL A   1      34.715  18.663  24.477  1.00  0.00     0.004 A 
ATOM     24  C   UNL A   1      32.554  18.106  23.568  1.00  0.00     0.004 A 
ATOM     25  C   UNL A   1      33.869  17.735  23.860  1.00  0.00    -0.051 A 
ATOM     26  C   UNL A   1      34.375  16.366  23.520  1.00  0.00     0.044 C 
ENDBRANCH  19  20
ENDBRANCH   7  12
ENDBRANCH   4   7
ENDBRANCH   2   3
ENDBRANCH   1   2
BRANCH   1  27
ATOM     27  C   UNL A   1      31.506  29.868  26.739  1.00  0.00     0.023 C 
BRANCH  27  28
ATOM     28  C   UNL A   1      32.810  30.602  26.452  1.00  0.00     0.116 C 
BRANCH  28  29
ATOM     29  N   UNL A   1      32.776  32.002  26.853  1.00  0.00    -0.352 N 
ATOM     30  C   UNL A   1      33.640  32.691  27.670  1.00  0.00     0.251 C 
ATOM     31  H   UNL A   1      32.029  32.528  26.487  1.00  0.00     0.163 HD
ATOM     32  O   UNL A   1      33.374  33.838  28.018  1.00  0.00    -0.269 OA
BRANCH  30  33
ATOM     33  C   UNL A   1      34.874  32.032  28.149  1.00  0.00     0.039 A 
ATOM     34  C   UNL A   1      36.060  32.767  28.198  1.00  0.00     0.014 A 
ATOM     35  C   UNL A   1      34.848  30.704  28.583  1.00  0.00     0.014 A 
ATOM     36  C   UNL A   1      37.205  32.190  28.753  1.00  0.00     0.010 A 
ATOM     37  C   UNL A   1      35.961  30.166  29.218  1.00  0.00     0.010 A 
ATOM     38  C   UNL A   1      37.154  30.899  29.305  1.00  0.00    -0.014 A 
BRANCH  38  39
ATOM     39  C   UNL A   1      38.333  30.300  29.984  1.00  0.00     0.031 A 
ATOM     40  C   UNL A   1      38.699  30.728  31.380  1.00  0.00     0.074 A 
ATOM     41  C   UNL A   1      39.123  29.436  29.315  1.00  0.00     0.049 A 
ATOM     42  N   UNL A   1      39.722  30.369  32.111  1.00  0.00    -0.248 NA
ATOM     43  C   UNL A   1      37.816  31.713  32.030  1.00  0.00     0.031 C 
ATOM     44  C   UNL A   1      38.922  29.001  27.931  1.00  0.00     0.029 A 
ATOM     45  N   UNL A   1      40.270  28.787  29.701  1.00  0.00    -0.354 N 
ATOM     46  C   UNL A   1      39.626  31.104  33.287  1.00  0.00     0.074 A 
ATOM     47  C   UNL A   1      38.468  31.960  33.157  1.00  0.00     0.031 C 
ATOM     48  C   UNL A   1      39.906  28.153  27.587  1.00  0.00     0.029 A 
ATOM     49  C   UNL A   1      40.826  28.011  28.710  1.00  0.00     0.049 A 
ATOM     50  H   UNL A   1      40.659  28.871  30.601  1.00  0.00     0.167 HD
ATOM     51  C   UNL A   1      40.411  31.050  34.389  1.00  0.00     0.034 A 
ATOM     52  C   UNL A   1      41.956  27.277  28.703  1.00  0.00     0.034 A 
ATOM     53  C   UNL A   1      41.538  30.169  34.532  1.00  0.00     0.049 A 
ATOM     54  C   UNL A   1      42.796  27.214  29.951  1.00  0.00     0.074 A 
ATOM     55  C   UNL A   1      42.344  29.978  35.639  1.00  0.00     0.029 A 
ATOM     56  N   UNL A   1      42.024  29.338  33.535  1.00  0.00    -0.354 N 
ATOM     57  N   UNL A   1      42.599  27.798  31.109  1.00  0.00    -0.248 NA
ATOM     58  C   UNL A   1      43.993  26.363  29.905  1.00  0.00     0.031 C 
ATOM     59  C   UNL A   1      43.338  29.055  35.302  1.00  0.00     0.029 A 
ATOM     60  C   UNL A   1      43.127  28.641  33.996  1.00  0.00     0.049 A 
ATOM     61  H   UNL A   1      41.641  29.255  32.631  1.00  0.00     0.167 HD
ATOM     62  C   UNL A   1      43.623  27.356  31.938  1.00  0.00     0.074 A 
ATOM     63  C   UNL A   1      44.425  26.437  31.156  1.00  0.00     0.031 C 
ATOM     64  C   UNL A   1      43.885  27.689  33.226  1.00  0.00     0.034 A 
BRANCH  51  65
ATOM     65  C   UNL A   1      40.047  31.935  35.554  1.00  0.00     0.023 A 
ATOM     66  C   UNL A   1      40.664  33.195  35.691  1.00  0.00     0.012 A 
ATOM     67  C   UNL A   1      39.051  31.551  36.472  1.00  0.00     0.148 A 
ATOM     68  C   UNL A   1      40.323  34.044  36.743  1.00  0.00     0.002 A 
ATOM     69  C   UNL A   1      38.682  32.422  37.491  1.00  0.00     0.091 A 
ATOM     70  F   UNL A   1      38.488  30.342  36.337  1.00  0.00    -0.205 F 
ATOM     71  C   UNL A   1      39.325  33.663  37.635  1.00  0.00     0.022 A 
BRANCH  69  72
ATOM     72  S   UNL A   1      37.352  32.062  38.643  1.00  0.00     0.127 S 
ATOM     73  O   UNL A   1      37.934  32.502  39.910  1.00  0.00    -0.237 OA
ATOM     74  O   UNL A   1      36.272  32.912  38.140  1.00  0.00    -0.237 OA
ATOM     75  O   UNL A   1      37.102  30.632  38.536  1.00  0.00    -0.744 OA
ENDBRANCH  69  72
ENDBRANCH  51  65
BRANCH  52  76
ATOM     76  C   UNL A   1      42.337  26.494  27.491  1.00  0.00     0.023 A 
ATOM     77  C   UNL A   1      43.024  27.134  26.441  1.00  0.00     0.012 A 
ATOM     78  C   UNL A   1      42.030  25.125  27.376  1.00  0.00     0.148 A 
ATOM     79  C   UNL A   1      43.361  26.436  25.281  1.00  0.00     0.002 A 
ATOM     80  C   UNL A   1      42.419  24.421  26.243  1.00  0.00     0.091 A 
ATOM     81  F   UNL A   1      41.366  24.537  28.381  1.00  0.00    -0.205 F 
ATOM     82  C   UNL A   1      43.067  25.078  25.186  1.00  0.00     0.022 A 
BRANCH  80  83
ATOM     83  S   UNL A   1      42.197  22.646  26.088  1.00  0.00     0.127 S 
ATOM     84  O   UNL A   1      42.873  22.370  24.824  1.00  0.00    -0.237 OA
ATOM     85  O   UNL A   1      42.888  22.150  27.279  1.00  0.00    -0.237 OA
ATOM     86  O   UNL A   1      40.756  22.429  26.097  1.00  0.00    -0.744 OA
ENDBRANCH  80  83
ENDBRANCH  52  76
BRANCH  64  87
ATOM     87  C   UNL A   1      45.060  27.026  33.896  1.00  0.00     0.023 A 
ATOM     88  C   UNL A   1      44.883  25.816  34.594  1.00  0.00     0.012 A 
ATOM     89  C   UNL A   1      46.354  27.569  33.768  1.00  0.00     0.148 A 
ATOM     90  C   UNL A   1      45.971  25.176  35.188  1.00  0.00     0.002 A 
ATOM     91  C   UNL A   1      47.440  26.897  34.316  1.00  0.00     0.091 A 
ATOM     92  F   UNL A   1      46.499  28.730  33.114  1.00  0.00    -0.205 F 
ATOM     93  C   UNL A   1      47.249  25.708  35.039  1.00  0.00     0.022 A 
BRANCH  91  94
ATOM     94  S   UNL A   1      49.133  27.455  34.089  1.00  0.00     0.127 S 
ATOM     95  O   UNL A   1      49.863  26.565  34.991  1.00  0.00    -0.237 OA
ATOM     96  O   UNL A   1      49.355  27.197  32.666  1.00  0.00    -0.237 OA
ATOM     97  O   UNL A   1      49.146  28.864  34.458  1.00  0.00    -0.744 OA
ENDBRANCH  91  94
ENDBRANCH  64  87
ENDBRANCH  38  39
ENDBRANCH  30  33
ENDBRANCH  28  29
ENDBRANCH  27  28
ENDBRANCH   1  27
TORSDOF 19
ENDMDL
MODEL 3
REMARK VINA RESULT:     -10.7      3.186      8.089
REMARK SMILES CCCC[C@H](C(=O)NCCCCNC(=O)c1ccc(-c2c3nc(c(-c4cccc(S(=O)(=O)[O-])c4F)c4ccc([nH]4)c(-c4cccc(S(=O)(=O)[O-])c4F)c4nc(c(-c5cccc(S(=O)(=O)[O-])c5F)c5ccc2[nH]5)C=C4)C=C3)cc1)N1C(=O)/C(=C/c2ccc(C)cc2)SC1=S
REMARK SMILES IDX 10 1 9 2 8 3 6 4 7 5 5 7 4 8 3 9 2 10 1 11 79 12 80 13 92 14
REMARK SMILES IDX 81 15 82 16 91 17 93 18 83 19 84 20 85 21 90 22 86 23 89 24
REMARK SMILES IDX 87 25 88 26 11 27 12 28 13 29 14 30 15 32 16 33 17 34 78 35
REMARK SMILES IDX 18 36 77 37 19 38 20 39 21 40 71 41 22 42 76 43 70 44 72 45
REMARK SMILES IDX 23 46 75 47 69 48 68 49 24 51 56 52 36 53 55 54 37 55 40 56
REMARK SMILES IDX 54 57 73 58 38 59 39 60 53 62 74 63 41 64 25 65 26 66 34 67
REMARK SMILES IDX 27 68 29 69 35 70 28 71 30 72 31 73 32 74 33 75 57 76 58 77
REMARK SMILES IDX 66 78 59 79 61 80 67 81 60 82 62 83 63 84 64 85 65 86 42 87
REMARK SMILES IDX 43 88 51 89 44 90 46 91 52 92 45 93 47 94 48 95 49 96 50 97
REMARK H PARENT 8 6 13 31 72 50 40 61
REMARK Flexibility Score: inf
ROOT
ATOM      1  C   UNL A   1      34.728  29.691  27.194  1.00  0.00     0.023 C 
ENDROOT
BRANCH   1   2
ATOM      2  C   UNL A   1      34.026  28.692  26.282  1.00  0.00     0.116 C 
BRANCH   2   3
ATOM      3  N   UNL A   1      34.299  28.929  24.874  1.00  0.00    -0.354 N 
ATOM      4  C   UNL A   1      33.534  28.712  23.765  1.00  0.00     0.243 C 
ATOM      5  O   UNL A   1      34.030  28.993  22.671  1.00  0.00    -0.273 OA
ATOM      6  H   UNL A   1      35.187  29.313  24.688  1.00  0.00     0.163 HD
BRANCH   4   7
ATOM      7  C   UNL A   1      32.130  28.082  23.872  1.00  0.00     0.181 C 
BRANCH   7   8
ATOM      8  C   UNL A   1      31.316  28.320  22.579  1.00  0.00     0.036 C 
BRANCH   8   9
ATOM      9  C   UNL A   1      29.790  28.191  22.704  1.00  0.00     0.002 C 
BRANCH   9  10
ATOM     10  C   UNL A   1      28.943  29.444  22.503  1.00  0.00    -0.003 C 
ATOM     11  C   UNL A   1      29.208  30.564  23.492  1.00  0.00     0.004 C 
ENDBRANCH   9  10
ENDBRANCH   8   9
ENDBRANCH   7   8
BRANCH   7  12
ATOM     12  N   UNL A   1      32.373  26.648  24.207  1.00  0.00    -0.280 N 
ATOM     13  C   UNL A   1      33.115  25.812  23.377  1.00  0.00     0.266 C 
ATOM     14  C   UNL A   1      31.958  26.080  25.400  1.00  0.00     0.149 C 
ATOM     15  O   UNL A   1      33.603  26.078  22.293  1.00  0.00    -0.268 OA
ATOM     16  C   UNL A   1      33.163  24.436  23.952  1.00  0.00     0.081 C 
ATOM     17  S   UNL A   1      32.612  24.463  25.572  1.00  0.00    -0.054 SA
ATOM     18  S   UNL A   1      30.932  26.698  26.560  1.00  0.00    -0.052 S 
ATOM     19  C   UNL A   1      33.521  23.367  23.226  1.00  0.00     0.029 C 
BRANCH  19  20
ATOM     20  C   UNL A   1      33.523  21.971  23.687  1.00  0.00    -0.024 A 
ATOM     21  C   UNL A   1      32.449  21.141  23.353  1.00  0.00     0.008 A 
ATOM     22  C   UNL A   1      34.558  21.451  24.474  1.00  0.00     0.008 A 
ATOM     23  C   UNL A   1      32.439  19.801  23.752  1.00  0.00     0.004 A 
ATOM     24  C   UNL A   1      34.555  20.109  24.863  1.00  0.00     0.004 A 
ATOM     25  C   UNL A   1      33.500  19.271  24.496  1.00  0.00    -0.051 A 
ATOM     26  C   UNL A   1      33.493  17.824  24.889  1.00  0.00     0.044 C 
ENDBRANCH  19  20
ENDBRANCH   7  12
ENDBRANCH   4   7
ENDBRANCH   2   3
ENDBRANCH   1   2
BRANCH   1  27
ATOM     27  C   UNL A   1      33.943  30.970  27.472  1.00  0.00     0.023 C 
BRANCH  27  28
ATOM     28  C   UNL A   1      34.775  32.148  27.964  1.00  0.00     0.116 C 
BRANCH  28  29
ATOM     29  N   UNL A   1      34.366  32.625  29.278  1.00  0.00    -0.352 N 
ATOM     30  C   UNL A   1      34.931  32.373  30.506  1.00  0.00     0.251 C 
ATOM     31  H   UNL A   1      33.574  33.209  29.288  1.00  0.00     0.163 HD
ATOM     32  O   UNL A   1      34.364  32.742  31.530  1.00  0.00    -0.269 OA
BRANCH  30  33
ATOM     33  C   UNL A   1      36.208  31.633  30.584  1.00  0.00     0.039 A 
ATOM     34  C   UNL A   1      37.380  32.253  30.146  1.00  0.00     0.014 A 
ATOM     35  C   UNL A   1      36.250  30.345  31.125  1.00  0.00     0.014 A 
ATOM     36  C   UNL A   1      38.607  31.607  30.319  1.00  0.00     0.010 A 
ATOM     37  C   UNL A   1      37.478  29.745  31.380  1.00  0.00     0.010 A 
ATOM     38  C   UNL A   1      38.670  30.365  30.975  1.00  0.00    -0.014 A 
BRANCH  38  39
ATOM     39  C   UNL A   1      39.971  29.703  31.254  1.00  0.00     0.031 A 
ATOM     40  C   UNL A   1      40.799  30.133  32.435  1.00  0.00     0.074 A 
ATOM     41  C   UNL A   1      40.447  28.776  30.398  1.00  0.00     0.049 A 
ATOM     42  N   UNL A   1      41.984  29.720  32.805  1.00  0.00    -0.248 NA
ATOM     43  C   UNL A   1      40.237  31.185  33.299  1.00  0.00     0.031 C 
ATOM     44  C   UNL A   1      39.778  28.329  29.174  1.00  0.00     0.029 A 
ATOM     45  N   UNL A   1      41.619  28.061  30.413  1.00  0.00    -0.354 N 
ATOM     46  C   UNL A   1      42.322  30.482  33.917  1.00  0.00     0.074 A 
ATOM     47  C   UNL A   1      41.236  31.410  34.140  1.00  0.00     0.031 C 
ATOM     48  C   UNL A   1      40.545  27.412  28.562  1.00  0.00     0.029 A 
ATOM     49  C   UNL A   1      41.774  27.231  29.326  1.00  0.00     0.049 A 
ATOM     50  H   UNL A   1      42.286  28.136  31.132  1.00  0.00     0.167 HD
ATOM     51  C   UNL A   1      43.422  30.397  34.703  1.00  0.00     0.034 A 
ATOM     52  C   UNL A   1      42.795  26.424  28.978  1.00  0.00     0.034 A 
ATOM     53  C   UNL A   1      44.482  29.446  34.505  1.00  0.00     0.049 A 
ATOM     54  C   UNL A   1      43.994  26.329  29.885  1.00  0.00     0.074 A 
ATOM     55  C   UNL A   1      45.596  29.224  35.293  1.00  0.00     0.029 A 
ATOM     56  N   UNL A   1      44.565  28.566  33.436  1.00  0.00    -0.354 N 
ATOM     57  N   UNL A   1      44.222  26.946  31.019  1.00  0.00    -0.248 NA
ATOM     58  C   UNL A   1      45.059  25.400  29.482  1.00  0.00     0.031 C 
ATOM     59  C   UNL A   1      46.369  28.230  34.686  1.00  0.00     0.029 A 
ATOM     60  C   UNL A   1      45.718  27.807  33.539  1.00  0.00     0.049 A 
ATOM     61  H   UNL A   1      43.902  28.492  32.712  1.00  0.00     0.167 HD
ATOM     62  C   UNL A   1      45.435  26.453  31.484  1.00  0.00     0.074 A 
ATOM     63  C   UNL A   1      45.883  25.468  30.520  1.00  0.00     0.031 C 
ATOM     64  C   UNL A   1      46.125  26.793  32.602  1.00  0.00     0.034 A 
BRANCH  51  65
ATOM     65  C   UNL A   1      43.512  31.326  35.887  1.00  0.00     0.023 A 
ATOM     66  C   UNL A   1      42.940  30.944  37.118  1.00  0.00     0.012 A 
ATOM     67  C   UNL A   1      44.214  32.543  35.801  1.00  0.00     0.148 A 
ATOM     68  C   UNL A   1      43.035  31.773  38.235  1.00  0.00     0.002 A 
ATOM     69  C   UNL A   1      44.346  33.342  36.931  1.00  0.00     0.091 A 
ATOM     70  F   UNL A   1      44.735  32.899  34.618  1.00  0.00    -0.205 F 
ATOM     71  C   UNL A   1      43.747  32.965  38.144  1.00  0.00     0.022 A 
BRANCH  69  72
ATOM     72  S   UNL A   1      45.312  34.857  36.943  1.00  0.00     0.127 S 
ATOM     73  O   UNL A   1      44.590  35.674  35.968  1.00  0.00    -0.237 OA
ATOM     74  O   UNL A   1      45.172  35.298  38.332  1.00  0.00    -0.237 OA
ATOM     75  O   UNL A   1      46.663  34.476  36.557  1.00  0.00    -0.744 OA
ENDBRANCH  69  72
ENDBRANCH  51  65
BRANCH  52  76
ATOM     76  C   UNL A   1      42.711  25.595  27.741  1.00  0.00     0.023 A 
ATOM     77  C   UNL A   1      43.140  26.137  26.513  1.00  0.00     0.012 A 
ATOM     78  C   UNL A   1      42.218  24.277  27.773  1.00  0.00     0.148 A 
ATOM     79  C   UNL A   1      43.040  25.398  25.334  1.00  0.00     0.002 A 
ATOM     80  C   UNL A   1      42.174  23.525  26.605  1.00  0.00     0.091 A 
ATOM     81  F   UNL A   1      41.804  23.782  28.949  1.00  0.00    -0.205 F 
ATOM     82  C   UNL A   1      42.565  24.089  25.381  1.00  0.00     0.022 A 
BRANCH  80  83
ATOM     83  S   UNL A   1      41.700  21.793  26.591  1.00  0.00     0.127 S 
ATOM     84  O   UNL A   1      42.314  21.305  27.823  1.00  0.00    -0.237 OA
ATOM     85  O   UNL A   1      40.240  21.879  26.622  1.00  0.00    -0.237 OA
ATOM     86  O   UNL A   1      42.243  21.248  25.353  1.00  0.00    -0.744 OA
ENDBRANCH  80  83
ENDBRANCH  52  76
BRANCH  64  87
ATOM     87  C   UNL A   1      47.416  26.066  32.875  1.00  0.00     0.023 A 
ATOM     88  C   UNL A   1      48.626  26.555  32.344  1.00  0.00     0.012 A 
ATOM     89  C   UNL A   1      47.436  24.940  33.722  1.00  0.00     0.148 A 
ATOM     90  C   UNL A   1      49.831  25.910  32.621  1.00  0.00     0.002 A 
ATOM     91  C   UNL A   1      48.647  24.336  34.036  1.00  0.00     0.091 A 
ATOM     92  F   UNL A   1      46.272  24.482  34.204  1.00  0.00    -0.205 F 
ATOM     93  C   UNL A   1      49.844  24.811  33.475  1.00  0.00     0.022 A 
BRANCH  91  94
ATOM     94  S   UNL A   1      48.773  22.978  35.205  1.00  0.00     0.127 S 
ATOM     95  O   UNL A   1      48.227  23.580  36.420  1.00  0.00    -0.237 OA
ATOM     96  O   UNL A   1      47.918  21.962  34.591  1.00  0.00    -0.237 OA
ATOM     97  O   UNL A   1      50.185  22.625  35.262  1.00  0.00    -0.744 OA
ENDBRANCH  91  94
ENDBRANCH  64  87
ENDBRANCH  38  39
ENDBRANCH  30  33
ENDBRANCH  28  29
ENDBRANCH  27  28
ENDBRANCH   1  27
TORSDOF 19
ENDMDL
