MODEL 1
REMARK VINA RESULT:     -12.7      0.000      0.000
REMARK SMILES CN1C(=O)/C(=C/c2ccc(OCC(=O)NCCCCNC(=O)c3ccc(-c4c5nc(c(-c6cccc(S(=O)(=O)[O-])c6F)c6ccc([nH]6)c(-c6cccc(S(=O)(=O)[O-])c6F)c6nc(c(-c7cccc(S(=O)(=O)[O-])c7F)c7ccc4[nH]7)C=C6)C=C5)cc3)c(Br)c2)C(=O)NC1=S
REMARK SMILES IDX 17 1 16 2 15 3 13 4 14 5 12 7 11 8 10 9 7 10 8 11 88 12 9 13
REMARK SMILES IDX 86 14 87 15 6 16 1 17 2 18 3 19 92 20 4 21 5 22 91 23 93 24
REMARK SMILES IDX 89 25 90 27 18 28 19 29 20 30 21 31 22 33 23 34 24 35 85 36
REMARK SMILES IDX 25 37 84 38 26 39 27 40 28 41 78 42 29 43 83 44 77 45 79 46
REMARK SMILES IDX 30 47 82 48 76 49 75 50 31 52 63 53 43 54 62 55 44 56 47 57
REMARK SMILES IDX 61 58 80 59 45 60 46 61 60 63 81 64 48 65 32 66 33 67 41 68
REMARK SMILES IDX 34 69 36 70 42 71 35 72 37 73 38 74 39 75 40 76 64 77 65 78
REMARK SMILES IDX 73 79 66 80 68 81 74 82 67 83 69 84 70 85 71 86 72 87 49 88
REMARK SMILES IDX 50 89 58 90 51 91 53 92 59 93 52 94 54 95 55 96 56 97 57 98
REMARK H PARENT 15 6 91 26 20 32 79 51 47 62
REMARK Flexibility Score: inf
ROOT
ATOM      1  C   UNL A   1      35.255  21.722  26.105  1.00  0.00     0.023 C 
ENDROOT
BRANCH   1   2
ATOM      2  C   UNL A   1      34.064  20.782  26.268  1.00  0.00     0.116 C 
BRANCH   2   3
ATOM      3  N   UNL A   1      34.193  19.578  25.473  1.00  0.00    -0.353 N 
ATOM      4  C   UNL A   1      33.402  19.142  24.449  1.00  0.00     0.257 C 
ATOM      5  O   UNL A   1      33.755  18.143  23.819  1.00  0.00    -0.271 OA
ATOM      6  H   UNL A   1      34.953  18.996  25.702  1.00  0.00     0.163 HD
BRANCH   4   7
ATOM      7  C   UNL A   1      32.154  19.944  24.062  1.00  0.00     0.329 C 
BRANCH   7   8
ATOM      8  O   UNL A   1      32.258  20.970  23.095  1.00  0.00    -0.483 OA
BRANCH   8   9
ATOM      9  C   UNL A   1      32.494  22.262  23.470  1.00  0.00     0.134 A 
ATOM     10  C   UNL A   1      33.123  25.003  23.761  1.00  0.00    -0.023 A 
ATOM     11  C   UNL A   1      33.645  24.288  22.692  1.00  0.00     0.012 A 
ATOM     12  C   UNL A   1      32.311  24.345  24.693  1.00  0.00     0.027 A 
ATOM     13  C   UNL A   1      33.324  22.933  22.552  1.00  0.00     0.048 A 
ATOM     14  C   UNL A   1      31.969  22.992  24.541  1.00  0.00     0.060 A 
ATOM     15  Br  UNL A   1      30.653  22.383  25.767  1.00  0.00    -0.047 Br
BRANCH  10  16
ATOM     16  C   UNL A   1      33.282  26.452  23.911  1.00  0.00     0.027 C 
ATOM     17  C   UNL A   1      31.030  30.461  24.921  1.00  0.00     0.156 C 
ATOM     18  N   UNL A   1      31.166  29.320  24.018  1.00  0.00    -0.288 N 
ATOM     19  C   UNL A   1      32.419  28.698  24.000  1.00  0.00     0.265 C 
ATOM     20  C   UNL A   1      30.099  28.923  23.219  1.00  0.00     0.182 C 
ATOM     21  O   UNL A   1      33.433  29.181  24.498  1.00  0.00    -0.268 OA
ATOM     22  C   UNL A   1      32.432  27.352  23.376  1.00  0.00     0.106 C 
ATOM     23  N   UNL A   1      30.305  27.837  22.414  1.00  0.00    -0.298 N 
ATOM     24  S   UNL A   1      28.592  29.656  23.119  1.00  0.00    -0.040 S 
ATOM     25  C   UNL A   1      31.401  27.024  22.375  1.00  0.00     0.263 C 
ATOM     26  H   UNL A   1      29.577  27.614  21.790  1.00  0.00     0.172 HD
ATOM     27  O   UNL A   1      31.488  26.132  21.540  1.00  0.00    -0.269 OA
ENDBRANCH  10  16
ENDBRANCH   8   9
ENDBRANCH   7   8
ENDBRANCH   4   7
ENDBRANCH   2   3
ENDBRANCH   1   2
BRANCH   1  28
ATOM     28  C   UNL A   1      35.924  21.708  24.728  1.00  0.00     0.023 C 
BRANCH  28  29
ATOM     29  C   UNL A   1      37.427  21.968  24.713  1.00  0.00     0.116 C 
BRANCH  29  30
ATOM     30  N   UNL A   1      38.205  20.866  25.260  1.00  0.00    -0.352 N 
ATOM     31  C   UNL A   1      39.287  20.899  26.110  1.00  0.00     0.251 C 
ATOM     32  H   UNL A   1      37.916  19.967  24.980  1.00  0.00     0.163 HD
ATOM     33  O   UNL A   1      39.881  19.859  26.380  1.00  0.00    -0.269 OA
BRANCH  31  34
ATOM     34  C   UNL A   1      39.757  22.186  26.669  1.00  0.00     0.039 A 
ATOM     35  C   UNL A   1      40.807  22.173  27.591  1.00  0.00     0.014 A 
ATOM     36  C   UNL A   1      39.185  23.399  26.275  1.00  0.00     0.014 A 
ATOM     37  C   UNL A   1      41.344  23.379  28.051  1.00  0.00     0.010 A 
ATOM     38  C   UNL A   1      39.759  24.600  26.689  1.00  0.00     0.010 A 
ATOM     39  C   UNL A   1      40.854  24.602  27.566  1.00  0.00    -0.014 A 
BRANCH  39  40
ATOM     40  C   UNL A   1      41.512  25.891  27.907  1.00  0.00     0.031 A 
ATOM     41  C   UNL A   1      40.742  26.989  28.585  1.00  0.00     0.074 A 
ATOM     42  C   UNL A   1      42.776  26.113  27.492  1.00  0.00     0.049 A 
ATOM     43  N   UNL A   1      41.122  28.210  28.863  1.00  0.00    -0.248 NA
ATOM     44  C   UNL A   1      39.359  26.684  28.984  1.00  0.00     0.031 C 
ATOM     45  C   UNL A   1      43.605  25.156  26.758  1.00  0.00     0.029 A 
ATOM     46  N   UNL A   1      43.571  27.229  27.596  1.00  0.00    -0.354 N 
ATOM     47  C   UNL A   1      40.019  28.830  29.436  1.00  0.00     0.074 A 
ATOM     48  C   UNL A   1      38.947  27.857  29.447  1.00  0.00     0.031 C 
ATOM     49  C   UNL A   1      44.784  25.727  26.466  1.00  0.00     0.029 A 
ATOM     50  C   UNL A   1      44.787  27.098  26.965  1.00  0.00     0.049 A 
ATOM     51  H   UNL A   1      43.297  28.043  28.075  1.00  0.00     0.167 HD
ATOM     52  C   UNL A   1      39.915  30.086  29.932  1.00  0.00     0.034 A 
ATOM     53  C   UNL A   1      45.785  27.986  26.789  1.00  0.00     0.034 A 
ATOM     54  C   UNL A   1      40.995  31.037  29.964  1.00  0.00     0.049 A 
ATOM     55  C   UNL A   1      45.650  29.368  27.367  1.00  0.00     0.074 A 
ATOM     56  C   UNL A   1      41.017  32.293  30.545  1.00  0.00     0.029 A 
ATOM     57  N   UNL A   1      42.238  30.844  29.383  1.00  0.00    -0.354 N 
ATOM     58  N   UNL A   1      44.662  29.878  28.061  1.00  0.00    -0.248 NA
ATOM     59  C   UNL A   1      46.779  30.288  27.163  1.00  0.00     0.031 C 
ATOM     60  C   UNL A   1      42.270  32.866  30.301  1.00  0.00     0.029 A 
ATOM     61  C   UNL A   1      43.030  31.964  29.575  1.00  0.00     0.049 A 
ATOM     62  H   UNL A   1      42.517  30.030  28.904  1.00  0.00     0.167 HD
ATOM     63  C   UNL A   1      45.056  31.169  28.393  1.00  0.00     0.074 A 
ATOM     64  C   UNL A   1      46.385  31.354  27.848  1.00  0.00     0.031 C 
ATOM     65  C   UNL A   1      44.368  32.123  29.067  1.00  0.00     0.034 A 
BRANCH  52  66
ATOM     66  C   UNL A   1      38.601  30.488  30.546  1.00  0.00     0.023 A 
ATOM     67  C   UNL A   1      38.369  30.222  31.911  1.00  0.00     0.012 A 
ATOM     68  C   UNL A   1      37.629  31.183  29.801  1.00  0.00     0.148 A 
ATOM     69  C   UNL A   1      37.179  30.617  32.519  1.00  0.00     0.002 A 
ATOM     70  C   UNL A   1      36.458  31.605  30.424  1.00  0.00     0.091 A 
ATOM     71  F   UNL A   1      37.857  31.406  28.499  1.00  0.00    -0.205 F 
ATOM     72  C   UNL A   1      36.230  31.316  31.780  1.00  0.00     0.022 A 
BRANCH  70  73
ATOM     73  S   UNL A   1      35.206  32.572  29.573  1.00  0.00     0.127 S 
ATOM     74  O   UNL A   1      34.684  31.599  28.615  1.00  0.00    -0.237 OA
ATOM     75  O   UNL A   1      34.285  32.913  30.658  1.00  0.00    -0.237 OA
ATOM     76  O   UNL A   1      35.906  33.710  28.995  1.00  0.00    -0.744 OA
ENDBRANCH  70  73
ENDBRANCH  52  66
BRANCH  53  77
ATOM     77  C   UNL A   1      47.026  27.573  26.076  1.00  0.00     0.023 A 
ATOM     78  C   UNL A   1      48.032  26.892  26.789  1.00  0.00     0.012 A 
ATOM     79  C   UNL A   1      47.199  27.810  24.699  1.00  0.00     0.148 A 
ATOM     80  C   UNL A   1      49.199  26.475  26.147  1.00  0.00     0.002 A 
ATOM     81  C   UNL A   1      48.341  27.347  24.055  1.00  0.00     0.091 A 
ATOM     82  F   UNL A   1      46.240  28.478  24.043  1.00  0.00    -0.205 F 
ATOM     83  C   UNL A   1      49.349  26.691  24.780  1.00  0.00     0.022 A 
BRANCH  81  84
ATOM     84  S   UNL A   1      48.547  27.463  22.274  1.00  0.00     0.127 S 
ATOM     85  O   UNL A   1      47.339  28.183  21.880  1.00  0.00    -0.237 OA
ATOM     86  O   UNL A   1      49.789  28.230  22.158  1.00  0.00    -0.237 OA
ATOM     87  O   UNL A   1      48.652  26.087  21.807  1.00  0.00    -0.744 OA
ENDBRANCH  81  84
ENDBRANCH  53  77
BRANCH  65  88
ATOM     88  C   UNL A   1      45.037  33.458  29.260  1.00  0.00     0.023 A 
ATOM     89  C   UNL A   1      45.871  33.655  30.378  1.00  0.00     0.012 A 
ATOM     90  C   UNL A   1      44.902  34.486  28.307  1.00  0.00     0.148 A 
ATOM     91  C   UNL A   1      46.542  34.865  30.558  1.00  0.00     0.002 A 
ATOM     92  C   UNL A   1      45.606  35.675  28.472  1.00  0.00     0.091 A 
ATOM     93  F   UNL A   1      44.087  34.287  27.261  1.00  0.00    -0.205 F 
ATOM     94  C   UNL A   1      46.419  35.868  29.601  1.00  0.00     0.022 A 
BRANCH  92  95
ATOM     95  S   UNL A   1      45.575  36.989  27.247  1.00  0.00     0.127 S 
ATOM     96  O   UNL A   1      44.144  37.107  26.973  1.00  0.00    -0.237 OA
ATOM     97  O   UNL A   1      46.151  38.115  27.982  1.00  0.00    -0.237 OA
ATOM     98  O   UNL A   1      46.390  36.517  26.135  1.00  0.00    -0.744 OA
ENDBRANCH  92  95
ENDBRANCH  65  88
ENDBRANCH  39  40
ENDBRANCH  31  34
ENDBRANCH  29  30
ENDBRANCH  28  29
ENDBRANCH   1  28
TORSDOF 17
ENDMDL
MODEL 2
REMARK VINA RESULT:     -12.7      2.196      7.829
REMARK SMILES CN1C(=O)/C(=C/c2ccc(OCC(=O)NCCCCNC(=O)c3ccc(-c4c5nc(c(-c6cccc(S(=O)(=O)[O-])c6F)c6ccc([nH]6)c(-c6cccc(S(=O)(=O)[O-])c6F)c6nc(c(-c7cccc(S(=O)(=O)[O-])c7F)c7ccc4[nH]7)C=C6)C=C5)cc3)c(Br)c2)C(=O)NC1=S
REMARK SMILES IDX 17 1 16 2 15 3 13 4 14 5 12 7 11 8 10 9 7 10 8 11 88 12 9 13
REMARK SMILES IDX 86 14 87 15 6 16 1 17 2 18 3 19 92 20 4 21 5 22 91 23 93 24
REMARK SMILES IDX 89 25 90 27 18 28 19 29 20 30 21 31 22 33 23 34 24 35 85 36
REMARK SMILES IDX 25 37 84 38 26 39 27 40 28 41 78 42 29 43 83 44 77 45 79 46
REMARK SMILES IDX 30 47 82 48 76 49 75 50 31 52 63 53 43 54 62 55 44 56 47 57
REMARK SMILES IDX 61 58 80 59 45 60 46 61 60 63 81 64 48 65 32 66 33 67 41 68
REMARK SMILES IDX 34 69 36 70 42 71 35 72 37 73 38 74 39 75 40 76 64 77 65 78
REMARK SMILES IDX 73 79 66 80 68 81 74 82 67 83 69 84 70 85 71 86 72 87 49 88
REMARK SMILES IDX 50 89 58 90 51 91 53 92 59 93 52 94 54 95 55 96 56 97 57 98
REMARK H PARENT 15 6 91 26 20 32 79 51 47 62
REMARK Flexibility Score: inf
ROOT
ATOM      1  C   UNL A   1      37.348  21.091  24.797  1.00  0.00     0.023 C 
ENDROOT
BRANCH   1   2
ATOM      2  C   UNL A   1      35.966  20.883  25.408  1.00  0.00     0.116 C 
BRANCH   2   3
ATOM      3  N   UNL A   1      35.314  19.687  24.915  1.00  0.00    -0.353 N 
ATOM      4  C   UNL A   1      33.978  19.427  24.803  1.00  0.00     0.257 C 
ATOM      5  O   UNL A   1      33.628  18.387  24.242  1.00  0.00    -0.271 OA
ATOM      6  H   UNL A   1      35.915  18.964  24.622  1.00  0.00     0.163 HD
BRANCH   4   7
ATOM      7  C   UNL A   1      32.961  20.463  25.295  1.00  0.00     0.329 C 
BRANCH   7   8
ATOM      8  O   UNL A   1      32.652  21.578  24.482  1.00  0.00    -0.483 OA
BRANCH   8   9
ATOM      9  C   UNL A   1      32.841  22.851  24.940  1.00  0.00     0.134 A 
ATOM     10  C   UNL A   1      33.507  25.547  25.465  1.00  0.00    -0.023 A 
ATOM     11  C   UNL A   1      34.275  24.810  24.574  1.00  0.00     0.012 A 
ATOM     12  C   UNL A   1      32.427  24.931  26.109  1.00  0.00     0.027 A 
ATOM     13  C   UNL A   1      33.936  23.478  24.316  1.00  0.00     0.048 A 
ATOM     14  C   UNL A   1      32.069  23.603  25.832  1.00  0.00     0.060 A 
ATOM     15  Br  UNL A   1      30.425  23.064  26.614  1.00  0.00    -0.047 Br
BRANCH  10  16
ATOM     16  C   UNL A   1      33.695  26.983  25.689  1.00  0.00     0.027 C 
ATOM     17  C   UNL A   1      31.465  31.102  26.162  1.00  0.00     0.156 C 
ATOM     18  N   UNL A   1      31.780  29.965  25.300  1.00  0.00    -0.288 N 
ATOM     19  C   UNL A   1      32.957  29.273  25.602  1.00  0.00     0.265 C 
ATOM     20  C   UNL A   1      30.948  29.638  24.234  1.00  0.00     0.182 C 
ATOM     21  O   UNL A   1      33.823  29.693  26.366  1.00  0.00    -0.268 OA
ATOM     22  C   UNL A   1      33.068  27.936  24.970  1.00  0.00     0.106 C 
ATOM     23  N   UNL A   1      31.306  28.551  23.486  1.00  0.00    -0.298 N 
ATOM     24  S   UNL A   1      29.564  30.457  23.753  1.00  0.00    -0.040 S 
ATOM     25  C   UNL A   1      32.328  27.678  23.721  1.00  0.00     0.263 C 
ATOM     26  H   UNL A   1      30.763  28.377  22.684  1.00  0.00     0.172 HD
ATOM     27  O   UNL A   1      32.591  26.792  22.917  1.00  0.00    -0.269 OA
ENDBRANCH  10  16
ENDBRANCH   8   9
ENDBRANCH   7   8
ENDBRANCH   4   7
ENDBRANCH   2   3
ENDBRANCH   1   2
BRANCH   1  28
ATOM     28  C   UNL A   1      38.342  19.944  25.005  1.00  0.00     0.023 C 
BRANCH  28  29
ATOM     29  C   UNL A   1      39.507  20.233  25.946  1.00  0.00     0.116 C 
BRANCH  29  30
ATOM     30  N   UNL A   1      40.506  19.174  25.964  1.00  0.00    -0.352 N 
ATOM     31  C   UNL A   1      41.873  19.267  26.083  1.00  0.00     0.251 C 
ATOM     32  H   UNL A   1      40.152  18.260  25.876  1.00  0.00     0.163 HD
ATOM     33  O   UNL A   1      42.565  18.258  25.969  1.00  0.00    -0.269 OA
BRANCH  31  34
ATOM     34  C   UNL A   1      42.515  20.581  26.310  1.00  0.00     0.039 A 
ATOM     35  C   UNL A   1      42.962  21.310  25.203  1.00  0.00     0.014 A 
ATOM     36  C   UNL A   1      42.658  21.105  27.598  1.00  0.00     0.014 A 
ATOM     37  C   UNL A   1      43.469  22.600  25.380  1.00  0.00     0.010 A 
ATOM     38  C   UNL A   1      43.110  22.412  27.766  1.00  0.00     0.010 A 
ATOM     39  C   UNL A   1      43.503  23.179  26.659  1.00  0.00    -0.014 A 
BRANCH  39  40
ATOM     40  C   UNL A   1      43.880  24.604  26.855  1.00  0.00     0.031 A 
ATOM     41  C   UNL A   1      45.305  25.051  26.684  1.00  0.00     0.074 A 
ATOM     42  C   UNL A   1      42.953  25.472  27.308  1.00  0.00     0.049 A 
ATOM     43  N   UNL A   1      45.832  26.226  26.914  1.00  0.00    -0.248 NA
ATOM     44  C   UNL A   1      46.268  24.041  26.214  1.00  0.00     0.031 C 
ATOM     45  C   UNL A   1      41.553  25.145  27.586  1.00  0.00     0.029 A 
ATOM     46  N   UNL A   1      43.058  26.798  27.651  1.00  0.00    -0.354 N 
ATOM     47  C   UNL A   1      47.190  26.092  26.653  1.00  0.00     0.074 A 
ATOM     48  C   UNL A   1      47.410  24.714  26.265  1.00  0.00     0.031 C 
ATOM     49  C   UNL A   1      40.934  26.234  28.068  1.00  0.00     0.029 A 
ATOM     50  C   UNL A   1      41.895  27.328  28.162  1.00  0.00     0.049 A 
ATOM     51  H   UNL A   1      43.885  27.319  27.542  1.00  0.00     0.167 HD
ATOM     52  C   UNL A   1      48.161  27.035  26.704  1.00  0.00     0.034 A 
ATOM     53  C   UNL A   1      41.634  28.549  28.666  1.00  0.00     0.034 A 
ATOM     54  C   UNL A   1      47.933  28.415  27.042  1.00  0.00     0.049 A 
ATOM     55  C   UNL A   1      42.726  29.583  28.692  1.00  0.00     0.074 A 
ATOM     56  C   UNL A   1      48.832  29.466  27.014  1.00  0.00     0.029 A 
ATOM     57  N   UNL A   1      46.726  28.934  27.481  1.00  0.00    -0.354 N 
ATOM     58  N   UNL A   1      43.964  29.484  28.274  1.00  0.00    -0.248 NA
ATOM     59  C   UNL A   1      42.378  30.905  29.235  1.00  0.00     0.031 C 
ATOM     60  C   UNL A   1      48.172  30.619  27.452  1.00  0.00     0.029 A 
ATOM     61  C   UNL A   1      46.859  30.287  27.745  1.00  0.00     0.049 A 
ATOM     62  H   UNL A   1      45.895  28.417  27.590  1.00  0.00     0.167 HD
ATOM     63  C   UNL A   1      44.538  30.733  28.483  1.00  0.00     0.074 A 
ATOM     64  C   UNL A   1      43.503  31.581  29.039  1.00  0.00     0.031 C 
ATOM     65  C   UNL A   1      45.812  31.134  28.257  1.00  0.00     0.034 A 
BRANCH  52  66
ATOM     66  C   UNL A   1      49.556  26.622  26.319  1.00  0.00     0.023 A 
ATOM     67  C   UNL A   1      50.291  25.789  27.187  1.00  0.00     0.012 A 
ATOM     68  C   UNL A   1      50.114  26.999  25.082  1.00  0.00     0.148 A 
ATOM     69  C   UNL A   1      51.570  25.357  26.842  1.00  0.00     0.002 A 
ATOM     70  C   UNL A   1      51.378  26.534  24.730  1.00  0.00     0.091 A 
ATOM     71  F   UNL A   1      49.411  27.811  24.281  1.00  0.00    -0.205 F 
ATOM     72  C   UNL A   1      52.108  25.721  25.611  1.00  0.00     0.022 A 
BRANCH  70  73
ATOM     73  S   UNL A   1      52.128  26.893  23.138  1.00  0.00     0.127 S 
ATOM     74  O   UNL A   1      50.977  26.798  22.241  1.00  0.00    -0.237 OA
ATOM     75  O   UNL A   1      52.637  28.251  23.332  1.00  0.00    -0.237 OA
ATOM     76  O   UNL A   1      53.159  25.883  22.946  1.00  0.00    -0.744 OA
ENDBRANCH  70  73
ENDBRANCH  52  66
BRANCH  53  77
ATOM     77  C   UNL A   1      40.259  28.877  29.138  1.00  0.00     0.023 A 
ATOM     78  C   UNL A   1      39.274  29.226  28.193  1.00  0.00     0.012 A 
ATOM     79  C   UNL A   1      39.910  28.806  30.500  1.00  0.00     0.148 A 
ATOM     80  C   UNL A   1      37.972  29.521  28.599  1.00  0.00     0.002 A 
ATOM     81  C   UNL A   1      38.599  29.050  30.892  1.00  0.00     0.091 A 
ATOM     82  F   UNL A   1      40.866  28.492  31.386  1.00  0.00    -0.205 F 
ATOM     83  C   UNL A   1      37.632  29.422  29.945  1.00  0.00     0.022 A 
BRANCH  81  84
ATOM     84  S   UNL A   1      38.047  28.810  32.585  1.00  0.00     0.127 S 
ATOM     85  O   UNL A   1      38.971  29.667  33.325  1.00  0.00    -0.237 OA
ATOM     86  O   UNL A   1      36.667  29.294  32.530  1.00  0.00    -0.237 OA
ATOM     87  O   UNL A   1      38.168  27.379  32.832  1.00  0.00    -0.744 OA
ENDBRANCH  81  84
ENDBRANCH  53  77
BRANCH  65  88
ATOM     88  C   UNL A   1      46.169  32.554  28.608  1.00  0.00     0.023 A 
ATOM     89  C   UNL A   1      46.778  32.825  29.849  1.00  0.00     0.012 A 
ATOM     90  C   UNL A   1      45.972  33.603  27.689  1.00  0.00     0.148 A 
ATOM     91  C   UNL A   1      47.164  34.124  30.181  1.00  0.00     0.002 A 
ATOM     92  C   UNL A   1      46.396  34.889  28.011  1.00  0.00     0.091 A 
ATOM     93  F   UNL A   1      45.371  33.329  26.522  1.00  0.00    -0.205 F 
ATOM     94  C   UNL A   1      46.984  35.151  29.259  1.00  0.00     0.022 A 
BRANCH  92  95
ATOM     95  S   UNL A   1      46.282  36.257  26.852  1.00  0.00     0.127 S 
ATOM     96  O   UNL A   1      44.841  36.492  26.809  1.00  0.00    -0.237 OA
ATOM     97  O   UNL A   1      47.051  37.303  27.527  1.00  0.00    -0.237 OA
ATOM     98  O   UNL A   1      46.878  35.779  25.612  1.00  0.00    -0.744 OA
ENDBRANCH  92  95
ENDBRANCH  65  88
ENDBRANCH  39  40
ENDBRANCH  31  34
ENDBRANCH  29  30
ENDBRANCH  28  29
ENDBRANCH   1  28
TORSDOF 17
ENDMDL
MODEL 3
REMARK VINA RESULT:     -12.6      1.661      2.300
REMARK SMILES CN1C(=O)/C(=C/c2ccc(OCC(=O)NCCCCNC(=O)c3ccc(-c4c5nc(c(-c6cccc(S(=O)(=O)[O-])c6F)c6ccc([nH]6)c(-c6cccc(S(=O)(=O)[O-])c6F)c6nc(c(-c7cccc(S(=O)(=O)[O-])c7F)c7ccc4[nH]7)C=C6)C=C5)cc3)c(Br)c2)C(=O)NC1=S
REMARK SMILES IDX 17 1 16 2 15 3 13 4 14 5 12 7 11 8 10 9 7 10 8 11 88 12 9 13
REMARK SMILES IDX 86 14 87 15 6 16 1 17 2 18 3 19 92 20 4 21 5 22 91 23 93 24
REMARK SMILES IDX 89 25 90 27 18 28 19 29 20 30 21 31 22 33 23 34 24 35 85 36
REMARK SMILES IDX 25 37 84 38 26 39 27 40 28 41 78 42 29 43 83 44 77 45 79 46
REMARK SMILES IDX 30 47 82 48 76 49 75 50 31 52 63 53 43 54 62 55 44 56 47 57
REMARK SMILES IDX 61 58 80 59 45 60 46 61 60 63 81 64 48 65 32 66 33 67 41 68
REMARK SMILES IDX 34 69 36 70 42 71 35 72 37 73 38 74 39 75 40 76 64 77 65 78
REMARK SMILES IDX 73 79 66 80 68 81 74 82 67 83 69 84 70 85 71 86 72 87 49 88
REMARK SMILES IDX 50 89 58 90 51 91 53 92 59 93 52 94 54 95 55 96 56 97 57 98
REMARK H PARENT 15 6 91 26 20 32 79 51 47 62
REMARK Flexibility Score: inf
ROOT
ATOM      1  C   UNL A   1      36.448  20.924  25.528  1.00  0.00     0.023 C 
ENDROOT
BRANCH   1   2
ATOM      2  C   UNL A   1      35.254  20.880  24.580  1.00  0.00     0.116 C 
BRANCH   2   3
ATOM      3  N   UNL A   1      34.222  19.967  25.027  1.00  0.00    -0.353 N 
ATOM      4  C   UNL A   1      32.874  20.173  25.104  1.00  0.00     0.257 C 
ATOM      5  O   UNL A   1      32.150  19.221  25.401  1.00  0.00    -0.271 OA
ATOM      6  H   UNL A   1      34.534  19.079  25.315  1.00  0.00     0.163 HD
BRANCH   4   7
ATOM      7  C   UNL A   1      32.297  21.547  24.742  1.00  0.00     0.329 C 
BRANCH   7   8
ATOM      8  O   UNL A   1      31.975  22.461  25.772  1.00  0.00    -0.483 OA
BRANCH   8   9
ATOM      9  C   UNL A   1      32.026  23.808  25.552  1.00  0.00     0.134 A 
ATOM     10  C   UNL A   1      31.653  26.596  25.272  1.00  0.00    -0.023 A 
ATOM     11  C   UNL A   1      30.549  25.761  25.364  1.00  0.00     0.012 A 
ATOM     12  C   UNL A   1      32.937  26.037  25.296  1.00  0.00     0.027 A 
ATOM     13  C   UNL A   1      30.741  24.382  25.508  1.00  0.00     0.048 A 
ATOM     14  C   UNL A   1      33.133  24.658  25.464  1.00  0.00     0.060 A 
ATOM     15  Br  UNL A   1      34.946  24.160  25.731  1.00  0.00    -0.047 Br
BRANCH  10  16
ATOM     16  C   UNL A   1      31.555  28.058  25.267  1.00  0.00     0.027 C 
ATOM     17  C   UNL A   1      28.866  31.706  23.993  1.00  0.00     0.156 C 
ATOM     18  N   UNL A   1      29.650  30.548  23.569  1.00  0.00    -0.288 N 
ATOM     19  C   UNL A   1      30.659  30.137  24.445  1.00  0.00     0.265 C 
ATOM     20  C   UNL A   1      29.396  29.935  22.346  1.00  0.00     0.182 C 
ATOM     21  O   UNL A   1      31.062  30.807  25.393  1.00  0.00    -0.268 OA
ATOM     22  C   UNL A   1      31.187  28.775  24.186  1.00  0.00     0.106 C 
ATOM     23  N   UNL A   1      30.165  28.849  22.032  1.00  0.00    -0.298 N 
ATOM     24  S   UNL A   1      28.262  30.408  21.203  1.00  0.00    -0.040 S 
ATOM     25  C   UNL A   1      31.085  28.223  22.822  1.00  0.00     0.263 C 
ATOM     26  H   UNL A   1      30.039  28.473  21.132  1.00  0.00     0.172 HD
ATOM     27  O   UNL A   1      31.768  27.307  22.381  1.00  0.00    -0.269 OA
ENDBRANCH  10  16
ENDBRANCH   8   9
ENDBRANCH   7   8
ENDBRANCH   4   7
ENDBRANCH   2   3
ENDBRANCH   1   2
BRANCH   1  28
ATOM     28  C   UNL A   1      37.731  20.272  25.006  1.00  0.00     0.023 C 
BRANCH  28  29
ATOM     29  C   UNL A   1      39.014  20.633  25.748  1.00  0.00     0.116 C 
BRANCH  29  30
ATOM     30  N   UNL A   1      39.965  19.534  25.818  1.00  0.00    -0.352 N 
ATOM     31  C   UNL A   1      41.314  19.563  26.088  1.00  0.00     0.251 C 
ATOM     32  H   UNL A   1      39.589  18.640  25.647  1.00  0.00     0.163 HD
ATOM     33  O   UNL A   1      41.976  18.532  25.998  1.00  0.00    -0.269 OA
BRANCH  31  34
ATOM     34  C   UNL A   1      41.975  20.837  26.449  1.00  0.00     0.039 A 
ATOM     35  C   UNL A   1      42.328  21.723  25.427  1.00  0.00     0.014 A 
ATOM     36  C   UNL A   1      42.228  21.169  27.783  1.00  0.00     0.014 A 
ATOM     37  C   UNL A   1      42.852  22.979  25.746  1.00  0.00     0.010 A 
ATOM     38  C   UNL A   1      42.695  22.442  28.101  1.00  0.00     0.010 A 
ATOM     39  C   UNL A   1      42.995  23.366  27.089  1.00  0.00    -0.014 A 
BRANCH  39  40
ATOM     40  C   UNL A   1      43.390  24.751  27.459  1.00  0.00     0.031 A 
ATOM     41  C   UNL A   1      42.379  25.714  28.015  1.00  0.00     0.074 A 
ATOM     42  C   UNL A   1      44.638  25.175  27.177  1.00  0.00     0.049 A 
ATOM     43  N   UNL A   1      42.520  26.984  28.295  1.00  0.00    -0.248 NA
ATOM     44  C   UNL A   1      41.028  25.188  28.270  1.00  0.00     0.031 C 
ATOM     45  C   UNL A   1      45.691  24.360  26.567  1.00  0.00     0.029 A 
ATOM     46  N   UNL A   1      45.223  26.409  27.332  1.00  0.00    -0.354 N 
ATOM     47  C   UNL A   1      41.272  27.419  28.725  1.00  0.00     0.074 A 
ATOM     48  C   UNL A   1      40.380  26.281  28.650  1.00  0.00     0.031 C 
ATOM     49  C   UNL A   1      46.785  25.116  26.388  1.00  0.00     0.029 A 
ATOM     50  C   UNL A   1      46.507  26.475  26.841  1.00  0.00     0.049 A 
ATOM     51  H   UNL A   1      44.767  27.172  27.754  1.00  0.00     0.167 HD
ATOM     52  C   UNL A   1      40.909  28.646  29.168  1.00  0.00     0.034 A 
ATOM     53  C   UNL A   1      47.359  27.514  26.747  1.00  0.00     0.034 A 
ATOM     54  C   UNL A   1      41.808  29.764  29.287  1.00  0.00     0.049 A 
ATOM     55  C   UNL A   1      46.935  28.861  27.265  1.00  0.00     0.074 A 
ATOM     56  C   UNL A   1      41.557  31.013  29.828  1.00  0.00     0.029 A 
ATOM     57  N   UNL A   1      43.122  29.773  28.851  1.00  0.00    -0.354 N 
ATOM     58  N   UNL A   1      45.805  29.208  27.831  1.00  0.00    -0.248 NA
ATOM     59  C   UNL A   1      47.913  29.954  27.156  1.00  0.00     0.031 C 
ATOM     60  C   UNL A   1      42.719  31.784  29.704  1.00  0.00     0.029 A 
ATOM     61  C   UNL A   1      43.693  31.012  29.093  1.00  0.00     0.049 A 
ATOM     62  H   UNL A   1      43.584  29.012  28.431  1.00  0.00     0.167 HD
ATOM     63  C   UNL A   1      45.942  30.551  28.164  1.00  0.00     0.074 A 
ATOM     64  C   UNL A   1      47.276  30.948  27.761  1.00  0.00     0.031 C 
ATOM     65  C   UNL A   1      45.036  31.385  28.729  1.00  0.00     0.034 A 
BRANCH  52  66
ATOM     66  C   UNL A   1      39.486  28.831  29.623  1.00  0.00     0.023 A 
ATOM     67  C   UNL A   1      39.130  28.460  30.935  1.00  0.00     0.012 A 
ATOM     68  C   UNL A   1      38.523  29.429  28.786  1.00  0.00     0.148 A 
ATOM     69  C   UNL A   1      37.830  28.656  31.400  1.00  0.00     0.002 A 
ATOM     70  C   UNL A   1      37.238  29.652  29.269  1.00  0.00     0.091 A 
ATOM     71  F   UNL A   1      38.875  29.753  27.534  1.00  0.00    -0.205 F 
ATOM     72  C   UNL A   1      36.889  29.260  30.572  1.00  0.00     0.022 A 
BRANCH  70  73
ATOM     73  S   UNL A   1      35.975  30.486  28.302  1.00  0.00     0.127 S 
ATOM     74  O   UNL A   1      35.006  30.851  29.334  1.00  0.00    -0.237 OA
ATOM     75  O   UNL A   1      36.713  31.615  27.732  1.00  0.00    -0.237 OA
ATOM     76  O   UNL A   1      35.514  29.511  27.324  1.00  0.00    -0.744 OA
ENDBRANCH  70  73
ENDBRANCH  52  66
BRANCH  53  77
ATOM     77  C   UNL A   1      48.723  27.305  26.187  1.00  0.00     0.023 A 
ATOM     78  C   UNL A   1      49.741  26.809  27.025  1.00  0.00     0.012 A 
ATOM     79  C   UNL A   1      49.009  27.551  24.831  1.00  0.00     0.148 A 
ATOM     80  C   UNL A   1      51.025  26.584  26.527  1.00  0.00     0.002 A 
ATOM     81  C   UNL A   1      50.276  27.276  24.329  1.00  0.00     0.091 A 
ATOM     82  F   UNL A   1      48.033  28.042  24.053  1.00  0.00    -0.205 F 
ATOM     83  C   UNL A   1      51.290  26.806  25.179  1.00  0.00     0.022 A 
BRANCH  81  84
ATOM     84  S   UNL A   1      50.659  27.403  22.578  1.00  0.00     0.127 S 
ATOM     85  O   UNL A   1      52.032  26.905  22.536  1.00  0.00    -0.237 OA
ATOM     86  O   UNL A   1      49.662  26.514  21.980  1.00  0.00    -0.237 OA
ATOM     87  O   UNL A   1      50.480  28.810  22.245  1.00  0.00    -0.744 OA
ENDBRANCH  81  84
ENDBRANCH  53  77
BRANCH  65  88
ATOM     88  C   UNL A   1      45.450  32.816  28.952  1.00  0.00     0.023 A 
ATOM     89  C   UNL A   1      46.219  33.140  30.088  1.00  0.00     0.012 A 
ATOM     90  C   UNL A   1      45.146  33.818  28.012  1.00  0.00     0.148 A 
ATOM     91  C   UNL A   1      46.659  34.448  30.296  1.00  0.00     0.002 A 
ATOM     92  C   UNL A   1      45.623  35.111  28.205  1.00  0.00     0.091 A 
ATOM     93  F   UNL A   1      44.396  33.494  26.949  1.00  0.00    -0.205 F 
ATOM     94  C   UNL A   1      46.371  35.429  29.350  1.00  0.00     0.022 A 
BRANCH  92  95
ATOM     95  S   UNL A   1      45.373  36.418  26.998  1.00  0.00     0.127 S 
ATOM     96  O   UNL A   1      46.355  36.069  25.973  1.00  0.00    -0.237 OA
ATOM     97  O   UNL A   1      43.979  36.216  26.602  1.00  0.00    -0.237 OA
ATOM     98  O   UNL A   1      45.622  37.667  27.705  1.00  0.00    -0.744 OA
ENDBRANCH  92  95
ENDBRANCH  65  88
ENDBRANCH  39  40
ENDBRANCH  31  34
ENDBRANCH  29  30
ENDBRANCH  28  29
ENDBRANCH   1  28
TORSDOF 17
ENDMDL
