MODEL 1
REMARK VINA RESULT:     -12.1      0.000      0.000
REMARK SMILES NC(=O)[C@@H]1CCCCN1c1cncc(C(=O)NCCCCNC(=O)c2ccc(-c3c4nc(c(-c5cccc(S(=O)(=O)[O-])c5F)c5ccc([nH]5)c(-c5cccc(S(=O)(=O)[O-])c5F)c5nc(c(-c6cccc(S(=O)(=O)[O-])c6F)c6ccc3[nH]6)C=C5)C=C4)cc2)n1
REMARK SMILES IDX 20 1 19 2 18 3 17 4 15 5 16 6 14 8 10 9 11 10 88 11 12 12
REMARK SMILES IDX 13 13 9 14 4 15 5 16 6 17 8 18 7 19 2 20 1 21 3 24 21 25
REMARK SMILES IDX 22 26 23 27 24 29 25 30 26 31 87 32 27 33 86 34 28 35 29 36
REMARK SMILES IDX 30 37 80 38 31 39 85 40 79 41 81 42 32 43 84 44 78 45 77 46
REMARK SMILES IDX 33 48 65 49 45 50 64 51 46 52 49 53 63 54 82 55 47 56 48 57
REMARK SMILES IDX 62 59 83 60 50 61 34 62 35 63 43 64 36 65 38 66 44 67 37 68
REMARK SMILES IDX 39 69 40 70 41 71 42 72 66 73 67 74 75 75 68 76 70 77 76 78
REMARK SMILES IDX 69 79 71 80 72 81 73 82 74 83 51 84 52 85 60 86 53 87 55 88
REMARK SMILES IDX 61 89 54 90 56 91 57 92 58 93 59 94
REMARK H PARENT 17 7 1 22 1 23 22 28 81 47 49 58
REMARK Flexibility Score: inf
ROOT
ATOM      1  C   UNL A   1      32.029  28.910  26.541  1.00  0.00     0.023 C 
ENDROOT
BRANCH   1   2
ATOM      2  C   UNL A   1      32.176  27.458  26.072  1.00  0.00     0.023 C 
BRANCH   2   3
ATOM      3  C   UNL A   1      30.842  26.745  25.863  1.00  0.00     0.116 C 
BRANCH   3   4
ATOM      4  N   UNL A   1      30.730  25.587  26.724  1.00  0.00    -0.351 N 
ATOM      5  C   UNL A   1      31.034  24.266  26.489  1.00  0.00     0.271 C 
ATOM      6  O   UNL A   1      30.799  23.461  27.393  1.00  0.00    -0.267 OA
ATOM      7  H   UNL A   1      30.380  25.776  27.625  1.00  0.00     0.163 HD
BRANCH   5   8
ATOM      8  C   UNL A   1      31.636  23.773  25.215  1.00  0.00     0.148 A 
ATOM      9  C   UNL A   1      33.352  22.797  24.025  1.00  0.00     0.148 A 
ATOM     10  C   UNL A   1      32.511  22.795  22.902  1.00  0.00     0.157 A 
ATOM     11  N   UNL A   1      32.927  23.341  25.183  1.00  0.00    -0.222 NA
ATOM     12  N   UNL A   1      31.246  23.281  22.888  1.00  0.00    -0.258 NA
ATOM     13  C   UNL A   1      30.823  23.745  24.086  1.00  0.00     0.145 A 
BRANCH   9  14
ATOM     14  N   UNL A   1      34.601  22.206  23.952  1.00  0.00    -0.343 N 
ATOM     15  C   UNL A   1      34.976  21.055  24.801  1.00  0.00     0.172 C 
ATOM     16  C   UNL A   1      35.879  21.516  25.955  1.00  0.00     0.035 C 
ATOM     17  C   UNL A   1      37.072  22.312  25.424  1.00  0.00     0.004 C 
ATOM     18  C   UNL A   1      35.685  23.040  23.443  1.00  0.00     0.119 C 
ATOM     19  C   UNL A   1      36.594  23.497  24.588  1.00  0.00     0.022 C 
BRANCH  15  20
ATOM     20  C   UNL A   1      33.829  20.117  25.276  1.00  0.00     0.240 C 
ATOM     21  N   UNL A   1      33.429  20.294  26.578  1.00  0.00    -0.368 N 
ATOM     22  H   UNL A   1      32.707  19.736  26.950  1.00  0.00     0.159 HD
ATOM     23  H   UNL A   1      33.864  20.976  27.137  1.00  0.00     0.159 HD
ATOM     24  O   UNL A   1      33.322  19.193  24.646  1.00  0.00    -0.273 OA
ENDBRANCH  15  20
ENDBRANCH   9  14
ENDBRANCH   5   8
ENDBRANCH   3   4
ENDBRANCH   2   3
ENDBRANCH   1   2
BRANCH   1  25
ATOM     25  C   UNL A   1      33.227  29.809  26.243  1.00  0.00     0.116 C 
BRANCH  25  26
ATOM     26  N   UNL A   1      33.015  31.193  26.640  1.00  0.00    -0.352 N 
ATOM     27  C   UNL A   1      33.751  31.955  27.514  1.00  0.00     0.251 C 
ATOM     28  H   UNL A   1      32.242  31.643  26.227  1.00  0.00     0.163 HD
ATOM     29  O   UNL A   1      33.361  33.076  27.830  1.00  0.00    -0.269 OA
BRANCH  27  30
ATOM     30  C   UNL A   1      34.996  31.405  28.088  1.00  0.00     0.039 A 
ATOM     31  C   UNL A   1      36.149  32.193  28.084  1.00  0.00     0.014 A 
ATOM     32  C   UNL A   1      35.021  30.123  28.645  1.00  0.00     0.014 A 
ATOM     33  C   UNL A   1      37.316  31.711  28.678  1.00  0.00     0.010 A 
ATOM     34  C   UNL A   1      36.162  29.677  29.304  1.00  0.00     0.010 A 
ATOM     35  C   UNL A   1      37.327  30.458  29.315  1.00  0.00    -0.014 A 
BRANCH  35  36
ATOM     36  C   UNL A   1      38.554  29.939  29.970  1.00  0.00     0.031 A 
ATOM     37  C   UNL A   1      38.962  30.457  31.325  1.00  0.00     0.074 A 
ATOM     38  C   UNL A   1      39.335  29.050  29.324  1.00  0.00     0.049 A 
ATOM     39  N   UNL A   1      40.016  30.159  32.040  1.00  0.00    -0.248 NA
ATOM     40  C   UNL A   1      38.083  31.462  31.949  1.00  0.00     0.031 C 
ATOM     41  C   UNL A   1      39.095  28.531  27.975  1.00  0.00     0.029 A 
ATOM     42  N   UNL A   1      40.503  28.440  29.708  1.00  0.00    -0.354 N 
ATOM     43  C   UNL A   1      39.938  30.949  33.181  1.00  0.00     0.074 A 
ATOM     44  C   UNL A   1      38.764  31.781  33.040  1.00  0.00     0.031 C 
ATOM     45  C   UNL A   1      40.081  27.680  27.647  1.00  0.00     0.029 A 
ATOM     46  C   UNL A   1      41.034  27.609  28.748  1.00  0.00     0.049 A 
ATOM     47  H   UNL A   1      40.923  28.584  30.587  1.00  0.00     0.167 HD
ATOM     48  C   UNL A   1      40.744  30.957  34.269  1.00  0.00     0.034 A 
ATOM     49  C   UNL A   1      42.165  26.874  28.757  1.00  0.00     0.034 A 
ATOM     50  C   UNL A   1      41.892  30.104  34.424  1.00  0.00     0.049 A 
ATOM     51  C   UNL A   1      43.021  26.871  29.996  1.00  0.00     0.074 A 
ATOM     52  C   UNL A   1      42.751  30.004  35.504  1.00  0.00     0.029 A 
ATOM     53  N   UNL A   1      42.337  29.200  33.474  1.00  0.00    -0.354 N 
ATOM     54  N   UNL A   1      42.853  27.527  31.119  1.00  0.00    -0.248 NA
ATOM     55  C   UNL A   1      44.196  25.988  29.988  1.00  0.00     0.031 C 
ATOM     56  C   UNL A   1      43.721  29.041  35.203  1.00  0.00     0.029 A 
ATOM     57  C   UNL A   1      43.449  28.525  33.946  1.00  0.00     0.049 A 
ATOM     58  H   UNL A   1      41.924  29.058  32.591  1.00  0.00     0.167 HD
ATOM     59  C   UNL A   1      43.869  27.097  31.967  1.00  0.00     0.074 A 
ATOM     60  C   UNL A   1      44.634  26.111  31.233  1.00  0.00     0.031 C 
ATOM     61  C   UNL A   1      44.154  27.493  33.232  1.00  0.00     0.034 A 
BRANCH  48  62
ATOM     62  C   UNL A   1      40.367  31.863  35.412  1.00  0.00     0.023 A 
ATOM     63  C   UNL A   1      41.084  33.063  35.604  1.00  0.00     0.012 A 
ATOM     64  C   UNL A   1      39.278  31.568  36.255  1.00  0.00     0.148 A 
ATOM     65  C   UNL A   1      40.747  33.938  36.635  1.00  0.00     0.002 A 
ATOM     66  C   UNL A   1      38.919  32.469  37.253  1.00  0.00     0.091 A 
ATOM     67  F   UNL A   1      38.618  30.417  36.070  1.00  0.00    -0.205 F 
ATOM     68  C   UNL A   1      39.660  33.646  37.452  1.00  0.00     0.022 A 
BRANCH  66  69
ATOM     69  S   UNL A   1      37.486  32.230  38.310  1.00  0.00     0.127 S 
ATOM     70  O   UNL A   1      37.942  32.831  39.564  1.00  0.00    -0.237 OA
ATOM     71  O   UNL A   1      36.456  32.994  37.607  1.00  0.00    -0.237 OA
ATOM     72  O   UNL A   1      37.255  30.793  38.358  1.00  0.00    -0.744 OA
ENDBRANCH  66  69
ENDBRANCH  48  62
BRANCH  49  73
ATOM     73  C   UNL A   1      42.523  26.024  27.586  1.00  0.00     0.023 A 
ATOM     74  C   UNL A   1      43.289  26.573  26.537  1.00  0.00     0.012 A 
ATOM     75  C   UNL A   1      42.099  24.685  27.494  1.00  0.00     0.148 A 
ATOM     76  C   UNL A   1      43.582  25.822  25.399  1.00  0.00     0.002 A 
ATOM     77  C   UNL A   1      42.443  23.924  26.383  1.00  0.00     0.091 A 
ATOM     78  F   UNL A   1      41.361  24.181  28.494  1.00  0.00    -0.205 F 
ATOM     79  C   UNL A   1      43.166  24.495  25.325  1.00  0.00     0.022 A 
BRANCH  77  80
ATOM     80  S   UNL A   1      42.060  22.173  26.268  1.00  0.00     0.127 S 
ATOM     81  O   UNL A   1      42.825  21.776  25.090  1.00  0.00    -0.237 OA
ATOM     82  O   UNL A   1      42.575  21.662  27.538  1.00  0.00    -0.237 OA
ATOM     83  O   UNL A   1      40.611  22.101  26.140  1.00  0.00    -0.744 OA
ENDBRANCH  77  80
ENDBRANCH  49  73
BRANCH  61  84
ATOM     84  C   UNL A   1      45.297  26.809  33.935  1.00  0.00     0.023 A 
ATOM     85  C   UNL A   1      46.599  27.343  33.858  1.00  0.00     0.012 A 
ATOM     86  C   UNL A   1      45.066  25.661  34.718  1.00  0.00     0.148 A 
ATOM     87  C   UNL A   1      47.659  26.720  34.513  1.00  0.00     0.002 A 
ATOM     88  C   UNL A   1      46.119  25.075  35.410  1.00  0.00     0.091 A 
ATOM     89  F   UNL A   1      43.825  25.155  34.764  1.00  0.00    -0.205 F 
ATOM     90  C   UNL A   1      47.419  25.593  35.296  1.00  0.00     0.022 A 
BRANCH  88  91
ATOM     91  S   UNL A   1      45.878  23.684  36.521  1.00  0.00     0.127 S 
ATOM     92  O   UNL A   1      47.256  23.316  36.840  1.00  0.00    -0.237 OA
ATOM     93  O   UNL A   1      45.137  24.292  37.626  1.00  0.00    -0.237 OA
ATOM     94  O   UNL A   1      45.123  22.695  35.762  1.00  0.00    -0.744 OA
ENDBRANCH  88  91
ENDBRANCH  61  84
ENDBRANCH  35  36
ENDBRANCH  27  30
ENDBRANCH  25  26
ENDBRANCH   1  25
TORSDOF 16
ENDMDL
MODEL 2
REMARK VINA RESULT:     -12.0      2.274      2.701
REMARK SMILES NC(=O)[C@@H]1CCCCN1c1cncc(C(=O)NCCCCNC(=O)c2ccc(-c3c4nc(c(-c5cccc(S(=O)(=O)[O-])c5F)c5ccc([nH]5)c(-c5cccc(S(=O)(=O)[O-])c5F)c5nc(c(-c6cccc(S(=O)(=O)[O-])c6F)c6ccc3[nH]6)C=C5)C=C4)cc2)n1
REMARK SMILES IDX 20 1 19 2 18 3 17 4 15 5 16 6 14 8 10 9 11 10 88 11 12 12
REMARK SMILES IDX 13 13 9 14 4 15 5 16 6 17 8 18 7 19 2 20 1 21 3 24 21 25
REMARK SMILES IDX 22 26 23 27 24 29 25 30 26 31 87 32 27 33 86 34 28 35 29 36
REMARK SMILES IDX 30 37 80 38 31 39 85 40 79 41 81 42 32 43 84 44 78 45 77 46
REMARK SMILES IDX 33 48 65 49 45 50 64 51 46 52 49 53 63 54 82 55 47 56 48 57
REMARK SMILES IDX 62 59 83 60 50 61 34 62 35 63 43 64 36 65 38 66 44 67 37 68
REMARK SMILES IDX 39 69 40 70 41 71 42 72 66 73 67 74 75 75 68 76 70 77 76 78
REMARK SMILES IDX 69 79 71 80 72 81 73 82 74 83 51 84 52 85 60 86 53 87 55 88
REMARK SMILES IDX 61 89 54 90 56 91 57 92 58 93 59 94
REMARK H PARENT 17 7 1 22 1 23 22 28 81 47 49 58
REMARK Flexibility Score: inf
ROOT
ATOM      1  C   UNL A   1      33.528  27.770  26.646  1.00  0.00     0.023 C 
ENDROOT
BRANCH   1   2
ATOM      2  C   UNL A   1      32.015  27.851  26.882  1.00  0.00     0.023 C 
BRANCH   2   3
ATOM      3  C   UNL A   1      31.213  26.850  26.053  1.00  0.00     0.116 C 
BRANCH   3   4
ATOM      4  N   UNL A   1      30.927  25.654  26.817  1.00  0.00    -0.351 N 
ATOM      5  C   UNL A   1      31.104  24.327  26.498  1.00  0.00     0.271 C 
ATOM      6  O   UNL A   1      30.730  23.491  27.324  1.00  0.00    -0.267 OA
ATOM      7  H   UNL A   1      30.543  25.816  27.709  1.00  0.00     0.163 HD
BRANCH   5   8
ATOM      8  C   UNL A   1      31.729  23.862  25.225  1.00  0.00     0.148 A 
ATOM      9  C   UNL A   1      33.457  22.892  24.048  1.00  0.00     0.148 A 
ATOM     10  C   UNL A   1      32.643  22.937  22.906  1.00  0.00     0.157 A 
ATOM     11  N   UNL A   1      33.014  23.410  25.210  1.00  0.00    -0.222 NA
ATOM     12  N   UNL A   1      31.387  23.443  22.876  1.00  0.00    -0.258 NA
ATOM     13  C   UNL A   1      30.942  23.879  24.077  1.00  0.00     0.145 A 
BRANCH   9  14
ATOM     14  N   UNL A   1      34.698  22.283  23.987  1.00  0.00    -0.343 N 
ATOM     15  C   UNL A   1      35.043  21.117  24.828  1.00  0.00     0.172 C 
ATOM     16  C   UNL A   1      35.935  21.551  26.001  1.00  0.00     0.035 C 
ATOM     17  C   UNL A   1      37.147  22.335  25.498  1.00  0.00     0.004 C 
ATOM     18  C   UNL A   1      35.803  23.108  23.505  1.00  0.00     0.119 C 
ATOM     19  C   UNL A   1      36.700  23.537  24.669  1.00  0.00     0.022 C 
BRANCH  15  20
ATOM     20  C   UNL A   1      33.875  20.191  25.274  1.00  0.00     0.240 C 
ATOM     21  N   UNL A   1      33.443  20.374  26.564  1.00  0.00    -0.368 N 
ATOM     22  H   UNL A   1      32.706  19.824  26.918  1.00  0.00     0.159 HD
ATOM     23  H   UNL A   1      33.869  21.053  27.134  1.00  0.00     0.159 HD
ATOM     24  O   UNL A   1      33.376  19.271  24.631  1.00  0.00    -0.273 OA
ENDBRANCH  15  20
ENDBRANCH   9  14
ENDBRANCH   5   8
ENDBRANCH   3   4
ENDBRANCH   2   3
ENDBRANCH   1   2
BRANCH   1  25
ATOM     25  C   UNL A   1      34.140  28.990  25.962  1.00  0.00     0.116 C 
BRANCH  25  26
ATOM     26  N   UNL A   1      33.848  30.238  26.650  1.00  0.00    -0.352 N 
ATOM     27  C   UNL A   1      34.544  30.836  27.671  1.00  0.00     0.251 C 
ATOM     28  H   UNL A   1      33.044  30.718  26.343  1.00  0.00     0.163 HD
ATOM     29  O   UNL A   1      34.090  31.835  28.223  1.00  0.00    -0.269 OA
BRANCH  27  30
ATOM     30  C   UNL A   1      35.827  30.253  28.116  1.00  0.00     0.039 A 
ATOM     31  C   UNL A   1      36.959  30.415  27.314  1.00  0.00     0.014 A 
ATOM     32  C   UNL A   1      35.917  29.564  29.329  1.00  0.00     0.014 A 
ATOM     33  C   UNL A   1      38.190  29.923  27.750  1.00  0.00     0.010 A 
ATOM     34  C   UNL A   1      37.157  29.144  29.796  1.00  0.00     0.010 A 
ATOM     35  C   UNL A   1      38.305  29.304  29.006  1.00  0.00    -0.014 A 
BRANCH  35  36
ATOM     36  C   UNL A   1      39.612  28.794  29.495  1.00  0.00     0.031 A 
ATOM     37  C   UNL A   1      40.330  29.508  30.610  1.00  0.00     0.074 A 
ATOM     38  C   UNL A   1      40.181  27.728  28.898  1.00  0.00     0.049 A 
ATOM     39  N   UNL A   1      41.494  29.242  31.147  1.00  0.00    -0.248 NA
ATOM     40  C   UNL A   1      39.667  30.693  31.182  1.00  0.00     0.031 C 
ATOM     41  C   UNL A   1      39.627  26.997  27.756  1.00  0.00     0.029 A 
ATOM     42  N   UNL A   1      41.366  27.085  29.156  1.00  0.00    -0.354 N 
ATOM     43  C   UNL A   1      41.710  30.233  32.098  1.00  0.00     0.074 A 
ATOM     44  C   UNL A   1      40.584  31.137  32.030  1.00  0.00     0.031 C 
ATOM     45  C   UNL A   1      40.467  26.006  27.415  1.00  0.00     0.029 A 
ATOM     46  C   UNL A   1      41.629  26.043  28.296  1.00  0.00     0.049 A 
ATOM     47  H   UNL A   1      41.972  27.345  29.888  1.00  0.00     0.167 HD
ATOM     48  C   UNL A   1      42.729  30.359  32.980  1.00  0.00     0.034 A 
ATOM     49  C   UNL A   1      42.689  25.213  28.228  1.00  0.00     0.034 A 
ATOM     50  C   UNL A   1      43.831  29.439  33.071  1.00  0.00     0.049 A 
ATOM     51  C   UNL A   1      43.790  25.352  29.247  1.00  0.00     0.074 A 
ATOM     52  C   UNL A   1      44.894  29.452  33.956  1.00  0.00     0.029 A 
ATOM     53  N   UNL A   1      44.007  28.335  32.252  1.00  0.00    -0.354 N 
ATOM     54  N   UNL A   1      43.906  26.216  30.226  1.00  0.00    -0.248 NA
ATOM     55  C   UNL A   1      44.881  24.369  29.182  1.00  0.00     0.031 C 
ATOM     56  C   UNL A   1      45.718  28.359  33.668  1.00  0.00     0.029 A 
ATOM     57  C   UNL A   1      45.152  27.651  32.620  1.00  0.00     0.049 A 
ATOM     58  H   UNL A   1      43.406  28.076  31.516  1.00  0.00     0.167 HD
ATOM     59  C   UNL A   1      45.052  25.849  30.923  1.00  0.00     0.074 A 
ATOM     60  C   UNL A   1      45.582  24.674  30.265  1.00  0.00     0.031 C 
ATOM     61  C   UNL A   1      45.624  26.440  32.001  1.00  0.00     0.034 A 
BRANCH  48  62
ATOM     62  C   UNL A   1      42.660  31.493  33.970  1.00  0.00     0.023 A 
ATOM     63  C   UNL A   1      43.359  32.688  33.696  1.00  0.00     0.012 A 
ATOM     64  C   UNL A   1      41.868  31.408  35.131  1.00  0.00     0.148 A 
ATOM     65  C   UNL A   1      43.299  33.766  34.577  1.00  0.00     0.002 A 
ATOM     66  C   UNL A   1      41.775  32.505  35.981  1.00  0.00     0.091 A 
ATOM     67  F   UNL A   1      41.224  30.260  35.384  1.00  0.00    -0.205 F 
ATOM     68  C   UNL A   1      42.499  33.679  35.712  1.00  0.00     0.022 A 
BRANCH  66  69
ATOM     69  S   UNL A   1      40.712  32.529  37.428  1.00  0.00     0.127 S 
ATOM     70  O   UNL A   1      41.590  31.957  38.448  1.00  0.00    -0.237 OA
ATOM     71  O   UNL A   1      40.443  33.957  37.588  1.00  0.00    -0.237 OA
ATOM     72  O   UNL A   1      39.548  31.722  37.087  1.00  0.00    -0.744 OA
ENDBRANCH  66  69
ENDBRANCH  48  62
BRANCH  49  73
ATOM     73  C   UNL A   1      42.736  24.130  27.203  1.00  0.00     0.023 A 
ATOM     74  C   UNL A   1      43.428  24.348  25.994  1.00  0.00     0.012 A 
ATOM     75  C   UNL A   1      42.090  22.897  27.409  1.00  0.00     0.148 A 
ATOM     76  C   UNL A   1      43.432  23.379  24.990  1.00  0.00     0.002 A 
ATOM     77  C   UNL A   1      42.147  21.913  26.428  1.00  0.00     0.091 A 
ATOM     78  F   UNL A   1      41.427  22.710  28.558  1.00  0.00    -0.205 F 
ATOM     79  C   UNL A   1      42.798  22.159  25.210  1.00  0.00     0.022 A 
BRANCH  77  80
ATOM     80  S   UNL A   1      41.470  20.270  26.682  1.00  0.00     0.127 S 
ATOM     81  O   UNL A   1      42.194  19.829  27.871  1.00  0.00    -0.237 OA
ATOM     82  O   UNL A   1      40.051  20.553  26.895  1.00  0.00    -0.237 OA
ATOM     83  O   UNL A   1      41.755  19.539  25.455  1.00  0.00    -0.744 OA
ENDBRANCH  77  80
ENDBRANCH  49  73
BRANCH  61  84
ATOM     84  C   UNL A   1      46.849  25.786  32.585  1.00  0.00     0.023 A 
ATOM     85  C   UNL A   1      46.731  24.913  33.685  1.00  0.00     0.012 A 
ATOM     86  C   UNL A   1      48.115  25.998  32.004  1.00  0.00     0.148 A 
ATOM     87  C   UNL A   1      47.859  24.298  34.225  1.00  0.00     0.002 A 
ATOM     88  C   UNL A   1      49.227  25.341  32.515  1.00  0.00     0.091 A 
ATOM     89  F   UNL A   1      48.211  26.847  30.971  1.00  0.00    -0.205 F 
ATOM     90  C   UNL A   1      49.104  24.503  33.636  1.00  0.00     0.022 A 
BRANCH  88  91
ATOM     91  S   UNL A   1      50.849  25.470  31.754  1.00  0.00     0.127 S 
ATOM     92  O   UNL A   1      50.591  24.948  30.414  1.00  0.00    -0.237 OA
ATOM     93  O   UNL A   1      51.105  26.910  31.809  1.00  0.00    -0.237 OA
ATOM     94  O   UNL A   1      51.742  24.669  32.580  1.00  0.00    -0.744 OA
ENDBRANCH  88  91
ENDBRANCH  61  84
ENDBRANCH  35  36
ENDBRANCH  27  30
ENDBRANCH  25  26
ENDBRANCH   1  25
TORSDOF 16
ENDMDL
MODEL 3
REMARK VINA RESULT:     -11.9      1.704      2.209
REMARK SMILES NC(=O)[C@@H]1CCCCN1c1cncc(C(=O)NCCCCNC(=O)c2ccc(-c3c4nc(c(-c5cccc(S(=O)(=O)[O-])c5F)c5ccc([nH]5)c(-c5cccc(S(=O)(=O)[O-])c5F)c5nc(c(-c6cccc(S(=O)(=O)[O-])c6F)c6ccc3[nH]6)C=C5)C=C4)cc2)n1
REMARK SMILES IDX 20 1 19 2 18 3 17 4 15 5 16 6 14 8 10 9 11 10 88 11 12 12
REMARK SMILES IDX 13 13 9 14 4 15 5 16 6 17 8 18 7 19 2 20 1 21 3 24 21 25
REMARK SMILES IDX 22 26 23 27 24 29 25 30 26 31 87 32 27 33 86 34 28 35 29 36
REMARK SMILES IDX 30 37 80 38 31 39 85 40 79 41 81 42 32 43 84 44 78 45 77 46
REMARK SMILES IDX 33 48 65 49 45 50 64 51 46 52 49 53 63 54 82 55 47 56 48 57
REMARK SMILES IDX 62 59 83 60 50 61 34 62 35 63 43 64 36 65 38 66 44 67 37 68
REMARK SMILES IDX 39 69 40 70 41 71 42 72 66 73 67 74 75 75 68 76 70 77 76 78
REMARK SMILES IDX 69 79 71 80 72 81 73 82 74 83 51 84 52 85 60 86 53 87 55 88
REMARK SMILES IDX 61 89 54 90 56 91 57 92 58 93 59 94
REMARK H PARENT 17 7 1 22 1 23 22 28 81 47 49 58
REMARK Flexibility Score: inf
ROOT
ATOM      1  C   UNL A   1      33.144  28.207  25.650  1.00  0.00     0.023 C 
ENDROOT
BRANCH   1   2
ATOM      2  C   UNL A   1      32.036  27.690  26.575  1.00  0.00     0.023 C 
BRANCH   2   3
ATOM      3  C   UNL A   1      31.113  26.670  25.912  1.00  0.00     0.116 C 
BRANCH   3   4
ATOM      4  N   UNL A   1      30.920  25.514  26.762  1.00  0.00    -0.351 N 
ATOM      5  C   UNL A   1      31.152  24.180  26.522  1.00  0.00     0.271 C 
ATOM      6  O   UNL A   1      30.855  23.383  27.415  1.00  0.00    -0.267 OA
ATOM      7  H   UNL A   1      30.564  25.716  27.658  1.00  0.00     0.163 HD
BRANCH   5   8
ATOM      8  C   UNL A   1      31.749  23.662  25.254  1.00  0.00     0.148 A 
ATOM      9  C   UNL A   1      33.483  22.718  24.065  1.00  0.00     0.148 A 
ATOM     10  C   UNL A   1      32.617  22.629  22.964  1.00  0.00     0.157 A 
ATOM     11  N   UNL A   1      33.059  23.290  25.209  1.00  0.00    -0.222 NA
ATOM     12  N   UNL A   1      31.331  23.053  22.961  1.00  0.00    -0.258 NA
ATOM     13  C   UNL A   1      30.913  23.547  24.149  1.00  0.00     0.145 A 
BRANCH   9  14
ATOM     14  N   UNL A   1      34.757  22.184  23.986  1.00  0.00    -0.343 N 
ATOM     15  C   UNL A   1      35.159  20.994  24.766  1.00  0.00     0.172 C 
ATOM     16  C   UNL A   1      36.015  21.413  25.972  1.00  0.00     0.035 C 
ATOM     17  C   UNL A   1      37.185  22.291  25.527  1.00  0.00     0.004 C 
ATOM     18  C   UNL A   1      35.817  23.095  23.563  1.00  0.00     0.119 C 
ATOM     19  C   UNL A   1      36.678  23.509  24.759  1.00  0.00     0.022 C 
BRANCH  15  20
ATOM     20  C   UNL A   1      34.042  19.981  25.147  1.00  0.00     0.240 C 
ATOM     21  N   UNL A   1      33.420  20.219  26.347  1.00  0.00    -0.368 N 
ATOM     22  H   UNL A   1      32.702  19.620  26.656  1.00  0.00     0.159 HD
ATOM     23  H   UNL A   1      33.692  20.988  26.899  1.00  0.00     0.159 HD
ATOM     24  O   UNL A   1      33.733  18.961  24.539  1.00  0.00    -0.273 OA
ENDBRANCH  15  20
ENDBRANCH   9  14
ENDBRANCH   5   8
ENDBRANCH   3   4
ENDBRANCH   2   3
ENDBRANCH   1   2
BRANCH   1  25
ATOM     25  C   UNL A   1      34.299  28.912  26.358  1.00  0.00     0.116 C 
BRANCH  25  26
ATOM     26  N   UNL A   1      33.921  30.196  26.929  1.00  0.00    -0.352 N 
ATOM     27  C   UNL A   1      34.575  30.932  27.885  1.00  0.00     0.251 C 
ATOM     28  H   UNL A   1      33.086  30.588  26.584  1.00  0.00     0.163 HD
ATOM     29  O   UNL A   1      34.052  31.945  28.345  1.00  0.00    -0.269 OA
BRANCH  27  30
ATOM     30  C   UNL A   1      35.895  30.483  28.374  1.00  0.00     0.039 A 
ATOM     31  C   UNL A   1      35.954  29.643  29.488  1.00  0.00     0.014 A 
ATOM     32  C   UNL A   1      37.069  30.875  27.725  1.00  0.00     0.014 A 
ATOM     33  C   UNL A   1      37.189  29.161  29.924  1.00  0.00     0.010 A 
ATOM     34  C   UNL A   1      38.289  30.332  28.113  1.00  0.00     0.010 A 
ATOM     35  C   UNL A   1      38.366  29.482  29.226  1.00  0.00    -0.014 A 
BRANCH  35  36
ATOM     36  C   UNL A   1      39.686  28.961  29.664  1.00  0.00     0.031 A 
ATOM     37  C   UNL A   1      40.448  29.662  30.758  1.00  0.00     0.074 A 
ATOM     38  C   UNL A   1      40.227  27.896  29.038  1.00  0.00     0.049 A 
ATOM     39  N   UNL A   1      41.628  29.385  31.251  1.00  0.00    -0.248 NA
ATOM     40  C   UNL A   1      39.812  30.846  31.363  1.00  0.00     0.031 C 
ATOM     41  C   UNL A   1      39.628  27.177  27.911  1.00  0.00     0.029 A 
ATOM     42  N   UNL A   1      41.417  27.244  29.250  1.00  0.00    -0.354 N 
ATOM     43  C   UNL A   1      41.884  30.366  32.202  1.00  0.00     0.074 A 
ATOM     44  C   UNL A   1      40.761  31.278  32.180  1.00  0.00     0.031 C 
ATOM     45  C   UNL A   1      40.450  26.184  27.533  1.00  0.00     0.029 A 
ATOM     46  C   UNL A   1      41.642  26.208  28.373  1.00  0.00     0.049 A 
ATOM     47  H   UNL A   1      42.050  27.495  29.961  1.00  0.00     0.167 HD
ATOM     48  C   UNL A   1      42.935  30.480  33.048  1.00  0.00     0.034 A 
ATOM     49  C   UNL A   1      42.695  25.372  28.260  1.00  0.00     0.034 A 
ATOM     50  C   UNL A   1      44.033  29.553  33.092  1.00  0.00     0.049 A 
ATOM     51  C   UNL A   1      43.831  25.496  29.241  1.00  0.00     0.074 A 
ATOM     52  C   UNL A   1      45.127  29.553  33.940  1.00  0.00     0.029 A 
ATOM     53  N   UNL A   1      44.174  28.455  32.259  1.00  0.00    -0.354 N 
ATOM     54  N   UNL A   1      43.987  26.352  30.222  1.00  0.00    -0.248 NA
ATOM     55  C   UNL A   1      44.914  24.508  29.130  1.00  0.00     0.031 C 
ATOM     56  C   UNL A   1      45.933  28.457  33.613  1.00  0.00     0.029 A 
ATOM     57  C   UNL A   1      45.327  27.761  32.581  1.00  0.00     0.049 A 
ATOM     58  H   UNL A   1      43.545  28.205  31.543  1.00  0.00     0.167 HD
ATOM     59  C   UNL A   1      45.155  25.973  30.875  1.00  0.00     0.074 A 
ATOM     60  C   UNL A   1      45.655  24.800  30.189  1.00  0.00     0.031 C 
ATOM     61  C   UNL A   1      45.769  26.552  31.937  1.00  0.00     0.034 A 
BRANCH  48  62
ATOM     62  C   UNL A   1      42.907  31.606  34.048  1.00  0.00     0.023 A 
ATOM     63  C   UNL A   1      43.430  32.865  33.681  1.00  0.00     0.012 A 
ATOM     64  C   UNL A   1      42.321  31.447  35.318  1.00  0.00     0.148 A 
ATOM     65  C   UNL A   1      43.400  33.937  34.571  1.00  0.00     0.002 A 
ATOM     66  C   UNL A   1      42.252  32.534  36.184  1.00  0.00     0.091 A 
ATOM     67  F   UNL A   1      41.845  30.241  35.658  1.00  0.00    -0.205 F 
ATOM     68  C   UNL A   1      42.802  33.774  35.817  1.00  0.00     0.022 A 
BRANCH  66  69
ATOM     69  S   UNL A   1      41.433  32.457  37.781  1.00  0.00     0.127 S 
ATOM     70  O   UNL A   1      41.491  33.855  38.209  1.00  0.00    -0.237 OA
ATOM     71  O   UNL A   1      40.098  31.985  37.418  1.00  0.00    -0.237 OA
ATOM     72  O   UNL A   1      42.211  31.527  38.588  1.00  0.00    -0.744 OA
ENDBRANCH  66  69
ENDBRANCH  48  62
BRANCH  49  73
ATOM     73  C   UNL A   1      42.699  24.297  27.226  1.00  0.00     0.023 A 
ATOM     74  C   UNL A   1      43.340  24.524  25.991  1.00  0.00     0.012 A 
ATOM     75  C   UNL A   1      42.062  23.062  27.449  1.00  0.00     0.148 A 
ATOM     76  C   UNL A   1      43.301  23.564  24.981  1.00  0.00     0.002 A 
ATOM     77  C   UNL A   1      42.078  22.086  26.460  1.00  0.00     0.091 A 
ATOM     78  F   UNL A   1      41.448  22.866  28.624  1.00  0.00    -0.205 F 
ATOM     79  C   UNL A   1      42.678  22.342  25.217  1.00  0.00     0.022 A 
BRANCH  77  80
ATOM     80  S   UNL A   1      41.412  20.440  26.729  1.00  0.00     0.127 S 
ATOM     81  O   UNL A   1      42.207  19.978  27.863  1.00  0.00    -0.237 OA
ATOM     82  O   UNL A   1      40.010  20.723  27.035  1.00  0.00    -0.237 OA
ATOM     83  O   UNL A   1      41.617  19.729  25.475  1.00  0.00    -0.744 OA
ENDBRANCH  77  80
ENDBRANCH  49  73
BRANCH  61  84
ATOM     84  C   UNL A   1      47.010  25.886  32.472  1.00  0.00     0.023 A 
ATOM     85  C   UNL A   1      48.270  26.182  31.914  1.00  0.00     0.012 A 
ATOM     86  C   UNL A   1      46.928  25.005  33.567  1.00  0.00     0.148 A 
ATOM     87  C   UNL A   1      49.423  25.575  32.410  1.00  0.00     0.002 A 
ATOM     88  C   UNL A   1      48.087  24.444  34.090  1.00  0.00     0.091 A 
ATOM     89  F   UNL A   1      45.719  24.720  34.072  1.00  0.00    -0.205 F 
ATOM     90  C   UNL A   1      49.334  24.715  33.503  1.00  0.00     0.022 A 
BRANCH  88  91
ATOM     91  S   UNL A   1      48.073  23.407  35.556  1.00  0.00     0.127 S 
ATOM     92  O   UNL A   1      47.841  24.389  36.613  1.00  0.00    -0.237 OA
ATOM     93  O   UNL A   1      46.943  22.514  35.295  1.00  0.00    -0.237 OA
ATOM     94  O   UNL A   1      49.369  22.743  35.588  1.00  0.00    -0.744 OA
ENDBRANCH  88  91
ENDBRANCH  61  84
ENDBRANCH  35  36
ENDBRANCH  27  30
ENDBRANCH  25  26
ENDBRANCH   1  25
TORSDOF 16
ENDMDL
