MODEL 1
REMARK VINA RESULT:     -11.9      0.000      0.000
REMARK SMILES Cc1ccc([C@@H](C(=O)N(CC(=O)NCCCCNC(=O)c2ccc(-c3c4nc(c(-c5cccc(S(=O)(=O)[O-])c5F)c5ccc([nH]5)c(-c5cccc(S(=O)(=O)[O-])c5F)c5nc(c(-c6cccc(S(=O)(=O)[O-])c6F)c6ccc3[nH]6)C=C5)C=C4)cc2)C2CC[NH+](C)CC2)[NH+](C)C)cc1
REMARK SMILES IDX 15 1 14 2 13 3 11 4 12 5 10 7 9 8 7 9 8 10 6 11 5 12 1 13
REMARK SMILES IDX 2 14 3 15 95 16 4 17 94 18 91 19 92 20 93 21 84 23 85 24
REMARK SMILES IDX 90 25 86 26 89 27 87 28 88 29 16 31 17 32 18 33 19 34 20 36
REMARK SMILES IDX 21 37 22 38 83 39 23 40 82 41 24 42 25 43 26 44 76 45 27 46
REMARK SMILES IDX 81 47 75 48 77 49 28 50 80 51 74 52 73 53 29 55 61 56 41 57
REMARK SMILES IDX 60 58 42 59 45 60 59 61 78 62 43 63 44 64 58 66 79 67 46 68
REMARK SMILES IDX 30 69 31 70 39 71 32 72 34 73 40 74 33 75 35 76 36 77 37 78
REMARK SMILES IDX 38 79 62 80 63 81 71 82 64 83 66 84 72 85 65 86 67 87 68 88
REMARK SMILES IDX 69 89 70 90 47 91 48 92 56 93 49 94 51 95 57 96 50 97 52 98
REMARK SMILES IDX 53 99 54 100 55 101
REMARK H PARENT 13 6 91 22 87 30 18 35 77 54 45 65
REMARK Flexibility Score: inf
ROOT
ATOM      1  C   UNL A   1      32.369  30.386  26.790  1.00  0.00     0.023 C 
ENDROOT
BRANCH   1   2
ATOM      2  C   UNL A   1      32.143  29.684  25.452  1.00  0.00     0.116 C 
BRANCH   2   3
ATOM      3  N   UNL A   1      33.256  29.549  24.551  1.00  0.00    -0.355 N 
ATOM      4  C   UNL A   1      33.748  28.340  24.118  1.00  0.00     0.239 C 
ATOM      5  O   UNL A   1      34.249  28.274  22.993  1.00  0.00    -0.273 OA
ATOM      6  H   UNL A   1      33.690  30.370  24.224  1.00  0.00     0.163 HD
BRANCH   4   7
ATOM      7  C   UNL A   1      33.633  27.073  25.005  1.00  0.00     0.219 C 
BRANCH   7   8
ATOM      8  N   UNL A   1      33.267  25.807  24.344  1.00  0.00    -0.324 N 
BRANCH   8   9
ATOM      9  C   UNL A   1      34.203  24.757  24.104  1.00  0.00     0.286 C 
ATOM     10  O   UNL A   1      34.511  24.509  22.930  1.00  0.00    -0.267 OA
BRANCH   9  11
ATOM     11  C   UNL A   1      34.759  23.846  25.309  1.00  0.00     0.305 C 
BRANCH  11  12
ATOM     12  C   UNL A   1      36.243  23.488  25.187  1.00  0.00     0.019 A 
ATOM     13  C   UNL A   1      39.633  21.271  26.380  1.00  0.00     0.044 C 
ATOM     14  C   UNL A   1      38.630  22.173  25.729  1.00  0.00    -0.051 A 
ATOM     15  C   UNL A   1      38.426  23.463  26.224  1.00  0.00     0.004 A 
ATOM     16  C   UNL A   1      37.781  21.673  24.747  1.00  0.00     0.004 A 
ATOM     17  C   UNL A   1      37.224  24.114  25.968  1.00  0.00     0.011 A 
ATOM     18  C   UNL A   1      36.612  22.358  24.435  1.00  0.00     0.011 A 
ENDBRANCH  11  12
BRANCH  11  19
ATOM     19  N   UNL A   1      33.911  22.651  25.628  1.00  0.00    -0.326 N 
ATOM     20  C   UNL A   1      33.948  21.649  24.570  1.00  0.00     0.333 C 
ATOM     21  C   UNL A   1      34.148  22.033  26.932  1.00  0.00     0.333 C 
ATOM     22  H   UNL A   1      32.971  23.043  25.687  1.00  0.00     0.348 HD
ENDBRANCH  11  19
ENDBRANCH   9  11
ENDBRANCH   8   9
BRANCH   8  23
ATOM     23  C   UNL A   1      31.938  25.730  23.644  1.00  0.00     0.097 C 
ATOM     24  C   UNL A   1      30.729  26.516  24.208  1.00  0.00     0.086 C 
ATOM     25  C   UNL A   1      31.446  24.283  23.510  1.00  0.00     0.086 C 
ATOM     26  C   UNL A   1      30.188  25.955  25.524  1.00  0.00     0.264 C 
ATOM     27  C   UNL A   1      31.028  23.739  24.871  1.00  0.00     0.264 C 
ATOM     28  N   UNL A   1      29.933  24.510  25.478  1.00  0.00    -0.337 N 
ATOM     29  C   UNL A   1      29.677  24.013  26.832  1.00  0.00     0.332 C 
ATOM     30  H   UNL A   1      29.117  24.378  24.880  1.00  0.00     0.347 HD
ENDBRANCH   8  23
ENDBRANCH   7   8
ENDBRANCH   4   7
ENDBRANCH   2   3
ENDBRANCH   1   2
BRANCH   1  31
ATOM     31  C   UNL A   1      33.680  30.050  27.488  1.00  0.00     0.023 C 
BRANCH  31  32
ATOM     32  C   UNL A   1      34.638  31.226  27.578  1.00  0.00     0.116 C 
BRANCH  32  33
ATOM     33  N   UNL A   1      34.066  32.505  27.902  1.00  0.00    -0.352 N 
ATOM     34  C   UNL A   1      34.280  33.256  29.046  1.00  0.00     0.251 C 
ATOM     35  H   UNL A   1      33.454  32.891  27.234  1.00  0.00     0.163 HD
ATOM     36  O   UNL A   1      33.449  34.125  29.309  1.00  0.00    -0.269 OA
BRANCH  34  37
ATOM     37  C   UNL A   1      35.530  33.114  29.862  1.00  0.00     0.039 A 
ATOM     38  C   UNL A   1      36.728  33.587  29.302  1.00  0.00     0.014 A 
ATOM     39  C   UNL A   1      35.606  32.363  31.029  1.00  0.00     0.014 A 
ATOM     40  C   UNL A   1      37.952  33.047  29.693  1.00  0.00     0.010 A 
ATOM     41  C   UNL A   1      36.802  31.810  31.405  1.00  0.00     0.010 A 
ATOM     42  C   UNL A   1      37.941  32.045  30.643  1.00  0.00    -0.014 A 
BRANCH  42  43
ATOM     43  C   UNL A   1      39.047  31.183  30.998  1.00  0.00     0.031 A 
ATOM     44  C   UNL A   1      39.200  29.925  30.274  1.00  0.00     0.074 A 
ATOM     45  C   UNL A   1      40.084  31.787  31.616  1.00  0.00     0.049 A 
ATOM     46  N   UNL A   1      40.074  29.028  30.557  1.00  0.00    -0.248 NA
ATOM     47  C   UNL A   1      38.327  29.569  29.162  1.00  0.00     0.031 C 
ATOM     48  C   UNL A   1      41.502  31.472  31.506  1.00  0.00     0.029 A 
ATOM     49  N   UNL A   1      40.045  32.855  32.512  1.00  0.00    -0.354 N 
ATOM     50  C   UNL A   1      40.105  28.163  29.488  1.00  0.00     0.074 A 
ATOM     51  C   UNL A   1      38.883  28.422  28.772  1.00  0.00     0.031 C 
ATOM     52  C   UNL A   1      42.176  32.163  32.442  1.00  0.00     0.029 A 
ATOM     53  C   UNL A   1      41.187  32.769  33.319  1.00  0.00     0.049 A 
ATOM     54  H   UNL A   1      39.343  33.542  32.567  1.00  0.00     0.167 HD
ATOM     55  C   UNL A   1      41.259  27.478  29.246  1.00  0.00     0.034 A 
ATOM     56  C   UNL A   1      41.115  32.573  34.669  1.00  0.00     0.034 A 
ATOM     57  C   UNL A   1      42.240  27.746  30.327  1.00  0.00     0.049 A 
ATOM     58  C   UNL A   1      41.625  31.185  35.024  1.00  0.00     0.074 A 
ATOM     59  C   UNL A   1      43.376  28.536  30.398  1.00  0.00     0.029 A 
ATOM     60  N   UNL A   1      41.911  27.434  31.650  1.00  0.00    -0.354 N 
ATOM     61  N   UNL A   1      41.972  30.292  34.135  1.00  0.00    -0.248 NA
ATOM     62  C   UNL A   1      41.813  30.691  36.383  1.00  0.00     0.031 C 
ATOM     63  C   UNL A   1      43.653  28.790  31.776  1.00  0.00     0.029 A 
ATOM     64  C   UNL A   1      42.717  28.122  32.553  1.00  0.00     0.049 A 
ATOM     65  H   UNL A   1      41.199  26.806  31.910  1.00  0.00     0.167 HD
ATOM     66  C   UNL A   1      42.300  29.113  34.729  1.00  0.00     0.074 A 
ATOM     67  C   UNL A   1      42.253  29.440  36.149  1.00  0.00     0.031 C 
ATOM     68  C   UNL A   1      42.521  27.971  34.002  1.00  0.00     0.034 A 
BRANCH  55  69
ATOM     69  C   UNL A   1      41.625  26.769  27.939  1.00  0.00     0.023 A 
ATOM     70  C   UNL A   1      41.308  27.443  26.737  1.00  0.00     0.012 A 
ATOM     71  C   UNL A   1      42.205  25.484  27.771  1.00  0.00     0.148 A 
ATOM     72  C   UNL A   1      41.526  26.879  25.471  1.00  0.00     0.002 A 
ATOM     73  C   UNL A   1      42.445  24.926  26.510  1.00  0.00     0.091 A 
ATOM     74  F   UNL A   1      42.526  24.740  28.824  1.00  0.00    -0.205 F 
ATOM     75  C   UNL A   1      42.097  25.620  25.354  1.00  0.00     0.022 A 
BRANCH  73  76
ATOM     76  S   UNL A   1      43.200  23.297  26.291  1.00  0.00     0.127 S 
ATOM     77  O   UNL A   1      42.687  22.895  24.980  1.00  0.00    -0.237 OA
ATOM     78  O   UNL A   1      44.628  23.611  26.315  1.00  0.00    -0.237 OA
ATOM     79  O   UNL A   1      42.741  22.469  27.399  1.00  0.00    -0.744 OA
ENDBRANCH  73  76
ENDBRANCH  55  69
BRANCH  56  80
ATOM     80  C   UNL A   1      39.972  33.315  35.289  1.00  0.00     0.023 A 
ATOM     81  C   UNL A   1      38.767  32.578  35.432  1.00  0.00     0.012 A 
ATOM     82  C   UNL A   1      40.209  34.394  36.160  1.00  0.00     0.148 A 
ATOM     83  C   UNL A   1      37.928  32.781  36.529  1.00  0.00     0.002 A 
ATOM     84  C   UNL A   1      39.381  34.569  37.270  1.00  0.00     0.091 A 
ATOM     85  F   UNL A   1      41.310  35.132  35.974  1.00  0.00    -0.205 F 
ATOM     86  C   UNL A   1      38.268  33.736  37.479  1.00  0.00     0.022 A 
BRANCH  84  87
ATOM     87  S   UNL A   1      39.825  35.702  38.595  1.00  0.00     0.127 S 
ATOM     88  O   UNL A   1      38.805  35.404  39.598  1.00  0.00    -0.237 OA
ATOM     89  O   UNL A   1      41.171  35.251  38.948  1.00  0.00    -0.237 OA
ATOM     90  O   UNL A   1      39.772  37.021  37.994  1.00  0.00    -0.744 OA
ENDBRANCH  84  87
ENDBRANCH  56  80
BRANCH  68  91
ATOM     91  C   UNL A   1      42.573  26.584  34.613  1.00  0.00     0.023 A 
ATOM     92  C   UNL A   1      41.489  26.042  35.332  1.00  0.00     0.012 A 
ATOM     93  C   UNL A   1      43.661  25.712  34.357  1.00  0.00     0.148 A 
ATOM     94  C   UNL A   1      41.516  24.745  35.852  1.00  0.00     0.002 A 
ATOM     95  C   UNL A   1      43.620  24.379  34.752  1.00  0.00     0.091 A 
ATOM     96  F   UNL A   1      44.761  26.170  33.742  1.00  0.00    -0.205 F 
ATOM     97  C   UNL A   1      42.572  23.904  35.542  1.00  0.00     0.022 A 
BRANCH  95  98
ATOM     98  S   UNL A   1      44.805  23.183  34.123  1.00  0.00     0.127 S 
ATOM     99  O   UNL A   1      44.527  23.210  32.689  1.00  0.00    -0.237 OA
ATOM    100  O   UNL A   1      46.084  23.783  34.508  1.00  0.00    -0.237 OA
ATOM    101  O   UNL A   1      44.499  21.937  34.813  1.00  0.00    -0.744 OA
ENDBRANCH  95  98
ENDBRANCH  68  91
ENDBRANCH  42  43
ENDBRANCH  34  37
ENDBRANCH  32  33
ENDBRANCH  31  32
ENDBRANCH   1  31
TORSDOF 20
ENDMDL
MODEL 2
REMARK VINA RESULT:     -11.3      4.828     10.746
REMARK SMILES Cc1ccc([C@@H](C(=O)N(CC(=O)NCCCCNC(=O)c2ccc(-c3c4nc(c(-c5cccc(S(=O)(=O)[O-])c5F)c5ccc([nH]5)c(-c5cccc(S(=O)(=O)[O-])c5F)c5nc(c(-c6cccc(S(=O)(=O)[O-])c6F)c6ccc3[nH]6)C=C5)C=C4)cc2)C2CC[NH+](C)CC2)[NH+](C)C)cc1
REMARK SMILES IDX 15 1 14 2 13 3 11 4 12 5 10 7 9 8 7 9 8 10 6 11 5 12 1 13
REMARK SMILES IDX 2 14 3 15 95 16 4 17 94 18 91 19 92 20 93 21 84 23 85 24
REMARK SMILES IDX 90 25 86 26 89 27 87 28 88 29 16 31 17 32 18 33 19 34 20 36
REMARK SMILES IDX 21 37 22 38 83 39 23 40 82 41 24 42 25 43 26 44 76 45 27 46
REMARK SMILES IDX 81 47 75 48 77 49 28 50 80 51 74 52 73 53 29 55 61 56 41 57
REMARK SMILES IDX 60 58 42 59 45 60 59 61 78 62 43 63 44 64 58 66 79 67 46 68
REMARK SMILES IDX 30 69 31 70 39 71 32 72 34 73 40 74 33 75 35 76 36 77 37 78
REMARK SMILES IDX 38 79 62 80 63 81 71 82 64 83 66 84 72 85 65 86 67 87 68 88
REMARK SMILES IDX 69 89 70 90 47 91 48 92 56 93 49 94 51 95 57 96 50 97 52 98
REMARK SMILES IDX 53 99 54 100 55 101
REMARK H PARENT 13 6 91 22 87 30 18 35 77 54 45 65
REMARK Flexibility Score: inf
ROOT
ATOM      1  C   UNL A   1      38.317  21.615  25.370  1.00  0.00     0.023 C 
ENDROOT
BRANCH   1   2
ATOM      2  C   UNL A   1      37.062  22.485  25.410  1.00  0.00     0.116 C 
BRANCH   2   3
ATOM      3  N   UNL A   1      36.135  22.405  24.314  1.00  0.00    -0.355 N 
ATOM      4  C   UNL A   1      35.298  23.431  23.943  1.00  0.00     0.239 C 
ATOM      5  O   UNL A   1      34.991  23.543  22.753  1.00  0.00    -0.273 OA
ATOM      6  H   UNL A   1      36.098  21.567  23.799  1.00  0.00     0.163 HD
BRANCH   4   7
ATOM      7  C   UNL A   1      34.789  24.458  24.988  1.00  0.00     0.219 C 
BRANCH   7   8
ATOM      8  N   UNL A   1      33.419  24.978  24.824  1.00  0.00    -0.324 N 
BRANCH   8   9
ATOM      9  C   UNL A   1      33.127  26.196  24.143  1.00  0.00     0.286 C 
ATOM     10  O   UNL A   1      33.776  26.463  23.122  1.00  0.00    -0.267 OA
BRANCH   9  11
ATOM     11  C   UNL A   1      32.065  27.249  24.739  1.00  0.00     0.305 C 
BRANCH  11  12
ATOM     12  C   UNL A   1      30.949  27.632  23.761  1.00  0.00     0.019 A 
ATOM     13  C   UNL A   1      27.625  29.995  22.670  1.00  0.00     0.044 C 
ATOM     14  C   UNL A   1      28.767  29.032  22.761  1.00  0.00    -0.051 A 
ATOM     15  C   UNL A   1      28.576  27.771  23.330  1.00  0.00     0.004 A 
ATOM     16  C   UNL A   1      30.055  29.450  22.439  1.00  0.00     0.004 A 
ATOM     17  C   UNL A   1      29.665  27.078  23.848  1.00  0.00     0.011 A 
ATOM     18  C   UNL A   1      31.148  28.720  22.893  1.00  0.00     0.011 A 
ENDBRANCH  11  12
BRANCH  11  19
ATOM     19  N   UNL A   1      32.679  28.448  25.397  1.00  0.00    -0.326 N 
ATOM     20  C   UNL A   1      31.737  29.146  26.264  1.00  0.00     0.333 C 
ATOM     21  C   UNL A   1      33.944  28.214  26.093  1.00  0.00     0.333 C 
ATOM     22  H   UNL A   1      32.917  29.049  24.608  1.00  0.00     0.348 HD
ENDBRANCH  11  19
ENDBRANCH   9  11
ENDBRANCH   8   9
BRANCH   8  23
ATOM     23  C   UNL A   1      32.322  24.356  25.643  1.00  0.00     0.097 C 
ATOM     24  C   UNL A   1      32.662  23.228  26.649  1.00  0.00     0.086 C 
ATOM     25  C   UNL A   1      31.207  23.779  24.760  1.00  0.00     0.086 C 
ATOM     26  C   UNL A   1      33.059  21.909  25.986  1.00  0.00     0.264 C 
ATOM     27  C   UNL A   1      31.698  22.531  24.037  1.00  0.00     0.264 C 
ATOM     28  N   UNL A   1      32.107  21.464  24.961  1.00  0.00    -0.337 N 
ATOM     29  C   UNL A   1      32.687  20.354  24.201  1.00  0.00     0.332 C 
ATOM     30  H   UNL A   1      31.266  21.167  25.456  1.00  0.00     0.347 HD
ENDBRANCH   8  23
ENDBRANCH   7   8
ENDBRANCH   4   7
ENDBRANCH   2   3
ENDBRANCH   1   2
BRANCH   1  31
ATOM     31  C   UNL A   1      39.299  21.837  26.514  1.00  0.00     0.023 C 
BRANCH  31  32
ATOM     32  C   UNL A   1      40.695  22.215  26.050  1.00  0.00     0.116 C 
BRANCH  32  33
ATOM     33  N   UNL A   1      41.628  21.139  25.856  1.00  0.00    -0.352 N 
ATOM     34  C   UNL A   1      43.005  21.231  25.735  1.00  0.00     0.251 C 
ATOM     35  H   UNL A   1      41.245  20.233  25.805  1.00  0.00     0.163 HD
ATOM     36  O   UNL A   1      43.588  20.276  25.223  1.00  0.00    -0.269 OA
BRANCH  34  37
ATOM     37  C   UNL A   1      43.773  22.380  26.316  1.00  0.00     0.039 A 
ATOM     38  C   UNL A   1      43.798  22.504  27.715  1.00  0.00     0.014 A 
ATOM     39  C   UNL A   1      44.276  23.432  25.559  1.00  0.00     0.014 A 
ATOM     40  C   UNL A   1      43.992  23.749  28.311  1.00  0.00     0.010 A 
ATOM     41  C   UNL A   1      44.446  24.664  26.134  1.00  0.00     0.010 A 
ATOM     42  C   UNL A   1      44.162  24.841  27.484  1.00  0.00    -0.014 A 
BRANCH  42  43
ATOM     43  C   UNL A   1      44.120  26.232  27.875  1.00  0.00     0.031 A 
ATOM     44  C   UNL A   1      42.814  26.861  28.046  1.00  0.00     0.074 A 
ATOM     45  C   UNL A   1      45.229  26.701  28.485  1.00  0.00     0.049 A 
ATOM     46  N   UNL A   1      42.638  28.109  28.291  1.00  0.00    -0.248 NA
ATOM     47  C   UNL A   1      41.575  26.105  27.917  1.00  0.00     0.031 C 
ATOM     48  C   UNL A   1      45.318  27.701  29.542  1.00  0.00     0.029 A 
ATOM     49  N   UNL A   1      46.555  26.344  28.247  1.00  0.00    -0.354 N 
ATOM     50  C   UNL A   1      41.325  28.248  28.682  1.00  0.00     0.074 A 
ATOM     51  C   UNL A   1      40.681  27.040  28.235  1.00  0.00     0.031 C 
ATOM     52  C   UNL A   1      46.608  28.036  29.717  1.00  0.00     0.029 A 
ATOM     53  C   UNL A   1      47.357  27.426  28.630  1.00  0.00     0.049 A 
ATOM     54  H   UNL A   1      46.869  25.489  27.878  1.00  0.00     0.167 HD
ATOM     55  C   UNL A   1      41.005  29.286  29.506  1.00  0.00     0.034 A 
ATOM     56  C   UNL A   1      48.138  28.109  27.740  1.00  0.00     0.034 A 
ATOM     57  C   UNL A   1      42.192  30.153  29.709  1.00  0.00     0.049 A 
ATOM     58  C   UNL A   1      47.584  29.509  27.524  1.00  0.00     0.074 A 
ATOM     59  C   UNL A   1      43.075  30.315  30.765  1.00  0.00     0.029 A 
ATOM     60  N   UNL A   1      42.807  30.752  28.605  1.00  0.00    -0.354 N 
ATOM     61  N   UNL A   1      46.461  29.931  28.044  1.00  0.00    -0.248 NA
ATOM     62  C   UNL A   1      48.238  30.550  26.741  1.00  0.00     0.031 C 
ATOM     63  C   UNL A   1      44.270  30.908  30.255  1.00  0.00     0.029 A 
ATOM     64  C   UNL A   1      44.107  31.153  28.899  1.00  0.00     0.049 A 
ATOM     65  H   UNL A   1      42.374  30.875  27.729  1.00  0.00     0.167 HD
ATOM     66  C   UNL A   1      46.165  31.186  27.612  1.00  0.00     0.074 A 
ATOM     67  C   UNL A   1      47.352  31.557  26.852  1.00  0.00     0.031 C 
ATOM     68  C   UNL A   1      44.953  31.775  27.870  1.00  0.00     0.034 A 
BRANCH  55  69
ATOM     69  C   UNL A   1      39.723  29.411  30.334  1.00  0.00     0.023 A 
ATOM     70  C   UNL A   1      39.379  28.308  31.148  1.00  0.00     0.012 A 
ATOM     71  C   UNL A   1      38.794  30.486  30.356  1.00  0.00     0.148 A 
ATOM     72  C   UNL A   1      38.198  28.262  31.906  1.00  0.00     0.002 A 
ATOM     73  C   UNL A   1      37.626  30.454  31.127  1.00  0.00     0.091 A 
ATOM     74  F   UNL A   1      38.992  31.570  29.615  1.00  0.00    -0.205 F 
ATOM     75  C   UNL A   1      37.320  29.336  31.898  1.00  0.00     0.022 A 
BRANCH  73  76
ATOM     76  S   UNL A   1      36.450  31.828  31.172  1.00  0.00     0.127 S 
ATOM     77  O   UNL A   1      35.477  31.365  32.163  1.00  0.00    -0.237 OA
ATOM     78  O   UNL A   1      37.288  32.940  31.617  1.00  0.00    -0.237 OA
ATOM     79  O   UNL A   1      35.917  31.969  29.823  1.00  0.00    -0.744 OA
ENDBRANCH  73  76
ENDBRANCH  55  69
BRANCH  56  80
ATOM     80  C   UNL A   1      48.761  27.204  26.723  1.00  0.00     0.023 A 
ATOM     81  C   UNL A   1      47.856  26.412  25.970  1.00  0.00     0.012 A 
ATOM     82  C   UNL A   1      50.013  27.515  26.161  1.00  0.00     0.148 A 
ATOM     83  C   UNL A   1      48.108  26.114  24.629  1.00  0.00     0.002 A 
ATOM     84  C   UNL A   1      50.242  27.239  24.812  1.00  0.00     0.091 A 
ATOM     85  F   UNL A   1      50.891  28.199  26.903  1.00  0.00    -0.205 F 
ATOM     86  C   UNL A   1      49.274  26.580  24.036  1.00  0.00     0.022 A 
BRANCH  84  87
ATOM     87  S   UNL A   1      51.671  27.914  23.952  1.00  0.00     0.127 S 
ATOM     88  O   UNL A   1      51.541  27.303  22.631  1.00  0.00    -0.237 OA
ATOM     89  O   UNL A   1      51.401  29.351  23.985  1.00  0.00    -0.237 OA
ATOM     90  O   UNL A   1      52.814  27.500  24.743  1.00  0.00    -0.744 OA
ENDBRANCH  84  87
ENDBRANCH  56  80
BRANCH  68  91
ATOM     91  C   UNL A   1      44.454  33.017  27.157  1.00  0.00     0.023 A 
ATOM     92  C   UNL A   1      44.110  33.008  25.790  1.00  0.00     0.012 A 
ATOM     93  C   UNL A   1      44.168  34.207  27.873  1.00  0.00     0.148 A 
ATOM     94  C   UNL A   1      43.602  34.137  25.144  1.00  0.00     0.002 A 
ATOM     95  C   UNL A   1      43.529  35.278  27.257  1.00  0.00     0.091 A 
ATOM     96  F   UNL A   1      44.529  34.322  29.158  1.00  0.00    -0.205 F 
ATOM     97  C   UNL A   1      43.289  35.267  25.882  1.00  0.00     0.022 A 
BRANCH  95  98
ATOM     98  S   UNL A   1      42.834  36.627  28.220  1.00  0.00     0.127 S 
ATOM     99  O   UNL A   1      44.030  37.383  28.585  1.00  0.00    -0.237 OA
ATOM    100  O   UNL A   1      41.967  37.290  27.243  1.00  0.00    -0.237 OA
ATOM    101  O   UNL A   1      42.117  35.989  29.316  1.00  0.00    -0.744 OA
ENDBRANCH  95  98
ENDBRANCH  68  91
ENDBRANCH  42  43
ENDBRANCH  34  37
ENDBRANCH  32  33
ENDBRANCH  31  32
ENDBRANCH   1  31
TORSDOF 20
ENDMDL
MODEL 3
REMARK VINA RESULT:     -11.3      1.324      3.613
REMARK SMILES Cc1ccc([C@@H](C(=O)N(CC(=O)NCCCCNC(=O)c2ccc(-c3c4nc(c(-c5cccc(S(=O)(=O)[O-])c5F)c5ccc([nH]5)c(-c5cccc(S(=O)(=O)[O-])c5F)c5nc(c(-c6cccc(S(=O)(=O)[O-])c6F)c6ccc3[nH]6)C=C5)C=C4)cc2)C2CC[NH+](C)CC2)[NH+](C)C)cc1
REMARK SMILES IDX 15 1 14 2 13 3 11 4 12 5 10 7 9 8 7 9 8 10 6 11 5 12 1 13
REMARK SMILES IDX 2 14 3 15 95 16 4 17 94 18 91 19 92 20 93 21 84 23 85 24
REMARK SMILES IDX 90 25 86 26 89 27 87 28 88 29 16 31 17 32 18 33 19 34 20 36
REMARK SMILES IDX 21 37 22 38 83 39 23 40 82 41 24 42 25 43 26 44 76 45 27 46
REMARK SMILES IDX 81 47 75 48 77 49 28 50 80 51 74 52 73 53 29 55 61 56 41 57
REMARK SMILES IDX 60 58 42 59 45 60 59 61 78 62 43 63 44 64 58 66 79 67 46 68
REMARK SMILES IDX 30 69 31 70 39 71 32 72 34 73 40 74 33 75 35 76 36 77 37 78
REMARK SMILES IDX 38 79 62 80 63 81 71 82 64 83 66 84 72 85 65 86 67 87 68 88
REMARK SMILES IDX 69 89 70 90 47 91 48 92 56 93 49 94 51 95 57 96 50 97 52 98
REMARK SMILES IDX 53 99 54 100 55 101
REMARK H PARENT 13 6 91 22 87 30 18 35 77 54 45 65
REMARK Flexibility Score: inf
ROOT
ATOM      1  C   UNL A   1      32.942  28.820  27.261  1.00  0.00     0.023 C 
ENDROOT
BRANCH   1   2
ATOM      2  C   UNL A   1      32.781  27.415  26.683  1.00  0.00     0.116 C 
BRANCH   2   3
ATOM      3  N   UNL A   1      33.965  26.648  26.404  1.00  0.00    -0.355 N 
ATOM      4  C   UNL A   1      33.948  25.387  25.854  1.00  0.00     0.239 C 
ATOM      5  O   UNL A   1      34.890  25.043  25.137  1.00  0.00    -0.273 OA
ATOM      6  H   UNL A   1      34.838  27.048  26.619  1.00  0.00     0.163 HD
BRANCH   4   7
ATOM      7  C   UNL A   1      32.747  24.435  26.089  1.00  0.00     0.219 C 
BRANCH   7   8
ATOM      8  N   UNL A   1      32.111  23.832  24.903  1.00  0.00    -0.324 N 
BRANCH   8   9
ATOM      9  C   UNL A   1      31.370  24.590  23.949  1.00  0.00     0.286 C 
ATOM     10  O   UNL A   1      30.414  24.040  23.384  1.00  0.00    -0.267 OA
BRANCH   9  11
ATOM     11  C   UNL A   1      31.826  26.077  23.531  1.00  0.00     0.305 C 
BRANCH  11  12
ATOM     12  C   UNL A   1      30.740  27.140  23.725  1.00  0.00     0.019 A 
ATOM     13  C   UNL A   1      27.838  29.798  22.196  1.00  0.00     0.044 C 
ATOM     14  C   UNL A   1      28.754  28.953  23.026  1.00  0.00    -0.051 A 
ATOM     15  C   UNL A   1      30.030  29.419  23.354  1.00  0.00     0.004 A 
ATOM     16  C   UNL A   1      28.407  27.639  23.323  1.00  0.00     0.004 A 
ATOM     17  C   UNL A   1      31.028  28.510  23.687  1.00  0.00     0.011 A 
ATOM     18  C   UNL A   1      29.391  26.742  23.727  1.00  0.00     0.011 A 
ENDBRANCH  11  12
BRANCH  11  19
ATOM     19  N   UNL A   1      32.480  26.172  22.185  1.00  0.00    -0.326 N 
ATOM     20  C   UNL A   1      31.508  26.287  21.105  1.00  0.00     0.333 C 
ATOM     21  C   UNL A   1      33.519  27.193  22.054  1.00  0.00     0.333 C 
ATOM     22  H   UNL A   1      32.970  25.282  22.102  1.00  0.00     0.348 HD
ENDBRANCH  11  19
ENDBRANCH   9  11
ENDBRANCH   8   9
BRANCH   8  23
ATOM     23  C   UNL A   1      31.996  22.334  24.845  1.00  0.00     0.097 C 
ATOM     24  C   UNL A   1      32.344  21.490  26.096  1.00  0.00     0.086 C 
ATOM     25  C   UNL A   1      32.846  21.739  23.714  1.00  0.00     0.086 C 
ATOM     26  C   UNL A   1      33.835  21.468  26.430  1.00  0.00     0.264 C 
ATOM     27  C   UNL A   1      34.328  21.849  24.053  1.00  0.00     0.264 C 
ATOM     28  N   UNL A   1      34.683  21.125  25.282  1.00  0.00    -0.337 N 
ATOM     29  C   UNL A   1      36.087  21.385  25.613  1.00  0.00     0.332 C 
ATOM     30  H   UNL A   1      34.530  20.135  25.093  1.00  0.00     0.347 HD
ENDBRANCH   8  23
ENDBRANCH   7   8
ENDBRANCH   4   7
ENDBRANCH   2   3
ENDBRANCH   1   2
BRANCH   1  31
ATOM     31  C   UNL A   1      34.048  29.659  26.634  1.00  0.00     0.023 C 
BRANCH  31  32
ATOM     32  C   UNL A   1      34.752  30.571  27.624  1.00  0.00     0.116 C 
BRANCH  32  33
ATOM     33  N   UNL A   1      34.167  31.866  27.842  1.00  0.00    -0.352 N 
ATOM     34  C   UNL A   1      34.379  32.714  28.917  1.00  0.00     0.251 C 
ATOM     35  H   UNL A   1      33.545  32.186  27.149  1.00  0.00     0.163 HD
ATOM     36  O   UNL A   1      33.540  33.593  29.111  1.00  0.00    -0.269 OA
BRANCH  34  37
ATOM     37  C   UNL A   1      35.636  32.657  29.731  1.00  0.00     0.039 A 
ATOM     38  C   UNL A   1      36.809  33.168  29.153  1.00  0.00     0.014 A 
ATOM     39  C   UNL A   1      35.751  31.946  30.921  1.00  0.00     0.014 A 
ATOM     40  C   UNL A   1      38.059  32.700  29.556  1.00  0.00     0.010 A 
ATOM     41  C   UNL A   1      36.973  31.463  31.309  1.00  0.00     0.010 A 
ATOM     42  C   UNL A   1      38.098  31.728  30.536  1.00  0.00    -0.014 A 
BRANCH  42  43
ATOM     43  C   UNL A   1      39.244  30.930  30.913  1.00  0.00     0.031 A 
ATOM     44  C   UNL A   1      39.462  29.666  30.218  1.00  0.00     0.074 A 
ATOM     45  C   UNL A   1      40.247  31.600  31.520  1.00  0.00     0.049 A 
ATOM     46  N   UNL A   1      40.379  28.820  30.524  1.00  0.00    -0.248 NA
ATOM     47  C   UNL A   1      38.613  29.241  29.113  1.00  0.00     0.031 C 
ATOM     48  C   UNL A   1      41.680  31.354  31.420  1.00  0.00     0.029 A 
ATOM     49  N   UNL A   1      40.151  32.684  32.391  1.00  0.00    -0.354 N 
ATOM     50  C   UNL A   1      40.457  27.934  29.474  1.00  0.00     0.074 A 
ATOM     51  C   UNL A   1      39.226  28.115  28.750  1.00  0.00     0.031 C 
ATOM     52  C   UNL A   1      42.315  32.099  32.342  1.00  0.00     0.029 A 
ATOM     53  C   UNL A   1      41.293  32.674  33.202  1.00  0.00     0.049 A 
ATOM     54  H   UNL A   1      39.416  33.336  32.429  1.00  0.00     0.167 HD
ATOM     55  C   UNL A   1      41.645  27.303  29.251  1.00  0.00     0.034 A 
ATOM     56  C   UNL A   1      41.227  32.505  34.557  1.00  0.00     0.034 A 
ATOM     57  C   UNL A   1      42.607  27.644  30.328  1.00  0.00     0.049 A 
ATOM     58  C   UNL A   1      41.805  31.153  34.945  1.00  0.00     0.074 A 
ATOM     59  C   UNL A   1      43.702  28.490  30.384  1.00  0.00     0.029 A 
ATOM     60  N   UNL A   1      42.290  27.346  31.657  1.00  0.00    -0.354 N 
ATOM     61  N   UNL A   1      42.199  30.258  34.077  1.00  0.00    -0.248 NA
ATOM     62  C   UNL A   1      42.012  30.699  36.314  1.00  0.00     0.031 C 
ATOM     63  C   UNL A   1      43.961  28.789  31.756  1.00  0.00     0.029 A 
ATOM     64  C   UNL A   1      43.057  28.093  32.546  1.00  0.00     0.049 A 
ATOM     65  H   UNL A   1      41.609  26.688  31.930  1.00  0.00     0.167 HD
ATOM     66  C   UNL A   1      42.583  29.111  34.698  1.00  0.00     0.074 A 
ATOM     67  C   UNL A   1      42.515  29.467  36.110  1.00  0.00     0.031 C 
ATOM     68  C   UNL A   1      42.864  27.965  33.998  1.00  0.00     0.034 A 
BRANCH  55  69
ATOM     69  C   UNL A   1      42.050  26.584  27.961  1.00  0.00     0.023 A 
ATOM     70  C   UNL A   1      42.380  27.397  26.853  1.00  0.00     0.012 A 
ATOM     71  C   UNL A   1      42.093  25.186  27.712  1.00  0.00     0.148 A 
ATOM     72  C   UNL A   1      42.702  26.870  25.593  1.00  0.00     0.002 A 
ATOM     73  C   UNL A   1      42.435  24.654  26.464  1.00  0.00     0.091 A 
ATOM     74  F   UNL A   1      41.781  24.316  28.667  1.00  0.00    -0.205 F 
ATOM     75  C   UNL A   1      42.733  25.497  25.396  1.00  0.00     0.022 A 
BRANCH  73  76
ATOM     76  S   UNL A   1      42.509  22.875  26.148  1.00  0.00     0.127 S 
ATOM     77  O   UNL A   1      42.857  22.830  24.727  1.00  0.00    -0.237 OA
ATOM     78  O   UNL A   1      43.576  22.443  27.049  1.00  0.00    -0.237 OA
ATOM     79  O   UNL A   1      41.191  22.337  26.464  1.00  0.00    -0.744 OA
ENDBRANCH  73  76
ENDBRANCH  55  69
BRANCH  56  80
ATOM     80  C   UNL A   1      40.046  33.202  35.157  1.00  0.00     0.023 A 
ATOM     81  C   UNL A   1      38.875  32.413  35.300  1.00  0.00     0.012 A 
ATOM     82  C   UNL A   1      40.226  34.303  36.014  1.00  0.00     0.148 A 
ATOM     83  C   UNL A   1      38.018  32.593  36.388  1.00  0.00     0.002 A 
ATOM     84  C   UNL A   1      39.381  34.455  37.115  1.00  0.00     0.091 A 
ATOM     85  F   UNL A   1      41.294  35.088  35.827  1.00  0.00    -0.205 F 
ATOM     86  C   UNL A   1      38.306  33.576  37.327  1.00  0.00     0.022 A 
BRANCH  84  87
ATOM     87  S   UNL A   1      39.763  35.626  38.428  1.00  0.00     0.127 S 
ATOM     88  O   UNL A   1      38.759  35.283  39.434  1.00  0.00    -0.237 OA
ATOM     89  O   UNL A   1      41.131  35.253  38.785  1.00  0.00    -0.237 OA
ATOM     90  O   UNL A   1      39.637  36.933  37.812  1.00  0.00    -0.744 OA
ENDBRANCH  84  87
ENDBRANCH  56  80
BRANCH  68  91
ATOM     91  C   UNL A   1      42.983  26.596  34.640  1.00  0.00     0.023 A 
ATOM     92  C   UNL A   1      41.852  25.853  35.032  1.00  0.00     0.012 A 
ATOM     93  C   UNL A   1      44.236  25.940  34.736  1.00  0.00     0.148 A 
ATOM     94  C   UNL A   1      41.958  24.571  35.577  1.00  0.00     0.002 A 
ATOM     95  C   UNL A   1      44.320  24.613  35.143  1.00  0.00     0.091 A 
ATOM     96  F   UNL A   1      45.366  26.601  34.450  1.00  0.00    -0.205 F 
ATOM     97  C   UNL A   1      43.191  23.940  35.611  1.00  0.00     0.022 A 
BRANCH  95  98
ATOM     98  S   UNL A   1      45.830  23.663  34.920  1.00  0.00     0.127 S 
ATOM     99  O   UNL A   1      46.167  23.958  33.529  1.00  0.00    -0.237 OA
ATOM    100  O   UNL A   1      46.726  24.270  35.907  1.00  0.00    -0.237 OA
ATOM    101  O   UNL A   1      45.465  22.284  35.215  1.00  0.00    -0.744 OA
ENDBRANCH  95  98
ENDBRANCH  68  91
ENDBRANCH  42  43
ENDBRANCH  34  37
ENDBRANCH  32  33
ENDBRANCH  31  32
ENDBRANCH   1  31
TORSDOF 20
ENDMDL
