MODEL 1
REMARK VINA RESULT:     -11.3      0.000      0.000
REMARK SMILES O=C(NCCCCNC(=O)c1cc(-c2ccoc2)n[nH]1)c1ccc(-c2c3nc(c(-c4cccc(S(=O)(=O)[O-])c4F)c4ccc([nH]4)c(-c4cccc(S(=O)(=O)[O-])c4F)c4nc(c(-c5cccc(S(=O)(=O)[O-])c5F)c5ccc2[nH]5)C=C4)C=C3)cc1
REMARK SMILES IDX 4 1 3 2 1 3 2 4 21 6 22 7 83 8 23 9 82 10 24 11 25 12 26 13
REMARK SMILES IDX 76 14 27 15 81 16 75 17 77 18 28 19 80 20 74 21 73 22 29 24
REMARK SMILES IDX 61 25 41 26 60 27 42 28 45 29 59 30 78 31 43 32 44 33 58 35
REMARK SMILES IDX 79 36 46 37 30 38 31 39 39 40 32 41 34 42 40 43 33 44 35 45
REMARK SMILES IDX 36 46 37 47 38 48 62 49 63 50 71 51 64 52 66 53 72 54 65 55
REMARK SMILES IDX 67 56 68 57 69 58 70 59 47 60 48 61 56 62 49 63 51 64 57 65
REMARK SMILES IDX 50 66 52 67 53 68 54 69 55 70 5 71 6 72 7 73 8 74 9 75 10 77
REMARK SMILES IDX 11 78 12 79 20 80 13 81 19 82 14 84 15 85 18 86 16 87 17 88
REMARK H PARENT 3 5 77 23 45 34 8 76 20 83
REMARK Flexibility Score: inf
ROOT
ATOM      1  C   UNL A   1      34.339  32.874  28.852  1.00  0.00     0.116 C 
ENDROOT
BRANCH   1   2
ATOM      2  N   UNL A   1      33.804  31.778  28.060  1.00  0.00    -0.352 N 
ATOM      3  O   UNL A   1      33.848  29.847  26.900  1.00  0.00    -0.269 OA
ATOM      4  C   UNL A   1      34.416  30.605  27.679  1.00  0.00     0.251 C 
ATOM      5  H   UNL A   1      32.875  31.890  27.753  1.00  0.00     0.163 HD
BRANCH   4   6
ATOM      6  C   UNL A   1      35.771  30.289  28.184  1.00  0.00     0.039 A 
ATOM      7  C   UNL A   1      36.902  30.575  27.418  1.00  0.00     0.014 A 
ATOM      8  C   UNL A   1      35.906  29.673  29.432  1.00  0.00     0.014 A 
ATOM      9  C   UNL A   1      38.147  30.103  27.823  1.00  0.00     0.010 A 
ATOM     10  C   UNL A   1      37.171  29.277  29.877  1.00  0.00     0.010 A 
ATOM     11  C   UNL A   1      38.296  29.449  29.057  1.00  0.00    -0.014 A 
BRANCH  11  12
ATOM     12  C   UNL A   1      39.649  29.004  29.482  1.00  0.00     0.031 A 
ATOM     13  C   UNL A   1      40.374  29.675  30.617  1.00  0.00     0.074 A 
ATOM     14  C   UNL A   1      40.216  27.963  28.843  1.00  0.00     0.049 A 
ATOM     15  N   UNL A   1      41.528  29.362  31.152  1.00  0.00    -0.248 NA
ATOM     16  C   UNL A   1      39.733  30.850  31.229  1.00  0.00     0.031 C 
ATOM     17  C   UNL A   1      39.630  27.262  27.697  1.00  0.00     0.029 A 
ATOM     18  N   UNL A   1      41.398  27.304  29.064  1.00  0.00    -0.354 N 
ATOM     19  C   UNL A   1      41.771  30.318  32.129  1.00  0.00     0.074 A 
ATOM     20  C   UNL A   1      40.647  31.230  32.113  1.00  0.00     0.031 C 
ATOM     21  C   UNL A   1      40.432  26.249  27.343  1.00  0.00     0.029 A 
ATOM     22  C   UNL A   1      41.610  26.254  28.203  1.00  0.00     0.049 A 
ATOM     23  H   UNL A   1      42.033  27.559  29.772  1.00  0.00     0.167 HD
ATOM     24  C   UNL A   1      42.824  30.417  32.978  1.00  0.00     0.034 A 
ATOM     25  C   UNL A   1      42.638  25.388  28.112  1.00  0.00     0.034 A 
ATOM     26  C   UNL A   1      43.917  29.481  33.023  1.00  0.00     0.049 A 
ATOM     27  C   UNL A   1      43.771  25.499  29.091  1.00  0.00     0.074 A 
ATOM     28  C   UNL A   1      44.993  29.457  33.894  1.00  0.00     0.029 A 
ATOM     29  N   UNL A   1      44.078  28.407  32.162  1.00  0.00    -0.354 N 
ATOM     30  N   UNL A   1      43.912  26.327  30.096  1.00  0.00    -0.248 NA
ATOM     31  C   UNL A   1      44.873  24.540  28.939  1.00  0.00     0.031 C 
ATOM     32  C   UNL A   1      45.810  28.373  33.552  1.00  0.00     0.029 A 
ATOM     33  C   UNL A   1      45.237  27.716  32.475  1.00  0.00     0.049 A 
ATOM     34  H   UNL A   1      43.458  28.169  31.435  1.00  0.00     0.167 HD
ATOM     35  C   UNL A   1      45.107  25.978  30.712  1.00  0.00     0.074 A 
ATOM     36  C   UNL A   1      45.635  24.842  29.983  1.00  0.00     0.031 C 
ATOM     37  C   UNL A   1      45.724  26.557  31.770  1.00  0.00     0.034 A 
BRANCH  24  38
ATOM     38  C   UNL A   1      42.826  31.554  33.968  1.00  0.00     0.023 A 
ATOM     39  C   UNL A   1      43.384  32.794  33.598  1.00  0.00     0.012 A 
ATOM     40  C   UNL A   1      42.218  31.420  35.232  1.00  0.00     0.148 A 
ATOM     41  C   UNL A   1      43.359  33.875  34.478  1.00  0.00     0.002 A 
ATOM     42  C   UNL A   1      42.165  32.512  36.091  1.00  0.00     0.091 A 
ATOM     43  F   UNL A   1      41.715  30.226  35.578  1.00  0.00    -0.205 F 
ATOM     44  C   UNL A   1      42.742  33.738  35.719  1.00  0.00     0.022 A 
BRANCH  42  45
ATOM     45  S   UNL A   1      41.327  32.447  37.680  1.00  0.00     0.127 S 
ATOM     46  O   UNL A   1      40.018  31.919  37.301  1.00  0.00    -0.237 OA
ATOM     47  O   UNL A   1      42.164  31.514  38.437  1.00  0.00    -0.237 OA
ATOM     48  O   UNL A   1      41.338  33.812  38.187  1.00  0.00    -0.744 OA
ENDBRANCH  42  45
ENDBRANCH  24  38
BRANCH  25  49
ATOM     49  C   UNL A   1      42.595  24.300  27.097  1.00  0.00     0.023 A 
ATOM     50  C   UNL A   1      43.472  24.347  25.997  1.00  0.00     0.012 A 
ATOM     51  C   UNL A   1      41.740  23.192  27.247  1.00  0.00     0.148 A 
ATOM     52  C   UNL A   1      43.487  23.318  25.055  1.00  0.00     0.002 A 
ATOM     53  C   UNL A   1      41.801  22.142  26.338  1.00  0.00     0.091 A 
ATOM     54  F   UNL A   1      40.896  23.174  28.289  1.00  0.00    -0.205 F 
ATOM     55  C   UNL A   1      42.664  22.210  25.233  1.00  0.00     0.022 A 
BRANCH  53  56
ATOM     56  S   UNL A   1      40.884  20.617  26.583  1.00  0.00     0.127 S 
ATOM     57  O   UNL A   1      39.533  21.015  26.198  1.00  0.00    -0.237 OA
ATOM     58  O   UNL A   1      41.548  19.704  25.653  1.00  0.00    -0.237 OA
ATOM     59  O   UNL A   1      41.074  20.276  27.987  1.00  0.00    -0.744 OA
ENDBRANCH  53  56
ENDBRANCH  25  49
BRANCH  37  60
ATOM     60  C   UNL A   1      47.034  25.966  32.215  1.00  0.00     0.023 A 
ATOM     61  C   UNL A   1      48.229  26.393  31.604  1.00  0.00     0.012 A 
ATOM     62  C   UNL A   1      47.089  25.034  33.270  1.00  0.00     0.148 A 
ATOM     63  C   UNL A   1      49.459  25.878  32.015  1.00  0.00     0.002 A 
ATOM     64  C   UNL A   1      48.322  24.558  33.702  1.00  0.00     0.091 A 
ATOM     65  F   UNL A   1      45.939  24.621  33.822  1.00  0.00    -0.205 F 
ATOM     66  C   UNL A   1      49.505  24.969  33.069  1.00  0.00     0.022 A 
BRANCH  64  67
ATOM     67  S   UNL A   1      48.473  23.452  35.110  1.00  0.00     0.127 S 
ATOM     68  O   UNL A   1      49.910  23.503  35.377  1.00  0.00    -0.237 OA
ATOM     69  O   UNL A   1      47.641  24.109  36.119  1.00  0.00    -0.237 OA
ATOM     70  O   UNL A   1      47.961  22.166  34.656  1.00  0.00    -0.744 OA
ENDBRANCH  64  67
ENDBRANCH  37  60
ENDBRANCH  11  12
ENDBRANCH   4   6
ENDBRANCH   1   2
BRANCH   1  71
ATOM     71  C   UNL A   1      34.911  34.004  28.005  1.00  0.00     0.023 C 
BRANCH  71  72
ATOM     72  C   UNL A   1      34.401  35.401  28.351  1.00  0.00     0.023 C 
BRANCH  72  73
ATOM     73  C   UNL A   1      33.182  35.434  29.271  1.00  0.00     0.116 C 
BRANCH  73  74
ATOM     74  N   UNL A   1      33.156  36.630  30.101  1.00  0.00    -0.351 N 
ATOM     75  C   UNL A   1      33.258  36.734  31.463  1.00  0.00     0.269 C 
ATOM     76  H   UNL A   1      33.050  37.481  29.617  1.00  0.00     0.163 HD
ATOM     77  O   UNL A   1      32.914  37.782  32.011  1.00  0.00    -0.268 OA
BRANCH  75  78
ATOM     78  C   UNL A   1      33.718  35.602  32.208  1.00  0.00     0.123 A 
ATOM     79  C   UNL A   1      34.964  35.256  32.694  1.00  0.00     0.064 A 
ATOM     80  N   UNL A   1      32.886  34.602  32.627  1.00  0.00    -0.272 N 
ATOM     81  C   UNL A   1      34.802  33.961  33.220  1.00  0.00     0.096 A 
ATOM     82  N   UNL A   1      33.533  33.546  33.159  1.00  0.00    -0.175 NA
ATOM     83  H   UNL A   1      31.905  34.648  32.546  1.00  0.00     0.190 HD
BRANCH  81  84
ATOM     84  C   UNL A   1      35.899  33.133  33.694  1.00  0.00     0.040 A 
ATOM     85  C   UNL A   1      36.386  31.955  33.078  1.00  0.00     0.052 A 
ATOM     86  C   UNL A   1      36.641  33.312  34.836  1.00  0.00     0.205 A 
ATOM     87  C   UNL A   1      37.393  31.493  33.894  1.00  0.00     0.195 A 
ATOM     88  O   UNL A   1      37.551  32.310  34.969  1.00  0.00    -0.472 OA
ENDBRANCH  81  84
ENDBRANCH  75  78
ENDBRANCH  73  74
ENDBRANCH  72  73
ENDBRANCH  71  72
ENDBRANCH   1  71
TORSDOF 15
ENDMDL
MODEL 2
REMARK VINA RESULT:     -11.2      1.410      1.792
REMARK SMILES O=C(NCCCCNC(=O)c1cc(-c2ccoc2)n[nH]1)c1ccc(-c2c3nc(c(-c4cccc(S(=O)(=O)[O-])c4F)c4ccc([nH]4)c(-c4cccc(S(=O)(=O)[O-])c4F)c4nc(c(-c5cccc(S(=O)(=O)[O-])c5F)c5ccc2[nH]5)C=C4)C=C3)cc1
REMARK SMILES IDX 4 1 3 2 1 3 2 4 21 6 22 7 83 8 23 9 82 10 24 11 25 12 26 13
REMARK SMILES IDX 76 14 27 15 81 16 75 17 77 18 28 19 80 20 74 21 73 22 29 24
REMARK SMILES IDX 61 25 41 26 60 27 42 28 45 29 59 30 78 31 43 32 44 33 58 35
REMARK SMILES IDX 79 36 46 37 30 38 31 39 39 40 32 41 34 42 40 43 33 44 35 45
REMARK SMILES IDX 36 46 37 47 38 48 62 49 63 50 71 51 64 52 66 53 72 54 65 55
REMARK SMILES IDX 67 56 68 57 69 58 70 59 47 60 48 61 56 62 49 63 51 64 57 65
REMARK SMILES IDX 50 66 52 67 53 68 54 69 55 70 5 71 6 72 7 73 8 74 9 75 10 77
REMARK SMILES IDX 11 78 12 79 20 80 13 81 19 82 14 84 15 85 18 86 16 87 17 88
REMARK H PARENT 3 5 77 23 45 34 8 76 20 83
REMARK Flexibility Score: inf
ROOT
ATOM      1  C   UNL A   1      34.923  33.114  28.674  1.00  0.00     0.116 C 
ENDROOT
BRANCH   1   2
ATOM      2  N   UNL A   1      34.046  32.066  28.175  1.00  0.00    -0.352 N 
ATOM      3  O   UNL A   1      33.491  30.032  27.382  1.00  0.00    -0.269 OA
ATOM      4  C   UNL A   1      34.332  30.744  27.922  1.00  0.00     0.251 C 
ATOM      5  H   UNL A   1      33.118  32.341  27.994  1.00  0.00     0.163 HD
BRANCH   4   6
ATOM      6  C   UNL A   1      35.665  30.204  28.269  1.00  0.00     0.039 A 
ATOM      7  C   UNL A   1      35.895  29.622  29.517  1.00  0.00     0.014 A 
ATOM      8  C   UNL A   1      36.705  30.306  27.340  1.00  0.00     0.014 A 
ATOM      9  C   UNL A   1      37.193  29.293  29.896  1.00  0.00     0.010 A 
ATOM     10  C   UNL A   1      37.993  29.892  27.692  1.00  0.00     0.010 A 
ATOM     11  C   UNL A   1      38.257  29.423  28.988  1.00  0.00    -0.014 A 
BRANCH  11  12
ATOM     12  C   UNL A   1      39.623  29.012  29.408  1.00  0.00     0.031 A 
ATOM     13  C   UNL A   1      40.337  29.706  30.536  1.00  0.00     0.074 A 
ATOM     14  C   UNL A   1      40.210  27.981  28.771  1.00  0.00     0.049 A 
ATOM     15  N   UNL A   1      41.501  29.424  31.065  1.00  0.00    -0.248 NA
ATOM     16  C   UNL A   1      39.672  30.869  31.145  1.00  0.00     0.031 C 
ATOM     17  C   UNL A   1      39.635  27.261  27.633  1.00  0.00     0.029 A 
ATOM     18  N   UNL A   1      41.409  27.352  28.990  1.00  0.00    -0.354 N 
ATOM     19  C   UNL A   1      41.727  30.391  32.037  1.00  0.00     0.074 A 
ATOM     20  C   UNL A   1      40.581  31.276  32.022  1.00  0.00     0.031 C 
ATOM     21  C   UNL A   1      40.459  26.265  27.279  1.00  0.00     0.029 A 
ATOM     22  C   UNL A   1      41.641  26.302  28.134  1.00  0.00     0.049 A 
ATOM     23  H   UNL A   1      42.041  27.626  29.693  1.00  0.00     0.167 HD
ATOM     24  C   UNL A   1      42.781  30.519  32.879  1.00  0.00     0.034 A 
ATOM     25  C   UNL A   1      42.689  25.461  28.041  1.00  0.00     0.034 A 
ATOM     26  C   UNL A   1      43.896  29.609  32.924  1.00  0.00     0.049 A 
ATOM     27  C   UNL A   1      43.824  25.604  29.014  1.00  0.00     0.074 A 
ATOM     28  C   UNL A   1      44.977  29.615  33.789  1.00  0.00     0.029 A 
ATOM     29  N   UNL A   1      44.078  28.535  32.067  1.00  0.00    -0.354 N 
ATOM     30  N   UNL A   1      43.951  26.440  30.014  1.00  0.00    -0.248 NA
ATOM     31  C   UNL A   1      44.947  24.669  28.861  1.00  0.00     0.031 C 
ATOM     32  C   UNL A   1      45.817  28.549  33.448  1.00  0.00     0.029 A 
ATOM     33  C   UNL A   1      45.254  27.873  32.378  1.00  0.00     0.049 A 
ATOM     34  H   UNL A   1      43.460  28.278  31.345  1.00  0.00     0.167 HD
ATOM     35  C   UNL A   1      45.156  26.123  30.625  1.00  0.00     0.074 A 
ATOM     36  C   UNL A   1      45.707  24.995  29.899  1.00  0.00     0.031 C 
ATOM     37  C   UNL A   1      45.765  26.722  31.677  1.00  0.00     0.034 A 
BRANCH  24  38
ATOM     38  C   UNL A   1      42.761  31.661  33.864  1.00  0.00     0.023 A 
ATOM     39  C   UNL A   1      43.223  32.930  33.461  1.00  0.00     0.012 A 
ATOM     40  C   UNL A   1      42.225  31.499  35.156  1.00  0.00     0.148 A 
ATOM     41  C   UNL A   1      43.175  34.014  34.337  1.00  0.00     0.002 A 
ATOM     42  C   UNL A   1      42.147  32.593  36.012  1.00  0.00     0.091 A 
ATOM     43  F   UNL A   1      41.814  30.279  35.531  1.00  0.00    -0.205 F 
ATOM     44  C   UNL A   1      42.629  33.849  35.606  1.00  0.00     0.022 A 
BRANCH  42  45
ATOM     45  S   UNL A   1      41.393  32.488  37.640  1.00  0.00     0.127 S 
ATOM     46  O   UNL A   1      41.515  33.866  38.111  1.00  0.00    -0.237 OA
ATOM     47  O   UNL A   1      40.025  32.071  37.325  1.00  0.00    -0.237 OA
ATOM     48  O   UNL A   1      42.171  31.498  38.371  1.00  0.00    -0.744 OA
ENDBRANCH  42  45
ENDBRANCH  24  38
BRANCH  25  49
ATOM     49  C   UNL A   1      42.666  24.366  27.032  1.00  0.00     0.023 A 
ATOM     50  C   UNL A   1      43.335  24.543  25.806  1.00  0.00     0.012 A 
ATOM     51  C   UNL A   1      42.044  23.132  27.304  1.00  0.00     0.148 A 
ATOM     52  C   UNL A   1      43.370  23.519  24.861  1.00  0.00     0.002 A 
ATOM     53  C   UNL A   1      42.134  22.095  26.383  1.00  0.00     0.091 A 
ATOM     54  F   UNL A   1      41.394  22.989  28.468  1.00  0.00    -0.205 F 
ATOM     55  C   UNL A   1      42.783  22.291  25.155  1.00  0.00     0.022 A 
BRANCH  53  56
ATOM     56  S   UNL A   1      41.536  20.442  26.753  1.00  0.00     0.127 S 
ATOM     57  O   UNL A   1      40.116  20.682  26.987  1.00  0.00    -0.237 OA
ATOM     58  O   UNL A   1      41.846  19.719  25.520  1.00  0.00    -0.237 OA
ATOM     59  O   UNL A   1      42.310  20.004  27.908  1.00  0.00    -0.744 OA
ENDBRANCH  53  56
ENDBRANCH  25  49
BRANCH  37  60
ATOM     60  C   UNL A   1      47.091  26.164  32.118  1.00  0.00     0.023 A 
ATOM     61  C   UNL A   1      47.136  25.250  33.189  1.00  0.00     0.012 A 
ATOM     62  C   UNL A   1      48.280  26.499  31.441  1.00  0.00     0.148 A 
ATOM     63  C   UNL A   1      48.350  24.700  33.600  1.00  0.00     0.002 A 
ATOM     64  C   UNL A   1      49.480  25.914  31.830  1.00  0.00     0.091 A 
ATOM     65  F   UNL A   1      48.220  27.390  30.440  1.00  0.00    -0.205 F 
ATOM     66  C   UNL A   1      49.519  25.024  32.915  1.00  0.00     0.022 A 
BRANCH  64  67
ATOM     67  S   UNL A   1      51.014  26.212  30.945  1.00  0.00     0.127 S 
ATOM     68  O   UNL A   1      51.222  27.640  31.178  1.00  0.00    -0.237 OA
ATOM     69  O   UNL A   1      51.958  25.337  31.642  1.00  0.00    -0.237 OA
ATOM     70  O   UNL A   1      50.752  25.829  29.564  1.00  0.00    -0.744 OA
ENDBRANCH  64  67
ENDBRANCH  37  60
ENDBRANCH  11  12
ENDBRANCH   4   6
ENDBRANCH   1   2
BRANCH   1  71
ATOM     71  C   UNL A   1      34.946  34.351  27.785  1.00  0.00     0.023 C 
BRANCH  71  72
ATOM     72  C   UNL A   1      34.452  35.637  28.444  1.00  0.00     0.023 C 
BRANCH  72  73
ATOM     73  C   UNL A   1      33.258  35.465  29.382  1.00  0.00     0.116 C 
BRANCH  73  74
ATOM     74  N   UNL A   1      33.115  36.587  30.297  1.00  0.00    -0.351 N 
ATOM     75  C   UNL A   1      33.143  36.591  31.666  1.00  0.00     0.269 C 
ATOM     76  H   UNL A   1      32.980  37.467  29.872  1.00  0.00     0.163 HD
ATOM     77  O   UNL A   1      32.706  37.570  32.271  1.00  0.00    -0.268 OA
BRANCH  75  78
ATOM     78  C   UNL A   1      33.636  35.434  32.347  1.00  0.00     0.123 A 
ATOM     79  C   UNL A   1      34.908  35.058  32.735  1.00  0.00     0.064 A 
ATOM     80  N   UNL A   1      32.819  34.434  32.799  1.00  0.00    -0.272 N 
ATOM     81  C   UNL A   1      34.762  33.751  33.239  1.00  0.00     0.096 A 
ATOM     82  N   UNL A   1      33.486  33.356  33.257  1.00  0.00    -0.175 NA
ATOM     83  H   UNL A   1      31.836  34.496  32.790  1.00  0.00     0.190 HD
BRANCH  81  84
ATOM     84  C   UNL A   1      35.876  32.896  33.613  1.00  0.00     0.040 A 
ATOM     85  C   UNL A   1      36.809  33.142  34.650  1.00  0.00     0.052 A 
ATOM     86  C   UNL A   1      36.257  31.718  33.017  1.00  0.00     0.205 A 
ATOM     87  C   UNL A   1      37.700  32.094  34.610  1.00  0.00     0.195 A 
ATOM     88  O   UNL A   1      37.374  31.226  33.616  1.00  0.00    -0.472 OA
ENDBRANCH  81  84
ENDBRANCH  75  78
ENDBRANCH  73  74
ENDBRANCH  72  73
ENDBRANCH  71  72
ENDBRANCH   1  71
TORSDOF 15
ENDMDL
MODEL 3
REMARK VINA RESULT:     -11.1      3.799      6.454
REMARK SMILES O=C(NCCCCNC(=O)c1cc(-c2ccoc2)n[nH]1)c1ccc(-c2c3nc(c(-c4cccc(S(=O)(=O)[O-])c4F)c4ccc([nH]4)c(-c4cccc(S(=O)(=O)[O-])c4F)c4nc(c(-c5cccc(S(=O)(=O)[O-])c5F)c5ccc2[nH]5)C=C4)C=C3)cc1
REMARK SMILES IDX 4 1 3 2 1 3 2 4 21 6 22 7 83 8 23 9 82 10 24 11 25 12 26 13
REMARK SMILES IDX 76 14 27 15 81 16 75 17 77 18 28 19 80 20 74 21 73 22 29 24
REMARK SMILES IDX 61 25 41 26 60 27 42 28 45 29 59 30 78 31 43 32 44 33 58 35
REMARK SMILES IDX 79 36 46 37 30 38 31 39 39 40 32 41 34 42 40 43 33 44 35 45
REMARK SMILES IDX 36 46 37 47 38 48 62 49 63 50 71 51 64 52 66 53 72 54 65 55
REMARK SMILES IDX 67 56 68 57 69 58 70 59 47 60 48 61 56 62 49 63 51 64 57 65
REMARK SMILES IDX 50 66 52 67 53 68 54 69 55 70 5 71 6 72 7 73 8 74 9 75 10 77
REMARK SMILES IDX 11 78 12 79 20 80 13 81 19 82 14 84 15 85 18 86 16 87 17 88
REMARK H PARENT 3 5 77 23 45 34 8 76 20 83
REMARK Flexibility Score: inf
ROOT
ATOM      1  C   UNL A   1      32.571  29.697  25.964  1.00  0.00     0.116 C 
ENDROOT
BRANCH   1   2
ATOM      2  N   UNL A   1      32.296  31.093  26.268  1.00  0.00    -0.352 N 
ATOM      3  O   UNL A   1      32.548  33.073  27.313  1.00  0.00    -0.269 OA
ATOM      4  C   UNL A   1      33.002  31.959  27.073  1.00  0.00     0.251 C 
ATOM      5  H   UNL A   1      31.494  31.471  25.840  1.00  0.00     0.163 HD
BRANCH   4   6
ATOM      6  C   UNL A   1      34.284  31.523  27.670  1.00  0.00     0.039 A 
ATOM      7  C   UNL A   1      34.492  30.186  28.011  1.00  0.00     0.014 A 
ATOM      8  C   UNL A   1      35.280  32.474  27.916  1.00  0.00     0.014 A 
ATOM      9  C   UNL A   1      35.622  29.828  28.740  1.00  0.00     0.010 A 
ATOM     10  C   UNL A   1      36.455  32.093  28.572  1.00  0.00     0.010 A 
ATOM     11  C   UNL A   1      36.617  30.777  29.029  1.00  0.00    -0.014 A 
BRANCH  11  12
ATOM     12  C   UNL A   1      37.836  30.349  29.764  1.00  0.00     0.031 A 
ATOM     13  C   UNL A   1      38.085  30.779  31.185  1.00  0.00     0.074 A 
ATOM     14  C   UNL A   1      38.715  29.542  29.140  1.00  0.00     0.049 A 
ATOM     15  N   UNL A   1      39.064  30.437  31.984  1.00  0.00    -0.248 NA
ATOM     16  C   UNL A   1      37.124  31.716  31.787  1.00  0.00     0.031 C 
ATOM     17  C   UNL A   1      38.604  29.097  27.749  1.00  0.00     0.029 A 
ATOM     18  N   UNL A   1      39.864  28.944  29.588  1.00  0.00    -0.354 N 
ATOM     19  C   UNL A   1      38.862  31.143  33.163  1.00  0.00     0.074 A 
ATOM     20  C   UNL A   1      37.669  31.941  32.976  1.00  0.00     0.031 C 
ATOM     21  C   UNL A   1      39.618  28.266  27.470  1.00  0.00     0.029 A 
ATOM     22  C   UNL A   1      40.475  28.153  28.644  1.00  0.00     0.049 A 
ATOM     23  H   UNL A   1      40.217  29.068  30.499  1.00  0.00     0.167 HD
ATOM     24  C   UNL A   1      39.592  31.115  34.306  1.00  0.00     0.034 A 
ATOM     25  C   UNL A   1      41.602  27.419  28.711  1.00  0.00     0.034 A 
ATOM     26  C   UNL A   1      40.750  30.284  34.506  1.00  0.00     0.049 A 
ATOM     27  C   UNL A   1      42.367  27.377  30.003  1.00  0.00     0.074 A 
ATOM     28  C   UNL A   1      41.513  30.133  35.651  1.00  0.00     0.029 A 
ATOM     29  N   UNL A   1      41.317  29.467  33.539  1.00  0.00    -0.354 N 
ATOM     30  N   UNL A   1      42.080  27.944  31.148  1.00  0.00    -0.248 NA
ATOM     31  C   UNL A   1      43.596  26.572  30.018  1.00  0.00     0.031 C 
ATOM     32  C   UNL A   1      42.548  29.231  35.373  1.00  0.00     0.029 A 
ATOM     33  C   UNL A   1      42.422  28.813  34.058  1.00  0.00     0.049 A 
ATOM     34  H   UNL A   1      40.981  29.365  32.620  1.00  0.00     0.167 HD
ATOM     35  C   UNL A   1      43.079  27.550  32.029  1.00  0.00     0.074 A 
ATOM     36  C   UNL A   1      43.962  26.670  31.290  1.00  0.00     0.031 C 
ATOM     37  C   UNL A   1      43.263  27.902  33.324  1.00  0.00     0.034 A 
BRANCH  24  38
ATOM     38  C   UNL A   1      39.131  31.973  35.456  1.00  0.00     0.023 A 
ATOM     39  C   UNL A   1      38.210  31.449  36.386  1.00  0.00     0.012 A 
ATOM     40  C   UNL A   1      39.657  33.264  35.658  1.00  0.00     0.148 A 
ATOM     41  C   UNL A   1      37.800  32.205  37.483  1.00  0.00     0.002 A 
ATOM     42  C   UNL A   1      39.271  33.998  36.775  1.00  0.00     0.091 A 
ATOM     43  F   UNL A   1      40.513  33.757  34.751  1.00  0.00    -0.205 F 
ATOM     44  C   UNL A   1      38.338  33.474  37.684  1.00  0.00     0.022 A 
BRANCH  42  45
ATOM     45  S   UNL A   1      39.966  35.613  37.151  1.00  0.00     0.127 S 
ATOM     46  O   UNL A   1      39.274  35.950  38.393  1.00  0.00    -0.237 OA
ATOM     47  O   UNL A   1      41.390  35.311  37.310  1.00  0.00    -0.237 OA
ATOM     48  O   UNL A   1      39.653  36.453  36.003  1.00  0.00    -0.744 OA
ENDBRANCH  42  45
ENDBRANCH  24  38
BRANCH  25  49
ATOM     49  C   UNL A   1      42.024  26.610  27.535  1.00  0.00     0.023 A 
ATOM     50  C   UNL A   1      42.818  27.205  26.536  1.00  0.00     0.012 A 
ATOM     51  C   UNL A   1      41.698  25.243  27.431  1.00  0.00     0.148 A 
ATOM     52  C   UNL A   1      43.266  26.459  25.447  1.00  0.00     0.002 A 
ATOM     53  C   UNL A   1      42.197  24.492  26.373  1.00  0.00     0.091 A 
ATOM     54  F   UNL A   1      40.924  24.699  28.380  1.00  0.00    -0.205 F 
ATOM     55  C   UNL A   1      42.969  25.100  25.373  1.00  0.00     0.022 A 
BRANCH  53  56
ATOM     56  S   UNL A   1      41.985  22.710  26.291  1.00  0.00     0.127 S 
ATOM     57  O   UNL A   1      42.652  22.387  25.033  1.00  0.00    -0.237 OA
ATOM     58  O   UNL A   1      42.685  22.260  27.495  1.00  0.00    -0.237 OA
ATOM     59  O   UNL A   1      40.545  22.493  26.326  1.00  0.00    -0.744 OA
ENDBRANCH  53  56
ENDBRANCH  25  49
BRANCH  37  60
ATOM     60  C   UNL A   1      44.458  27.324  34.034  1.00  0.00     0.023 A 
ATOM     61  C   UNL A   1      45.698  27.987  33.954  1.00  0.00     0.012 A 
ATOM     62  C   UNL A   1      44.342  26.163  34.822  1.00  0.00     0.148 A 
ATOM     63  C   UNL A   1      46.815  27.485  34.622  1.00  0.00     0.002 A 
ATOM     64  C   UNL A   1      45.449  25.693  35.519  1.00  0.00     0.091 A 
ATOM     65  F   UNL A   1      43.159  25.532  34.866  1.00  0.00    -0.205 F 
ATOM     66  C   UNL A   1      46.687  26.345  35.413  1.00  0.00     0.022 A 
BRANCH  64  67
ATOM     67  S   UNL A   1      45.347  24.281  36.627  1.00  0.00     0.127 S 
ATOM     68  O   UNL A   1      46.736  24.140  37.061  1.00  0.00    -0.237 OA
ATOM     69  O   UNL A   1      44.429  24.758  37.663  1.00  0.00    -0.237 OA
ATOM     70  O   UNL A   1      44.823  23.187  35.821  1.00  0.00    -0.744 OA
ENDBRANCH  64  67
ENDBRANCH  37  60
ENDBRANCH  11  12
ENDBRANCH   4   6
ENDBRANCH   1   2
BRANCH   1  71
ATOM     71  C   UNL A   1      31.632  28.732  26.677  1.00  0.00     0.023 C 
BRANCH  71  72
ATOM     72  C   UNL A   1      32.032  27.260  26.603  1.00  0.00     0.023 C 
BRANCH  72  73
ATOM     73  C   UNL A   1      30.946  26.321  26.082  1.00  0.00     0.116 C 
BRANCH  73  74
ATOM     74  N   UNL A   1      31.336  25.668  24.840  1.00  0.00    -0.351 N 
ATOM     75  C   UNL A   1      30.747  25.743  23.606  1.00  0.00     0.269 C 
ATOM     76  H   UNL A   1      32.135  25.093  24.896  1.00  0.00     0.163 HD
ATOM     77  O   UNL A   1      31.028  24.896  22.757  1.00  0.00    -0.268 OA
BRANCH  75  78
ATOM     78  C   UNL A   1      29.788  26.776  23.363  1.00  0.00     0.123 A 
ATOM     79  C   UNL A   1      29.904  28.037  22.811  1.00  0.00     0.064 A 
ATOM     80  N   UNL A   1      28.456  26.632  23.637  1.00  0.00    -0.272 N 
ATOM     81  C   UNL A   1      28.633  28.622  22.972  1.00  0.00     0.096 A 
ATOM     82  N   UNL A   1      27.749  27.771  23.501  1.00  0.00    -0.175 NA
ATOM     83  H   UNL A   1      28.052  25.776  23.911  1.00  0.00     0.190 HD
BRANCH  81  84
ATOM     84  C   UNL A   1      28.338  30.015  22.681  1.00  0.00     0.040 A 
ATOM     85  C   UNL A   1      28.679  30.713  21.497  1.00  0.00     0.052 A 
ATOM     86  C   UNL A   1      27.710  30.921  23.501  1.00  0.00     0.205 A 
ATOM     87  C   UNL A   1      28.238  32.004  21.682  1.00  0.00     0.195 A 
ATOM     88  O   UNL A   1      27.652  32.140  22.901  1.00  0.00    -0.472 OA
ENDBRANCH  81  84
ENDBRANCH  75  78
ENDBRANCH  73  74
ENDBRANCH  72  73
ENDBRANCH  71  72
ENDBRANCH   1  71
TORSDOF 15
ENDMDL
