MODEL 1
REMARK VINA RESULT:     -12.4      0.000      0.000
REMARK SMILES C[C@@H](C(=O)NCCCCNC(=O)c1ccc(-c2c3nc(c(-c4cccc(S(=O)(=O)[O-])c4F)c4ccc([nH]4)c(-c4cccc(S(=O)(=O)[O-])c4F)c4nc(c(-c5cccc(S(=O)(=O)[O-])c5F)c5ccc2[nH]5)C=C4)C=C3)cc1)c1ccc(-c2ccc3[nH]ccc3c2)cc1
REMARK SMILES IDX 8 1 7 2 6 3 5 4 3 5 4 6 2 8 1 9 76 10 77 11 90 12 78 13
REMARK SMILES IDX 89 14 79 15 80 16 81 17 88 18 82 19 87 20 83 21 86 22 84 23
REMARK SMILES IDX 85 24 9 26 10 27 11 28 12 30 13 31 14 32 75 33 15 34 74 35
REMARK SMILES IDX 16 36 17 37 18 38 68 39 19 40 73 41 67 42 69 43 20 44 72 45
REMARK SMILES IDX 66 46 65 47 21 49 53 50 33 51 52 52 34 53 37 54 51 55 70 56
REMARK SMILES IDX 35 57 36 58 50 60 71 61 38 62 22 63 23 64 31 65 24 66 26 67
REMARK SMILES IDX 32 68 25 69 27 70 28 71 29 72 30 73 54 74 55 75 63 76 56 77
REMARK SMILES IDX 58 78 64 79 57 80 59 81 60 82 61 83 62 84 39 85 40 86 48 87
REMARK SMILES IDX 41 88 43 89 49 90 42 91 44 92 45 93 46 94 47 95
REMARK H PARENT 5 7 84 25 10 29 69 48 37 59
REMARK Flexibility Score: inf
ROOT
ATOM      1  C   UNL A   1      31.679  31.392  27.031  1.00  0.00     0.023 C 
ENDROOT
BRANCH   1   2
ATOM      2  C   UNL A   1      32.493  30.105  27.187  1.00  0.00     0.023 C 
BRANCH   2   3
ATOM      3  C   UNL A   1      31.793  28.838  26.696  1.00  0.00     0.116 C 
BRANCH   3   4
ATOM      4  N   UNL A   1      31.319  28.985  25.337  1.00  0.00    -0.356 N 
ATOM      5  C   UNL A   1      31.969  28.822  24.149  1.00  0.00     0.227 C 
ATOM      6  O   UNL A   1      31.296  29.009  23.133  1.00  0.00    -0.274 OA
ATOM      7  H   UNL A   1      30.373  29.245  25.258  1.00  0.00     0.163 HD
BRANCH   5   8
ATOM      8  C   UNL A   1      33.442  28.370  24.124  1.00  0.00     0.105 C 
ATOM      9  C   UNL A   1      34.203  28.837  22.880  1.00  0.00     0.023 C 
BRANCH   8  10
ATOM     10  C   UNL A   1      33.620  26.858  24.229  1.00  0.00    -0.036 A 
ATOM     11  C   UNL A   1      34.105  26.289  25.415  1.00  0.00     0.005 A 
ATOM     12  C   UNL A   1      33.373  26.017  23.133  1.00  0.00     0.005 A 
ATOM     13  C   UNL A   1      34.311  24.911  25.507  1.00  0.00     0.009 A 
ATOM     14  C   UNL A   1      33.572  24.638  23.229  1.00  0.00     0.009 A 
ATOM     15  C   UNL A   1      34.038  24.069  24.419  1.00  0.00    -0.018 A 
BRANCH  15  16
ATOM     16  C   UNL A   1      34.207  22.619  24.535  1.00  0.00    -0.018 A 
ATOM     17  C   UNL A   1      35.434  22.091  24.961  1.00  0.00     0.011 A 
ATOM     18  C   UNL A   1      33.149  21.746  24.227  1.00  0.00     0.019 A 
ATOM     19  C   UNL A   1      35.636  20.715  25.101  1.00  0.00     0.027 A 
ATOM     20  C   UNL A   1      33.335  20.353  24.337  1.00  0.00    -0.000 A 
ATOM     21  C   UNL A   1      34.567  19.874  24.779  1.00  0.00     0.045 A 
ATOM     22  C   UNL A   1      32.513  19.221  24.080  1.00  0.00     0.028 A 
ATOM     23  N   UNL A   1      34.475  18.502  24.821  1.00  0.00    -0.361 N 
ATOM     24  C   UNL A   1      33.246  18.095  24.375  1.00  0.00     0.083 A 
ATOM     25  H   UNL A   1      35.191  17.899  25.126  1.00  0.00     0.166 HD
ENDBRANCH  15  16
ENDBRANCH   8  10
ENDBRANCH   5   8
ENDBRANCH   3   4
ENDBRANCH   2   3
ENDBRANCH   1   2
BRANCH   1  26
ATOM     26  C   UNL A   1      32.442  32.585  26.464  1.00  0.00     0.116 C 
BRANCH  26  27
ATOM     27  N   UNL A   1      32.308  33.782  27.282  1.00  0.00    -0.352 N 
ATOM     28  C   UNL A   1      33.074  34.198  28.348  1.00  0.00     0.251 C 
ATOM     29  H   UNL A   1      31.565  34.380  27.037  1.00  0.00     0.163 HD
ATOM     30  O   UNL A   1      32.738  35.170  29.005  1.00  0.00    -0.269 OA
BRANCH  28  31
ATOM     31  C   UNL A   1      34.286  33.429  28.711  1.00  0.00     0.039 A 
ATOM     32  C   UNL A   1      35.534  33.928  28.332  1.00  0.00     0.014 A 
ATOM     33  C   UNL A   1      34.191  32.255  29.462  1.00  0.00     0.014 A 
ATOM     34  C   UNL A   1      36.695  33.297  28.788  1.00  0.00     0.010 A 
ATOM     35  C   UNL A   1      35.347  31.666  29.968  1.00  0.00     0.010 A 
ATOM     36  C   UNL A   1      36.609  32.193  29.654  1.00  0.00    -0.014 A 
BRANCH  36  37
ATOM     37  C   UNL A   1      37.819  31.631  30.308  1.00  0.00     0.031 A 
ATOM     38  C   UNL A   1      38.622  30.551  29.639  1.00  0.00     0.074 A 
ATOM     39  C   UNL A   1      38.122  32.017  31.566  1.00  0.00     0.049 A 
ATOM     40  N   UNL A   1      39.650  29.888  30.101  1.00  0.00    -0.248 NA
ATOM     41  C   UNL A   1      38.207  30.147  28.286  1.00  0.00     0.031 C 
ATOM     42  C   UNL A   1      37.367  32.995  32.355  1.00  0.00     0.029 A 
ATOM     43  N   UNL A   1      39.116  31.603  32.418  1.00  0.00    -0.354 N 
ATOM     44  C   UNL A   1      39.982  28.965  29.118  1.00  0.00     0.074 A 
ATOM     45  C   UNL A   1      39.037  29.143  28.037  1.00  0.00     0.031 C 
ATOM     46  C   UNL A   1      37.915  33.094  33.576  1.00  0.00     0.029 A 
ATOM     47  C   UNL A   1      39.034  32.164  33.673  1.00  0.00     0.049 A 
ATOM     48  H   UNL A   1      39.820  30.966  32.158  1.00  0.00     0.167 HD
ATOM     49  C   UNL A   1      40.992  28.064  29.110  1.00  0.00     0.034 A 
ATOM     50  C   UNL A   1      39.761  31.937  34.786  1.00  0.00     0.034 A 
ATOM     51  C   UNL A   1      41.956  27.920  30.169  1.00  0.00     0.049 A 
ATOM     52  C   UNL A   1      40.892  30.947  34.734  1.00  0.00     0.074 A 
ATOM     53  C   UNL A   1      43.087  27.121  30.195  1.00  0.00     0.029 A 
ATOM     54  N   UNL A   1      41.895  28.566  31.392  1.00  0.00    -0.354 N 
ATOM     55  N   UNL A   1      41.313  30.229  33.721  1.00  0.00    -0.248 NA
ATOM     56  C   UNL A   1      41.668  30.756  35.968  1.00  0.00     0.031 C 
ATOM     57  C   UNL A   1      43.690  27.257  31.449  1.00  0.00     0.029 A 
ATOM     58  C   UNL A   1      42.951  28.162  32.192  1.00  0.00     0.049 A 
ATOM     59  H   UNL A   1      41.204  29.216  31.654  1.00  0.00     0.167 HD
ATOM     60  C   UNL A   1      42.413  29.520  34.189  1.00  0.00     0.074 A 
ATOM     61  C   UNL A   1      42.617  29.922  35.565  1.00  0.00     0.031 C 
ATOM     62  C   UNL A   1      43.174  28.602  33.545  1.00  0.00     0.034 A 
BRANCH  49  63
ATOM     63  C   UNL A   1      41.154  27.183  27.900  1.00  0.00     0.023 A 
ATOM     64  C   UNL A   1      41.820  27.682  26.764  1.00  0.00     0.012 A 
ATOM     65  C   UNL A   1      40.754  25.833  27.935  1.00  0.00     0.148 A 
ATOM     66  C   UNL A   1      42.074  26.853  25.671  1.00  0.00     0.002 A 
ATOM     67  C   UNL A   1      41.045  25.003  26.859  1.00  0.00     0.091 A 
ATOM     68  F   UNL A   1      40.107  25.386  29.020  1.00  0.00    -0.205 F 
ATOM     69  C   UNL A   1      41.698  25.513  25.725  1.00  0.00     0.022 A 
BRANCH  67  70
ATOM     70  S   UNL A   1      40.679  23.245  26.859  1.00  0.00     0.127 S 
ATOM     71  O   UNL A   1      41.172  22.842  28.175  1.00  0.00    -0.237 OA
ATOM     72  O   UNL A   1      39.223  23.235  26.723  1.00  0.00    -0.237 OA
ATOM     73  O   UNL A   1      41.403  22.681  25.728  1.00  0.00    -0.744 OA
ENDBRANCH  67  70
ENDBRANCH  49  63
BRANCH  50  74
ATOM     74  C   UNL A   1      39.457  32.677  36.045  1.00  0.00     0.023 A 
ATOM     75  C   UNL A   1      40.082  33.915  36.292  1.00  0.00     0.012 A 
ATOM     76  C   UNL A   1      38.560  32.161  36.999  1.00  0.00     0.148 A 
ATOM     77  C   UNL A   1      39.850  34.605  37.482  1.00  0.00     0.002 A 
ATOM     78  C   UNL A   1      38.287  32.881  38.156  1.00  0.00     0.091 A 
ATOM     79  F   UNL A   1      37.988  30.972  36.758  1.00  0.00    -0.205 F 
ATOM     80  C   UNL A   1      38.947  34.093  38.410  1.00  0.00     0.022 A 
BRANCH  78  81
ATOM     81  S   UNL A   1      37.033  32.359  39.331  1.00  0.00     0.127 S 
ATOM     82  O   UNL A   1      35.806  32.558  38.566  1.00  0.00    -0.237 OA
ATOM     83  O   UNL A   1      37.396  30.960  39.563  1.00  0.00    -0.237 OA
ATOM     84  O   UNL A   1      37.211  33.219  40.493  1.00  0.00    -0.744 OA
ENDBRANCH  78  81
ENDBRANCH  50  74
BRANCH  62  85
ATOM     85  C   UNL A   1      44.309  27.973  34.308  1.00  0.00     0.023 A 
ATOM     86  C   UNL A   1      45.556  28.627  34.366  1.00  0.00     0.012 A 
ATOM     87  C   UNL A   1      44.121  26.777  35.028  1.00  0.00     0.148 A 
ATOM     88  C   UNL A   1      46.607  28.085  35.103  1.00  0.00     0.002 A 
ATOM     89  C   UNL A   1      45.158  26.268  35.800  1.00  0.00     0.091 A 
ATOM     90  F   UNL A   1      42.931  26.163  34.947  1.00  0.00    -0.205 F 
ATOM     91  C   UNL A   1      46.404  26.914  35.830  1.00  0.00     0.022 A 
BRANCH  89  92
ATOM     92  S   UNL A   1      44.965  24.818  36.843  1.00  0.00     0.127 S 
ATOM     93  O   UNL A   1      46.289  24.713  37.455  1.00  0.00    -0.237 OA
ATOM     94  O   UNL A   1      43.902  25.235  37.759  1.00  0.00    -0.237 OA
ATOM     95  O   UNL A   1      44.603  23.725  35.952  1.00  0.00    -0.744 OA
ENDBRANCH  89  92
ENDBRANCH  62  85
ENDBRANCH  36  37
ENDBRANCH  28  31
ENDBRANCH  26  27
ENDBRANCH   1  26
TORSDOF 16
ENDMDL
MODEL 2
REMARK VINA RESULT:     -12.0      1.656      2.112
REMARK SMILES C[C@@H](C(=O)NCCCCNC(=O)c1ccc(-c2c3nc(c(-c4cccc(S(=O)(=O)[O-])c4F)c4ccc([nH]4)c(-c4cccc(S(=O)(=O)[O-])c4F)c4nc(c(-c5cccc(S(=O)(=O)[O-])c5F)c5ccc2[nH]5)C=C4)C=C3)cc1)c1ccc(-c2ccc3[nH]ccc3c2)cc1
REMARK SMILES IDX 8 1 7 2 6 3 5 4 3 5 4 6 2 8 1 9 76 10 77 11 90 12 78 13
REMARK SMILES IDX 89 14 79 15 80 16 81 17 88 18 82 19 87 20 83 21 86 22 84 23
REMARK SMILES IDX 85 24 9 26 10 27 11 28 12 30 13 31 14 32 75 33 15 34 74 35
REMARK SMILES IDX 16 36 17 37 18 38 68 39 19 40 73 41 67 42 69 43 20 44 72 45
REMARK SMILES IDX 66 46 65 47 21 49 53 50 33 51 52 52 34 53 37 54 51 55 70 56
REMARK SMILES IDX 35 57 36 58 50 60 71 61 38 62 22 63 23 64 31 65 24 66 26 67
REMARK SMILES IDX 32 68 25 69 27 70 28 71 29 72 30 73 54 74 55 75 63 76 56 77
REMARK SMILES IDX 58 78 64 79 57 80 59 81 60 82 61 83 62 84 39 85 40 86 48 87
REMARK SMILES IDX 41 88 43 89 49 90 42 91 44 92 45 93 46 94 47 95
REMARK H PARENT 5 7 84 25 10 29 69 48 37 59
REMARK Flexibility Score: inf
ROOT
ATOM      1  C   UNL A   1      32.161  30.892  26.850  1.00  0.00     0.023 C 
ENDROOT
BRANCH   1   2
ATOM      2  C   UNL A   1      32.692  29.580  26.266  1.00  0.00     0.023 C 
BRANCH   2   3
ATOM      3  C   UNL A   1      31.630  28.509  26.022  1.00  0.00     0.116 C 
BRANCH   3   4
ATOM      4  N   UNL A   1      31.155  28.534  24.656  1.00  0.00    -0.356 N 
ATOM      5  C   UNL A   1      31.813  28.300  23.483  1.00  0.00     0.227 C 
ATOM      6  O   UNL A   1      31.137  28.385  22.456  1.00  0.00    -0.274 OA
ATOM      7  H   UNL A   1      30.201  28.754  24.556  1.00  0.00     0.163 HD
BRANCH   5   8
ATOM      8  C   UNL A   1      33.301  27.898  23.494  1.00  0.00     0.105 C 
ATOM      9  C   UNL A   1      34.047  28.290  22.216  1.00  0.00     0.023 C 
BRANCH   8  10
ATOM     10  C   UNL A   1      33.529  26.406  23.719  1.00  0.00    -0.036 A 
ATOM     11  C   UNL A   1      33.548  25.526  22.629  1.00  0.00     0.005 A 
ATOM     12  C   UNL A   1      33.655  25.875  25.013  1.00  0.00     0.005 A 
ATOM     13  C   UNL A   1      33.714  24.154  22.828  1.00  0.00     0.009 A 
ATOM     14  C   UNL A   1      33.829  24.504  25.210  1.00  0.00     0.009 A 
ATOM     15  C   UNL A   1      33.866  23.628  24.119  1.00  0.00    -0.018 A 
BRANCH  15  16
ATOM     16  C   UNL A   1      34.090  22.196  24.321  1.00  0.00    -0.018 A 
ATOM     17  C   UNL A   1      35.335  21.741  24.778  1.00  0.00     0.011 A 
ATOM     18  C   UNL A   1      33.066  21.266  24.068  1.00  0.00     0.019 A 
ATOM     19  C   UNL A   1      35.589  20.384  24.999  1.00  0.00     0.027 A 
ATOM     20  C   UNL A   1      33.305  19.890  24.261  1.00  0.00    -0.000 A 
ATOM     21  C   UNL A   1      34.553  19.485  24.729  1.00  0.00     0.045 A 
ATOM     22  C   UNL A   1      32.526  18.715  24.072  1.00  0.00     0.028 A 
ATOM     23  N   UNL A   1      34.513  18.115  24.853  1.00  0.00    -0.361 N 
ATOM     24  C   UNL A   1      33.301  17.637  24.434  1.00  0.00     0.083 A 
ATOM     25  H   UNL A   1      35.251  17.559  25.194  1.00  0.00     0.166 HD
ENDBRANCH  15  16
ENDBRANCH   8  10
ENDBRANCH   5   8
ENDBRANCH   3   4
ENDBRANCH   2   3
ENDBRANCH   1   2
BRANCH   1  26
ATOM     26  C   UNL A   1      33.220  31.831  27.420  1.00  0.00     0.116 C 
BRANCH  26  27
ATOM     27  N   UNL A   1      32.727  33.188  27.613  1.00  0.00    -0.352 N 
ATOM     28  C   UNL A   1      33.152  34.150  28.501  1.00  0.00     0.251 C 
ATOM     29  H   UNL A   1      31.986  33.455  27.023  1.00  0.00     0.163 HD
ATOM     30  O   UNL A   1      32.535  35.197  28.615  1.00  0.00    -0.269 OA
BRANCH  28  31
ATOM     31  C   UNL A   1      34.341  33.883  29.342  1.00  0.00     0.039 A 
ATOM     32  C   UNL A   1      34.169  33.203  30.550  1.00  0.00     0.014 A 
ATOM     33  C   UNL A   1      35.618  34.258  28.916  1.00  0.00     0.014 A 
ATOM     34  C   UNL A   1      35.290  32.814  31.287  1.00  0.00     0.010 A 
ATOM     35  C   UNL A   1      36.735  33.814  29.618  1.00  0.00     0.010 A 
ATOM     36  C   UNL A   1      36.583  33.070  30.798  1.00  0.00    -0.014 A 
BRANCH  36  37
ATOM     37  C   UNL A   1      37.785  32.495  31.459  1.00  0.00     0.031 A 
ATOM     38  C   UNL A   1      38.540  31.361  30.825  1.00  0.00     0.074 A 
ATOM     39  C   UNL A   1      38.120  32.924  32.694  1.00  0.00     0.049 A 
ATOM     40  N   UNL A   1      39.553  30.684  31.300  1.00  0.00    -0.248 NA
ATOM     41  C   UNL A   1      38.090  30.913  29.497  1.00  0.00     0.031 C 
ATOM     42  C   UNL A   1      37.411  33.960  33.451  1.00  0.00     0.029 A 
ATOM     43  N   UNL A   1      39.113  32.513  33.549  1.00  0.00    -0.354 N 
ATOM     44  C   UNL A   1      39.837  29.709  30.353  1.00  0.00     0.074 A 
ATOM     45  C   UNL A   1      38.882  29.872  29.279  1.00  0.00     0.031 C 
ATOM     46  C   UNL A   1      37.982  34.092  34.658  1.00  0.00     0.029 A 
ATOM     47  C   UNL A   1      39.072  33.130  34.779  1.00  0.00     0.049 A 
ATOM     48  H   UNL A   1      39.792  31.843  33.305  1.00  0.00     0.167 HD
ATOM     49  C   UNL A   1      40.817  28.774  30.369  1.00  0.00     0.034 A 
ATOM     50  C   UNL A   1      39.808  32.926  35.889  1.00  0.00     0.034 A 
ATOM     51  C   UNL A   1      41.793  28.643  31.418  1.00  0.00     0.049 A 
ATOM     52  C   UNL A   1      40.905  31.897  35.864  1.00  0.00     0.074 A 
ATOM     53  C   UNL A   1      42.897  27.808  31.463  1.00  0.00     0.029 A 
ATOM     54  N   UNL A   1      41.774  29.343  32.613  1.00  0.00    -0.354 N 
ATOM     55  N   UNL A   1      41.285  31.123  34.877  1.00  0.00    -0.248 NA
ATOM     56  C   UNL A   1      41.694  31.732  37.093  1.00  0.00     0.031 C 
ATOM     57  C   UNL A   1      43.525  27.977  32.700  1.00  0.00     0.029 A 
ATOM     58  C   UNL A   1      42.828  28.937  33.414  1.00  0.00     0.049 A 
ATOM     59  H   UNL A   1      41.109  30.026  32.858  1.00  0.00     0.167 HD
ATOM     60  C   UNL A   1      42.369  30.398  35.359  1.00  0.00     0.074 A 
ATOM     61  C   UNL A   1      42.608  30.850  36.712  1.00  0.00     0.031 C 
ATOM     62  C   UNL A   1      43.088  29.428  34.743  1.00  0.00     0.034 A 
BRANCH  49  63
ATOM     63  C   UNL A   1      40.930  27.838  29.196  1.00  0.00     0.023 A 
ATOM     64  C   UNL A   1      40.135  26.676  29.156  1.00  0.00     0.012 A 
ATOM     65  C   UNL A   1      41.730  28.171  28.085  1.00  0.00     0.148 A 
ATOM     66  C   UNL A   1      40.146  25.849  28.033  1.00  0.00     0.002 A 
ATOM     67  C   UNL A   1      41.705  27.364  26.954  1.00  0.00     0.091 A 
ATOM     68  F   UNL A   1      42.490  29.273  28.152  1.00  0.00    -0.205 F 
ATOM     69  C   UNL A   1      40.919  26.200  26.930  1.00  0.00     0.022 A 
BRANCH  67  70
ATOM     70  S   UNL A   1      42.599  27.767  25.450  1.00  0.00     0.127 S 
ATOM     71  O   UNL A   1      42.346  26.582  24.631  1.00  0.00    -0.237 OA
ATOM     72  O   UNL A   1      41.913  28.977  25.000  1.00  0.00    -0.237 OA
ATOM     73  O   UNL A   1      43.987  27.961  25.844  1.00  0.00    -0.744 OA
ENDBRANCH  67  70
ENDBRANCH  49  63
BRANCH  50  74
ATOM     74  C   UNL A   1      39.550  33.729  37.120  1.00  0.00     0.023 A 
ATOM     75  C   UNL A   1      40.060  35.038  37.216  1.00  0.00     0.012 A 
ATOM     76  C   UNL A   1      38.809  33.203  38.195  1.00  0.00     0.148 A 
ATOM     77  C   UNL A   1      39.872  35.793  38.374  1.00  0.00     0.002 A 
ATOM     78  C   UNL A   1      38.573  33.981  39.322  1.00  0.00     0.091 A 
ATOM     79  F   UNL A   1      38.345  31.948  38.096  1.00  0.00    -0.205 F 
ATOM     80  C   UNL A   1      39.121  35.269  39.423  1.00  0.00     0.022 A 
BRANCH  78  81
ATOM     81  S   UNL A   1      37.500  33.432  40.653  1.00  0.00     0.127 S 
ATOM     82  O   UNL A   1      37.402  34.634  41.474  1.00  0.00    -0.237 OA
ATOM     83  O   UNL A   1      36.277  33.075  39.932  1.00  0.00    -0.237 OA
ATOM     84  O   UNL A   1      38.185  32.296  41.258  1.00  0.00    -0.744 OA
ENDBRANCH  78  81
ENDBRANCH  50  74
BRANCH  62  85
ATOM     85  C   UNL A   1      44.214  28.793  35.516  1.00  0.00     0.023 A 
ATOM     86  C   UNL A   1      45.507  29.350  35.446  1.00  0.00     0.012 A 
ATOM     87  C   UNL A   1      43.978  27.696  36.368  1.00  0.00     0.148 A 
ATOM     88  C   UNL A   1      46.554  28.806  36.187  1.00  0.00     0.002 A 
ATOM     89  C   UNL A   1      45.016  27.190  37.142  1.00  0.00     0.091 A 
ATOM     90  F   UNL A   1      42.744  27.172  36.409  1.00  0.00    -0.205 F 
ATOM     91  C   UNL A   1      46.306  27.736  37.044  1.00  0.00     0.022 A 
BRANCH  89  92
ATOM     92  S   UNL A   1      44.774  25.876  38.342  1.00  0.00     0.127 S 
ATOM     93  O   UNL A   1      43.636  26.379  39.109  1.00  0.00    -0.237 OA
ATOM     94  O   UNL A   1      44.472  24.727  37.486  1.00  0.00    -0.237 OA
ATOM     95  O   UNL A   1      46.024  25.769  39.081  1.00  0.00    -0.744 OA
ENDBRANCH  89  92
ENDBRANCH  62  85
ENDBRANCH  36  37
ENDBRANCH  28  31
ENDBRANCH  26  27
ENDBRANCH   1  26
TORSDOF 16
ENDMDL
MODEL 3
REMARK VINA RESULT:     -12.0      1.988      2.751
REMARK SMILES C[C@@H](C(=O)NCCCCNC(=O)c1ccc(-c2c3nc(c(-c4cccc(S(=O)(=O)[O-])c4F)c4ccc([nH]4)c(-c4cccc(S(=O)(=O)[O-])c4F)c4nc(c(-c5cccc(S(=O)(=O)[O-])c5F)c5ccc2[nH]5)C=C4)C=C3)cc1)c1ccc(-c2ccc3[nH]ccc3c2)cc1
REMARK SMILES IDX 8 1 7 2 6 3 5 4 3 5 4 6 2 8 1 9 76 10 77 11 90 12 78 13
REMARK SMILES IDX 89 14 79 15 80 16 81 17 88 18 82 19 87 20 83 21 86 22 84 23
REMARK SMILES IDX 85 24 9 26 10 27 11 28 12 30 13 31 14 32 75 33 15 34 74 35
REMARK SMILES IDX 16 36 17 37 18 38 68 39 19 40 73 41 67 42 69 43 20 44 72 45
REMARK SMILES IDX 66 46 65 47 21 49 53 50 33 51 52 52 34 53 37 54 51 55 70 56
REMARK SMILES IDX 35 57 36 58 50 60 71 61 38 62 22 63 23 64 31 65 24 66 26 67
REMARK SMILES IDX 32 68 25 69 27 70 28 71 29 72 30 73 54 74 55 75 63 76 56 77
REMARK SMILES IDX 58 78 64 79 57 80 59 81 60 82 61 83 62 84 39 85 40 86 48 87
REMARK SMILES IDX 41 88 43 89 49 90 42 91 44 92 45 93 46 94 47 95
REMARK H PARENT 5 7 84 25 10 29 69 48 37 59
REMARK Flexibility Score: inf
ROOT
ATOM      1  C   UNL A   1      31.971  30.784  26.866  1.00  0.00     0.023 C 
ENDROOT
BRANCH   1   2
ATOM      2  C   UNL A   1      32.274  29.290  27.006  1.00  0.00     0.023 C 
BRANCH   2   3
ATOM      3  C   UNL A   1      32.364  28.526  25.685  1.00  0.00     0.116 C 
BRANCH   3   4
ATOM      4  N   UNL A   1      31.483  27.379  25.673  1.00  0.00    -0.356 N 
ATOM      5  C   UNL A   1      31.448  26.295  24.845  1.00  0.00     0.227 C 
ATOM      6  O   UNL A   1      30.577  25.456  25.086  1.00  0.00    -0.274 OA
ATOM      7  H   UNL A   1      30.797  27.380  26.379  1.00  0.00     0.163 HD
BRANCH   5   8
ATOM      8  C   UNL A   1      32.495  26.139  23.724  1.00  0.00     0.105 C 
ATOM      9  C   UNL A   1      31.899  25.669  22.395  1.00  0.00     0.023 C 
BRANCH   8  10
ATOM     10  C   UNL A   1      33.634  25.187  24.079  1.00  0.00    -0.036 A 
ATOM     11  C   UNL A   1      34.419  25.424  25.214  1.00  0.00     0.005 A 
ATOM     12  C   UNL A   1      33.963  24.104  23.249  1.00  0.00     0.005 A 
ATOM     13  C   UNL A   1      35.490  24.583  25.524  1.00  0.00     0.009 A 
ATOM     14  C   UNL A   1      35.029  23.259  23.564  1.00  0.00     0.009 A 
ATOM     15  C   UNL A   1      35.801  23.485  24.708  1.00  0.00    -0.018 A 
BRANCH  15  16
ATOM     16  C   UNL A   1      36.893  22.577  25.062  1.00  0.00    -0.018 A 
ATOM     17  C   UNL A   1      36.870  21.249  24.613  1.00  0.00     0.011 A 
ATOM     18  C   UNL A   1      37.972  23.022  25.846  1.00  0.00     0.019 A 
ATOM     19  C   UNL A   1      37.898  20.351  24.914  1.00  0.00     0.027 A 
ATOM     20  C   UNL A   1      39.009  22.129  26.183  1.00  0.00    -0.000 A 
ATOM     21  C   UNL A   1      38.952  20.822  25.702  1.00  0.00     0.045 A 
ATOM     22  C   UNL A   1      40.193  22.237  26.963  1.00  0.00     0.028 A 
ATOM     23  N   UNL A   1      40.082  20.177  26.148  1.00  0.00    -0.361 N 
ATOM     24  C   UNL A   1      40.828  21.016  26.934  1.00  0.00     0.083 A 
ATOM     25  H   UNL A   1      40.321  19.246  25.934  1.00  0.00     0.166 HD
ENDBRANCH  15  16
ENDBRANCH   8  10
ENDBRANCH   5   8
ENDBRANCH   3   4
ENDBRANCH   2   3
ENDBRANCH   1   2
BRANCH   1  26
ATOM     26  C   UNL A   1      33.077  31.723  27.338  1.00  0.00     0.116 C 
BRANCH  26  27
ATOM     27  N   UNL A   1      32.628  33.102  27.474  1.00  0.00    -0.352 N 
ATOM     28  C   UNL A   1      33.083  34.086  28.322  1.00  0.00     0.251 C 
ATOM     29  H   UNL A   1      31.894  33.367  26.873  1.00  0.00     0.163 HD
ATOM     30  O   UNL A   1      32.500  35.156  28.392  1.00  0.00    -0.269 OA
BRANCH  28  31
ATOM     31  C   UNL A   1      34.264  33.817  29.173  1.00  0.00     0.039 A 
ATOM     32  C   UNL A   1      34.093  33.066  30.339  1.00  0.00     0.014 A 
ATOM     33  C   UNL A   1      35.534  34.261  28.797  1.00  0.00     0.014 A 
ATOM     34  C   UNL A   1      35.213  32.678  31.078  1.00  0.00     0.010 A 
ATOM     35  C   UNL A   1      36.652  33.820  29.499  1.00  0.00     0.010 A 
ATOM     36  C   UNL A   1      36.505  33.007  30.634  1.00  0.00    -0.014 A 
BRANCH  36  37
ATOM     37  C   UNL A   1      37.713  32.441  31.289  1.00  0.00     0.031 A 
ATOM     38  C   UNL A   1      38.457  31.292  30.667  1.00  0.00     0.074 A 
ATOM     39  C   UNL A   1      38.067  32.893  32.511  1.00  0.00     0.049 A 
ATOM     40  N   UNL A   1      39.474  30.621  31.142  1.00  0.00    -0.248 NA
ATOM     41  C   UNL A   1      37.987  30.820  29.355  1.00  0.00     0.031 C 
ATOM     42  C   UNL A   1      37.372  33.946  33.257  1.00  0.00     0.029 A 
ATOM     43  N   UNL A   1      39.070  32.495  33.360  1.00  0.00    -0.354 N 
ATOM     44  C   UNL A   1      39.742  29.626  30.210  1.00  0.00     0.074 A 
ATOM     45  C   UNL A   1      38.772  29.772  29.146  1.00  0.00     0.031 C 
ATOM     46  C   UNL A   1      37.960  34.100  34.453  1.00  0.00     0.029 A 
ATOM     47  C   UNL A   1      39.047  33.136  34.579  1.00  0.00     0.049 A 
ATOM     48  H   UNL A   1      39.743  31.818  33.120  1.00  0.00     0.167 HD
ATOM     49  C   UNL A   1      40.719  28.689  30.231  1.00  0.00     0.034 A 
ATOM     50  C   UNL A   1      39.798  32.951  35.682  1.00  0.00     0.034 A 
ATOM     51  C   UNL A   1      41.708  28.575  31.270  1.00  0.00     0.049 A 
ATOM     52  C   UNL A   1      40.891  31.918  35.662  1.00  0.00     0.074 A 
ATOM     53  C   UNL A   1      42.809  27.737  31.315  1.00  0.00     0.029 A 
ATOM     54  N   UNL A   1      41.707  29.298  32.451  1.00  0.00    -0.354 N 
ATOM     55  N   UNL A   1      41.255  31.123  34.686  1.00  0.00    -0.248 NA
ATOM     56  C   UNL A   1      41.696  31.774  36.884  1.00  0.00     0.031 C 
ATOM     57  C   UNL A   1      43.455  27.928  32.540  1.00  0.00     0.029 A 
ATOM     58  C   UNL A   1      42.771  28.904  33.245  1.00  0.00     0.049 A 
ATOM     59  H   UNL A   1      41.048  29.988  32.691  1.00  0.00     0.167 HD
ATOM     60  C   UNL A   1      42.343  30.403  35.167  1.00  0.00     0.074 A 
ATOM     61  C   UNL A   1      42.601  30.881  36.508  1.00  0.00     0.031 C 
ATOM     62  C   UNL A   1      43.050  29.419  34.561  1.00  0.00     0.034 A 
BRANCH  49  63
ATOM     63  C   UNL A   1      40.812  27.730  29.075  1.00  0.00     0.023 A 
ATOM     64  C   UNL A   1      39.921  26.642  29.002  1.00  0.00     0.012 A 
ATOM     65  C   UNL A   1      41.698  27.975  28.007  1.00  0.00     0.148 A 
ATOM     66  C   UNL A   1      39.920  25.800  27.890  1.00  0.00     0.002 A 
ATOM     67  C   UNL A   1      41.664  27.157  26.885  1.00  0.00     0.091 A 
ATOM     68  F   UNL A   1      42.548  29.007  28.107  1.00  0.00    -0.205 F 
ATOM     69  C   UNL A   1      40.781  26.066  26.828  1.00  0.00     0.022 A 
BRANCH  67  70
ATOM     70  S   UNL A   1      42.672  27.459  25.429  1.00  0.00     0.127 S 
ATOM     71  O   UNL A   1      42.346  26.298  24.601  1.00  0.00    -0.237 OA
ATOM     72  O   UNL A   1      42.133  28.727  24.940  1.00  0.00    -0.237 OA
ATOM     73  O   UNL A   1      44.049  27.518  25.896  1.00  0.00    -0.744 OA
ENDBRANCH  67  70
ENDBRANCH  49  63
BRANCH  50  74
ATOM     74  C   UNL A   1      39.559  33.779  36.901  1.00  0.00     0.023 A 
ATOM     75  C   UNL A   1      40.017  35.110  36.937  1.00  0.00     0.012 A 
ATOM     76  C   UNL A   1      38.888  33.255  38.021  1.00  0.00     0.148 A 
ATOM     77  C   UNL A   1      39.847  35.891  38.081  1.00  0.00     0.002 A 
ATOM     78  C   UNL A   1      38.668  34.056  39.136  1.00  0.00     0.091 A 
ATOM     79  F   UNL A   1      38.474  31.979  37.978  1.00  0.00    -0.205 F 
ATOM     80  C   UNL A   1      39.165  35.367  39.177  1.00  0.00     0.022 A 
BRANCH  78  81
ATOM     81  S   UNL A   1      37.678  33.502  40.528  1.00  0.00     0.127 S 
ATOM     82  O   UNL A   1      36.458  33.048  39.866  1.00  0.00    -0.237 OA
ATOM     83  O   UNL A   1      38.509  32.435  41.089  1.00  0.00    -0.237 OA
ATOM     84  O   UNL A   1      37.543  34.666  41.394  1.00  0.00    -0.744 OA
ENDBRANCH  78  81
ENDBRANCH  50  74
BRANCH  62  85
ATOM     85  C   UNL A   1      44.184  28.795  35.331  1.00  0.00     0.023 A 
ATOM     86  C   UNL A   1      45.482  29.334  35.216  1.00  0.00     0.012 A 
ATOM     87  C   UNL A   1      43.954  27.730  36.222  1.00  0.00     0.148 A 
ATOM     88  C   UNL A   1      46.538  28.801  35.953  1.00  0.00     0.002 A 
ATOM     89  C   UNL A   1      45.001  27.236  36.990  1.00  0.00     0.091 A 
ATOM     90  F   UNL A   1      42.715  27.223  36.305  1.00  0.00    -0.205 F 
ATOM     91  C   UNL A   1      46.295  27.762  36.849  1.00  0.00     0.022 A 
BRANCH  89  92
ATOM     92  S   UNL A   1      44.769  25.963  38.237  1.00  0.00     0.127 S 
ATOM     93  O   UNL A   1      44.473  24.792  37.414  1.00  0.00    -0.237 OA
ATOM     94  O   UNL A   1      46.077  25.932  38.894  1.00  0.00    -0.237 OA
ATOM     95  O   UNL A   1      43.676  26.422  39.083  1.00  0.00    -0.744 OA
ENDBRANCH  89  92
ENDBRANCH  62  85
ENDBRANCH  36  37
ENDBRANCH  28  31
ENDBRANCH  26  27
ENDBRANCH   1  26
TORSDOF 16
ENDMDL
