MODEL 1
REMARK VINA RESULT:     -12.4      0.000      0.000
REMARK SMILES C[C@H](C(=O)NCCCCNC(=O)c1ccc(-c2c3nc(c(-c4cccc(S(=O)(=O)[O-])c4F)c4ccc([nH]4)c(-c4cccc(S(=O)(=O)[O-])c4F)c4nc(c(-c5cccc(S(=O)(=O)[O-])c5F)c5ccc2[nH]5)C=C4)C=C3)cc1)c1ccc(-c2ccccc2)c(F)c1
REMARK SMILES IDX 8 1 7 2 6 3 5 4 3 5 4 6 2 8 1 9 76 10 77 11 88 12 78 13
REMARK SMILES IDX 86 14 79 15 87 16 80 17 81 18 85 19 82 20 84 21 83 22 9 23
REMARK SMILES IDX 10 24 11 25 12 27 13 28 14 29 75 30 15 31 74 32 16 33 17 34
REMARK SMILES IDX 18 35 68 36 19 37 73 38 67 39 69 40 20 41 72 42 66 43 65 44
REMARK SMILES IDX 21 46 53 47 33 48 52 49 34 50 37 51 51 52 70 53 35 54 36 55
REMARK SMILES IDX 50 57 71 58 38 59 22 60 23 61 31 62 24 63 26 64 32 65 25 66
REMARK SMILES IDX 27 67 28 68 29 69 30 70 54 71 55 72 63 73 56 74 58 75 64 76
REMARK SMILES IDX 57 77 59 78 60 79 61 80 62 81 39 82 40 83 48 84 41 85 43 86
REMARK SMILES IDX 49 87 42 88 44 89 45 90 46 91 47 92
REMARK H PARENT 5 7 10 26 69 45 37 56
REMARK Flexibility Score: inf
ROOT
ATOM      1  C   UNL A   1      31.811  29.363  26.420  1.00  0.00     0.023 C 
ENDROOT
BRANCH   1   2
ATOM      2  C   UNL A   1      31.717  28.085  27.253  1.00  0.00     0.023 C 
BRANCH   2   3
ATOM      3  C   UNL A   1      32.360  26.853  26.613  1.00  0.00     0.116 C 
BRANCH   3   4
ATOM      4  N   UNL A   1      31.533  25.675  26.782  1.00  0.00    -0.356 N 
ATOM      5  C   UNL A   1      30.914  24.886  25.856  1.00  0.00     0.227 C 
ATOM      6  O   UNL A   1      30.220  23.963  26.292  1.00  0.00    -0.274 OA
ATOM      7  H   UNL A   1      31.395  25.398  27.717  1.00  0.00     0.163 HD
BRANCH   5   8
ATOM      8  C   UNL A   1      31.156  25.073  24.342  1.00  0.00     0.105 C 
ATOM      9  C   UNL A   1      30.645  23.858  23.551  1.00  0.00     0.023 C 
BRANCH   8  10
ATOM     10  C   UNL A   1      30.567  26.346  23.755  1.00  0.00    -0.033 A 
ATOM     11  C   UNL A   1      29.204  26.647  23.854  1.00  0.00     0.005 A 
ATOM     12  C   UNL A   1      31.414  27.273  23.130  1.00  0.00     0.044 A 
ATOM     13  C   UNL A   1      28.722  27.890  23.422  1.00  0.00     0.012 A 
ATOM     14  C   UNL A   1      30.927  28.512  22.717  1.00  0.00     0.131 A 
ATOM     15  C   UNL A   1      29.580  28.862  22.875  1.00  0.00     0.017 A 
ATOM     16  F   UNL A   1      31.806  29.387  22.204  1.00  0.00    -0.206 F 
BRANCH  15  17
ATOM     17  C   UNL A   1      29.076  30.198  22.508  1.00  0.00    -0.015 A 
ATOM     18  C   UNL A   1      29.081  31.252  23.438  1.00  0.00     0.009 A 
ATOM     19  C   UNL A   1      28.579  30.461  21.221  1.00  0.00     0.009 A 
ATOM     20  C   UNL A   1      28.585  32.515  23.101  1.00  0.00     0.001 A 
ATOM     21  C   UNL A   1      28.083  31.723  20.882  1.00  0.00     0.001 A 
ATOM     22  C   UNL A   1      28.081  32.747  21.824  1.00  0.00     0.000 A 
ENDBRANCH  15  17
ENDBRANCH   8  10
ENDBRANCH   5   8
ENDBRANCH   3   4
ENDBRANCH   2   3
ENDBRANCH   1   2
BRANCH   1  23
ATOM     23  C   UNL A   1      33.121  30.119  26.564  1.00  0.00     0.116 C 
BRANCH  23  24
ATOM     24  N   UNL A   1      32.934  31.542  26.802  1.00  0.00    -0.352 N 
ATOM     25  C   UNL A   1      33.672  32.376  27.604  1.00  0.00     0.251 C 
ATOM     26  H   UNL A   1      32.182  31.961  26.323  1.00  0.00     0.163 HD
ATOM     27  O   UNL A   1      33.299  33.532  27.795  1.00  0.00    -0.269 OA
BRANCH  25  28
ATOM     28  C   UNL A   1      34.895  31.868  28.258  1.00  0.00     0.039 A 
ATOM     29  C   UNL A   1      34.843  30.643  28.926  1.00  0.00     0.014 A 
ATOM     30  C   UNL A   1      36.091  32.589  28.204  1.00  0.00     0.014 A 
ATOM     31  C   UNL A   1      35.999  30.129  29.514  1.00  0.00     0.010 A 
ATOM     32  C   UNL A   1      37.260  32.030  28.704  1.00  0.00     0.010 A 
ATOM     33  C   UNL A   1      37.222  30.811  29.394  1.00  0.00    -0.014 A 
BRANCH  33  34
ATOM     34  C   UNL A   1      38.456  30.281  30.025  1.00  0.00     0.031 A 
ATOM     35  C   UNL A   1      38.861  30.749  31.399  1.00  0.00     0.074 A 
ATOM     36  C   UNL A   1      39.239  29.420  29.346  1.00  0.00     0.049 A 
ATOM     37  N   UNL A   1      39.891  30.390  32.121  1.00  0.00    -0.248 NA
ATOM     38  C   UNL A   1      38.017  31.774  32.036  1.00  0.00     0.031 C 
ATOM     39  C   UNL A   1      39.000  28.958  27.977  1.00  0.00     0.029 A 
ATOM     40  N   UNL A   1      40.401  28.789  29.711  1.00  0.00    -0.354 N 
ATOM     41  C   UNL A   1      39.839  31.170  33.271  1.00  0.00     0.074 A 
ATOM     42  C   UNL A   1      38.703  32.052  33.133  1.00  0.00     0.031 C 
ATOM     43  C   UNL A   1      39.971  28.098  27.627  1.00  0.00     0.029 A 
ATOM     44  C   UNL A   1      40.914  27.969  28.732  1.00  0.00     0.049 A 
ATOM     45  H   UNL A   1      40.828  28.913  30.589  1.00  0.00     0.167 HD
ATOM     46  C   UNL A   1      40.644  31.134  34.359  1.00  0.00     0.034 A 
ATOM     47  C   UNL A   1      42.016  27.196  28.733  1.00  0.00     0.034 A 
ATOM     48  C   UNL A   1      41.745  30.222  34.511  1.00  0.00     0.049 A 
ATOM     49  C   UNL A   1      42.864  27.134  29.976  1.00  0.00     0.074 A 
ATOM     50  C   UNL A   1      42.563  30.037  35.610  1.00  0.00     0.029 A 
ATOM     51  N   UNL A   1      42.188  29.351  33.529  1.00  0.00    -0.354 N 
ATOM     52  N   UNL A   1      42.702  27.757  31.119  1.00  0.00    -0.248 NA
ATOM     53  C   UNL A   1      44.020  26.229  29.945  1.00  0.00     0.031 C 
ATOM     54  C   UNL A   1      43.525  29.078  35.279  1.00  0.00     0.029 A 
ATOM     55  C   UNL A   1      43.276  28.633  33.991  1.00  0.00     0.049 A 
ATOM     56  H   UNL A   1      41.787  29.257  32.634  1.00  0.00     0.167 HD
ATOM     57  C   UNL A   1      43.705  27.283  31.956  1.00  0.00     0.074 A 
ATOM     58  C   UNL A   1      44.459  26.309  31.194  1.00  0.00     0.031 C 
ATOM     59  C   UNL A   1      43.983  27.628  33.238  1.00  0.00     0.034 A 
BRANCH  46  60
ATOM     60  C   UNL A   1      40.338  32.085  35.488  1.00  0.00     0.023 A 
ATOM     61  C   UNL A   1      41.072  33.282  35.618  1.00  0.00     0.012 A 
ATOM     62  C   UNL A   1      39.292  31.817  36.392  1.00  0.00     0.148 A 
ATOM     63  C   UNL A   1      40.799  34.176  36.653  1.00  0.00     0.002 A 
ATOM     64  C   UNL A   1      38.991  32.736  37.390  1.00  0.00     0.091 A 
ATOM     65  F   UNL A   1      38.619  30.664  36.268  1.00  0.00    -0.205 F 
ATOM     66  C   UNL A   1      39.752  33.908  37.532  1.00  0.00     0.022 A 
BRANCH  64  67
ATOM     67  S   UNL A   1      37.608  32.526  38.517  1.00  0.00     0.127 S 
ATOM     68  O   UNL A   1      37.942  33.479  39.574  1.00  0.00    -0.237 OA
ATOM     69  O   UNL A   1      36.471  32.914  37.683  1.00  0.00    -0.237 OA
ATOM     70  O   UNL A   1      37.621  31.124  38.913  1.00  0.00    -0.744 OA
ENDBRANCH  64  67
ENDBRANCH  46  60
BRANCH  47  71
ATOM     71  C   UNL A   1      42.338  26.350  27.548  1.00  0.00     0.023 A 
ATOM     72  C   UNL A   1      43.023  26.920  26.457  1.00  0.00     0.012 A 
ATOM     73  C   UNL A   1      41.983  24.988  27.500  1.00  0.00     0.148 A 
ATOM     74  C   UNL A   1      43.313  26.161  25.322  1.00  0.00     0.002 A 
ATOM     75  C   UNL A   1      42.323  24.224  26.391  1.00  0.00     0.091 A 
ATOM     76  F   UNL A   1      41.327  24.467  28.546  1.00  0.00    -0.205 F 
ATOM     77  C   UNL A   1      42.970  24.811  25.293  1.00  0.00     0.022 A 
BRANCH  75  78
ATOM     78  S   UNL A   1      42.038  22.453  26.316  1.00  0.00     0.127 S 
ATOM     79  O   UNL A   1      42.694  21.993  27.538  1.00  0.00    -0.237 OA
ATOM     80  O   UNL A   1      40.577  22.382  26.337  1.00  0.00    -0.237 OA
ATOM     81  O   UNL A   1      42.644  22.008  25.068  1.00  0.00    -0.744 OA
ENDBRANCH  75  78
ENDBRANCH  47  71
BRANCH  59  82
ATOM     82  C   UNL A   1      45.114  26.907  33.925  1.00  0.00     0.023 A 
ATOM     83  C   UNL A   1      46.430  27.404  33.841  1.00  0.00     0.012 A 
ATOM     84  C   UNL A   1      44.856  25.763  34.706  1.00  0.00     0.148 A 
ATOM     85  C   UNL A   1      47.477  26.746  34.486  1.00  0.00     0.002 A 
ATOM     86  C   UNL A   1      45.896  25.146  35.391  1.00  0.00     0.091 A 
ATOM     87  F   UNL A   1      43.601  25.293  34.760  1.00  0.00    -0.205 F 
ATOM     88  C   UNL A   1      47.210  25.626  35.269  1.00  0.00     0.022 A 
BRANCH  86  89
ATOM     89  S   UNL A   1      45.623  23.764  36.505  1.00  0.00     0.127 S 
ATOM     90  O   UNL A   1      46.965  23.547  37.045  1.00  0.00    -0.237 OA
ATOM     91  O   UNL A   1      44.664  24.320  37.460  1.00  0.00    -0.237 OA
ATOM     92  O   UNL A   1      45.096  22.684  35.682  1.00  0.00    -0.744 OA
ENDBRANCH  86  89
ENDBRANCH  59  82
ENDBRANCH  33  34
ENDBRANCH  25  28
ENDBRANCH  23  24
ENDBRANCH   1  23
TORSDOF 16
ENDMDL
MODEL 2
REMARK VINA RESULT:     -12.3      2.700      4.839
REMARK SMILES C[C@H](C(=O)NCCCCNC(=O)c1ccc(-c2c3nc(c(-c4cccc(S(=O)(=O)[O-])c4F)c4ccc([nH]4)c(-c4cccc(S(=O)(=O)[O-])c4F)c4nc(c(-c5cccc(S(=O)(=O)[O-])c5F)c5ccc2[nH]5)C=C4)C=C3)cc1)c1ccc(-c2ccccc2)c(F)c1
REMARK SMILES IDX 8 1 7 2 6 3 5 4 3 5 4 6 2 8 1 9 76 10 77 11 88 12 78 13
REMARK SMILES IDX 86 14 79 15 87 16 80 17 81 18 85 19 82 20 84 21 83 22 9 23
REMARK SMILES IDX 10 24 11 25 12 27 13 28 14 29 75 30 15 31 74 32 16 33 17 34
REMARK SMILES IDX 18 35 68 36 19 37 73 38 67 39 69 40 20 41 72 42 66 43 65 44
REMARK SMILES IDX 21 46 53 47 33 48 52 49 34 50 37 51 51 52 70 53 35 54 36 55
REMARK SMILES IDX 50 57 71 58 38 59 22 60 23 61 31 62 24 63 26 64 32 65 25 66
REMARK SMILES IDX 27 67 28 68 29 69 30 70 54 71 55 72 63 73 56 74 58 75 64 76
REMARK SMILES IDX 57 77 59 78 60 79 61 80 62 81 39 82 40 83 48 84 41 85 43 86
REMARK SMILES IDX 49 87 42 88 44 89 45 90 46 91 47 92
REMARK H PARENT 5 7 10 26 69 45 37 56
REMARK Flexibility Score: inf
ROOT
ATOM      1  C   UNL A   1      31.972  28.424  25.841  1.00  0.00     0.023 C 
ENDROOT
BRANCH   1   2
ATOM      2  C   UNL A   1      30.985  28.208  24.695  1.00  0.00     0.023 C 
BRANCH   2   3
ATOM      3  C   UNL A   1      30.762  26.745  24.306  1.00  0.00     0.116 C 
BRANCH   3   4
ATOM      4  N   UNL A   1      30.689  25.891  25.474  1.00  0.00    -0.356 N 
ATOM      5  C   UNL A   1      31.469  24.835  25.850  1.00  0.00     0.227 C 
ATOM      6  O   UNL A   1      31.141  24.248  26.884  1.00  0.00    -0.274 OA
ATOM      7  H   UNL A   1      29.959  26.107  26.098  1.00  0.00     0.163 HD
BRANCH   5   8
ATOM      8  C   UNL A   1      32.753  24.462  25.078  1.00  0.00     0.105 C 
ATOM      9  C   UNL A   1      33.986  25.125  25.713  1.00  0.00     0.023 C 
BRANCH   8  10
ATOM     10  C   UNL A   1      32.997  22.969  24.931  1.00  0.00    -0.033 A 
ATOM     11  C   UNL A   1      33.734  22.242  25.871  1.00  0.00     0.005 A 
ATOM     12  C   UNL A   1      32.436  22.282  23.843  1.00  0.00     0.044 A 
ATOM     13  C   UNL A   1      33.823  20.846  25.773  1.00  0.00     0.012 A 
ATOM     14  C   UNL A   1      32.519  20.894  23.762  1.00  0.00     0.131 A 
ATOM     15  C   UNL A   1      33.188  20.139  24.734  1.00  0.00     0.017 A 
ATOM     16  F   UNL A   1      31.888  20.290  22.742  1.00  0.00    -0.206 F 
BRANCH  15  17
ATOM     17  C   UNL A   1      33.215  18.667  24.693  1.00  0.00    -0.015 A 
ATOM     18  C   UNL A   1      32.670  17.905  25.743  1.00  0.00     0.009 A 
ATOM     19  C   UNL A   1      33.780  17.977  23.608  1.00  0.00     0.009 A 
ATOM     20  C   UNL A   1      32.711  16.508  25.718  1.00  0.00     0.001 A 
ATOM     21  C   UNL A   1      33.822  16.580  23.582  1.00  0.00     0.001 A 
ATOM     22  C   UNL A   1      33.292  15.847  24.640  1.00  0.00     0.000 A 
ENDBRANCH  15  17
ENDBRANCH   8  10
ENDBRANCH   5   8
ENDBRANCH   3   4
ENDBRANCH   2   3
ENDBRANCH   1   2
BRANCH   1  23
ATOM     23  C   UNL A   1      33.013  29.502  25.588  1.00  0.00     0.116 C 
BRANCH  23  24
ATOM     24  N   UNL A   1      32.583  30.821  26.023  1.00  0.00    -0.352 N 
ATOM     25  C   UNL A   1      33.120  31.610  27.010  1.00  0.00     0.251 C 
ATOM     26  H   UNL A   1      31.807  31.198  25.547  1.00  0.00     0.163 HD
ATOM     27  O   UNL A   1      32.553  32.649  27.342  1.00  0.00    -0.269 OA
BRANCH  25  28
ATOM     28  C   UNL A   1      34.361  31.186  27.689  1.00  0.00     0.039 A 
ATOM     29  C   UNL A   1      35.387  32.118  27.862  1.00  0.00     0.014 A 
ATOM     30  C   UNL A   1      34.511  29.880  28.163  1.00  0.00     0.014 A 
ATOM     31  C   UNL A   1      36.550  31.744  28.536  1.00  0.00     0.010 A 
ATOM     32  C   UNL A   1      35.626  29.540  28.919  1.00  0.00     0.010 A 
ATOM     33  C   UNL A   1      36.672  30.456  29.085  1.00  0.00    -0.014 A 
BRANCH  33  34
ATOM     34  C   UNL A   1      37.909  30.043  29.795  1.00  0.00     0.031 A 
ATOM     35  C   UNL A   1      38.176  30.538  31.193  1.00  0.00     0.074 A 
ATOM     36  C   UNL A   1      38.814  29.267  29.167  1.00  0.00     0.049 A 
ATOM     37  N   UNL A   1      39.187  30.275  31.979  1.00  0.00    -0.248 NA
ATOM     38  C   UNL A   1      37.197  31.472  31.774  1.00  0.00     0.031 C 
ATOM     39  C   UNL A   1      38.710  28.794  27.785  1.00  0.00     0.029 A 
ATOM     40  N   UNL A   1      40.005  28.749  29.606  1.00  0.00    -0.354 N 
ATOM     41  C   UNL A   1      38.986  31.039  33.124  1.00  0.00     0.074 A 
ATOM     42  C   UNL A   1      37.781  31.807  32.914  1.00  0.00     0.031 C 
ATOM     43  C   UNL A   1      39.780  28.034  27.498  1.00  0.00     0.029 A 
ATOM     44  C   UNL A   1      40.657  27.989  28.663  1.00  0.00     0.049 A 
ATOM     45  H   UNL A   1      40.361  28.906  30.510  1.00  0.00     0.167 HD
ATOM     46  C   UNL A   1      39.718  31.073  34.262  1.00  0.00     0.034 A 
ATOM     47  C   UNL A   1      41.827  27.325  28.735  1.00  0.00     0.034 A 
ATOM     48  C   UNL A   1      40.890  30.271  34.485  1.00  0.00     0.049 A 
ATOM     49  C   UNL A   1      42.595  27.338  30.030  1.00  0.00     0.074 A 
ATOM     50  C   UNL A   1      41.650  30.158  35.635  1.00  0.00     0.029 A 
ATOM     51  N   UNL A   1      41.479  29.453  33.533  1.00  0.00    -0.354 N 
ATOM     52  N   UNL A   1      42.299  27.934  31.160  1.00  0.00    -0.248 NA
ATOM     53  C   UNL A   1      43.832  26.548  30.074  1.00  0.00     0.031 C 
ATOM     54  C   UNL A   1      42.720  29.298  35.367  1.00  0.00     0.029 A 
ATOM     55  C   UNL A   1      42.599  28.840  34.064  1.00  0.00     0.049 A 
ATOM     56  H   UNL A   1      41.148  29.327  32.615  1.00  0.00     0.167 HD
ATOM     57  C   UNL A   1      43.288  27.553  32.061  1.00  0.00     0.074 A 
ATOM     58  C   UNL A   1      44.179  26.662  31.349  1.00  0.00     0.031 C 
ATOM     59  C   UNL A   1      43.447  27.914  33.359  1.00  0.00     0.034 A 
BRANCH  46  60
ATOM     60  C   UNL A   1      39.249  31.982  35.370  1.00  0.00     0.023 A 
ATOM     61  C   UNL A   1      38.307  31.517  36.310  1.00  0.00     0.012 A 
ATOM     62  C   UNL A   1      39.779  33.280  35.510  1.00  0.00     0.148 A 
ATOM     63  C   UNL A   1      37.867  32.342  37.344  1.00  0.00     0.002 A 
ATOM     64  C   UNL A   1      39.375  34.078  36.573  1.00  0.00     0.091 A 
ATOM     65  F   UNL A   1      40.657  33.714  34.595  1.00  0.00    -0.205 F 
ATOM     66  C   UNL A   1      38.409  33.618  37.482  1.00  0.00     0.022 A 
BRANCH  64  67
ATOM     67  S   UNL A   1      40.076  35.701  36.887  1.00  0.00     0.127 S 
ATOM     68  O   UNL A   1      39.603  36.456  35.728  1.00  0.00    -0.237 OA
ATOM     69  O   UNL A   1      39.442  36.069  38.154  1.00  0.00    -0.237 OA
ATOM     70  O   UNL A   1      41.518  35.510  36.962  1.00  0.00    -0.744 OA
ENDBRANCH  64  67
ENDBRANCH  46  60
BRANCH  47  71
ATOM     71  C   UNL A   1      42.306  26.523  27.573  1.00  0.00     0.023 A 
ATOM     72  C   UNL A   1      43.127  27.131  26.603  1.00  0.00     0.012 A 
ATOM     73  C   UNL A   1      41.964  25.165  27.428  1.00  0.00     0.148 A 
ATOM     74  C   UNL A   1      43.567  26.414  25.490  1.00  0.00     0.002 A 
ATOM     75  C   UNL A   1      42.450  24.441  26.346  1.00  0.00     0.091 A 
ATOM     76  F   UNL A   1      41.176  24.607  28.358  1.00  0.00    -0.205 F 
ATOM     77  C   UNL A   1      43.235  25.067  25.366  1.00  0.00     0.022 A 
BRANCH  75  78
ATOM     78  S   UNL A   1      42.182  22.674  26.170  1.00  0.00     0.127 S 
ATOM     79  O   UNL A   1      42.859  22.150  27.353  1.00  0.00    -0.237 OA
ATOM     80  O   UNL A   1      40.722  22.586  26.205  1.00  0.00    -0.237 OA
ATOM     81  O   UNL A   1      42.776  22.311  24.890  1.00  0.00    -0.744 OA
ENDBRANCH  75  78
ENDBRANCH  47  71
BRANCH  59  82
ATOM     82  C   UNL A   1      44.596  27.301  34.117  1.00  0.00     0.023 A 
ATOM     83  C   UNL A   1      45.865  27.911  34.102  1.00  0.00     0.012 A 
ATOM     84  C   UNL A   1      44.395  26.144  34.897  1.00  0.00     0.148 A 
ATOM     85  C   UNL A   1      46.928  27.354  34.812  1.00  0.00     0.002 A 
ATOM     86  C   UNL A   1      45.444  25.627  35.647  1.00  0.00     0.091 A 
ATOM     87  F   UNL A   1      43.185  25.566  34.886  1.00  0.00    -0.205 F 
ATOM     88  C   UNL A   1      46.715  26.220  35.593  1.00  0.00     0.022 A 
BRANCH  86  89
ATOM     89  S   UNL A   1      45.230  24.235  36.761  1.00  0.00     0.127 S 
ATOM     90  O   UNL A   1      46.592  24.037  37.256  1.00  0.00    -0.237 OA
ATOM     91  O   UNL A   1      44.293  24.769  37.750  1.00  0.00    -0.237 OA
ATOM     92  O   UNL A   1      44.694  23.150  35.949  1.00  0.00    -0.744 OA
ENDBRANCH  86  89
ENDBRANCH  59  82
ENDBRANCH  33  34
ENDBRANCH  25  28
ENDBRANCH  23  24
ENDBRANCH   1  23
TORSDOF 16
ENDMDL
MODEL 3
REMARK VINA RESULT:     -12.2      3.497      6.614
REMARK SMILES C[C@H](C(=O)NCCCCNC(=O)c1ccc(-c2c3nc(c(-c4cccc(S(=O)(=O)[O-])c4F)c4ccc([nH]4)c(-c4cccc(S(=O)(=O)[O-])c4F)c4nc(c(-c5cccc(S(=O)(=O)[O-])c5F)c5ccc2[nH]5)C=C4)C=C3)cc1)c1ccc(-c2ccccc2)c(F)c1
REMARK SMILES IDX 8 1 7 2 6 3 5 4 3 5 4 6 2 8 1 9 76 10 77 11 88 12 78 13
REMARK SMILES IDX 86 14 79 15 87 16 80 17 81 18 85 19 82 20 84 21 83 22 9 23
REMARK SMILES IDX 10 24 11 25 12 27 13 28 14 29 75 30 15 31 74 32 16 33 17 34
REMARK SMILES IDX 18 35 68 36 19 37 73 38 67 39 69 40 20 41 72 42 66 43 65 44
REMARK SMILES IDX 21 46 53 47 33 48 52 49 34 50 37 51 51 52 70 53 35 54 36 55
REMARK SMILES IDX 50 57 71 58 38 59 22 60 23 61 31 62 24 63 26 64 32 65 25 66
REMARK SMILES IDX 27 67 28 68 29 69 30 70 54 71 55 72 63 73 56 74 58 75 64 76
REMARK SMILES IDX 57 77 59 78 60 79 61 80 62 81 39 82 40 83 48 84 41 85 43 86
REMARK SMILES IDX 49 87 42 88 44 89 45 90 46 91 47 92
REMARK H PARENT 5 7 10 26 69 45 37 56
REMARK Flexibility Score: inf
ROOT
ATOM      1  C   UNL A   1      32.939  34.814  28.848  1.00  0.00     0.023 C 
ENDROOT
BRANCH   1   2
ATOM      2  C   UNL A   1      33.591  35.927  29.668  1.00  0.00     0.023 C 
BRANCH   2   3
ATOM      3  C   UNL A   1      33.391  35.811  31.180  1.00  0.00     0.116 C 
BRANCH   3   4
ATOM      4  N   UNL A   1      33.471  34.434  31.622  1.00  0.00    -0.356 N 
ATOM      5  C   UNL A   1      34.382  33.811  32.426  1.00  0.00     0.227 C 
ATOM      6  O   UNL A   1      34.232  32.598  32.596  1.00  0.00    -0.274 OA
ATOM      7  H   UNL A   1      32.750  33.851  31.289  1.00  0.00     0.163 HD
BRANCH   5   8
ATOM      8  C   UNL A   1      35.481  34.604  33.168  1.00  0.00     0.105 C 
ATOM      9  C   UNL A   1      35.654  34.088  34.605  1.00  0.00     0.023 C 
BRANCH   8  10
ATOM     10  C   UNL A   1      36.831  34.627  32.470  1.00  0.00    -0.033 A 
ATOM     11  C   UNL A   1      38.033  34.709  33.181  1.00  0.00     0.005 A 
ATOM     12  C   UNL A   1      36.887  34.520  31.071  1.00  0.00     0.044 A 
ATOM     13  C   UNL A   1      39.260  34.591  32.513  1.00  0.00     0.012 A 
ATOM     14  C   UNL A   1      38.111  34.389  30.418  1.00  0.00     0.131 A 
ATOM     15  C   UNL A   1      39.323  34.395  31.120  1.00  0.00     0.017 A 
ATOM     16  F   UNL A   1      38.092  34.205  29.089  1.00  0.00    -0.206 F 
BRANCH  15  17
ATOM     17  C   UNL A   1      40.615  34.182  30.444  1.00  0.00    -0.015 A 
ATOM     18  C   UNL A   1      41.369  33.017  30.675  1.00  0.00     0.009 A 
ATOM     19  C   UNL A   1      41.133  35.130  29.546  1.00  0.00     0.009 A 
ATOM     20  C   UNL A   1      42.604  32.821  30.050  1.00  0.00     0.001 A 
ATOM     21  C   UNL A   1      42.367  34.935  28.921  1.00  0.00     0.001 A 
ATOM     22  C   UNL A   1      43.104  33.783  29.179  1.00  0.00     0.000 A 
ENDBRANCH  15  17
ENDBRANCH   8  10
ENDBRANCH   5   8
ENDBRANCH   3   4
ENDBRANCH   2   3
ENDBRANCH   1   2
BRANCH   1  23
ATOM     23  C   UNL A   1      33.905  33.762  28.327  1.00  0.00     0.116 C 
BRANCH  23  24
ATOM     24  N   UNL A   1      33.248  32.720  27.553  1.00  0.00    -0.352 N 
ATOM     25  C   UNL A   1      33.695  31.451  27.280  1.00  0.00     0.251 C 
ATOM     26  H   UNL A   1      32.368  32.955  27.178  1.00  0.00     0.163 HD
ATOM     27  O   UNL A   1      33.072  30.736  26.498  1.00  0.00    -0.269 OA
BRANCH  25  28
ATOM     28  C   UNL A   1      34.941  30.965  27.908  1.00  0.00     0.039 A 
ATOM     29  C   UNL A   1      36.068  31.789  27.895  1.00  0.00     0.014 A 
ATOM     30  C   UNL A   1      34.996  29.708  28.515  1.00  0.00     0.014 A 
ATOM     31  C   UNL A   1      37.241  31.361  28.518  1.00  0.00     0.010 A 
ATOM     32  C   UNL A   1      36.132  29.327  29.219  1.00  0.00     0.010 A 
ATOM     33  C   UNL A   1      37.278  30.133  29.200  1.00  0.00    -0.014 A 
BRANCH  33  34
ATOM     34  C   UNL A   1      38.522  29.662  29.857  1.00  0.00     0.031 A 
ATOM     35  C   UNL A   1      38.881  30.157  31.234  1.00  0.00     0.074 A 
ATOM     36  C   UNL A   1      39.354  28.832  29.198  1.00  0.00     0.049 A 
ATOM     37  N   UNL A   1      39.912  29.848  31.977  1.00  0.00    -0.248 NA
ATOM     38  C   UNL A   1      37.981  31.148  31.848  1.00  0.00     0.031 C 
ATOM     39  C   UNL A   1      39.161  28.350  27.828  1.00  0.00     0.029 A 
ATOM     40  N   UNL A   1      40.536  28.255  29.588  1.00  0.00    -0.354 N 
ATOM     41  C   UNL A   1      39.805  30.633  33.120  1.00  0.00     0.074 A 
ATOM     42  C   UNL A   1      38.635  31.463  32.955  1.00  0.00     0.031 C 
ATOM     43  C   UNL A   1      40.174  27.531  27.503  1.00  0.00     0.029 A 
ATOM     44  C   UNL A   1      41.102  27.451  28.626  1.00  0.00     0.049 A 
ATOM     45  H   UNL A   1      40.941  28.403  30.473  1.00  0.00     0.167 HD
ATOM     46  C   UNL A   1      40.591  30.640  34.222  1.00  0.00     0.034 A 
ATOM     47  C   UNL A   1      42.237  26.727  28.652  1.00  0.00     0.034 A 
ATOM     48  C   UNL A   1      41.728  29.778  34.401  1.00  0.00     0.049 A 
ATOM     49  C   UNL A   1      43.064  26.711  29.910  1.00  0.00     0.074 A 
ATOM     50  C   UNL A   1      42.534  29.637  35.516  1.00  0.00     0.029 A 
ATOM     51  N   UNL A   1      42.227  28.920  33.433  1.00  0.00    -0.354 N 
ATOM     52  N   UNL A   1      42.853  27.334  31.045  1.00  0.00    -0.248 NA
ATOM     53  C   UNL A   1      44.258  25.857  29.907  1.00  0.00     0.031 C 
ATOM     54  C   UNL A   1      43.542  28.718  35.210  1.00  0.00     0.029 A 
ATOM     55  C   UNL A   1      43.337  28.253  33.920  1.00  0.00     0.049 A 
ATOM     56  H   UNL A   1      41.847  28.802  32.533  1.00  0.00     0.167 HD
ATOM     57  C   UNL A   1      43.861  26.910  31.904  1.00  0.00     0.074 A 
ATOM     58  C   UNL A   1      44.670  25.965  31.163  1.00  0.00     0.031 C 
ATOM     59  C   UNL A   1      44.101  27.276  33.188  1.00  0.00     0.034 A 
BRANCH  46  60
ATOM     60  C   UNL A   1      40.224  31.584  35.339  1.00  0.00     0.023 A 
ATOM     61  C   UNL A   1      40.881  32.826  35.455  1.00  0.00     0.012 A 
ATOM     62  C   UNL A   1      39.194  31.262  36.244  1.00  0.00     0.148 A 
ATOM     63  C   UNL A   1      40.550  33.714  36.478  1.00  0.00     0.002 A 
ATOM     64  C   UNL A   1      38.833  32.174  37.230  1.00  0.00     0.091 A 
ATOM     65  F   UNL A   1      38.594  30.068  36.134  1.00  0.00    -0.205 F 
ATOM     66  C   UNL A   1      39.519  33.393  37.357  1.00  0.00     0.022 A 
BRANCH  64  67
ATOM     67  S   UNL A   1      37.463  31.892  38.356  1.00  0.00     0.127 S 
ATOM     68  O   UNL A   1      37.137  30.494  38.079  1.00  0.00    -0.237 OA
ATOM     69  O   UNL A   1      38.085  32.126  39.660  1.00  0.00    -0.237 OA
ATOM     70  O   UNL A   1      36.436  32.857  37.991  1.00  0.00    -0.744 OA
ENDBRANCH  64  67
ENDBRANCH  46  60
BRANCH  47  71
ATOM     71  C   UNL A   1      42.617  25.888  27.479  1.00  0.00     0.023 A 
ATOM     72  C   UNL A   1      43.423  26.441  26.465  1.00  0.00     0.012 A 
ATOM     73  C   UNL A   1      42.197  24.548  27.369  1.00  0.00     0.148 A 
ATOM     74  C   UNL A   1      43.771  25.689  25.342  1.00  0.00     0.002 A 
ATOM     75  C   UNL A   1      42.593  23.788  26.275  1.00  0.00     0.091 A 
ATOM     76  F   UNL A   1      41.426  24.043  28.341  1.00  0.00    -0.205 F 
ATOM     77  C   UNL A   1      43.363  24.361  25.251  1.00  0.00     0.022 A 
BRANCH  75  78
ATOM     78  S   UNL A   1      42.224  22.036  26.134  1.00  0.00     0.127 S 
ATOM     79  O   UNL A   1      42.996  21.663  24.952  1.00  0.00    -0.237 OA
ATOM     80  O   UNL A   1      42.744  21.516  27.399  1.00  0.00    -0.237 OA
ATOM     81  O   UNL A   1      40.777  21.948  25.997  1.00  0.00    -0.744 OA
ENDBRANCH  75  78
ENDBRANCH  47  71
BRANCH  59  82
ATOM     82  C   UNL A   1      45.249  26.610  33.901  1.00  0.00     0.023 A 
ATOM     83  C   UNL A   1      46.550  27.142  33.806  1.00  0.00     0.012 A 
ATOM     84  C   UNL A   1      45.021  25.482  34.715  1.00  0.00     0.148 A 
ATOM     85  C   UNL A   1      47.613  26.536  34.474  1.00  0.00     0.002 A 
ATOM     86  C   UNL A   1      46.076  24.918  35.423  1.00  0.00     0.091 A 
ATOM     87  F   UNL A   1      43.780  24.978  34.779  1.00  0.00    -0.205 F 
ATOM     88  C   UNL A   1      47.375  25.433  35.290  1.00  0.00     0.022 A 
BRANCH  86  89
ATOM     89  S   UNL A   1      45.839  23.563  36.577  1.00  0.00     0.127 S 
ATOM     90  O   UNL A   1      47.194  23.372  37.094  1.00  0.00    -0.237 OA
ATOM     91  O   UNL A   1      44.895  24.136  37.538  1.00  0.00    -0.237 OA
ATOM     92  O   UNL A   1      45.305  22.458  35.794  1.00  0.00    -0.744 OA
ENDBRANCH  86  89
ENDBRANCH  59  82
ENDBRANCH  33  34
ENDBRANCH  25  28
ENDBRANCH  23  24
ENDBRANCH   1  23
TORSDOF 16
ENDMDL
