MODEL 1
REMARK VINA RESULT:     -10.5      0.000      0.000
REMARK SMILES CCC(CC)(NC(=O)c1ccc(C)s1)C(=O)NCCCCNC(=O)c1ccc(-c2c3nc(c(-c4cccc(S(=O)(=O)[O-])c4F)c4ccc([nH]4)c(-c4cccc(S(=O)(=O)[O-])c4F)c4nc(c(-c5cccc(S(=O)(=O)[O-])c5F)c5ccc2[nH]5)C=C4)C=C3)cc1
REMARK SMILES IDX 20 1 19 2 18 3 17 4 15 5 16 6 3 8 2 9 1 10 4 11 5 12 6 13
REMARK SMILES IDX 7 14 8 16 9 17 10 18 14 19 11 20 12 21 13 22 21 23 22 24
REMARK SMILES IDX 23 25 24 27 25 28 26 29 87 30 27 31 86 32 28 33 29 34 30 35
REMARK SMILES IDX 80 36 31 37 85 38 79 39 81 40 32 41 84 42 78 43 77 44 33 46
REMARK SMILES IDX 65 47 45 48 64 49 46 50 49 51 63 52 82 53 47 54 48 55 62 57
REMARK SMILES IDX 83 58 50 59 34 60 35 61 43 62 36 63 38 64 44 65 37 66 39 67
REMARK SMILES IDX 40 68 41 69 42 70 66 71 67 72 75 73 68 74 70 75 76 76 69 77
REMARK SMILES IDX 71 78 72 79 73 80 74 81 51 82 52 83 60 84 53 85 55 86 61 87
REMARK SMILES IDX 54 88 56 89 57 90 58 91 59 92
REMARK H PARENT 17 7 6 15 22 26 81 45 49 56
REMARK Flexibility Score: inf
ROOT
ATOM      1  C   UNL A   1      31.843  28.524  25.304  1.00  0.00     0.023 C 
ENDROOT
BRANCH   1   2
ATOM      2  C   UNL A   1      31.899  27.455  26.383  1.00  0.00     0.023 C 
BRANCH   2   3
ATOM      3  C   UNL A   1      30.973  26.263  26.166  1.00  0.00     0.116 C 
BRANCH   3   4
ATOM      4  N   UNL A   1      31.398  24.999  26.760  1.00  0.00    -0.354 N 
ATOM      5  C   UNL A   1      31.932  23.866  26.199  1.00  0.00     0.245 C 
ATOM      6  O   UNL A   1      32.487  23.068  26.959  1.00  0.00    -0.272 OA
ATOM      7  H   UNL A   1      31.280  24.951  27.736  1.00  0.00     0.163 HD
BRANCH   5   8
ATOM      8  C   UNL A   1      31.964  23.682  24.661  1.00  0.00     0.118 C 
BRANCH   8   9
ATOM      9  C   UNL A   1      30.600  23.888  23.938  1.00  0.00     0.035 C 
ATOM     10  C   UNL A   1      30.409  25.132  23.077  1.00  0.00     0.007 C 
ENDBRANCH   8   9
BRANCH   8  11
ATOM     11  C   UNL A   1      32.452  22.198  24.466  1.00  0.00     0.035 C 
ATOM     12  C   UNL A   1      32.214  21.555  23.110  1.00  0.00     0.007 C 
ENDBRANCH   8  11
BRANCH   8  13
ATOM     13  N   UNL A   1      32.900  24.670  24.055  1.00  0.00    -0.337 N 
ATOM     14  C   UNL A   1      34.155  25.123  24.442  1.00  0.00     0.262 C 
ATOM     15  H   UNL A   1      32.566  25.080  23.225  1.00  0.00     0.164 HD
ATOM     16  O   UNL A   1      34.336  26.321  24.197  1.00  0.00    -0.268 OA
BRANCH  14  17
ATOM     17  C   UNL A   1      35.227  24.248  24.914  1.00  0.00     0.092 A 
ATOM     18  C   UNL A   1      35.880  24.066  26.120  1.00  0.00     0.026 A 
ATOM     19  S   UNL A   1      35.921  23.187  23.726  1.00  0.00    -0.135 S 
ATOM     20  C   UNL A   1      36.731  22.908  26.125  1.00  0.00     0.016 A 
ATOM     21  C   UNL A   1      36.767  22.277  24.899  1.00  0.00     0.002 A 
ATOM     22  C   UNL A   1      37.407  20.973  24.541  1.00  0.00     0.056 C 
ENDBRANCH  14  17
ENDBRANCH   8  13
ENDBRANCH   5   8
ENDBRANCH   3   4
ENDBRANCH   2   3
ENDBRANCH   1   2
BRANCH   1  23
ATOM     23  C   UNL A   1      33.006  29.493  25.299  1.00  0.00     0.116 C 
BRANCH  23  24
ATOM     24  N   UNL A   1      32.633  30.791  25.819  1.00  0.00    -0.352 N 
ATOM     25  C   UNL A   1      33.134  31.486  26.893  1.00  0.00     0.251 C 
ATOM     26  H   UNL A   1      31.909  31.244  25.330  1.00  0.00     0.163 HD
ATOM     27  O   UNL A   1      32.516  32.469  27.301  1.00  0.00    -0.269 OA
BRANCH  25  28
ATOM     28  C   UNL A   1      34.390  31.071  27.570  1.00  0.00     0.039 A 
ATOM     29  C   UNL A   1      34.509  29.745  27.995  1.00  0.00     0.014 A 
ATOM     30  C   UNL A   1      35.417  31.974  27.854  1.00  0.00     0.014 A 
ATOM     31  C   UNL A   1      35.656  29.328  28.681  1.00  0.00     0.010 A 
ATOM     32  C   UNL A   1      36.606  31.531  28.432  1.00  0.00     0.010 A 
ATOM     33  C   UNL A   1      36.724  30.214  28.893  1.00  0.00    -0.014 A 
BRANCH  33  34
ATOM     34  C   UNL A   1      37.937  29.796  29.647  1.00  0.00     0.031 A 
ATOM     35  C   UNL A   1      38.195  30.338  31.033  1.00  0.00     0.074 A 
ATOM     36  C   UNL A   1      38.835  28.969  29.077  1.00  0.00     0.049 A 
ATOM     37  N   UNL A   1      39.207  30.114  31.832  1.00  0.00    -0.248 NA
ATOM     38  C   UNL A   1      37.200  31.275  31.583  1.00  0.00     0.031 C 
ATOM     39  C   UNL A   1      38.746  28.431  27.719  1.00  0.00     0.029 A 
ATOM     40  N   UNL A   1      40.009  28.450  29.563  1.00  0.00    -0.354 N 
ATOM     41  C   UNL A   1      38.990  30.906  32.955  1.00  0.00     0.074 A 
ATOM     42  C   UNL A   1      37.775  31.650  32.717  1.00  0.00     0.031 C 
ATOM     43  C   UNL A   1      39.815  27.652  27.484  1.00  0.00     0.029 A 
ATOM     44  C   UNL A   1      40.678  27.657  28.660  1.00  0.00     0.049 A 
ATOM     45  H   UNL A   1      40.341  28.628  30.473  1.00  0.00     0.167 HD
ATOM     46  C   UNL A   1      39.712  30.983  34.098  1.00  0.00     0.034 A 
ATOM     47  C   UNL A   1      41.858  27.014  28.762  1.00  0.00     0.034 A 
ATOM     48  C   UNL A   1      40.893  30.206  34.359  1.00  0.00     0.049 A 
ATOM     49  C   UNL A   1      42.623  27.083  30.056  1.00  0.00     0.074 A 
ATOM     50  C   UNL A   1      41.647  30.148  35.517  1.00  0.00     0.029 A 
ATOM     51  N   UNL A   1      41.495  29.352  33.447  1.00  0.00    -0.354 N 
ATOM     52  N   UNL A   1      42.320  27.720  31.162  1.00  0.00    -0.248 NA
ATOM     53  C   UNL A   1      43.875  26.314  30.132  1.00  0.00     0.031 C 
ATOM     54  C   UNL A   1      42.721  29.279  35.297  1.00  0.00     0.029 A 
ATOM     55  C   UNL A   1      42.617  28.771  34.013  1.00  0.00     0.049 A 
ATOM     56  H   UNL A   1      41.172  29.184  32.532  1.00  0.00     0.167 HD
ATOM     57  C   UNL A   1      43.322  27.402  32.072  1.00  0.00     0.074 A 
ATOM     58  C   UNL A   1      44.228  26.497  31.397  1.00  0.00     0.031 C 
ATOM     59  C   UNL A   1      43.484  27.832  33.347  1.00  0.00     0.034 A 
BRANCH  46  60
ATOM     60  C   UNL A   1      39.213  31.905  35.183  1.00  0.00     0.023 A 
ATOM     61  C   UNL A   1      38.243  31.443  36.097  1.00  0.00     0.012 A 
ATOM     62  C   UNL A   1      39.738  33.204  35.333  1.00  0.00     0.148 A 
ATOM     63  C   UNL A   1      37.775  32.270  37.117  1.00  0.00     0.002 A 
ATOM     64  C   UNL A   1      39.301  34.005  36.382  1.00  0.00     0.091 A 
ATOM     65  F   UNL A   1      40.645  33.634  34.444  1.00  0.00    -0.205 F 
ATOM     66  C   UNL A   1      38.311  33.546  37.265  1.00  0.00     0.022 A 
BRANCH  64  67
ATOM     67  S   UNL A   1      39.987  35.633  36.708  1.00  0.00     0.127 S 
ATOM     68  O   UNL A   1      39.306  35.997  37.950  1.00  0.00    -0.237 OA
ATOM     69  O   UNL A   1      41.414  35.341  36.859  1.00  0.00    -0.237 OA
ATOM     70  O   UNL A   1      39.654  36.450  35.549  1.00  0.00    -0.744 OA
ENDBRANCH  64  67
ENDBRANCH  46  60
BRANCH  47  71
ATOM     71  C   UNL A   1      42.360  26.201  27.619  1.00  0.00     0.023 A 
ATOM     72  C   UNL A   1      43.264  26.772  26.703  1.00  0.00     0.012 A 
ATOM     73  C   UNL A   1      41.972  24.858  27.455  1.00  0.00     0.148 A 
ATOM     74  C   UNL A   1      43.748  26.029  25.625  1.00  0.00     0.002 A 
ATOM     75  C   UNL A   1      42.502  24.106  26.414  1.00  0.00     0.091 A 
ATOM     76  F   UNL A   1      41.101  24.337  28.332  1.00  0.00    -0.205 F 
ATOM     77  C   UNL A   1      43.377  24.694  25.487  1.00  0.00     0.022 A 
BRANCH  75  78
ATOM     78  S   UNL A   1      42.186  22.346  26.242  1.00  0.00     0.127 S 
ATOM     79  O   UNL A   1      42.709  21.825  27.505  1.00  0.00    -0.237 OA
ATOM     80  O   UNL A   1      40.727  22.314  26.121  1.00  0.00    -0.237 OA
ATOM     81  O   UNL A   1      42.897  21.934  25.044  1.00  0.00    -0.744 OA
ENDBRANCH  75  78
ENDBRANCH  47  71
BRANCH  59  82
ATOM     82  C   UNL A   1      44.666  27.306  34.120  1.00  0.00     0.023 A 
ATOM     83  C   UNL A   1      45.889  28.004  34.095  1.00  0.00     0.012 A 
ATOM     84  C   UNL A   1      44.540  26.160  34.932  1.00  0.00     0.148 A 
ATOM     85  C   UNL A   1      46.979  27.550  34.837  1.00  0.00     0.002 A 
ATOM     86  C   UNL A   1      45.615  25.744  35.708  1.00  0.00     0.091 A 
ATOM     87  F   UNL A   1      43.373  25.500  34.929  1.00  0.00    -0.205 F 
ATOM     88  C   UNL A   1      46.839  26.430  35.651  1.00  0.00     0.022 A 
BRANCH  86  89
ATOM     89  S   UNL A   1      45.497  24.370  36.860  1.00  0.00     0.127 S 
ATOM     90  O   UNL A   1      46.857  24.312  37.393  1.00  0.00    -0.237 OA
ATOM     91  O   UNL A   1      44.488  24.846  37.807  1.00  0.00    -0.237 OA
ATOM     92  O   UNL A   1      45.087  23.217  36.069  1.00  0.00    -0.744 OA
ENDBRANCH  86  89
ENDBRANCH  59  82
ENDBRANCH  33  34
ENDBRANCH  25  28
ENDBRANCH  23  24
ENDBRANCH   1  23
TORSDOF 18
ENDMDL
MODEL 2
REMARK VINA RESULT:     -10.4      2.646      8.216
REMARK SMILES CCC(CC)(NC(=O)c1ccc(C)s1)C(=O)NCCCCNC(=O)c1ccc(-c2c3nc(c(-c4cccc(S(=O)(=O)[O-])c4F)c4ccc([nH]4)c(-c4cccc(S(=O)(=O)[O-])c4F)c4nc(c(-c5cccc(S(=O)(=O)[O-])c5F)c5ccc2[nH]5)C=C4)C=C3)cc1
REMARK SMILES IDX 20 1 19 2 18 3 17 4 15 5 16 6 3 8 2 9 1 10 4 11 5 12 6 13
REMARK SMILES IDX 7 14 8 16 9 17 10 18 14 19 11 20 12 21 13 22 21 23 22 24
REMARK SMILES IDX 23 25 24 27 25 28 26 29 87 30 27 31 86 32 28 33 29 34 30 35
REMARK SMILES IDX 80 36 31 37 85 38 79 39 81 40 32 41 84 42 78 43 77 44 33 46
REMARK SMILES IDX 65 47 45 48 64 49 46 50 49 51 63 52 82 53 47 54 48 55 62 57
REMARK SMILES IDX 83 58 50 59 34 60 35 61 43 62 36 63 38 64 44 65 37 66 39 67
REMARK SMILES IDX 40 68 41 69 42 70 66 71 67 72 75 73 68 74 70 75 76 76 69 77
REMARK SMILES IDX 71 78 72 79 73 80 74 81 51 82 52 83 60 84 53 85 55 86 61 87
REMARK SMILES IDX 54 88 56 89 57 90 58 91 59 92
REMARK H PARENT 17 7 6 15 22 26 81 45 49 56
REMARK Flexibility Score: inf
ROOT
ATOM      1  C   UNL A   1      31.449  32.028  26.449  1.00  0.00     0.023 C 
ENDROOT
BRANCH   1   2
ATOM      2  C   UNL A   1      31.397  30.531  26.196  1.00  0.00     0.023 C 
BRANCH   2   3
ATOM      3  C   UNL A   1      32.752  29.831  26.160  1.00  0.00     0.116 C 
BRANCH   3   4
ATOM      4  N   UNL A   1      33.406  29.758  24.857  1.00  0.00    -0.354 N 
ATOM      5  C   UNL A   1      33.221  28.908  23.795  1.00  0.00     0.245 C 
ATOM      6  O   UNL A   1      33.684  29.257  22.706  1.00  0.00    -0.272 OA
ATOM      7  H   UNL A   1      34.104  30.437  24.715  1.00  0.00     0.163 HD
BRANCH   5   8
ATOM      8  C   UNL A   1      32.339  27.642  23.936  1.00  0.00     0.118 C 
BRANCH   8   9
ATOM      9  C   UNL A   1      30.826  27.911  24.191  1.00  0.00     0.035 C 
ATOM     10  C   UNL A   1      30.054  28.756  23.183  1.00  0.00     0.007 C 
ENDBRANCH   8   9
BRANCH   8  11
ATOM     11  C   UNL A   1      32.960  26.881  25.165  1.00  0.00     0.035 C 
ATOM     12  C   UNL A   1      32.003  26.377  26.233  1.00  0.00     0.007 C 
ENDBRANCH   8  11
BRANCH   8  13
ATOM     13  N   UNL A   1      32.406  26.841  22.681  1.00  0.00    -0.337 N 
ATOM     14  C   UNL A   1      33.062  25.658  22.364  1.00  0.00     0.262 C 
ATOM     15  H   UNL A   1      31.887  27.222  21.936  1.00  0.00     0.164 HD
ATOM     16  O   UNL A   1      33.488  25.636  21.204  1.00  0.00    -0.268 OA
BRANCH  14  17
ATOM     17  C   UNL A   1      33.088  24.483  23.232  1.00  0.00     0.092 A 
ATOM     18  C   UNL A   1      32.127  23.670  23.805  1.00  0.00     0.026 A 
ATOM     19  S   UNL A   1      34.661  23.945  23.738  1.00  0.00    -0.135 S 
ATOM     20  C   UNL A   1      32.681  22.492  24.414  1.00  0.00     0.016 A 
ATOM     21  C   UNL A   1      34.059  22.472  24.359  1.00  0.00     0.002 A 
ATOM     22  C   UNL A   1      34.990  21.365  24.742  1.00  0.00     0.056 C 
ENDBRANCH  14  17
ENDBRANCH   8  13
ENDBRANCH   5   8
ENDBRANCH   3   4
ENDBRANCH   2   3
ENDBRANCH   1   2
BRANCH   1  23
ATOM     23  C   UNL A   1      32.636  32.502  27.260  1.00  0.00     0.116 C 
BRANCH  23  24
ATOM     24  N   UNL A   1      32.544  33.909  27.587  1.00  0.00    -0.352 N 
ATOM     25  C   UNL A   1      33.167  34.625  28.579  1.00  0.00     0.251 C 
ATOM     26  H   UNL A   1      31.942  34.432  27.010  1.00  0.00     0.163 HD
ATOM     27  O   UNL A   1      32.769  35.762  28.826  1.00  0.00    -0.269 OA
BRANCH  25  28
ATOM     28  C   UNL A   1      34.294  34.052  29.360  1.00  0.00     0.039 A 
ATOM     29  C   UNL A   1      35.600  34.394  28.992  1.00  0.00     0.014 A 
ATOM     30  C   UNL A   1      34.095  33.138  30.397  1.00  0.00     0.014 A 
ATOM     31  C   UNL A   1      36.689  33.836  29.671  1.00  0.00     0.010 A 
ATOM     32  C   UNL A   1      35.175  32.674  31.147  1.00  0.00     0.010 A 
ATOM     33  C   UNL A   1      36.487  32.981  30.767  1.00  0.00    -0.014 A 
BRANCH  33  34
ATOM     34  C   UNL A   1      37.634  32.355  31.480  1.00  0.00     0.031 A 
ATOM     35  C   UNL A   1      38.409  31.232  30.834  1.00  0.00     0.074 A 
ATOM     36  C   UNL A   1      37.955  32.757  32.725  1.00  0.00     0.049 A 
ATOM     37  N   UNL A   1      39.416  30.543  31.308  1.00  0.00    -0.248 NA
ATOM     38  C   UNL A   1      37.980  30.805  29.491  1.00  0.00     0.031 C 
ATOM     39  C   UNL A   1      37.243  33.779  33.494  1.00  0.00     0.029 A 
ATOM     40  N   UNL A   1      38.952  32.339  33.571  1.00  0.00    -0.354 N 
ATOM     41  C   UNL A   1      39.714  29.587  30.344  1.00  0.00     0.074 A 
ATOM     42  C   UNL A   1      38.754  29.752  29.277  1.00  0.00     0.031 C 
ATOM     43  C   UNL A   1      37.831  33.916  34.694  1.00  0.00     0.029 A 
ATOM     44  C   UNL A   1      38.940  32.972  34.793  1.00  0.00     0.049 A 
ATOM     45  H   UNL A   1      39.613  31.651  33.328  1.00  0.00     0.167 HD
ATOM     46  C   UNL A   1      40.717  28.676  30.326  1.00  0.00     0.034 A 
ATOM     47  C   UNL A   1      39.728  32.808  35.874  1.00  0.00     0.034 A 
ATOM     48  C   UNL A   1      41.704  28.545  31.362  1.00  0.00     0.049 A 
ATOM     49  C   UNL A   1      40.860  31.817  35.815  1.00  0.00     0.074 A 
ATOM     50  C   UNL A   1      42.809  27.712  31.397  1.00  0.00     0.029 A 
ATOM     51  N   UNL A   1      41.706  29.261  32.548  1.00  0.00    -0.354 N 
ATOM     52  N   UNL A   1      41.216  31.028  34.831  1.00  0.00    -0.248 NA
ATOM     53  C   UNL A   1      41.723  31.722  37.002  1.00  0.00     0.031 C 
ATOM     54  C   UNL A   1      43.464  27.907  32.618  1.00  0.00     0.029 A 
ATOM     55  C   UNL A   1      42.786  28.883  33.328  1.00  0.00     0.049 A 
ATOM     56  H   UNL A   1      41.038  29.939  32.800  1.00  0.00     0.167 HD
ATOM     57  C   UNL A   1      42.361  30.369  35.264  1.00  0.00     0.074 A 
ATOM     58  C   UNL A   1      42.652  30.868  36.592  1.00  0.00     0.031 C 
ATOM     59  C   UNL A   1      43.095  29.424  34.627  1.00  0.00     0.034 A 
BRANCH  46  60
ATOM     60  C   UNL A   1      40.830  27.783  29.115  1.00  0.00     0.023 A 
ATOM     61  C   UNL A   1      40.054  26.608  29.041  1.00  0.00     0.012 A 
ATOM     62  C   UNL A   1      41.659  28.131  28.030  1.00  0.00     0.148 A 
ATOM     63  C   UNL A   1      40.129  25.773  27.928  1.00  0.00     0.002 A 
ATOM     64  C   UNL A   1      41.692  27.317  26.903  1.00  0.00     0.091 A 
ATOM     65  F   UNL A   1      42.404  29.241  28.124  1.00  0.00    -0.205 F 
ATOM     66  C   UNL A   1      40.940  26.133  26.855  1.00  0.00     0.022 A 
BRANCH  64  67
ATOM     67  S   UNL A   1      42.641  27.734  25.436  1.00  0.00     0.127 S 
ATOM     68  O   UNL A   1      42.457  26.538  24.615  1.00  0.00    -0.237 OA
ATOM     69  O   UNL A   1      41.942  28.923  24.944  1.00  0.00    -0.237 OA
ATOM     70  O   UNL A   1      44.003  27.977  25.892  1.00  0.00    -0.744 OA
ENDBRANCH  64  67
ENDBRANCH  46  60
BRANCH  47  71
ATOM     71  C   UNL A   1      39.505  33.643  37.087  1.00  0.00     0.023 A 
ATOM     72  C   UNL A   1      39.974  34.971  37.113  1.00  0.00     0.012 A 
ATOM     73  C   UNL A   1      38.805  33.139  38.199  1.00  0.00     0.148 A 
ATOM     74  C   UNL A   1      39.775  35.772  38.239  1.00  0.00     0.002 A 
ATOM     75  C   UNL A   1      38.560  33.960  39.293  1.00  0.00     0.091 A 
ATOM     76  F   UNL A   1      38.379  31.868  38.158  1.00  0.00    -0.205 F 
ATOM     77  C   UNL A   1      39.059  35.271  39.323  1.00  0.00     0.022 A 
BRANCH  75  78
ATOM     78  S   UNL A   1      37.531  33.441  40.671  1.00  0.00     0.127 S 
ATOM     79  O   UNL A   1      37.441  34.672  41.456  1.00  0.00    -0.237 OA
ATOM     80  O   UNL A   1      36.294  33.053  39.992  1.00  0.00    -0.237 OA
ATOM     81  O   UNL A   1      38.241  32.340  41.299  1.00  0.00    -0.744 OA
ENDBRANCH  75  78
ENDBRANCH  47  71
BRANCH  59  82
ATOM     82  C   UNL A   1      44.312  28.887  35.334  1.00  0.00     0.023 A 
ATOM     83  C   UNL A   1      45.574  29.468  35.102  1.00  0.00     0.012 A 
ATOM     84  C   UNL A   1      44.191  27.854  36.287  1.00  0.00     0.148 A 
ATOM     85  C   UNL A   1      46.702  29.006  35.780  1.00  0.00     0.002 A 
ATOM     86  C   UNL A   1      45.310  27.436  36.995  1.00  0.00     0.091 A 
ATOM     87  F   UNL A   1      42.984  27.303  36.482  1.00  0.00    -0.205 F 
ATOM     88  C   UNL A   1      46.569  28.001  36.734  1.00  0.00     0.022 A 
BRANCH  86  89
ATOM     89  S   UNL A   1      45.217  26.216  38.311  1.00  0.00     0.127 S 
ATOM     90  O   UNL A   1      44.270  26.842  39.232  1.00  0.00    -0.237 OA
ATOM     91  O   UNL A   1      44.700  25.042  37.608  1.00  0.00    -0.237 OA
ATOM     92  O   UNL A   1      46.575  26.067  38.818  1.00  0.00    -0.744 OA
ENDBRANCH  86  89
ENDBRANCH  59  82
ENDBRANCH  33  34
ENDBRANCH  25  28
ENDBRANCH  23  24
ENDBRANCH   1  23
TORSDOF 18
ENDMDL
MODEL 3
REMARK VINA RESULT:     -10.4      1.769      2.634
REMARK SMILES CCC(CC)(NC(=O)c1ccc(C)s1)C(=O)NCCCCNC(=O)c1ccc(-c2c3nc(c(-c4cccc(S(=O)(=O)[O-])c4F)c4ccc([nH]4)c(-c4cccc(S(=O)(=O)[O-])c4F)c4nc(c(-c5cccc(S(=O)(=O)[O-])c5F)c5ccc2[nH]5)C=C4)C=C3)cc1
REMARK SMILES IDX 20 1 19 2 18 3 17 4 15 5 16 6 3 8 2 9 1 10 4 11 5 12 6 13
REMARK SMILES IDX 7 14 8 16 9 17 10 18 14 19 11 20 12 21 13 22 21 23 22 24
REMARK SMILES IDX 23 25 24 27 25 28 26 29 87 30 27 31 86 32 28 33 29 34 30 35
REMARK SMILES IDX 80 36 31 37 85 38 79 39 81 40 32 41 84 42 78 43 77 44 33 46
REMARK SMILES IDX 65 47 45 48 64 49 46 50 49 51 63 52 82 53 47 54 48 55 62 57
REMARK SMILES IDX 83 58 50 59 34 60 35 61 43 62 36 63 38 64 44 65 37 66 39 67
REMARK SMILES IDX 40 68 41 69 42 70 66 71 67 72 75 73 68 74 70 75 76 76 69 77
REMARK SMILES IDX 71 78 72 79 73 80 74 81 51 82 52 83 60 84 53 85 55 86 61 87
REMARK SMILES IDX 54 88 56 89 57 90 58 91 59 92
REMARK H PARENT 17 7 6 15 22 26 81 45 49 56
REMARK Flexibility Score: inf
ROOT
ATOM      1  C   UNL A   1      31.780  29.394  26.815  1.00  0.00     0.023 C 
ENDROOT
BRANCH   1   2
ATOM      2  C   UNL A   1      31.916  27.923  27.167  1.00  0.00     0.023 C 
BRANCH   2   3
ATOM      3  C   UNL A   1      32.002  26.975  25.976  1.00  0.00     0.116 C 
BRANCH   3   4
ATOM      4  N   UNL A   1      30.768  26.775  25.221  1.00  0.00    -0.354 N 
ATOM      5  C   UNL A   1      30.488  26.914  23.885  1.00  0.00     0.245 C 
ATOM      6  O   UNL A   1      29.455  26.386  23.466  1.00  0.00    -0.272 OA
ATOM      7  H   UNL A   1      30.000  26.492  25.768  1.00  0.00     0.163 HD
BRANCH   5   8
ATOM      8  C   UNL A   1      31.509  27.576  22.925  1.00  0.00     0.118 C 
BRANCH   8   9
ATOM      9  C   UNL A   1      32.910  27.867  23.542  1.00  0.00     0.035 C 
ATOM     10  C   UNL A   1      33.819  28.876  22.849  1.00  0.00     0.007 C 
ENDBRANCH   8   9
BRANCH   8  11
ATOM     11  C   UNL A   1      30.818  28.927  22.510  1.00  0.00     0.035 C 
ATOM     12  C   UNL A   1      30.130  29.726  23.604  1.00  0.00     0.007 C 
ENDBRANCH   8  11
BRANCH   8  13
ATOM     13  N   UNL A   1      31.754  26.683  21.758  1.00  0.00    -0.337 N 
ATOM     14  C   UNL A   1      32.537  25.546  21.603  1.00  0.00     0.262 C 
ATOM     15  H   UNL A   1      31.271  26.949  20.943  1.00  0.00     0.164 HD
ATOM     16  O   UNL A   1      33.063  25.466  20.487  1.00  0.00    -0.268 OA
BRANCH  14  17
ATOM     17  C   UNL A   1      32.590  24.455  22.575  1.00  0.00     0.092 A 
ATOM     18  C   UNL A   1      31.670  23.562  23.093  1.00  0.00     0.026 A 
ATOM     19  S   UNL A   1      34.133  24.180  23.326  1.00  0.00    -0.135 S 
ATOM     20  C   UNL A   1      32.279  22.524  23.877  1.00  0.00     0.016 A 
ATOM     21  C   UNL A   1      33.643  22.690  24.002  1.00  0.00     0.002 A 
ATOM     22  C   UNL A   1      34.644  21.755  24.603  1.00  0.00     0.056 C 
ENDBRANCH  14  17
ENDBRANCH   8  13
ENDBRANCH   5   8
ENDBRANCH   3   4
ENDBRANCH   2   3
ENDBRANCH   1   2
BRANCH   1  23
ATOM     23  C   UNL A   1      33.078  30.095  26.471  1.00  0.00     0.116 C 
BRANCH  23  24
ATOM     24  N   UNL A   1      33.034  31.507  26.790  1.00  0.00    -0.352 N 
ATOM     25  C   UNL A   1      33.823  32.241  27.641  1.00  0.00     0.251 C 
ATOM     26  H   UNL A   1      32.331  32.017  26.328  1.00  0.00     0.163 HD
ATOM     27  O   UNL A   1      33.467  33.379  27.942  1.00  0.00    -0.269 OA
BRANCH  25  28
ATOM     28  C   UNL A   1      35.080  31.688  28.207  1.00  0.00     0.039 A 
ATOM     29  C   UNL A   1      35.062  30.389  28.726  1.00  0.00     0.014 A 
ATOM     30  C   UNL A   1      36.253  32.442  28.298  1.00  0.00     0.014 A 
ATOM     31  C   UNL A   1      36.213  29.851  29.313  1.00  0.00     0.010 A 
ATOM     32  C   UNL A   1      37.428  31.865  28.776  1.00  0.00     0.010 A 
ATOM     33  C   UNL A   1      37.413  30.578  29.330  1.00  0.00    -0.014 A 
BRANCH  33  34
ATOM     34  C   UNL A   1      38.638  30.034  29.978  1.00  0.00     0.031 A 
ATOM     35  C   UNL A   1      39.063  30.530  31.339  1.00  0.00     0.074 A 
ATOM     36  C   UNL A   1      39.398  29.129  29.331  1.00  0.00     0.049 A 
ATOM     37  N   UNL A   1      40.112  30.199  32.049  1.00  0.00    -0.248 NA
ATOM     38  C   UNL A   1      38.217  31.555  31.975  1.00  0.00     0.031 C 
ATOM     39  C   UNL A   1      39.144  28.619  27.982  1.00  0.00     0.029 A 
ATOM     40  N   UNL A   1      40.552  28.491  29.714  1.00  0.00    -0.354 N 
ATOM     41  C   UNL A   1      40.070  30.994  33.188  1.00  0.00     0.074 A 
ATOM     42  C   UNL A   1      38.918  31.857  33.057  1.00  0.00     0.031 C 
ATOM     43  C   UNL A   1      40.106  27.741  27.655  1.00  0.00     0.029 A 
ATOM     44  C   UNL A   1      41.061  27.647  28.754  1.00  0.00     0.049 A 
ATOM     45  H   UNL A   1      40.975  28.624  30.593  1.00  0.00     0.167 HD
ATOM     46  C   UNL A   1      40.889  30.986  34.267  1.00  0.00     0.034 A 
ATOM     47  C   UNL A   1      42.176  26.889  28.754  1.00  0.00     0.034 A 
ATOM     48  C   UNL A   1      42.004  30.093  34.424  1.00  0.00     0.049 A 
ATOM     49  C   UNL A   1      43.050  26.867  29.979  1.00  0.00     0.074 A 
ATOM     50  C   UNL A   1      42.843  29.947  35.514  1.00  0.00     0.029 A 
ATOM     51  N   UNL A   1      42.440  29.195  33.462  1.00  0.00    -0.354 N 
ATOM     52  N   UNL A   1      42.905  27.517  31.108  1.00  0.00    -0.248 NA
ATOM     53  C   UNL A   1      44.220  25.977  29.945  1.00  0.00     0.031 C 
ATOM     54  C   UNL A   1      43.804  28.979  35.201  1.00  0.00     0.029 A 
ATOM     55  C   UNL A   1      43.542  28.499  33.928  1.00  0.00     0.049 A 
ATOM     56  H   UNL A   1      42.027  29.070  32.576  1.00  0.00     0.167 HD
ATOM     57  C   UNL A   1      43.943  27.091  31.930  1.00  0.00     0.074 A 
ATOM     58  C   UNL A   1      44.695  26.110  31.176  1.00  0.00     0.031 C 
ATOM     59  C   UNL A   1      44.253  27.488  33.188  1.00  0.00     0.034 A 
BRANCH  46  60
ATOM     60  C   UNL A   1      40.576  31.939  35.393  1.00  0.00     0.023 A 
ATOM     61  C   UNL A   1      41.390  33.074  35.592  1.00  0.00     0.012 A 
ATOM     62  C   UNL A   1      39.450  31.747  36.217  1.00  0.00     0.148 A 
ATOM     63  C   UNL A   1      41.114  33.978  36.617  1.00  0.00     0.002 A 
ATOM     64  C   UNL A   1      39.154  32.678  37.206  1.00  0.00     0.091 A 
ATOM     65  F   UNL A   1      38.697  30.653  36.027  1.00  0.00    -0.205 F 
ATOM     66  C   UNL A   1      39.991  33.785  37.416  1.00  0.00     0.022 A 
BRANCH  64  67
ATOM     67  S   UNL A   1      37.686  32.565  38.235  1.00  0.00     0.127 S 
ATOM     68  O   UNL A   1      37.708  31.156  38.627  1.00  0.00    -0.237 OA
ATOM     69  O   UNL A   1      37.994  33.503  39.316  1.00  0.00    -0.237 OA
ATOM     70  O   UNL A   1      36.569  32.962  37.389  1.00  0.00    -0.744 OA
ENDBRANCH  64  67
ENDBRANCH  46  60
BRANCH  47  71
ATOM     71  C   UNL A   1      42.497  26.045  27.570  1.00  0.00     0.023 A 
ATOM     72  C   UNL A   1      43.263  26.584  26.517  1.00  0.00     0.012 A 
ATOM     73  C   UNL A   1      42.075  24.704  27.496  1.00  0.00     0.148 A 
ATOM     74  C   UNL A   1      43.577  25.811  25.399  1.00  0.00     0.002 A 
ATOM     75  C   UNL A   1      42.440  23.923  26.406  1.00  0.00     0.091 A 
ATOM     76  F   UNL A   1      41.337  24.215  28.502  1.00  0.00    -0.205 F 
ATOM     77  C   UNL A   1      43.176  24.478  25.348  1.00  0.00     0.022 A 
BRANCH  75  78
ATOM     78  S   UNL A   1      42.084  22.164  26.324  1.00  0.00     0.127 S 
ATOM     79  O   UNL A   1      40.633  22.161  26.144  1.00  0.00    -0.237 OA
ATOM     80  O   UNL A   1      42.851  21.757  25.145  1.00  0.00    -0.237 OA
ATOM     81  O   UNL A   1      42.568  21.606  27.575  1.00  0.00    -0.744 OA
ENDBRANCH  75  78
ENDBRANCH  47  71
BRANCH  59  82
ATOM     82  C   UNL A   1      45.438  26.838  33.856  1.00  0.00     0.023 A 
ATOM     83  C   UNL A   1      46.692  27.478  33.837  1.00  0.00     0.012 A 
ATOM     84  C   UNL A   1      45.287  25.630  34.567  1.00  0.00     0.148 A 
ATOM     85  C   UNL A   1      47.788  26.907  34.486  1.00  0.00     0.002 A 
ATOM     86  C   UNL A   1      46.370  25.095  35.253  1.00  0.00     0.091 A 
ATOM     87  F   UNL A   1      44.089  25.028  34.559  1.00  0.00    -0.205 F 
ATOM     88  C   UNL A   1      47.624  25.724  35.202  1.00  0.00     0.022 A 
BRANCH  86  89
ATOM     89  S   UNL A   1      46.230  23.629  36.282  1.00  0.00     0.127 S 
ATOM     90  O   UNL A   1      44.796  23.600  36.566  1.00  0.00    -0.237 OA
ATOM     91  O   UNL A   1      46.696  22.573  35.382  1.00  0.00    -0.237 OA
ATOM     92  O   UNL A   1      47.090  23.863  37.435  1.00  0.00    -0.744 OA
ENDBRANCH  86  89
ENDBRANCH  59  82
ENDBRANCH  33  34
ENDBRANCH  25  28
ENDBRANCH  23  24
ENDBRANCH   1  23
TORSDOF 18
ENDMDL
