MODEL 1
REMARK VINA RESULT:     -11.2      0.000      0.000
REMARK SMILES CC[NH2+][C@]1(C(=O)NCCCCNC(=O)c2ccc(-c3c4nc(c(-c5cccc(S(=O)(=O)[O-])c5F)c5ccc([nH]5)c(-c5cccc(S(=O)(=O)[O-])c5F)c5nc(c(-c6cccc(S(=O)(=O)[O-])c6F)c6ccc3[nH]6)C=C5)C=C4)cc2)CCC[C@@H]([N@@H+](C)CC2CCCC2)C1
REMARK SMILES IDX 9 1 8 2 7 3 5 4 6 5 4 7 78 8 90 9 79 10 81 11 80 12 3 13
REMARK SMILES IDX 2 16 1 17 82 18 83 19 84 21 85 22 86 23 89 24 87 25 88 26
REMARK SMILES IDX 10 27 11 28 12 29 13 30 14 32 15 33 16 34 77 35 17 36 76 37
REMARK SMILES IDX 18 38 19 39 20 40 70 41 21 42 75 43 69 44 71 45 22 46 74 47
REMARK SMILES IDX 68 48 67 49 23 51 55 52 35 53 54 54 36 55 39 56 53 57 72 58
REMARK SMILES IDX 37 59 38 60 52 62 73 63 40 64 24 65 25 66 33 67 26 68 28 69
REMARK SMILES IDX 34 70 27 71 29 72 30 73 31 74 32 75 56 76 57 77 65 78 58 79
REMARK SMILES IDX 60 80 66 81 59 82 61 83 62 84 63 85 64 86 41 87 42 88 50 89
REMARK SMILES IDX 43 90 45 91 51 92 44 93 46 94 47 95 48 96 49 97
REMARK H PARENT 7 6 3 14 3 15 82 20 12 31 71 50 39 61
REMARK Flexibility Score: inf
ROOT
ATOM      1  C   UNL A   1      32.410  29.463  27.077  1.00  0.00     0.023 C 
ENDROOT
BRANCH   1   2
ATOM      2  C   UNL A   1      33.591  28.592  26.658  1.00  0.00     0.116 C 
BRANCH   2   3
ATOM      3  N   UNL A   1      34.037  28.870  25.310  1.00  0.00    -0.351 N 
ATOM      4  C   UNL A   1      33.634  28.473  24.076  1.00  0.00     0.281 C 
ATOM      5  O   UNL A   1      34.120  29.160  23.163  1.00  0.00    -0.268 OA
ATOM      6  H   UNL A   1      34.806  29.483  25.281  1.00  0.00     0.163 HD
BRANCH   4   7
ATOM      7  C   UNL A   1      32.564  27.353  23.748  1.00  0.00     0.181 C 
ATOM      8  C   UNL A   1      32.639  26.705  22.352  1.00  0.00     0.079 C 
ATOM      9  C   UNL A   1      32.805  26.234  24.798  1.00  0.00     0.144 C 
ATOM     10  C   UNL A   1      31.609  25.593  22.143  1.00  0.00     0.013 C 
ATOM     11  C   UNL A   1      31.973  24.939  24.628  1.00  0.00     0.190 C 
ATOM     12  C   UNL A   1      31.826  24.492  23.164  1.00  0.00     0.065 C 
BRANCH   7  13
ATOM     13  N   UNL A   1      31.178  27.911  23.767  1.00  0.00    -0.334 N 
ATOM     14  H   UNL A   1      30.541  27.128  23.615  1.00  0.00     0.347 HD
ATOM     15  H   UNL A   1      31.121  28.382  24.671  1.00  0.00     0.347 HD
BRANCH  13  16
ATOM     16  C   UNL A   1      30.810  28.948  22.815  1.00  0.00     0.257 C 
ATOM     17  C   UNL A   1      29.723  29.800  23.464  1.00  0.00     0.071 C 
ENDBRANCH  13  16
ENDBRANCH   7  13
BRANCH  11  18
ATOM     18  N   UNL A   1      32.387  23.842  25.540  1.00  0.00    -0.334 N 
ATOM     19  C   UNL A   1      31.445  23.521  26.597  1.00  0.00     0.332 C 
ATOM     20  H   UNL A   1      33.158  24.355  25.968  1.00  0.00     0.348 HD
BRANCH  18  21
ATOM     21  C   UNL A   1      33.190  22.712  25.061  1.00  0.00     0.265 C 
BRANCH  21  22
ATOM     22  C   UNL A   1      34.727  22.727  24.856  1.00  0.00     0.044 C 
ATOM     23  C   UNL A   1      35.219  22.900  23.419  1.00  0.00     0.009 C 
ATOM     24  C   UNL A   1      35.571  23.761  25.583  1.00  0.00     0.009 C 
ATOM     25  C   UNL A   1      36.735  23.030  23.583  1.00  0.00     0.001 C 
ATOM     26  C   UNL A   1      36.954  23.676  24.948  1.00  0.00     0.001 C 
ENDBRANCH  21  22
ENDBRANCH  18  21
ENDBRANCH  11  18
ENDBRANCH   4   7
ENDBRANCH   2   3
ENDBRANCH   1   2
BRANCH   1  27
ATOM     27  C   UNL A   1      32.478  30.911  26.587  1.00  0.00     0.023 C 
BRANCH  27  28
ATOM     28  C   UNL A   1      33.336  31.847  27.427  1.00  0.00     0.116 C 
BRANCH  28  29
ATOM     29  N   UNL A   1      32.792  33.194  27.554  1.00  0.00    -0.352 N 
ATOM     30  C   UNL A   1      33.204  34.181  28.420  1.00  0.00     0.251 C 
ATOM     31  H   UNL A   1      32.046  33.422  26.954  1.00  0.00     0.163 HD
ATOM     32  O   UNL A   1      32.615  35.256  28.483  1.00  0.00    -0.269 OA
BRANCH  30  33
ATOM     33  C   UNL A   1      34.348  33.893  29.306  1.00  0.00     0.039 A 
ATOM     34  C   UNL A   1      34.149  33.099  30.437  1.00  0.00     0.014 A 
ATOM     35  C   UNL A   1      35.628  34.310  28.940  1.00  0.00     0.014 A 
ATOM     36  C   UNL A   1      35.255  32.650  31.162  1.00  0.00     0.010 A 
ATOM     37  C   UNL A   1      36.729  33.807  29.621  1.00  0.00     0.010 A 
ATOM     38  C   UNL A   1      36.553  32.966  30.732  1.00  0.00    -0.014 A 
BRANCH  38  39
ATOM     39  C   UNL A   1      37.759  32.423  31.406  1.00  0.00     0.031 A 
ATOM     40  C   UNL A   1      38.516  31.291  30.770  1.00  0.00     0.074 A 
ATOM     41  C   UNL A   1      38.087  32.850  32.642  1.00  0.00     0.049 A 
ATOM     42  N   UNL A   1      39.488  30.570  31.261  1.00  0.00    -0.248 NA
ATOM     43  C   UNL A   1      38.097  30.894  29.415  1.00  0.00     0.031 C 
ATOM     44  C   UNL A   1      37.382  33.891  33.394  1.00  0.00     0.029 A 
ATOM     45  N   UNL A   1      39.071  32.432  33.502  1.00  0.00    -0.354 N 
ATOM     46  C   UNL A   1      39.762  29.603  30.300  1.00  0.00     0.074 A 
ATOM     47  C   UNL A   1      38.837  29.814  29.209  1.00  0.00     0.031 C 
ATOM     48  C   UNL A   1      37.951  34.023  34.604  1.00  0.00     0.029 A 
ATOM     49  C   UNL A   1      39.037  33.056  34.728  1.00  0.00     0.049 A 
ATOM     50  H   UNL A   1      39.740  31.748  33.264  1.00  0.00     0.167 HD
ATOM     51  C   UNL A   1      40.715  28.643  30.315  1.00  0.00     0.034 A 
ATOM     52  C   UNL A   1      39.786  32.860  35.831  1.00  0.00     0.034 A 
ATOM     53  C   UNL A   1      41.673  28.480  31.373  1.00  0.00     0.049 A 
ATOM     54  C   UNL A   1      40.879  31.824  35.798  1.00  0.00     0.074 A 
ATOM     55  C   UNL A   1      42.740  27.603  31.439  1.00  0.00     0.029 A 
ATOM     56  N   UNL A   1      41.681  29.212  32.551  1.00  0.00    -0.354 N 
ATOM     57  N   UNL A   1      41.222  31.020  34.820  1.00  0.00    -0.248 NA
ATOM     58  C   UNL A   1      41.707  31.688  37.004  1.00  0.00     0.031 C 
ATOM     59  C   UNL A   1      43.390  27.799  32.661  1.00  0.00     0.029 A 
ATOM     60  C   UNL A   1      42.735  28.808  33.350  1.00  0.00     0.049 A 
ATOM     61  H   UNL A   1      41.033  29.916  32.782  1.00  0.00     0.167 HD
ATOM     62  C   UNL A   1      42.329  30.315  35.276  1.00  0.00     0.074 A 
ATOM     63  C   UNL A   1      42.607  30.793  36.614  1.00  0.00     0.031 C 
ATOM     64  C   UNL A   1      43.042  29.348  34.649  1.00  0.00     0.034 A 
BRANCH  51  65
ATOM     65  C   UNL A   1      40.810  27.735  29.119  1.00  0.00     0.023 A 
ATOM     66  C   UNL A   1      39.958  26.616  29.030  1.00  0.00     0.012 A 
ATOM     67  C   UNL A   1      41.702  28.012  28.064  1.00  0.00     0.148 A 
ATOM     68  C   UNL A   1      40.012  25.768  27.925  1.00  0.00     0.002 A 
ATOM     69  C   UNL A   1      41.720  27.185  26.946  1.00  0.00     0.091 A 
ATOM     70  F   UNL A   1      42.522  29.066  28.178  1.00  0.00    -0.205 F 
ATOM     71  C   UNL A   1      40.885  26.058  26.880  1.00  0.00     0.022 A 
BRANCH  69  72
ATOM     72  S   UNL A   1      42.753  27.520  25.515  1.00  0.00     0.127 S 
ATOM     73  O   UNL A   1      42.687  26.246  24.800  1.00  0.00    -0.237 OA
ATOM     74  O   UNL A   1      42.038  28.619  24.866  1.00  0.00    -0.237 OA
ATOM     75  O   UNL A   1      44.062  27.876  26.041  1.00  0.00    -0.744 OA
ENDBRANCH  69  72
ENDBRANCH  51  65
BRANCH  52  76
ATOM     76  C   UNL A   1      39.577  33.713  37.036  1.00  0.00     0.023 A 
ATOM     77  C   UNL A   1      40.057  35.037  37.030  1.00  0.00     0.012 A 
ATOM     78  C   UNL A   1      38.884  33.240  38.167  1.00  0.00     0.148 A 
ATOM     79  C   UNL A   1      39.877  35.867  38.138  1.00  0.00     0.002 A 
ATOM     80  C   UNL A   1      38.663  34.088  39.248  1.00  0.00     0.091 A 
ATOM     81  F   UNL A   1      38.446  31.973  38.160  1.00  0.00    -0.205 F 
ATOM     82  C   UNL A   1      39.172  35.396  39.242  1.00  0.00     0.022 A 
BRANCH  80  83
ATOM     83  S   UNL A   1      37.655  33.607  40.656  1.00  0.00     0.127 S 
ATOM     84  O   UNL A   1      36.459  33.083  40.002  1.00  0.00    -0.237 OA
ATOM     85  O   UNL A   1      38.497  32.600  41.302  1.00  0.00    -0.237 OA
ATOM     86  O   UNL A   1      37.473  34.824  41.436  1.00  0.00    -0.744 OA
ENDBRANCH  80  83
ENDBRANCH  52  76
BRANCH  64  87
ATOM     87  C   UNL A   1      44.228  28.765  35.368  1.00  0.00     0.023 A 
ATOM     88  C   UNL A   1      45.498  29.350  35.209  1.00  0.00     0.012 A 
ATOM     89  C   UNL A   1      44.056  27.714  36.292  1.00  0.00     0.148 A 
ATOM     90  C   UNL A   1      46.586  28.887  35.949  1.00  0.00     0.002 A 
ATOM     91  C   UNL A   1      45.135  27.289  37.058  1.00  0.00     0.091 A 
ATOM     92  F   UNL A   1      42.840  27.162  36.414  1.00  0.00    -0.205 F 
ATOM     93  C   UNL A   1      46.402  27.868  36.881  1.00  0.00     0.022 A 
BRANCH  91  94
ATOM     94  S   UNL A   1      44.972  26.053  38.351  1.00  0.00     0.127 S 
ATOM     95  O   UNL A   1      44.123  26.746  39.319  1.00  0.00    -0.237 OA
ATOM     96  O   UNL A   1      44.319  24.950  37.646  1.00  0.00    -0.237 OA
ATOM     97  O   UNL A   1      46.326  25.765  38.805  1.00  0.00    -0.744 OA
ENDBRANCH  91  94
ENDBRANCH  64  87
ENDBRANCH  38  39
ENDBRANCH  30  33
ENDBRANCH  28  29
ENDBRANCH  27  28
ENDBRANCH   1  27
TORSDOF 19
ENDMDL
MODEL 2
REMARK VINA RESULT:     -11.0      3.600      8.792
REMARK SMILES CC[NH2+][C@]1(C(=O)NCCCCNC(=O)c2ccc(-c3c4nc(c(-c5cccc(S(=O)(=O)[O-])c5F)c5ccc([nH]5)c(-c5cccc(S(=O)(=O)[O-])c5F)c5nc(c(-c6cccc(S(=O)(=O)[O-])c6F)c6ccc3[nH]6)C=C5)C=C4)cc2)CCC[C@@H]([N@@H+](C)CC2CCCC2)C1
REMARK SMILES IDX 9 1 8 2 7 3 5 4 6 5 4 7 78 8 90 9 79 10 81 11 80 12 3 13
REMARK SMILES IDX 2 16 1 17 82 18 83 19 84 21 85 22 86 23 89 24 87 25 88 26
REMARK SMILES IDX 10 27 11 28 12 29 13 30 14 32 15 33 16 34 77 35 17 36 76 37
REMARK SMILES IDX 18 38 19 39 20 40 70 41 21 42 75 43 69 44 71 45 22 46 74 47
REMARK SMILES IDX 68 48 67 49 23 51 55 52 35 53 54 54 36 55 39 56 53 57 72 58
REMARK SMILES IDX 37 59 38 60 52 62 73 63 40 64 24 65 25 66 33 67 26 68 28 69
REMARK SMILES IDX 34 70 27 71 29 72 30 73 31 74 32 75 56 76 57 77 65 78 58 79
REMARK SMILES IDX 60 80 66 81 59 82 61 83 62 84 63 85 64 86 41 87 42 88 50 89
REMARK SMILES IDX 43 90 45 91 51 92 44 93 46 94 47 95 48 96 49 97
REMARK H PARENT 7 6 3 14 3 15 82 20 12 31 71 50 39 61
REMARK Flexibility Score: inf
ROOT
ATOM      1  C   UNL A   1      32.550  29.283  24.798  1.00  0.00     0.023 C 
ENDROOT
BRANCH   1   2
ATOM      2  C   UNL A   1      31.441  28.240  24.708  1.00  0.00     0.116 C 
BRANCH   2   3
ATOM      3  N   UNL A   1      31.581  27.375  23.558  1.00  0.00    -0.351 N 
ATOM      4  C   UNL A   1      31.689  26.033  23.386  1.00  0.00     0.281 C 
ATOM      5  O   UNL A   1      31.520  25.678  22.208  1.00  0.00    -0.268 OA
ATOM      6  H   UNL A   1      31.605  27.871  22.708  1.00  0.00     0.163 HD
BRANCH   4   7
ATOM      7  C   UNL A   1      31.879  24.948  24.525  1.00  0.00     0.181 C 
ATOM      8  C   UNL A   1      30.685  24.715  25.471  1.00  0.00     0.079 C 
ATOM      9  C   UNL A   1      32.153  23.614  23.779  1.00  0.00     0.144 C 
ATOM     10  C   UNL A   1      30.932  23.609  26.499  1.00  0.00     0.013 C 
ATOM     11  C   UNL A   1      32.248  22.341  24.656  1.00  0.00     0.190 C 
ATOM     12  C   UNL A   1      31.209  22.297  25.788  1.00  0.00     0.065 C 
BRANCH   7  13
ATOM     13  N   UNL A   1      32.964  25.346  25.472  1.00  0.00    -0.334 N 
ATOM     14  H   UNL A   1      32.706  26.256  25.852  1.00  0.00     0.347 HD
ATOM     15  H   UNL A   1      33.006  24.567  26.129  1.00  0.00     0.347 HD
BRANCH  13  16
ATOM     16  C   UNL A   1      34.331  25.461  24.986  1.00  0.00     0.257 C 
ATOM     17  C   UNL A   1      35.157  24.384  25.685  1.00  0.00     0.071 C 
ENDBRANCH  13  16
ENDBRANCH   7  13
BRANCH  11  18
ATOM     18  N   UNL A   1      32.317  21.081  23.872  1.00  0.00    -0.334 N 
ATOM     19  C   UNL A   1      31.945  21.198  22.473  1.00  0.00     0.332 C 
ATOM     20  H   UNL A   1      31.543  20.624  24.353  1.00  0.00     0.348 HD
BRANCH  18  21
ATOM     21  C   UNL A   1      33.321  20.053  24.162  1.00  0.00     0.265 C 
BRANCH  21  22
ATOM     22  C   UNL A   1      33.042  18.532  24.268  1.00  0.00     0.044 C 
ATOM     23  C   UNL A   1      34.185  17.601  23.863  1.00  0.00     0.009 C 
ATOM     24  C   UNL A   1      32.636  17.934  25.606  1.00  0.00     0.009 C 
ATOM     25  C   UNL A   1      33.651  16.214  24.228  1.00  0.00     0.001 C 
ATOM     26  C   UNL A   1      32.721  16.424  25.420  1.00  0.00     0.001 C 
ENDBRANCH  21  22
ENDBRANCH  18  21
ENDBRANCH  11  18
ENDBRANCH   4   7
ENDBRANCH   2   3
ENDBRANCH   1   2
BRANCH   1  27
ATOM     27  C   UNL A   1      33.709  28.907  25.724  1.00  0.00     0.023 C 
BRANCH  27  28
ATOM     28  C   UNL A   1      33.474  29.166  27.206  1.00  0.00     0.116 C 
BRANCH  28  29
ATOM     29  N   UNL A   1      33.583  30.570  27.585  1.00  0.00    -0.352 N 
ATOM     30  C   UNL A   1      34.648  31.185  28.203  1.00  0.00     0.251 C 
ATOM     31  H   UNL A   1      32.809  31.140  27.376  1.00  0.00     0.163 HD
ATOM     32  O   UNL A   1      34.591  32.365  28.539  1.00  0.00    -0.269 OA
BRANCH  30  33
ATOM     33  C   UNL A   1      35.845  30.374  28.493  1.00  0.00     0.039 A 
ATOM     34  C   UNL A   1      36.926  30.414  27.609  1.00  0.00     0.014 A 
ATOM     35  C   UNL A   1      35.933  29.678  29.700  1.00  0.00     0.014 A 
ATOM     36  C   UNL A   1      38.134  29.820  27.977  1.00  0.00     0.010 A 
ATOM     37  C   UNL A   1      37.155  29.148  30.093  1.00  0.00     0.010 A 
ATOM     38  C   UNL A   1      38.268  29.222  29.240  1.00  0.00    -0.014 A 
BRANCH  38  39
ATOM     39  C   UNL A   1      39.563  28.673  29.717  1.00  0.00     0.031 A 
ATOM     40  C   UNL A   1      40.316  29.392  30.800  1.00  0.00     0.074 A 
ATOM     41  C   UNL A   1      40.118  27.619  29.086  1.00  0.00     0.049 A 
ATOM     42  N   UNL A   1      41.526  29.179  31.245  1.00  0.00    -0.248 NA
ATOM     43  C   UNL A   1      39.631  30.528  31.441  1.00  0.00     0.031 C 
ATOM     44  C   UNL A   1      39.517  26.884  27.971  1.00  0.00     0.029 A 
ATOM     45  N   UNL A   1      41.335  27.009  29.265  1.00  0.00    -0.354 N 
ATOM     46  C   UNL A   1      41.766  30.180  32.179  1.00  0.00     0.074 A 
ATOM     47  C   UNL A   1      40.587  31.017  32.218  1.00  0.00     0.031 C 
ATOM     48  C   UNL A   1      40.369  25.930  27.561  1.00  0.00     0.029 A 
ATOM     49  C   UNL A   1      41.589  26.006  28.359  1.00  0.00     0.049 A 
ATOM     50  H   UNL A   1      41.967  27.266  29.976  1.00  0.00     0.167 HD
ATOM     51  C   UNL A   1      42.860  30.370  32.951  1.00  0.00     0.034 A 
ATOM     52  C   UNL A   1      42.686  25.243  28.181  1.00  0.00     0.034 A 
ATOM     53  C   UNL A   1      44.001  29.498  32.955  1.00  0.00     0.049 A 
ATOM     54  C   UNL A   1      43.867  25.439  29.095  1.00  0.00     0.074 A 
ATOM     55  C   UNL A   1      45.117  29.546  33.770  1.00  0.00     0.029 A 
ATOM     56  N   UNL A   1      44.171  28.418  32.102  1.00  0.00    -0.354 N 
ATOM     57  N   UNL A   1      44.015  26.296  30.077  1.00  0.00    -0.248 NA
ATOM     58  C   UNL A   1      45.017  24.544  28.901  1.00  0.00     0.031 C 
ATOM     59  C   UNL A   1      45.968  28.498  33.405  1.00  0.00     0.029 A 
ATOM     60  C   UNL A   1      45.374  27.790  32.372  1.00  0.00     0.049 A 
ATOM     61  H   UNL A   1      43.530  28.139  31.409  1.00  0.00     0.167 HD
ATOM     62  C   UNL A   1      45.254  26.017  30.643  1.00  0.00     0.074 A 
ATOM     63  C   UNL A   1      45.811  24.904  29.903  1.00  0.00     0.031 C 
ATOM     64  C   UNL A   1      45.879  26.636  31.673  1.00  0.00     0.034 A 
BRANCH  51  65
ATOM     65  C   UNL A   1      42.846  31.533  33.908  1.00  0.00     0.023 A 
ATOM     66  C   UNL A   1      43.292  32.795  33.468  1.00  0.00     0.012 A 
ATOM     67  C   UNL A   1      42.349  31.391  35.218  1.00  0.00     0.148 A 
ATOM     68  C   UNL A   1      43.274  33.893  34.327  1.00  0.00     0.002 A 
ATOM     69  C   UNL A   1      42.295  32.500  36.055  1.00  0.00     0.091 A 
ATOM     70  F   UNL A   1      41.953  30.177  35.626  1.00  0.00    -0.205 F 
ATOM     71  C   UNL A   1      42.766  33.748  35.615  1.00  0.00     0.022 A 
BRANCH  69  72
ATOM     72  S   UNL A   1      41.585  32.431  37.704  1.00  0.00     0.127 S 
ATOM     73  O   UNL A   1      42.422  31.416  38.342  1.00  0.00    -0.237 OA
ATOM     74  O   UNL A   1      41.802  33.793  38.192  1.00  0.00    -0.237 OA
ATOM     75  O   UNL A   1      40.188  32.069  37.523  1.00  0.00    -0.744 OA
ENDBRANCH  69  72
ENDBRANCH  51  65
BRANCH  52  76
ATOM     76  C   UNL A   1      42.693  24.175  27.141  1.00  0.00     0.023 A 
ATOM     77  C   UNL A   1      43.359  24.409  25.922  1.00  0.00     0.012 A 
ATOM     78  C   UNL A   1      42.079  22.926  27.358  1.00  0.00     0.148 A 
ATOM     79  C   UNL A   1      43.389  23.431  24.927  1.00  0.00     0.002 A 
ATOM     80  C   UNL A   1      42.156  21.937  26.383  1.00  0.00     0.091 A 
ATOM     81  F   UNL A   1      41.438  22.726  28.520  1.00  0.00    -0.205 F 
ATOM     82  C   UNL A   1      42.797  22.193  25.160  1.00  0.00     0.022 A 
BRANCH  80  83
ATOM     83  S   UNL A   1      41.535  20.273  26.649  1.00  0.00     0.127 S 
ATOM     84  O   UNL A   1      42.286  19.860  27.832  1.00  0.00    -0.237 OA
ATOM     85  O   UNL A   1      40.110  20.513  26.876  1.00  0.00    -0.237 OA
ATOM     86  O   UNL A   1      41.832  19.547  25.422  1.00  0.00    -0.744 OA
ENDBRANCH  80  83
ENDBRANCH  52  76
BRANCH  64  87
ATOM     87  C   UNL A   1      47.218  26.106  32.109  1.00  0.00     0.023 A 
ATOM     88  C   UNL A   1      48.395  26.623  31.535  1.00  0.00     0.012 A 
ATOM     89  C   UNL A   1      47.308  25.183  33.171  1.00  0.00     0.148 A 
ATOM     90  C   UNL A   1      49.644  26.216  32.002  1.00  0.00     0.002 A 
ATOM     91  C   UNL A   1      48.556  24.818  33.660  1.00  0.00     0.091 A 
ATOM     92  F   UNL A   1      46.173  24.692  33.690  1.00  0.00    -0.205 F 
ATOM     93  C   UNL A   1      49.726  25.327  33.072  1.00  0.00     0.022 A 
BRANCH  91  94
ATOM     94  S   UNL A   1      48.757  23.757  35.096  1.00  0.00     0.127 S 
ATOM     95  O   UNL A   1      47.778  24.322  36.023  1.00  0.00    -0.237 OA
ATOM     96  O   UNL A   1      48.403  22.442  34.562  1.00  0.00    -0.237 OA
ATOM     97  O   UNL A   1      50.149  23.890  35.504  1.00  0.00    -0.744 OA
ENDBRANCH  91  94
ENDBRANCH  64  87
ENDBRANCH  38  39
ENDBRANCH  30  33
ENDBRANCH  28  29
ENDBRANCH  27  28
ENDBRANCH   1  27
TORSDOF 19
ENDMDL
MODEL 3
REMARK VINA RESULT:     -11.0      2.265      8.159
REMARK SMILES CC[NH2+][C@]1(C(=O)NCCCCNC(=O)c2ccc(-c3c4nc(c(-c5cccc(S(=O)(=O)[O-])c5F)c5ccc([nH]5)c(-c5cccc(S(=O)(=O)[O-])c5F)c5nc(c(-c6cccc(S(=O)(=O)[O-])c6F)c6ccc3[nH]6)C=C5)C=C4)cc2)CCC[C@@H]([N@@H+](C)CC2CCCC2)C1
REMARK SMILES IDX 9 1 8 2 7 3 5 4 6 5 4 7 78 8 90 9 79 10 81 11 80 12 3 13
REMARK SMILES IDX 2 16 1 17 82 18 83 19 84 21 85 22 86 23 89 24 87 25 88 26
REMARK SMILES IDX 10 27 11 28 12 29 13 30 14 32 15 33 16 34 77 35 17 36 76 37
REMARK SMILES IDX 18 38 19 39 20 40 70 41 21 42 75 43 69 44 71 45 22 46 74 47
REMARK SMILES IDX 68 48 67 49 23 51 55 52 35 53 54 54 36 55 39 56 53 57 72 58
REMARK SMILES IDX 37 59 38 60 52 62 73 63 40 64 24 65 25 66 33 67 26 68 28 69
REMARK SMILES IDX 34 70 27 71 29 72 30 73 31 74 32 75 56 76 57 77 65 78 58 79
REMARK SMILES IDX 60 80 66 81 59 82 61 83 62 84 63 85 64 86 41 87 42 88 50 89
REMARK SMILES IDX 43 90 45 91 51 92 44 93 46 94 47 95 48 96 49 97
REMARK H PARENT 7 6 3 14 3 15 82 20 12 31 71 50 39 61
REMARK Flexibility Score: inf
ROOT
ATOM      1  C   UNL A   1      33.291  29.250  25.100  1.00  0.00     0.023 C 
ENDROOT
BRANCH   1   2
ATOM      2  C   UNL A   1      32.885  28.359  23.930  1.00  0.00     0.116 C 
BRANCH   2   3
ATOM      3  N   UNL A   1      31.885  27.381  24.295  1.00  0.00    -0.351 N 
ATOM      4  C   UNL A   1      31.920  26.068  24.636  1.00  0.00     0.281 C 
ATOM      5  O   UNL A   1      30.858  25.668  25.140  1.00  0.00    -0.268 OA
ATOM      6  H   UNL A   1      30.972  27.750  24.295  1.00  0.00     0.163 HD
BRANCH   4   7
ATOM      7  C   UNL A   1      33.176  25.106  24.557  1.00  0.00     0.181 C 
ATOM      8  C   UNL A   1      34.436  25.539  25.333  1.00  0.00     0.079 C 
ATOM      9  C   UNL A   1      32.698  23.756  25.155  1.00  0.00     0.144 C 
ATOM     10  C   UNL A   1      35.577  24.524  25.252  1.00  0.00     0.013 C 
ATOM     11  C   UNL A   1      33.776  22.656  25.325  1.00  0.00     0.190 C 
ATOM     12  C   UNL A   1      35.126  23.194  25.827  1.00  0.00     0.065 C 
BRANCH   7  13
ATOM     13  N   UNL A   1      33.685  25.000  23.156  1.00  0.00    -0.334 N 
ATOM     14  H   UNL A   1      33.919  25.945  22.853  1.00  0.00     0.347 HD
ATOM     15  H   UNL A   1      34.456  24.336  23.230  1.00  0.00     0.347 HD
BRANCH  13  16
ATOM     16  C   UNL A   1      32.834  24.423  22.126  1.00  0.00     0.257 C 
ATOM     17  C   UNL A   1      32.604  25.497  21.067  1.00  0.00     0.071 C 
ENDBRANCH  13  16
ENDBRANCH   7  13
BRANCH  11  18
ATOM     18  N   UNL A   1      33.300  21.467  26.077  1.00  0.00    -0.334 N 
ATOM     19  C   UNL A   1      33.022  21.691  27.485  1.00  0.00     0.332 C 
ATOM     20  H   UNL A   1      34.180  20.956  26.021  1.00  0.00     0.348 HD
BRANCH  18  21
ATOM     21  C   UNL A   1      32.473  20.439  25.438  1.00  0.00     0.265 C 
BRANCH  21  22
ATOM     22  C   UNL A   1      33.009  19.243  24.612  1.00  0.00     0.044 C 
ATOM     23  C   UNL A   1      32.945  17.870  25.282  1.00  0.00     0.009 C 
ATOM     24  C   UNL A   1      32.401  18.935  23.252  1.00  0.00     0.009 C 
ATOM     25  C   UNL A   1      33.389  16.917  24.170  1.00  0.00     0.001 C 
ATOM     26  C   UNL A   1      32.949  17.568  22.861  1.00  0.00     0.001 C 
ENDBRANCH  21  22
ENDBRANCH  18  21
ENDBRANCH  11  18
ENDBRANCH   4   7
ENDBRANCH   2   3
ENDBRANCH   1   2
BRANCH   1  27
ATOM     27  C   UNL A   1      32.244  30.290  25.504  1.00  0.00     0.023 C 
BRANCH  27  28
ATOM     28  C   UNL A   1      32.309  30.758  26.952  1.00  0.00     0.116 C 
BRANCH  28  29
ATOM     29  N   UNL A   1      32.385  32.206  27.104  1.00  0.00    -0.352 N 
ATOM     30  C   UNL A   1      33.435  32.936  27.613  1.00  0.00     0.251 C 
ATOM     31  H   UNL A   1      31.598  32.718  26.809  1.00  0.00     0.163 HD
ATOM     32  O   UNL A   1      33.350  34.152  27.758  1.00  0.00    -0.269 OA
BRANCH  30  33
ATOM     33  C   UNL A   1      34.650  32.209  28.026  1.00  0.00     0.039 A 
ATOM     34  C   UNL A   1      35.868  32.891  28.074  1.00  0.00     0.014 A 
ATOM     35  C   UNL A   1      34.549  30.892  28.476  1.00  0.00     0.014 A 
ATOM     36  C   UNL A   1      36.976  32.275  28.658  1.00  0.00     0.010 A 
ATOM     37  C   UNL A   1      35.632  30.307  29.118  1.00  0.00     0.010 A 
ATOM     38  C   UNL A   1      36.852  30.995  29.223  1.00  0.00    -0.014 A 
BRANCH  38  39
ATOM     39  C   UNL A   1      37.972  30.345  29.949  1.00  0.00     0.031 A 
ATOM     40  C   UNL A   1      38.262  30.741  31.369  1.00  0.00     0.074 A 
ATOM     41  C   UNL A   1      38.802  29.509  29.293  1.00  0.00     0.049 A 
ATOM     42  N   UNL A   1      39.279  30.421  32.124  1.00  0.00    -0.248 NA
ATOM     43  C   UNL A   1      37.299  31.651  32.012  1.00  0.00     0.031 C 
ATOM     44  C   UNL A   1      38.666  29.107  27.891  1.00  0.00     0.029 A 
ATOM     45  N   UNL A   1      39.950  28.881  29.707  1.00  0.00    -0.354 N 
ATOM     46  C   UNL A   1      39.106  31.127  33.308  1.00  0.00     0.074 A 
ATOM     47  C   UNL A   1      37.901  31.913  33.163  1.00  0.00     0.031 C 
ATOM     48  C   UNL A   1      39.694  28.308  27.560  1.00  0.00     0.029 A 
ATOM     49  C   UNL A   1      40.580  28.168  28.712  1.00  0.00     0.049 A 
ATOM     50  H   UNL A   1      40.291  28.936  30.629  1.00  0.00     0.167 HD
ATOM     51  C   UNL A   1      39.869  31.103  34.425  1.00  0.00     0.034 A 
ATOM     52  C   UNL A   1      41.745  27.491  28.723  1.00  0.00     0.034 A 
ATOM     53  C   UNL A   1      41.029  30.271  34.587  1.00  0.00     0.049 A 
ATOM     54  C   UNL A   1      42.544  27.434  29.999  1.00  0.00     0.074 A 
ATOM     55  C   UNL A   1      41.813  30.099  35.713  1.00  0.00     0.029 A 
ATOM     56  N   UNL A   1      41.570  29.469  33.593  1.00  0.00    -0.354 N 
ATOM     57  N   UNL A   1      42.283  27.988  31.159  1.00  0.00    -0.248 NA
ATOM     58  C   UNL A   1      43.777  26.635  29.979  1.00  0.00     0.031 C 
ATOM     59  C   UNL A   1      42.835  29.198  35.398  1.00  0.00     0.029 A 
ATOM     60  C   UNL A   1      42.677  28.799  34.080  1.00  0.00     0.049 A 
ATOM     61  H   UNL A   1      41.216  29.389  32.678  1.00  0.00     0.167 HD
ATOM     62  C   UNL A   1      43.295  27.571  32.016  1.00  0.00     0.074 A 
ATOM     63  C   UNL A   1      44.167  26.710  31.246  1.00  0.00     0.031 C 
ATOM     64  C   UNL A   1      43.492  27.886  33.320  1.00  0.00     0.034 A 
BRANCH  51  65
ATOM     65  C   UNL A   1      39.435  31.956  35.587  1.00  0.00     0.023 A 
ATOM     66  C   UNL A   1      39.794  33.318  35.618  1.00  0.00     0.012 A 
ATOM     67  C   UNL A   1      38.632  31.428  36.617  1.00  0.00     0.148 A 
ATOM     68  C   UNL A   1      39.391  34.136  36.672  1.00  0.00     0.002 A 
ATOM     69  C   UNL A   1      38.198  32.260  37.643  1.00  0.00     0.091 A 
ATOM     70  F   UNL A   1      38.320  30.124  36.583  1.00  0.00    -0.205 F 
ATOM     71  C   UNL A   1      38.585  33.610  37.678  1.00  0.00     0.022 A 
BRANCH  69  72
ATOM     72  S   UNL A   1      37.092  31.695  38.941  1.00  0.00     0.127 S 
ATOM     73  O   UNL A   1      35.955  32.598  38.772  1.00  0.00    -0.237 OA
ATOM     74  O   UNL A   1      36.833  30.310  38.548  1.00  0.00    -0.237 OA
ATOM     75  O   UNL A   1      37.830  31.842  40.187  1.00  0.00    -0.744 OA
ENDBRANCH  69  72
ENDBRANCH  51  65
BRANCH  52  76
ATOM     76  C   UNL A   1      42.191  26.752  27.508  1.00  0.00     0.023 A 
ATOM     77  C   UNL A   1      42.870  27.450  26.491  1.00  0.00     0.012 A 
ATOM     78  C   UNL A   1      41.980  25.366  27.365  1.00  0.00     0.148 A 
ATOM     79  C   UNL A   1      43.305  26.791  25.340  1.00  0.00     0.002 A 
ATOM     80  C   UNL A   1      42.462  24.705  26.240  1.00  0.00     0.091 A 
ATOM     81  F   UNL A   1      41.320  24.720  28.338  1.00  0.00    -0.205 F 
ATOM     82  C   UNL A   1      43.110  25.418  25.219  1.00  0.00     0.022 A 
BRANCH  80  83
ATOM     83  S   UNL A   1      42.370  22.920  26.060  1.00  0.00     0.127 S 
ATOM     84  O   UNL A   1      42.952  22.723  24.736  1.00  0.00    -0.237 OA
ATOM     85  O   UNL A   1      43.199  22.459  27.174  1.00  0.00    -0.237 OA
ATOM     86  O   UNL A   1      40.957  22.589  26.190  1.00  0.00    -0.744 OA
ENDBRANCH  80  83
ENDBRANCH  52  76
BRANCH  64  87
ATOM     87  C   UNL A   1      44.664  27.264  34.028  1.00  0.00     0.023 A 
ATOM     88  C   UNL A   1      45.916  27.908  34.006  1.00  0.00     0.012 A 
ATOM     89  C   UNL A   1      44.492  26.105  34.812  1.00  0.00     0.148 A 
ATOM     90  C   UNL A   1      46.984  27.399  34.743  1.00  0.00     0.002 A 
ATOM     91  C   UNL A   1      45.548  25.630  35.578  1.00  0.00     0.091 A 
ATOM     92  F   UNL A   1      43.295  25.500  34.803  1.00  0.00    -0.205 F 
ATOM     93  C   UNL A   1      46.798  26.271  35.539  1.00  0.00     0.022 A 
BRANCH  91  94
ATOM     94  S   UNL A   1      45.374  24.244  36.708  1.00  0.00     0.127 S 
ATOM     95  O   UNL A   1      44.358  24.741  37.634  1.00  0.00    -0.237 OA
ATOM     96  O   UNL A   1      44.919  23.175  35.819  1.00  0.00    -0.237 OA
ATOM     97  O   UNL A   1      46.693  24.029  37.288  1.00  0.00    -0.744 OA
ENDBRANCH  91  94
ENDBRANCH  64  87
ENDBRANCH  38  39
ENDBRANCH  30  33
ENDBRANCH  28  29
ENDBRANCH  27  28
ENDBRANCH   1  27
TORSDOF 19
ENDMDL
