MODEL 1
REMARK VINA RESULT:     -12.8      0.000      0.000
REMARK SMILES C#Cc1ccc2c(c1)C=C(C(=O)NCCCCNC(=O)c1ccc(-c3c4nc(c(-c5cccc(S(=O)(=O)[O-])c5F)c5ccc([nH]5)c(-c5cccc(S(=O)(=O)[O-])c5F)c5nc(c(-c6cccc(S(=O)(=O)[O-])c6F)c6ccc3[nH]6)C=C5)C=C4)cc1)[C@@H](C(F)(F)F)O2
REMARK SMILES IDX 16 1 15 2 14 3 13 4 11 5 12 6 10 8 3 9 4 10 8 11 5 12 7 13
REMARK SMILES IDX 6 14 9 15 89 16 84 17 2 18 1 19 85 20 86 21 87 22 88 23
REMARK SMILES IDX 17 24 18 25 19 26 20 28 21 29 22 30 83 31 23 32 82 33 24 34
REMARK SMILES IDX 25 35 26 36 76 37 27 38 81 39 75 40 77 41 28 42 80 43 74 44
REMARK SMILES IDX 73 45 29 47 61 48 41 49 60 50 42 51 45 52 59 53 78 54 43 55
REMARK SMILES IDX 44 56 58 58 79 59 46 60 30 61 31 62 39 63 32 64 34 65 40 66
REMARK SMILES IDX 33 67 35 68 36 69 37 70 38 71 62 72 63 73 71 74 64 75 66 76
REMARK SMILES IDX 72 77 65 78 67 79 68 80 69 81 70 82 47 83 48 84 56 85 49 86
REMARK SMILES IDX 51 87 57 88 50 89 52 90 53 91 54 92 55 93
REMARK H PARENT 13 7 18 27 77 46 45 57
REMARK Flexibility Score: inf
ROOT
ATOM      1  C   UNL A   1      35.806  21.989  25.680  1.00  0.00     0.023 C 
ENDROOT
BRANCH   1   2
ATOM      2  C   UNL A   1      35.299  23.156  26.514  1.00  0.00     0.023 C 
BRANCH   2   3
ATOM      3  C   UNL A   1      34.713  24.282  25.673  1.00  0.00     0.116 C 
BRANCH   3   4
ATOM      4  N   UNL A   1      33.268  24.373  25.804  1.00  0.00    -0.352 N 
ATOM      5  C   UNL A   1      32.191  23.658  25.394  1.00  0.00     0.251 C 
ATOM      6  O   UNL A   1      31.092  24.069  25.781  1.00  0.00    -0.270 OA
ATOM      7  H   UNL A   1      33.001  25.163  26.330  1.00  0.00     0.163 HD
BRANCH   5   8
ATOM      8  C   UNL A   1      32.260  22.445  24.524  1.00  0.00     0.067 C 
ATOM      9  C   UNL A   1      32.927  17.676  24.088  1.00  0.00     0.025 A 
ATOM     10  C   UNL A   1      32.530  17.745  22.751  1.00  0.00     0.021 A 
ATOM     11  C   UNL A   1      32.943  18.830  24.882  1.00  0.00     0.029 A 
ATOM     12  C   UNL A   1      32.153  18.965  22.203  1.00  0.00     0.048 A 
ATOM     13  C   UNL A   1      32.564  20.059  24.333  1.00  0.00     0.018 A 
ATOM     14  C   UNL A   1      32.180  20.111  22.992  1.00  0.00     0.128 A 
ATOM     15  C   UNL A   1      32.508  21.275  25.139  1.00  0.00     0.025 C 
ATOM     16  O   UNL A   1      31.766  21.252  22.378  1.00  0.00    -0.475 OA
ATOM     17  C   UNL A   1      32.090  22.500  23.035  1.00  0.00     0.314 C 
BRANCH   9  18
ATOM     18  C   UNL A   1      33.301  16.411  24.638  1.00  0.00    -0.070 C 
ATOM     19  C   UNL A   1      33.650  15.359  25.103  1.00  0.00     0.010 C 
ENDBRANCH   9  18
BRANCH  17  20
ATOM     20  C   UNL A   1      33.303  23.135  22.329  1.00  0.00     0.429 C 
ATOM     21  F   UNL A   1      34.456  22.578  22.778  1.00  0.00    -0.167 F 
ATOM     22  F   UNL A   1      33.291  22.954  20.987  1.00  0.00    -0.167 F 
ATOM     23  F   UNL A   1      33.388  24.468  22.542  1.00  0.00    -0.167 F 
ENDBRANCH  17  20
ENDBRANCH   5   8
ENDBRANCH   3   4
ENDBRANCH   2   3
ENDBRANCH   1   2
BRANCH   1  24
ATOM     24  C   UNL A   1      37.214  22.174  25.128  1.00  0.00     0.116 C 
BRANCH  24  25
ATOM     25  N   UNL A   1      38.099  21.038  25.367  1.00  0.00    -0.352 N 
ATOM     26  C   UNL A   1      39.274  21.027  26.089  1.00  0.00     0.251 C 
ATOM     27  H   UNL A   1      37.826  20.181  24.967  1.00  0.00     0.163 HD
ATOM     28  O   UNL A   1      39.985  20.030  26.126  1.00  0.00    -0.269 OA
BRANCH  26  29
ATOM     29  C   UNL A   1      39.666  22.277  26.770  1.00  0.00     0.039 A 
ATOM     30  C   UNL A   1      39.054  23.471  26.387  1.00  0.00     0.014 A 
ATOM     31  C   UNL A   1      40.767  22.277  27.626  1.00  0.00     0.014 A 
ATOM     32  C   UNL A   1      39.690  24.669  26.667  1.00  0.00     0.010 A 
ATOM     33  C   UNL A   1      41.325  23.497  28.016  1.00  0.00     0.010 A 
ATOM     34  C   UNL A   1      40.834  24.700  27.485  1.00  0.00    -0.014 A 
BRANCH  34  35
ATOM     35  C   UNL A   1      41.482  26.007  27.769  1.00  0.00     0.031 A 
ATOM     36  C   UNL A   1      42.869  26.325  27.272  1.00  0.00     0.074 A 
ATOM     37  C   UNL A   1      40.781  26.937  28.448  1.00  0.00     0.049 A 
ATOM     38  N   UNL A   1      43.560  27.425  27.431  1.00  0.00    -0.248 NA
ATOM     39  C   UNL A   1      43.576  25.288  26.501  1.00  0.00     0.031 C 
ATOM     40  C   UNL A   1      39.431  26.748  28.986  1.00  0.00     0.029 A 
ATOM     41  N   UNL A   1      41.095  28.227  28.792  1.00  0.00    -0.354 N 
ATOM     42  C   UNL A   1      44.790  27.201  26.824  1.00  0.00     0.074 A 
ATOM     43  C   UNL A   1      44.757  25.856  26.291  1.00  0.00     0.031 C 
ATOM     44  C   UNL A   1      39.014  27.889  29.549  1.00  0.00     0.029 A 
ATOM     45  C   UNL A   1      40.095  28.865  29.487  1.00  0.00     0.049 A 
ATOM     46  H   UNL A   1      41.952  28.653  28.565  1.00  0.00     0.167 HD
ATOM     47  C   UNL A   1      45.843  28.043  26.710  1.00  0.00     0.034 A 
ATOM     48  C   UNL A   1      40.051  30.089  30.044  1.00  0.00     0.034 A 
ATOM     49  C   UNL A   1      45.857  29.393  27.206  1.00  0.00     0.049 A 
ATOM     50  C   UNL A   1      41.239  30.992  29.921  1.00  0.00     0.074 A 
ATOM     51  C   UNL A   1      46.867  30.333  27.091  1.00  0.00     0.029 A 
ATOM     52  N   UNL A   1      44.828  29.993  27.912  1.00  0.00    -0.354 N 
ATOM     53  N   UNL A   1      42.365  30.779  29.287  1.00  0.00    -0.248 NA
ATOM     54  C   UNL A   1      41.151  32.304  30.574  1.00  0.00     0.031 C 
ATOM     55  C   UNL A   1      46.461  31.491  27.757  1.00  0.00     0.029 A 
ATOM     56  C   UNL A   1      45.184  31.286  28.252  1.00  0.00     0.049 A 
ATOM     57  H   UNL A   1      43.971  29.564  28.137  1.00  0.00     0.167 HD
ATOM     58  C   UNL A   1      43.114  31.936  29.447  1.00  0.00     0.074 A 
ATOM     59  C   UNL A   1      42.309  32.853  30.227  1.00  0.00     0.031 C 
ATOM     60  C   UNL A   1      44.361  32.204  28.993  1.00  0.00     0.034 A 
BRANCH  47  61
ATOM     61  C   UNL A   1      47.076  27.565  25.992  1.00  0.00     0.023 A 
ATOM     62  C   UNL A   1      47.986  26.723  26.660  1.00  0.00     0.012 A 
ATOM     63  C   UNL A   1      47.255  27.832  24.620  1.00  0.00     0.148 A 
ATOM     64  C   UNL A   1      49.057  26.152  25.974  1.00  0.00     0.002 A 
ATOM     65  C   UNL A   1      48.310  27.240  23.935  1.00  0.00     0.091 A 
ATOM     66  F   UNL A   1      46.376  28.638  24.008  1.00  0.00    -0.205 F 
ATOM     67  C   UNL A   1      49.211  26.400  24.612  1.00  0.00     0.022 A 
BRANCH  65  68
ATOM     68  S   UNL A   1      48.578  27.463  22.174  1.00  0.00     0.127 S 
ATOM     69  O   UNL A   1      48.653  26.076  21.712  1.00  0.00    -0.237 OA
ATOM     70  O   UNL A   1      47.367  28.176  21.768  1.00  0.00    -0.237 OA
ATOM     71  O   UNL A   1      49.813  28.223  22.043  1.00  0.00    -0.744 OA
ENDBRANCH  65  68
ENDBRANCH  47  61
BRANCH  48  72
ATOM     72  C   UNL A   1      38.815  30.516  30.749  1.00  0.00     0.023 A 
ATOM     73  C   UNL A   1      38.720  30.349  32.142  1.00  0.00     0.012 A 
ATOM     74  C   UNL A   1      37.779  31.170  30.055  1.00  0.00     0.148 A 
ATOM     75  C   UNL A   1      37.609  30.827  32.836  1.00  0.00     0.002 A 
ATOM     76  C   UNL A   1      36.692  31.676  30.756  1.00  0.00     0.091 A 
ATOM     77  F   UNL A   1      37.903  31.324  28.730  1.00  0.00    -0.205 F 
ATOM     78  C   UNL A   1      36.602  31.499  32.146  1.00  0.00     0.022 A 
BRANCH  76  79
ATOM     79  S   UNL A   1      35.388  32.626  29.969  1.00  0.00     0.127 S 
ATOM     80  O   UNL A   1      36.121  33.798  29.494  1.00  0.00    -0.237 OA
ATOM     81  O   UNL A   1      34.943  31.710  28.921  1.00  0.00    -0.237 OA
ATOM     82  O   UNL A   1      34.402  32.887  31.008  1.00  0.00    -0.744 OA
ENDBRANCH  76  79
ENDBRANCH  48  72
BRANCH  60  83
ATOM     83  C   UNL A   1      44.949  33.555  29.291  1.00  0.00     0.023 A 
ATOM     84  C   UNL A   1      45.747  33.728  30.437  1.00  0.00     0.012 A 
ATOM     85  C   UNL A   1      44.822  34.606  28.363  1.00  0.00     0.148 A 
ATOM     86  C   UNL A   1      46.412  34.933  30.656  1.00  0.00     0.002 A 
ATOM     87  C   UNL A   1      45.512  35.792  28.570  1.00  0.00     0.091 A 
ATOM     88  F   UNL A   1      44.053  34.410  27.281  1.00  0.00    -0.205 F 
ATOM     89  C   UNL A   1      46.306  35.958  29.717  1.00  0.00     0.022 A 
BRANCH  87  90
ATOM     90  S   UNL A   1      45.482  37.150  27.395  1.00  0.00     0.127 S 
ATOM     91  O   UNL A   1      46.282  38.158  28.088  1.00  0.00    -0.237 OA
ATOM     92  O   UNL A   1      46.127  36.557  26.224  1.00  0.00    -0.237 OA
ATOM     93  O   UNL A   1      44.079  37.497  27.211  1.00  0.00    -0.744 OA
ENDBRANCH  87  90
ENDBRANCH  60  83
ENDBRANCH  34  35
ENDBRANCH  26  29
ENDBRANCH  24  25
ENDBRANCH   1  24
TORSDOF 16
ENDMDL
MODEL 2
REMARK VINA RESULT:     -12.8      0.218      7.480
REMARK SMILES C#Cc1ccc2c(c1)C=C(C(=O)NCCCCNC(=O)c1ccc(-c3c4nc(c(-c5cccc(S(=O)(=O)[O-])c5F)c5ccc([nH]5)c(-c5cccc(S(=O)(=O)[O-])c5F)c5nc(c(-c6cccc(S(=O)(=O)[O-])c6F)c6ccc3[nH]6)C=C5)C=C4)cc1)[C@@H](C(F)(F)F)O2
REMARK SMILES IDX 16 1 15 2 14 3 13 4 11 5 12 6 10 8 3 9 4 10 8 11 5 12 7 13
REMARK SMILES IDX 6 14 9 15 89 16 84 17 2 18 1 19 85 20 86 21 87 22 88 23
REMARK SMILES IDX 17 24 18 25 19 26 20 28 21 29 22 30 83 31 23 32 82 33 24 34
REMARK SMILES IDX 25 35 26 36 76 37 27 38 81 39 75 40 77 41 28 42 80 43 74 44
REMARK SMILES IDX 73 45 29 47 61 48 41 49 60 50 42 51 45 52 59 53 78 54 43 55
REMARK SMILES IDX 44 56 58 58 79 59 46 60 30 61 31 62 39 63 32 64 34 65 40 66
REMARK SMILES IDX 33 67 35 68 36 69 37 70 38 71 62 72 63 73 71 74 64 75 66 76
REMARK SMILES IDX 72 77 65 78 67 79 68 80 69 81 70 82 47 83 48 84 56 85 49 86
REMARK SMILES IDX 51 87 57 88 50 89 52 90 53 91 54 92 55 93
REMARK H PARENT 13 7 18 27 77 46 45 57
REMARK Flexibility Score: inf
ROOT
ATOM      1  C   UNL A   1      35.802  21.957  25.702  1.00  0.00     0.023 C 
ENDROOT
BRANCH   1   2
ATOM      2  C   UNL A   1      35.321  23.146  26.520  1.00  0.00     0.023 C 
BRANCH   2   3
ATOM      3  C   UNL A   1      34.732  24.261  25.666  1.00  0.00     0.116 C 
BRANCH   3   4
ATOM      4  N   UNL A   1      33.287  24.355  25.801  1.00  0.00    -0.352 N 
ATOM      5  C   UNL A   1      32.208  23.642  25.394  1.00  0.00     0.251 C 
ATOM      6  O   UNL A   1      31.111  24.054  25.783  1.00  0.00    -0.270 OA
ATOM      7  H   UNL A   1      33.023  25.144  26.328  1.00  0.00     0.163 HD
BRANCH   5   8
ATOM      8  C   UNL A   1      32.273  22.430  24.522  1.00  0.00     0.067 C 
ATOM      9  C   UNL A   1      32.930  17.659  24.083  1.00  0.00     0.025 A 
ATOM     10  C   UNL A   1      32.529  17.730  22.746  1.00  0.00     0.021 A 
ATOM     11  C   UNL A   1      32.950  18.813  24.877  1.00  0.00     0.029 A 
ATOM     12  C   UNL A   1      32.153  18.951  22.201  1.00  0.00     0.048 A 
ATOM     13  C   UNL A   1      32.572  20.043  24.330  1.00  0.00     0.018 A 
ATOM     14  C   UNL A   1      32.184  20.097  22.989  1.00  0.00     0.128 A 
ATOM     15  C   UNL A   1      32.520  21.258  25.137  1.00  0.00     0.025 C 
ATOM     16  O   UNL A   1      31.770  21.238  22.377  1.00  0.00    -0.475 OA
ATOM     17  C   UNL A   1      32.098  22.485  23.034  1.00  0.00     0.314 C 
BRANCH   9  18
ATOM     18  C   UNL A   1      33.303  16.393  24.630  1.00  0.00    -0.070 C 
ATOM     19  C   UNL A   1      33.628  15.346  25.122  1.00  0.00     0.010 C 
ENDBRANCH   9  18
BRANCH  17  20
ATOM     20  C   UNL A   1      33.311  23.119  22.325  1.00  0.00     0.429 C 
ATOM     21  F   UNL A   1      33.348  24.455  22.557  1.00  0.00    -0.167 F 
ATOM     22  F   UNL A   1      34.495  22.624  22.755  1.00  0.00    -0.167 F 
ATOM     23  F   UNL A   1      33.278  22.942  20.984  1.00  0.00    -0.167 F 
ENDBRANCH  17  20
ENDBRANCH   5   8
ENDBRANCH   3   4
ENDBRANCH   2   3
ENDBRANCH   1   2
BRANCH   1  24
ATOM     24  C   UNL A   1      37.186  22.132  25.091  1.00  0.00     0.116 C 
BRANCH  24  25
ATOM     25  N   UNL A   1      38.098  21.025  25.361  1.00  0.00    -0.352 N 
ATOM     26  C   UNL A   1      39.275  21.063  26.080  1.00  0.00     0.251 C 
ATOM     27  H   UNL A   1      37.844  20.150  24.988  1.00  0.00     0.163 HD
ATOM     28  O   UNL A   1      40.009  20.085  26.145  1.00  0.00    -0.269 OA
BRANCH  26  29
ATOM     29  C   UNL A   1      39.638  22.342  26.722  1.00  0.00     0.039 A 
ATOM     30  C   UNL A   1      39.054  23.518  26.254  1.00  0.00     0.014 A 
ATOM     31  C   UNL A   1      40.694  22.378  27.633  1.00  0.00     0.014 A 
ATOM     32  C   UNL A   1      39.682  24.726  26.511  1.00  0.00     0.010 A 
ATOM     33  C   UNL A   1      41.238  23.612  27.995  1.00  0.00     0.010 A 
ATOM     34  C   UNL A   1      40.782  24.791  27.384  1.00  0.00    -0.014 A 
BRANCH  34  35
ATOM     35  C   UNL A   1      41.422  26.108  27.641  1.00  0.00     0.031 A 
ATOM     36  C   UNL A   1      40.727  27.181  28.439  1.00  0.00     0.074 A 
ATOM     37  C   UNL A   1      42.673  26.314  27.183  1.00  0.00     0.049 A 
ATOM     38  N   UNL A   1      41.163  28.374  28.754  1.00  0.00    -0.248 NA
ATOM     39  C   UNL A   1      39.376  26.890  28.950  1.00  0.00     0.031 C 
ATOM     40  C   UNL A   1      43.450  25.354  26.394  1.00  0.00     0.029 A 
ATOM     41  N   UNL A   1      43.517  27.386  27.322  1.00  0.00    -0.354 N 
ATOM     42  C   UNL A   1      40.133  28.989  29.456  1.00  0.00     0.074 A 
ATOM     43  C   UNL A   1      39.044  28.040  29.524  1.00  0.00     0.031 C 
ATOM     44  C   UNL A   1      44.669  25.857  26.159  1.00  0.00     0.029 A 
ATOM     45  C   UNL A   1      44.733  27.206  26.707  1.00  0.00     0.049 A 
ATOM     46  H   UNL A   1      43.276  28.203  27.813  1.00  0.00     0.167 HD
ATOM     47  C   UNL A   1      40.105  30.226  30.006  1.00  0.00     0.034 A 
ATOM     48  C   UNL A   1      45.781  28.038  26.566  1.00  0.00     0.034 A 
ATOM     49  C   UNL A   1      41.205  31.152  29.972  1.00  0.00     0.049 A 
ATOM     50  C   UNL A   1      45.714  29.408  27.166  1.00  0.00     0.074 A 
ATOM     51  C   UNL A   1      41.278  32.409  30.546  1.00  0.00     0.029 A 
ATOM     52  N   UNL A   1      42.412  30.932  29.330  1.00  0.00    -0.354 N 
ATOM     53  N   UNL A   1      44.755  29.941  27.880  1.00  0.00    -0.248 NA
ATOM     54  C   UNL A   1      46.873  30.286  26.956  1.00  0.00     0.031 C 
ATOM     55  C   UNL A   1      42.519  32.963  30.223  1.00  0.00     0.029 A 
ATOM     56  C   UNL A   1      43.231  32.036  29.481  1.00  0.00     0.049 A 
ATOM     57  H   UNL A   1      42.650  30.112  28.840  1.00  0.00     0.167 HD
ATOM     58  C   UNL A   1      45.198  31.210  28.223  1.00  0.00     0.074 A 
ATOM     59  C   UNL A   1      46.519  31.362  27.649  1.00  0.00     0.031 C 
ATOM     60  C   UNL A   1      44.559  32.163  28.941  1.00  0.00     0.034 A 
BRANCH  47  61
ATOM     61  C   UNL A   1      38.862  30.664  30.733  1.00  0.00     0.023 A 
ATOM     62  C   UNL A   1      38.813  30.581  32.138  1.00  0.00     0.012 A 
ATOM     63  C   UNL A   1      37.807  31.288  30.036  1.00  0.00     0.148 A 
ATOM     64  C   UNL A   1      37.733  31.112  32.841  1.00  0.00     0.002 A 
ATOM     65  C   UNL A   1      36.746  31.838  30.745  1.00  0.00     0.091 A 
ATOM     66  F   UNL A   1      37.878  31.352  28.700  1.00  0.00    -0.205 F 
ATOM     67  C   UNL A   1      36.708  31.751  32.146  1.00  0.00     0.022 A 
BRANCH  65  68
ATOM     68  S   UNL A   1      35.394  32.714  29.951  1.00  0.00     0.127 S 
ATOM     69  O   UNL A   1      36.074  33.910  29.451  1.00  0.00    -0.237 OA
ATOM     70  O   UNL A   1      34.982  31.769  28.914  1.00  0.00    -0.237 OA
ATOM     71  O   UNL A   1      34.403  32.959  30.990  1.00  0.00    -0.744 OA
ENDBRANCH  65  68
ENDBRANCH  47  61
BRANCH  48  72
ATOM     72  C   UNL A   1      46.985  27.563  25.835  1.00  0.00     0.023 A 
ATOM     73  C   UNL A   1      47.902  26.717  26.486  1.00  0.00     0.012 A 
ATOM     74  C   UNL A   1      47.169  27.871  24.473  1.00  0.00     0.148 A 
ATOM     75  C   UNL A   1      48.987  26.186  25.791  1.00  0.00     0.002 A 
ATOM     76  C   UNL A   1      48.231  27.309  23.778  1.00  0.00     0.091 A 
ATOM     77  F   UNL A   1      46.272  28.670  23.878  1.00  0.00    -0.205 F 
ATOM     78  C   UNL A   1      49.146  26.472  24.436  1.00  0.00     0.022 A 
BRANCH  76  79
ATOM     79  S   UNL A   1      48.471  27.552  22.014  1.00  0.00     0.127 S 
ATOM     80  O   UNL A   1      49.677  28.377  21.991  1.00  0.00    -0.237 OA
ATOM     81  O   UNL A   1      48.653  26.178  21.547  1.00  0.00    -0.237 OA
ATOM     82  O   UNL A   1      47.261  28.203  21.533  1.00  0.00    -0.744 OA
ENDBRANCH  76  79
ENDBRANCH  48  72
BRANCH  60  83
ATOM     83  C   UNL A   1      45.271  33.463  29.188  1.00  0.00     0.023 A 
ATOM     84  C   UNL A   1      46.165  33.571  30.269  1.00  0.00     0.012 A 
ATOM     85  C   UNL A   1      45.157  34.522  28.267  1.00  0.00     0.148 A 
ATOM     86  C   UNL A   1      46.937  34.720  30.432  1.00  0.00     0.002 A 
ATOM     87  C   UNL A   1      45.952  35.650  28.416  1.00  0.00     0.091 A 
ATOM     88  F   UNL A   1      44.297  34.388  27.247  1.00  0.00    -0.205 F 
ATOM     89  C   UNL A   1      46.841  35.752  29.499  1.00  0.00     0.022 A 
BRANCH  87  90
ATOM     90  S   UNL A   1      45.941  37.007  27.240  1.00  0.00     0.127 S 
ATOM     91  O   UNL A   1      46.578  38.073  28.011  1.00  0.00    -0.237 OA
ATOM     92  O   UNL A   1      46.753  36.474  26.147  1.00  0.00    -0.237 OA
ATOM     93  O   UNL A   1      44.542  37.243  26.905  1.00  0.00    -0.744 OA
ENDBRANCH  87  90
ENDBRANCH  60  83
ENDBRANCH  34  35
ENDBRANCH  26  29
ENDBRANCH  24  25
ENDBRANCH   1  24
TORSDOF 16
ENDMDL
MODEL 3
REMARK VINA RESULT:     -12.7      5.625      8.515
REMARK SMILES C#Cc1ccc2c(c1)C=C(C(=O)NCCCCNC(=O)c1ccc(-c3c4nc(c(-c5cccc(S(=O)(=O)[O-])c5F)c5ccc([nH]5)c(-c5cccc(S(=O)(=O)[O-])c5F)c5nc(c(-c6cccc(S(=O)(=O)[O-])c6F)c6ccc3[nH]6)C=C5)C=C4)cc1)[C@@H](C(F)(F)F)O2
REMARK SMILES IDX 16 1 15 2 14 3 13 4 11 5 12 6 10 8 3 9 4 10 8 11 5 12 7 13
REMARK SMILES IDX 6 14 9 15 89 16 84 17 2 18 1 19 85 20 86 21 87 22 88 23
REMARK SMILES IDX 17 24 18 25 19 26 20 28 21 29 22 30 83 31 23 32 82 33 24 34
REMARK SMILES IDX 25 35 26 36 76 37 27 38 81 39 75 40 77 41 28 42 80 43 74 44
REMARK SMILES IDX 73 45 29 47 61 48 41 49 60 50 42 51 45 52 59 53 78 54 43 55
REMARK SMILES IDX 44 56 58 58 79 59 46 60 30 61 31 62 39 63 32 64 34 65 40 66
REMARK SMILES IDX 33 67 35 68 36 69 37 70 38 71 62 72 63 73 71 74 64 75 66 76
REMARK SMILES IDX 72 77 65 78 67 79 68 80 69 81 70 82 47 83 48 84 56 85 49 86
REMARK SMILES IDX 51 87 57 88 50 89 52 90 53 91 54 92 55 93
REMARK H PARENT 13 7 18 27 77 46 45 57
REMARK Flexibility Score: inf
ROOT
ATOM      1  C   UNL A   1      31.453  31.669  26.824  1.00  0.00     0.023 C 
ENDROOT
BRANCH   1   2
ATOM      2  C   UNL A   1      32.064  30.285  26.982  1.00  0.00     0.023 C 
BRANCH   2   3
ATOM      3  C   UNL A   1      33.360  30.111  26.201  1.00  0.00     0.116 C 
BRANCH   3   4
ATOM      4  N   UNL A   1      33.124  29.732  24.817  1.00  0.00    -0.352 N 
ATOM      5  C   UNL A   1      32.817  28.597  24.141  1.00  0.00     0.251 C 
ATOM      6  O   UNL A   1      32.646  28.723  22.925  1.00  0.00    -0.270 OA
ATOM      7  H   UNL A   1      33.209  30.504  24.210  1.00  0.00     0.163 HD
BRANCH   5   8
ATOM      8  C   UNL A   1      32.688  27.247  24.769  1.00  0.00     0.067 C 
ATOM      9  C   UNL A   1      34.605  22.915  25.741  1.00  0.00     0.025 A 
ATOM     10  C   UNL A   1      33.529  22.631  26.584  1.00  0.00     0.021 A 
ATOM     11  C   UNL A   1      34.682  24.150  25.084  1.00  0.00     0.029 A 
ATOM     12  C   UNL A   1      32.527  23.576  26.771  1.00  0.00     0.048 A 
ATOM     13  C   UNL A   1      33.676  25.103  25.270  1.00  0.00     0.018 A 
ATOM     14  C   UNL A   1      32.602  24.798  26.110  1.00  0.00     0.128 A 
ATOM     15  C   UNL A   1      33.747  26.425  24.655  1.00  0.00     0.025 C 
ATOM     16  O   UNL A   1      31.593  25.669  26.377  1.00  0.00    -0.475 OA
ATOM     17  C   UNL A   1      31.446  26.792  25.477  1.00  0.00     0.314 C 
BRANCH   9  18
ATOM     18  C   UNL A   1      35.631  21.936  25.569  1.00  0.00    -0.070 C 
ATOM     19  C   UNL A   1      36.469  21.089  25.411  1.00  0.00     0.010 C 
ENDBRANCH   9  18
BRANCH  17  20
ATOM     20  C   UNL A   1      30.288  26.503  24.503  1.00  0.00     0.429 C 
ATOM     21  F   UNL A   1      29.283  25.856  25.144  1.00  0.00    -0.167 F 
ATOM     22  F   UNL A   1      29.744  27.626  23.978  1.00  0.00    -0.167 F 
ATOM     23  F   UNL A   1      30.668  25.730  23.460  1.00  0.00    -0.167 F 
ENDBRANCH  17  20
ENDBRANCH   5   8
ENDBRANCH   3   4
ENDBRANCH   2   3
ENDBRANCH   1   2
BRANCH   1  24
ATOM     24  C   UNL A   1      32.465  32.780  26.576  1.00  0.00     0.116 C 
BRANCH  24  25
ATOM     25  N   UNL A   1      32.326  33.922  27.474  1.00  0.00    -0.352 N 
ATOM     26  C   UNL A   1      33.151  34.270  28.523  1.00  0.00     0.251 C 
ATOM     27  H   UNL A   1      31.555  34.512  27.312  1.00  0.00     0.163 HD
ATOM     28  O   UNL A   1      32.866  35.196  29.273  1.00  0.00    -0.269 OA
BRANCH  26  29
ATOM     29  C   UNL A   1      34.361  33.452  28.737  1.00  0.00     0.039 A 
ATOM     30  C   UNL A   1      34.218  32.160  29.244  1.00  0.00     0.014 A 
ATOM     31  C   UNL A   1      35.619  34.043  28.624  1.00  0.00     0.014 A 
ATOM     32  C   UNL A   1      35.303  31.558  29.859  1.00  0.00     0.010 A 
ATOM     33  C   UNL A   1      36.735  33.370  29.126  1.00  0.00     0.010 A 
ATOM     34  C   UNL A   1      36.577  32.153  29.809  1.00  0.00    -0.014 A 
BRANCH  34  35
ATOM     35  C   UNL A   1      37.718  31.471  30.474  1.00  0.00     0.031 A 
ATOM     36  C   UNL A   1      38.562  30.455  29.747  1.00  0.00     0.074 A 
ATOM     37  C   UNL A   1      38.021  31.812  31.742  1.00  0.00     0.049 A 
ATOM     38  N   UNL A   1      39.595  29.786  30.191  1.00  0.00    -0.248 NA
ATOM     39  C   UNL A   1      38.212  30.146  28.349  1.00  0.00     0.031 C 
ATOM     40  C   UNL A   1      37.276  32.779  32.555  1.00  0.00     0.029 A 
ATOM     41  N   UNL A   1      39.036  31.402  32.567  1.00  0.00    -0.354 N 
ATOM     42  C   UNL A   1      39.990  28.950  29.153  1.00  0.00     0.074 A 
ATOM     43  C   UNL A   1      39.085  29.192  28.050  1.00  0.00     0.031 C 
ATOM     44  C   UNL A   1      37.883  32.923  33.740  1.00  0.00     0.029 A 
ATOM     45  C   UNL A   1      39.010  32.000  33.804  1.00  0.00     0.049 A 
ATOM     46  H   UNL A   1      39.717  30.744  32.300  1.00  0.00     0.167 HD
ATOM     47  C   UNL A   1      41.021  28.074  29.118  1.00  0.00     0.034 A 
ATOM     48  C   UNL A   1      39.782  31.814  34.890  1.00  0.00     0.034 A 
ATOM     49  C   UNL A   1      41.942  27.865  30.202  1.00  0.00     0.049 A 
ATOM     50  C   UNL A   1      40.901  30.821  34.831  1.00  0.00     0.074 A 
ATOM     51  C   UNL A   1      43.045  27.029  30.234  1.00  0.00     0.029 A 
ATOM     52  N   UNL A   1      41.871  28.484  31.439  1.00  0.00    -0.354 N 
ATOM     53  N   UNL A   1      41.293  30.091  33.816  1.00  0.00    -0.248 NA
ATOM     54  C   UNL A   1      41.693  30.634  36.053  1.00  0.00     0.031 C 
ATOM     55  C   UNL A   1      43.622  27.118  31.502  1.00  0.00     0.029 A 
ATOM     56  C   UNL A   1      42.902  28.037  32.246  1.00  0.00     0.049 A 
ATOM     57  H   UNL A   1      41.190  29.143  31.703  1.00  0.00     0.167 HD
ATOM     58  C   UNL A   1      42.388  29.371  34.269  1.00  0.00     0.074 A 
ATOM     59  C   UNL A   1      42.608  29.762  35.647  1.00  0.00     0.031 C 
ATOM     60  C   UNL A   1      43.136  28.461  33.601  1.00  0.00     0.034 A 
BRANCH  47  61
ATOM     61  C   UNL A   1      41.251  27.280  27.860  1.00  0.00     0.023 A 
ATOM     62  C   UNL A   1      41.844  27.904  26.745  1.00  0.00     0.012 A 
ATOM     63  C   UNL A   1      41.012  25.891  27.835  1.00  0.00     0.148 A 
ATOM     64  C   UNL A   1      42.197  27.157  25.622  1.00  0.00     0.002 A 
ATOM     65  C   UNL A   1      41.391  25.148  26.723  1.00  0.00     0.091 A 
ATOM     66  F   UNL A   1      40.446  25.323  28.908  1.00  0.00    -0.205 F 
ATOM     67  C   UNL A   1      41.983  25.780  25.616  1.00  0.00     0.022 A 
BRANCH  65  68
ATOM     68  S   UNL A   1      41.194  23.366  26.628  1.00  0.00     0.127 S 
ATOM     69  O   UNL A   1      39.753  23.242  26.410  1.00  0.00    -0.237 OA
ATOM     70  O   UNL A   1      42.017  23.028  25.467  1.00  0.00    -0.237 OA
ATOM     71  O   UNL A   1      41.672  22.836  27.897  1.00  0.00    -0.744 OA
ENDBRANCH  65  68
ENDBRANCH  47  61
BRANCH  48  72
ATOM     72  C   UNL A   1      39.513  32.615  36.112  1.00  0.00     0.023 A 
ATOM     73  C   UNL A   1      40.079  33.896  36.239  1.00  0.00     0.012 A 
ATOM     74  C   UNL A   1      38.622  32.148  37.099  1.00  0.00     0.148 A 
ATOM     75  C   UNL A   1      39.765  34.702  37.333  1.00  0.00     0.002 A 
ATOM     76  C   UNL A   1      38.285  32.969  38.166  1.00  0.00     0.091 A 
ATOM     77  F   UNL A   1      38.090  30.928  36.944  1.00  0.00    -0.205 F 
ATOM     78  C   UNL A   1      38.861  34.244  38.290  1.00  0.00     0.022 A 
BRANCH  76  79
ATOM     79  S   UNL A   1      37.069  32.501  39.402  1.00  0.00     0.127 S 
ATOM     80  O   UNL A   1      37.313  33.493  40.447  1.00  0.00    -0.237 OA
ATOM     81  O   UNL A   1      35.817  32.673  38.668  1.00  0.00    -0.237 OA
ATOM     82  O   UNL A   1      37.379  31.126  39.765  1.00  0.00    -0.744 OA
ENDBRANCH  76  79
ENDBRANCH  48  72
BRANCH  60  83
ATOM     83  C   UNL A   1      44.292  27.827  34.322  1.00  0.00     0.023 A 
ATOM     84  C   UNL A   1      45.542  28.472  34.334  1.00  0.00     0.012 A 
ATOM     85  C   UNL A   1      44.097  26.667  35.097  1.00  0.00     0.148 A 
ATOM     86  C   UNL A   1      46.586  27.970  35.110  1.00  0.00     0.002 A 
ATOM     87  C   UNL A   1      45.130  26.190  35.892  1.00  0.00     0.091 A 
ATOM     88  F   UNL A   1      42.894  26.075  35.063  1.00  0.00    -0.205 F 
ATOM     89  C   UNL A   1      46.375  26.840  35.898  1.00  0.00     0.022 A 
BRANCH  87  90
ATOM     90  S   UNL A   1      44.941  24.776  36.981  1.00  0.00     0.127 S 
ATOM     91  O   UNL A   1      43.825  25.198  37.825  1.00  0.00    -0.237 OA
ATOM     92  O   UNL A   1      44.624  23.702  36.040  1.00  0.00    -0.237 OA
ATOM     93  O   UNL A   1      46.214  24.625  37.675  1.00  0.00    -0.744 OA
ENDBRANCH  87  90
ENDBRANCH  60  83
ENDBRANCH  34  35
ENDBRANCH  26  29
ENDBRANCH  24  25
ENDBRANCH   1  24
TORSDOF 16
ENDMDL
