MODEL 1
REMARK VINA RESULT:     -14.2      0.000      0.000
REMARK SMILES O=C(NC1(C(=O)NCCCCNC(=O)c2ccc(-c3c4nc(c(-c5cccc(S(=O)(=O)[O-])c5F)c5ccc([nH]5)c(-c5cccc(S(=O)(=O)[O-])c5F)c5nc(c(-c6cccc(S(=O)(=O)[O-])c6F)c6ccc3[nH]6)C=C5)C=C4)cc2)Cc2ccccc2C1)OCC1c2ccccc2-c2ccccc21
REMARK SMILES IDX 9 1 8 2 7 3 5 4 6 5 4 7 78 8 85 9 79 10 84 11 80 12 83 13
REMARK SMILES IDX 81 14 82 15 3 16 1 17 2 18 86 20 87 21 88 22 89 23 100 24
REMARK SMILES IDX 90 25 94 26 95 27 99 28 91 29 93 30 96 31 98 32 92 33 97 34
REMARK SMILES IDX 10 35 11 36 12 37 13 38 14 40 15 41 16 42 77 43 17 44 76 45
REMARK SMILES IDX 18 46 19 47 20 48 70 49 21 50 75 51 69 52 71 53 22 54 74 55
REMARK SMILES IDX 68 56 67 57 23 59 55 60 35 61 54 62 36 63 39 64 53 65 72 66
REMARK SMILES IDX 37 67 38 68 52 70 73 71 40 72 24 73 25 74 33 75 26 76 28 77
REMARK SMILES IDX 34 78 27 79 29 80 30 81 31 82 32 83 56 84 57 85 65 86 58 87
REMARK SMILES IDX 60 88 66 89 59 90 61 91 62 92 63 93 64 94 41 95 42 96 50 97
REMARK SMILES IDX 43 98 45 99 51 100 44 101 46 102 47 103 48 104 49 105
REMARK H PARENT 7 6 3 19 12 39 71 58 39 69
REMARK Flexibility Score: inf
ROOT
ATOM      1  C   UNL A   1      31.810  29.894  26.553  1.00  0.00     0.023 C 
ENDROOT
BRANCH   1   2
ATOM      2  C   UNL A   1      32.785  29.697  25.389  1.00  0.00     0.116 C 
BRANCH   2   3
ATOM      3  N   UNL A   1      32.157  28.986  24.282  1.00  0.00    -0.354 N 
ATOM      4  C   UNL A   1      32.814  28.151  23.418  1.00  0.00     0.246 C 
ATOM      5  O   UNL A   1      32.899  28.567  22.251  1.00  0.00    -0.272 OA
ATOM      6  H   UNL A   1      31.191  29.115  24.146  1.00  0.00     0.163 HD
BRANCH   4   7
ATOM      7  C   UNL A   1      33.082  26.541  23.757  1.00  0.00     0.130 C 
ATOM      8  C   UNL A   1      33.981  26.288  25.472  1.00  0.00     0.075 C 
ATOM      9  C   UNL A   1      34.011  24.806  22.686  1.00  0.00     0.075 C 
ATOM     10  C   UNL A   1      35.179  24.546  25.184  1.00  0.00    -0.042 A 
ATOM     11  C   UNL A   1      35.165  23.912  23.729  1.00  0.00    -0.042 A 
ATOM     12  C   UNL A   1      36.127  23.780  25.971  1.00  0.00     0.004 A 
ATOM     13  C   UNL A   1      35.946  22.893  23.199  1.00  0.00     0.004 A 
ATOM     14  C   UNL A   1      36.921  22.733  25.415  1.00  0.00     0.000 A 
ATOM     15  C   UNL A   1      36.849  22.321  24.071  1.00  0.00     0.000 A 
BRANCH   7  16
ATOM     16  N   UNL A   1      31.495  26.472  24.611  1.00  0.00    -0.306 N 
ATOM     17  O   UNL A   1      29.577  25.842  25.609  1.00  0.00    -0.225 OA
ATOM     18  C   UNL A   1      30.358  25.679  24.674  1.00  0.00     0.408 C 
ATOM     19  H   UNL A   1      31.408  27.238  25.223  1.00  0.00     0.168 HD
BRANCH  18  20
ATOM     20  O   UNL A   1      30.083  24.712  23.723  1.00  0.00    -0.449 OA
BRANCH  20  21
ATOM     21  C   UNL A   1      31.104  23.931  23.024  1.00  0.00     0.248 C 
BRANCH  21  22
ATOM     22  C   UNL A   1      31.524  22.918  24.023  1.00  0.00     0.088 C 
ATOM     23  C   UNL A   1      32.188  22.717  25.815  1.00  0.00    -0.029 A 
ATOM     24  C   UNL A   1      32.250  21.336  22.997  1.00  0.00    -0.029 A 
ATOM     25  C   UNL A   1      32.162  23.693  26.767  1.00  0.00     0.005 A 
ATOM     26  C   UNL A   1      33.058  21.234  26.051  1.00  0.00    -0.014 A 
ATOM     27  C   UNL A   1      33.181  20.279  24.485  1.00  0.00    -0.014 A 
ATOM     28  C   UNL A   1      31.813  20.566  21.497  1.00  0.00     0.005 A 
ATOM     29  C   UNL A   1      32.940  23.373  27.897  1.00  0.00     0.000 A 
ATOM     30  C   UNL A   1      33.833  21.094  27.164  1.00  0.00     0.009 A 
ATOM     31  C   UNL A   1      33.554  18.573  24.226  1.00  0.00     0.009 A 
ATOM     32  C   UNL A   1      32.146  18.818  21.393  1.00  0.00     0.000 A 
ATOM     33  C   UNL A   1      33.741  22.168  28.074  1.00  0.00     0.001 A 
ATOM     34  C   UNL A   1      32.954  17.861  22.697  1.00  0.00     0.001 A 
ENDBRANCH  21  22
ENDBRANCH  20  21
ENDBRANCH  18  20
ENDBRANCH   7  16
ENDBRANCH   4   7
ENDBRANCH   2   3
ENDBRANCH   1   2
BRANCH   1  35
ATOM     35  C   UNL A   1      31.293  31.310  26.804  1.00  0.00     0.023 C 
BRANCH  35  36
ATOM     36  C   UNL A   1      32.163  32.502  26.431  1.00  0.00     0.116 C 
BRANCH  36  37
ATOM     37  N   UNL A   1      32.331  33.527  27.458  1.00  0.00    -0.352 N 
ATOM     38  C   UNL A   1      33.431  33.780  28.261  1.00  0.00     0.251 C 
ATOM     39  H   UNL A   1      31.555  34.118  27.598  1.00  0.00     0.163 HD
ATOM     40  O   UNL A   1      33.416  34.692  29.080  1.00  0.00    -0.269 OA
BRANCH  38  41
ATOM     41  C   UNL A   1      34.600  32.881  28.158  1.00  0.00     0.039 A 
ATOM     42  C   UNL A   1      35.875  33.443  28.065  1.00  0.00     0.014 A 
ATOM     43  C   UNL A   1      34.440  31.519  28.410  1.00  0.00     0.014 A 
ATOM     44  C   UNL A   1      36.985  32.679  28.435  1.00  0.00     0.010 A 
ATOM     45  C   UNL A   1      35.529  30.803  28.893  1.00  0.00     0.010 A 
ATOM     46  C   UNL A   1      36.803  31.395  28.973  1.00  0.00    -0.014 A 
BRANCH  46  47
ATOM     47  C   UNL A   1      37.871  30.705  29.756  1.00  0.00     0.031 A 
ATOM     48  C   UNL A   1      38.134  31.086  31.188  1.00  0.00     0.074 A 
ATOM     49  C   UNL A   1      38.739  29.883  29.120  1.00  0.00     0.049 A 
ATOM     50  N   UNL A   1      39.147  30.773  31.952  1.00  0.00    -0.248 NA
ATOM     51  C   UNL A   1      37.165  31.996  31.823  1.00  0.00     0.031 C 
ATOM     52  C   UNL A   1      38.700  29.531  27.696  1.00  0.00     0.029 A 
ATOM     53  N   UNL A   1      39.855  29.222  29.581  1.00  0.00    -0.354 N 
ATOM     54  C   UNL A   1      38.993  31.521  33.112  1.00  0.00     0.074 A 
ATOM     55  C   UNL A   1      37.791  32.310  32.948  1.00  0.00     0.031 C 
ATOM     56  C   UNL A   1      39.720  28.707  27.411  1.00  0.00     0.029 A 
ATOM     57  C   UNL A   1      40.515  28.497  28.614  1.00  0.00     0.049 A 
ATOM     58  H   UNL A   1      40.153  29.263  30.519  1.00  0.00     0.167 HD
ATOM     59  C   UNL A   1      39.761  31.528  34.227  1.00  0.00     0.034 A 
ATOM     60  C   UNL A   1      41.635  27.750  28.680  1.00  0.00     0.034 A 
ATOM     61  C   UNL A   1      40.857  30.627  34.453  1.00  0.00     0.049 A 
ATOM     62  C   UNL A   1      42.361  27.633  29.992  1.00  0.00     0.074 A 
ATOM     63  C   UNL A   1      41.564  30.414  35.622  1.00  0.00     0.029 A 
ATOM     64  N   UNL A   1      41.385  29.773  33.500  1.00  0.00    -0.354 N 
ATOM     65  N   UNL A   1      42.078  28.198  31.141  1.00  0.00    -0.248 NA
ATOM     66  C   UNL A   1      43.542  26.757  30.029  1.00  0.00     0.031 C 
ATOM     67  C   UNL A   1      42.512  29.414  35.381  1.00  0.00     0.029 A 
ATOM     68  C   UNL A   1      42.405  29.021  34.057  1.00  0.00     0.049 A 
ATOM     69  H   UNL A   1      41.081  29.709  32.567  1.00  0.00     0.167 HD
ATOM     70  C   UNL A   1      43.028  27.728  32.039  1.00  0.00     0.074 A 
ATOM     71  C   UNL A   1      43.880  26.812  31.311  1.00  0.00     0.031 C 
ATOM     72  C   UNL A   1      43.195  28.053  33.343  1.00  0.00     0.034 A 
BRANCH  59  73
ATOM     73  C   UNL A   1      39.378  32.470  35.334  1.00  0.00     0.023 A 
ATOM     74  C   UNL A   1      38.483  32.034  36.332  1.00  0.00     0.012 A 
ATOM     75  C   UNL A   1      39.935  33.761  35.418  1.00  0.00     0.148 A 
ATOM     76  C   UNL A   1      38.120  32.880  37.377  1.00  0.00     0.002 A 
ATOM     77  C   UNL A   1      39.596  34.586  36.484  1.00  0.00     0.091 A 
ATOM     78  F   UNL A   1      40.766  34.166  34.447  1.00  0.00    -0.205 F 
ATOM     79  C   UNL A   1      38.682  34.151  37.458  1.00  0.00     0.022 A 
BRANCH  77  80
ATOM     80  S   UNL A   1      40.317  36.217  36.709  1.00  0.00     0.127 S 
ATOM     81  O   UNL A   1      41.734  35.895  36.868  1.00  0.00    -0.237 OA
ATOM     82  O   UNL A   1      39.982  36.883  35.450  1.00  0.00    -0.237 OA
ATOM     83  O   UNL A   1      39.664  36.782  37.882  1.00  0.00    -0.744 OA
ENDBRANCH  77  80
ENDBRANCH  59  73
BRANCH  60  84
ATOM     84  C   UNL A   1      42.090  26.973  27.491  1.00  0.00     0.023 A 
ATOM     85  C   UNL A   1      42.771  27.650  26.461  1.00  0.00     0.012 A 
ATOM     86  C   UNL A   1      41.884  25.587  27.379  1.00  0.00     0.148 A 
ATOM     87  C   UNL A   1      43.212  26.966  25.327  1.00  0.00     0.002 A 
ATOM     88  C   UNL A   1      42.369  24.902  26.267  1.00  0.00     0.091 A 
ATOM     89  F   UNL A   1      41.219  24.955  28.358  1.00  0.00    -0.205 F 
ATOM     90  C   UNL A   1      43.020  25.591  25.234  1.00  0.00     0.022 A 
BRANCH  88  91
ATOM     91  S   UNL A   1      42.266  23.111  26.160  1.00  0.00     0.127 S 
ATOM     92  O   UNL A   1      40.829  22.883  26.272  1.00  0.00    -0.237 OA
ATOM     93  O   UNL A   1      42.829  22.838  24.837  1.00  0.00    -0.237 OA
ATOM     94  O   UNL A   1      43.089  22.631  27.263  1.00  0.00    -0.744 OA
ENDBRANCH  88  91
ENDBRANCH  60  84
BRANCH  72  95
ATOM     95  C   UNL A   1      44.328  27.405  34.089  1.00  0.00     0.023 A 
ATOM     96  C   UNL A   1      45.597  28.015  34.071  1.00  0.00     0.012 A 
ATOM     97  C   UNL A   1      44.114  26.268  34.890  1.00  0.00     0.148 A 
ATOM     98  C   UNL A   1      46.641  27.496  34.835  1.00  0.00     0.002 A 
ATOM     99  C   UNL A   1      45.150  25.777  35.677  1.00  0.00     0.091 A 
ATOM    100  F   UNL A   1      42.905  25.689  34.872  1.00  0.00    -0.205 F 
ATOM    101  C   UNL A   1      46.415  26.388  35.648  1.00  0.00     0.022 A 
BRANCH  99 102
ATOM    102  S   UNL A   1      44.916  24.408  36.817  1.00  0.00     0.127 S 
ATOM    103  O   UNL A   1      44.630  23.304  35.904  1.00  0.00    -0.237 OA
ATOM    104  O   UNL A   1      46.215  24.326  37.486  1.00  0.00    -0.237 OA
ATOM    105  O   UNL A   1      43.818  24.806  37.690  1.00  0.00    -0.744 OA
ENDBRANCH  99 102
ENDBRANCH  72  95
ENDBRANCH  46  47
ENDBRANCH  38  41
ENDBRANCH  36  37
ENDBRANCH  35  36
ENDBRANCH   1  35
TORSDOF 18
ENDMDL
MODEL 2
REMARK VINA RESULT:     -13.8      2.473      8.091
REMARK SMILES O=C(NC1(C(=O)NCCCCNC(=O)c2ccc(-c3c4nc(c(-c5cccc(S(=O)(=O)[O-])c5F)c5ccc([nH]5)c(-c5cccc(S(=O)(=O)[O-])c5F)c5nc(c(-c6cccc(S(=O)(=O)[O-])c6F)c6ccc3[nH]6)C=C5)C=C4)cc2)Cc2ccccc2C1)OCC1c2ccccc2-c2ccccc21
REMARK SMILES IDX 9 1 8 2 7 3 5 4 6 5 4 7 78 8 85 9 79 10 84 11 80 12 83 13
REMARK SMILES IDX 81 14 82 15 3 16 1 17 2 18 86 20 87 21 88 22 89 23 100 24
REMARK SMILES IDX 90 25 94 26 95 27 99 28 91 29 93 30 96 31 98 32 92 33 97 34
REMARK SMILES IDX 10 35 11 36 12 37 13 38 14 40 15 41 16 42 77 43 17 44 76 45
REMARK SMILES IDX 18 46 19 47 20 48 70 49 21 50 75 51 69 52 71 53 22 54 74 55
REMARK SMILES IDX 68 56 67 57 23 59 55 60 35 61 54 62 36 63 39 64 53 65 72 66
REMARK SMILES IDX 37 67 38 68 52 70 73 71 40 72 24 73 25 74 33 75 26 76 28 77
REMARK SMILES IDX 34 78 27 79 29 80 30 81 31 82 32 83 56 84 57 85 65 86 58 87
REMARK SMILES IDX 60 88 66 89 59 90 61 91 62 92 63 93 64 94 41 95 42 96 50 97
REMARK SMILES IDX 43 98 45 99 51 100 44 101 46 102 47 103 48 104 49 105
REMARK H PARENT 7 6 3 19 12 39 71 58 39 69
REMARK Flexibility Score: inf
ROOT
ATOM      1  C   UNL A   1      34.495  28.943  26.988  1.00  0.00     0.023 C 
ENDROOT
BRANCH   1   2
ATOM      2  C   UNL A   1      33.285  28.011  27.095  1.00  0.00     0.116 C 
BRANCH   2   3
ATOM      3  N   UNL A   1      33.437  26.841  26.238  1.00  0.00    -0.354 N 
ATOM      4  C   UNL A   1      32.409  26.036  25.828  1.00  0.00     0.246 C 
ATOM      5  O   UNL A   1      32.423  24.887  26.299  1.00  0.00    -0.272 OA
ATOM      6  H   UNL A   1      34.345  26.613  25.934  1.00  0.00     0.163 HD
BRANCH   4   7
ATOM      7  C   UNL A   1      31.480  26.382  24.487  1.00  0.00     0.130 C 
ATOM      8  C   UNL A   1      32.100  27.981  23.554  1.00  0.00     0.075 C 
ATOM      9  C   UNL A   1      29.294  26.634  24.067  1.00  0.00     0.075 C 
ATOM     10  C   UNL A   1      30.321  28.842  22.750  1.00  0.00    -0.042 A 
ATOM     11  C   UNL A   1      28.958  28.116  23.116  1.00  0.00    -0.042 A 
ATOM     12  C   UNL A   1      29.979  30.027  21.985  1.00  0.00     0.004 A 
ATOM     13  C   UNL A   1      27.649  28.518  22.880  1.00  0.00     0.004 A 
ATOM     14  C   UNL A   1      28.630  30.426  21.747  1.00  0.00     0.000 A 
ATOM     15  C   UNL A   1      27.506  29.709  22.199  1.00  0.00     0.000 A 
BRANCH   7  16
ATOM     16  N   UNL A   1      32.598  25.393  23.475  1.00  0.00    -0.306 N 
ATOM     17  O   UNL A   1      33.524  23.932  22.033  1.00  0.00    -0.225 OA
ATOM     18  C   UNL A   1      32.670  24.136  22.893  1.00  0.00     0.408 C 
ATOM     19  H   UNL A   1      33.415  25.906  23.275  1.00  0.00     0.168 HD
BRANCH  18  20
ATOM     20  O   UNL A   1      31.808  23.112  23.246  1.00  0.00    -0.449 OA
BRANCH  20  21
ATOM     21  C   UNL A   1      31.891  22.363  24.500  1.00  0.00     0.248 C 
BRANCH  21  22
ATOM     22  C   UNL A   1      32.954  21.360  24.247  1.00  0.00     0.088 C 
ATOM     23  C   UNL A   1      33.251  19.486  23.942  1.00  0.00    -0.029 A 
ATOM     24  C   UNL A   1      34.635  22.036  25.144  1.00  0.00    -0.029 A 
ATOM     25  C   UNL A   1      32.281  18.591  23.605  1.00  0.00     0.005 A 
ATOM     26  C   UNL A   1      34.853  18.977  24.377  1.00  0.00    -0.014 A 
ATOM     27  C   UNL A   1      35.820  20.366  25.095  1.00  0.00    -0.014 A 
ATOM     28  C   UNL A   1      35.331  23.616  25.370  1.00  0.00     0.005 A 
ATOM     29  C   UNL A   1      32.716  17.254  23.697  1.00  0.00     0.000 A 
ATOM     30  C   UNL A   1      35.110  17.644  24.501  1.00  0.00     0.009 A 
ATOM     31  C   UNL A   1      37.565  20.542  25.303  1.00  0.00     0.009 A 
ATOM     32  C   UNL A   1      37.110  23.678  25.463  1.00  0.00     0.000 A 
ATOM     33  C   UNL A   1      34.032  16.809  24.139  1.00  0.00     0.001 A 
ATOM     34  C   UNL A   1      38.178  22.220  25.410  1.00  0.00     0.001 A 
ENDBRANCH  21  22
ENDBRANCH  20  21
ENDBRANCH  18  20
ENDBRANCH   7  16
ENDBRANCH   4   7
ENDBRANCH   2   3
ENDBRANCH   1   2
BRANCH   1  35
ATOM     35  C   UNL A   1      34.218  30.429  26.768  1.00  0.00     0.023 C 
BRANCH  35  36
ATOM     36  C   UNL A   1      34.011  31.340  27.971  1.00  0.00     0.116 C 
BRANCH  36  37
ATOM     37  N   UNL A   1      33.169  32.512  27.757  1.00  0.00    -0.352 N 
ATOM     38  C   UNL A   1      33.308  33.789  28.277  1.00  0.00     0.251 C 
ATOM     39  H   UNL A   1      32.396  32.378  27.161  1.00  0.00     0.163 HD
ATOM     40  O   UNL A   1      32.511  34.676  27.993  1.00  0.00    -0.269 OA
BRANCH  38  41
ATOM     41  C   UNL A   1      34.400  34.041  29.242  1.00  0.00     0.039 A 
ATOM     42  C   UNL A   1      34.213  33.683  30.579  1.00  0.00     0.014 A 
ATOM     43  C   UNL A   1      35.666  34.383  28.768  1.00  0.00     0.014 A 
ATOM     44  C   UNL A   1      35.331  33.465  31.389  1.00  0.00     0.010 A 
ATOM     45  C   UNL A   1      36.774  34.048  29.537  1.00  0.00     0.010 A 
ATOM     46  C   UNL A   1      36.619  33.522  30.833  1.00  0.00    -0.014 A 
BRANCH  46  47
ATOM     47  C   UNL A   1      37.801  32.910  31.509  1.00  0.00     0.031 A 
ATOM     48  C   UNL A   1      38.542  31.769  30.865  1.00  0.00     0.074 A 
ATOM     49  C   UNL A   1      38.083  33.241  32.791  1.00  0.00     0.049 A 
ATOM     50  N   UNL A   1      39.433  30.967  31.385  1.00  0.00    -0.248 NA
ATOM     51  C   UNL A   1      38.182  31.442  29.474  1.00  0.00     0.031 C 
ATOM     52  C   UNL A   1      37.360  34.229  33.600  1.00  0.00     0.029 A 
ATOM     53  N   UNL A   1      39.033  32.753  33.659  1.00  0.00    -0.354 N 
ATOM     54  C   UNL A   1      39.665  29.987  30.427  1.00  0.00     0.074 A 
ATOM     55  C   UNL A   1      38.814  30.291  29.298  1.00  0.00     0.031 C 
ATOM     56  C   UNL A   1      37.904  34.289  34.826  1.00  0.00     0.029 A 
ATOM     57  C   UNL A   1      38.989  33.320  34.914  1.00  0.00     0.049 A 
ATOM     58  H   UNL A   1      39.685  32.060  33.406  1.00  0.00     0.167 HD
ATOM     59  C   UNL A   1      40.530  28.947  30.470  1.00  0.00     0.034 A 
ATOM     60  C   UNL A   1      39.731  33.089  36.015  1.00  0.00     0.034 A 
ATOM     61  C   UNL A   1      41.489  28.741  31.519  1.00  0.00     0.049 A 
ATOM     62  C   UNL A   1      40.814  32.047  35.962  1.00  0.00     0.074 A 
ATOM     63  C   UNL A   1      42.541  27.843  31.556  1.00  0.00     0.029 A 
ATOM     64  N   UNL A   1      41.529  29.457  32.703  1.00  0.00    -0.354 N 
ATOM     65  N   UNL A   1      41.150  31.261  34.968  1.00  0.00    -0.248 NA
ATOM     66  C   UNL A   1      41.638  31.875  37.168  1.00  0.00     0.031 C 
ATOM     67  C   UNL A   1      43.230  28.030  32.758  1.00  0.00     0.029 A 
ATOM     68  C   UNL A   1      42.594  29.031  33.475  1.00  0.00     0.049 A 
ATOM     69  H   UNL A   1      40.894  30.165  32.957  1.00  0.00     0.167 HD
ATOM     70  C   UNL A   1      42.237  30.522  35.419  1.00  0.00     0.074 A 
ATOM     71  C   UNL A   1      42.521  30.969  36.767  1.00  0.00     0.031 C 
ATOM     72  C   UNL A   1      42.917  29.539  34.783  1.00  0.00     0.034 A 
BRANCH  59  73
ATOM     73  C   UNL A   1      40.553  28.009  29.294  1.00  0.00     0.023 A 
ATOM     74  C   UNL A   1      39.668  26.912  29.269  1.00  0.00     0.012 A 
ATOM     75  C   UNL A   1      41.406  28.237  28.197  1.00  0.00     0.148 A 
ATOM     76  C   UNL A   1      39.657  26.036  28.188  1.00  0.00     0.002 A 
ATOM     77  C   UNL A   1      41.363  27.377  27.105  1.00  0.00     0.091 A 
ATOM     78  F   UNL A   1      42.257  29.272  28.249  1.00  0.00    -0.205 F 
ATOM     79  C   UNL A   1      40.497  26.272  27.102  1.00  0.00     0.022 A 
BRANCH  77  80
ATOM     80  S   UNL A   1      42.362  27.638  25.633  1.00  0.00     0.127 S 
ATOM     81  O   UNL A   1      43.715  27.615  26.185  1.00  0.00    -0.237 OA
ATOM     82  O   UNL A   1      42.018  26.475  24.813  1.00  0.00    -0.237 OA
ATOM     83  O   UNL A   1      41.928  28.914  25.080  1.00  0.00    -0.744 OA
ENDBRANCH  77  80
ENDBRANCH  59  73
BRANCH  60  84
ATOM     84  C   UNL A   1      39.544  33.926  37.235  1.00  0.00     0.023 A 
ATOM     85  C   UNL A   1      40.019  35.252  37.224  1.00  0.00     0.012 A 
ATOM     86  C   UNL A   1      38.890  33.442  38.382  1.00  0.00     0.148 A 
ATOM     87  C   UNL A   1      39.872  36.072  38.344  1.00  0.00     0.002 A 
ATOM     88  C   UNL A   1      38.704  34.281  39.478  1.00  0.00     0.091 A 
ATOM     89  F   UNL A   1      38.457  32.173  38.388  1.00  0.00    -0.205 F 
ATOM     90  C   UNL A   1      39.206  35.591  39.468  1.00  0.00     0.022 A 
BRANCH  88  91
ATOM     91  S   UNL A   1      37.737  33.755  40.899  1.00  0.00     0.127 S 
ATOM     92  O   UNL A   1      38.630  32.791  41.533  1.00  0.00    -0.237 OA
ATOM     93  O   UNL A   1      37.554  35.003  41.640  1.00  0.00    -0.237 OA
ATOM     94  O   UNL A   1      36.506  33.222  40.326  1.00  0.00    -0.744 OA
ENDBRANCH  88  91
ENDBRANCH  60  84
BRANCH  72  95
ATOM     95  C   UNL A   1      44.053  28.882  35.515  1.00  0.00     0.023 A 
ATOM     96  C   UNL A   1      45.343  29.437  35.417  1.00  0.00     0.012 A 
ATOM     97  C   UNL A   1      43.827  27.794  36.380  1.00  0.00     0.148 A 
ATOM     98  C   UNL A   1      46.396  28.913  36.164  1.00  0.00     0.002 A 
ATOM     99  C   UNL A   1      44.875  27.299  37.149  1.00  0.00     0.091 A 
ATOM    100  F   UNL A   1      42.596  27.266  36.438  1.00  0.00    -0.205 F 
ATOM    101  C   UNL A   1      46.160  27.855  37.040  1.00  0.00     0.022 A 
BRANCH  99 102
ATOM    102  S   UNL A   1      44.633  25.998  38.364  1.00  0.00     0.127 S 
ATOM    103  O   UNL A   1      43.884  25.006  37.596  1.00  0.00    -0.237 OA
ATOM    104  O   UNL A   1      46.007  25.608  38.688  1.00  0.00    -0.237 OA
ATOM    105  O   UNL A   1      43.912  26.619  39.468  1.00  0.00    -0.744 OA
ENDBRANCH  99 102
ENDBRANCH  72  95
ENDBRANCH  46  47
ENDBRANCH  38  41
ENDBRANCH  36  37
ENDBRANCH  35  36
ENDBRANCH   1  35
TORSDOF 18
ENDMDL
MODEL 3
REMARK VINA RESULT:     -13.4      0.503      7.309
REMARK SMILES O=C(NC1(C(=O)NCCCCNC(=O)c2ccc(-c3c4nc(c(-c5cccc(S(=O)(=O)[O-])c5F)c5ccc([nH]5)c(-c5cccc(S(=O)(=O)[O-])c5F)c5nc(c(-c6cccc(S(=O)(=O)[O-])c6F)c6ccc3[nH]6)C=C5)C=C4)cc2)Cc2ccccc2C1)OCC1c2ccccc2-c2ccccc21
REMARK SMILES IDX 9 1 8 2 7 3 5 4 6 5 4 7 78 8 85 9 79 10 84 11 80 12 83 13
REMARK SMILES IDX 81 14 82 15 3 16 1 17 2 18 86 20 87 21 88 22 89 23 100 24
REMARK SMILES IDX 90 25 94 26 95 27 99 28 91 29 93 30 96 31 98 32 92 33 97 34
REMARK SMILES IDX 10 35 11 36 12 37 13 38 14 40 15 41 16 42 77 43 17 44 76 45
REMARK SMILES IDX 18 46 19 47 20 48 70 49 21 50 75 51 69 52 71 53 22 54 74 55
REMARK SMILES IDX 68 56 67 57 23 59 55 60 35 61 54 62 36 63 39 64 53 65 72 66
REMARK SMILES IDX 37 67 38 68 52 70 73 71 40 72 24 73 25 74 33 75 26 76 28 77
REMARK SMILES IDX 34 78 27 79 29 80 30 81 31 82 32 83 56 84 57 85 65 86 58 87
REMARK SMILES IDX 60 88 66 89 59 90 61 91 62 92 63 93 64 94 41 95 42 96 50 97
REMARK SMILES IDX 43 98 45 99 51 100 44 101 46 102 47 103 48 104 49 105
REMARK H PARENT 7 6 3 19 12 39 71 58 39 69
REMARK Flexibility Score: inf
ROOT
ATOM      1  C   UNL A   1      31.795  29.579  26.171  1.00  0.00     0.023 C 
ENDROOT
BRANCH   1   2
ATOM      2  C   UNL A   1      32.761  29.614  24.984  1.00  0.00     0.116 C 
BRANCH   2   3
ATOM      3  N   UNL A   1      32.243  28.854  23.852  1.00  0.00    -0.354 N 
ATOM      4  C   UNL A   1      32.975  27.971  23.105  1.00  0.00     0.246 C 
ATOM      5  O   UNL A   1      33.189  28.327  21.935  1.00  0.00    -0.272 OA
ATOM      6  H   UNL A   1      31.299  28.987  23.607  1.00  0.00     0.163 HD
BRANCH   4   7
ATOM      7  C   UNL A   1      33.180  26.377  23.549  1.00  0.00     0.130 C 
ATOM      8  C   UNL A   1      34.068  26.202  25.279  1.00  0.00     0.075 C 
ATOM      9  C   UNL A   1      34.043  24.541  22.596  1.00  0.00     0.075 C 
ATOM     10  C   UNL A   1      35.198  24.401  25.108  1.00  0.00    -0.042 A 
ATOM     11  C   UNL A   1      35.161  23.674  23.698  1.00  0.00    -0.042 A 
ATOM     12  C   UNL A   1      36.116  23.652  25.946  1.00  0.00     0.004 A 
ATOM     13  C   UNL A   1      35.902  22.593  23.238  1.00  0.00     0.004 A 
ATOM     14  C   UNL A   1      36.869  22.541  25.463  1.00  0.00     0.000 A 
ATOM     15  C   UNL A   1      36.782  22.045  24.148  1.00  0.00     0.000 A 
BRANCH   7  16
ATOM     16  N   UNL A   1      31.591  26.425  24.400  1.00  0.00    -0.306 N 
ATOM     17  O   UNL A   1      29.646  25.936  25.423  1.00  0.00    -0.225 OA
ATOM     18  C   UNL A   1      30.419  25.690  24.500  1.00  0.00     0.408 C 
ATOM     19  H   UNL A   1      31.539  27.225  24.973  1.00  0.00     0.168 HD
BRANCH  18  20
ATOM     20  O   UNL A   1      30.100  24.689  23.599  1.00  0.00    -0.449 OA
BRANCH  20  21
ATOM     21  C   UNL A   1      31.087  23.854  22.913  1.00  0.00     0.248 C 
BRANCH  21  22
ATOM     22  C   UNL A   1      31.491  22.863  23.939  1.00  0.00     0.088 C 
ATOM     23  C   UNL A   1      32.119  22.700  25.748  1.00  0.00    -0.029 A 
ATOM     24  C   UNL A   1      32.245  21.265  22.958  1.00  0.00    -0.029 A 
ATOM     25  C   UNL A   1      32.070  23.693  26.680  1.00  0.00     0.005 A 
ATOM     26  C   UNL A   1      32.990  21.225  26.030  1.00  0.00    -0.014 A 
ATOM     27  C   UNL A   1      33.150  20.241  24.485  1.00  0.00    -0.014 A 
ATOM     28  C   UNL A   1      31.842  20.464  21.465  1.00  0.00     0.005 A 
ATOM     29  C   UNL A   1      32.826  23.399  27.832  1.00  0.00     0.000 A 
ATOM     30  C   UNL A   1      33.744  21.110  27.160  1.00  0.00     0.009 A 
ATOM     31  C   UNL A   1      33.535  18.532  24.267  1.00  0.00     0.009 A 
ATOM     32  C   UNL A   1      32.184  18.716  21.402  1.00  0.00     0.000 A 
ATOM     33  C   UNL A   1      33.629  22.201  28.048  1.00  0.00     0.001 A 
ATOM     34  C   UNL A   1      32.970  17.788  22.740  1.00  0.00     0.001 A 
ENDBRANCH  21  22
ENDBRANCH  20  21
ENDBRANCH  18  20
ENDBRANCH   7  16
ENDBRANCH   4   7
ENDBRANCH   2   3
ENDBRANCH   1   2
BRANCH   1  35
ATOM     35  C   UNL A   1      31.697  30.836  27.034  1.00  0.00     0.023 C 
BRANCH  35  36
ATOM     36  C   UNL A   1      32.128  32.177  26.457  1.00  0.00     0.116 C 
BRANCH  36  37
ATOM     37  N   UNL A   1      32.243  33.282  27.404  1.00  0.00    -0.352 N 
ATOM     38  C   UNL A   1      33.340  33.671  28.156  1.00  0.00     0.251 C 
ATOM     39  H   UNL A   1      31.430  33.825  27.526  1.00  0.00     0.163 HD
ATOM     40  O   UNL A   1      33.278  34.635  28.910  1.00  0.00    -0.269 OA
BRANCH  38  41
ATOM     41  C   UNL A   1      34.570  32.853  28.082  1.00  0.00     0.039 A 
ATOM     42  C   UNL A   1      35.787  33.489  27.825  1.00  0.00     0.014 A 
ATOM     43  C   UNL A   1      34.538  31.529  28.518  1.00  0.00     0.014 A 
ATOM     44  C   UNL A   1      36.977  32.863  28.206  1.00  0.00     0.010 A 
ATOM     45  C   UNL A   1      35.710  30.964  29.006  1.00  0.00     0.010 A 
ATOM     46  C   UNL A   1      36.934  31.652  28.916  1.00  0.00    -0.014 A 
BRANCH  46  47
ATOM     47  C   UNL A   1      38.103  31.151  29.699  1.00  0.00     0.031 A 
ATOM     48  C   UNL A   1      39.034  30.127  29.107  1.00  0.00     0.074 A 
ATOM     49  C   UNL A   1      38.210  31.462  31.012  1.00  0.00     0.049 A 
ATOM     50  N   UNL A   1      39.954  29.411  29.698  1.00  0.00    -0.248 NA
ATOM     51  C   UNL A   1      38.860  29.816  27.678  1.00  0.00     0.031 C 
ATOM     52  C   UNL A   1      37.297  32.330  31.765  1.00  0.00     0.029 A 
ATOM     53  N   UNL A   1      39.115  31.050  31.963  1.00  0.00    -0.354 N 
ATOM     54  C   UNL A   1      40.395  28.501  28.745  1.00  0.00     0.074 A 
ATOM     55  C   UNL A   1      39.637  28.751  27.540  1.00  0.00     0.031 C 
ATOM     56  C   UNL A   1      37.700  32.403  33.043  1.00  0.00     0.029 A 
ATOM     57  C   UNL A   1      38.876  31.560  33.221  1.00  0.00     0.049 A 
ATOM     58  H   UNL A   1      39.866  30.446  31.763  1.00  0.00     0.167 HD
ATOM     59  C   UNL A   1      41.367  27.564  28.852  1.00  0.00     0.034 A 
ATOM     60  C   UNL A   1      39.522  31.371  34.388  1.00  0.00     0.034 A 
ATOM     61  C   UNL A   1      42.230  27.427  29.993  1.00  0.00     0.049 A 
ATOM     62  C   UNL A   1      40.719  30.461  34.424  1.00  0.00     0.074 A 
ATOM     63  C   UNL A   1      43.369  26.653  30.118  1.00  0.00     0.029 A 
ATOM     64  N   UNL A   1      42.063  28.097  31.193  1.00  0.00    -0.354 N 
ATOM     65  N   UNL A   1      41.245  29.758  33.451  1.00  0.00    -0.248 NA
ATOM     66  C   UNL A   1      41.428  30.337  35.707  1.00  0.00     0.031 C 
ATOM     67  C   UNL A   1      43.904  26.870  31.392  1.00  0.00     0.029 A 
ATOM     68  C   UNL A   1      43.085  27.764  32.063  1.00  0.00     0.049 A 
ATOM     69  H   UNL A   1      41.328  28.719  31.396  1.00  0.00     0.167 HD
ATOM     70  C   UNL A   1      42.358  29.129  33.996  1.00  0.00     0.074 A 
ATOM     71  C   UNL A   1      42.447  29.553  35.378  1.00  0.00     0.031 C 
ATOM     72  C   UNL A   1      43.210  28.254  33.411  1.00  0.00     0.034 A 
BRANCH  59  73
ATOM     73  C   UNL A   1      41.621  26.682  27.662  1.00  0.00     0.023 A 
ATOM     74  C   UNL A   1      42.205  27.235  26.504  1.00  0.00     0.012 A 
ATOM     75  C   UNL A   1      41.332  25.304  27.701  1.00  0.00     0.148 A 
ATOM     76  C   UNL A   1      42.464  26.440  25.391  1.00  0.00     0.002 A 
ATOM     77  C   UNL A   1      41.627  24.509  26.598  1.00  0.00     0.091 A 
ATOM     78  F   UNL A   1      40.755  24.800  28.801  1.00  0.00    -0.205 F 
ATOM     79  C   UNL A   1      42.184  25.077  25.441  1.00  0.00     0.022 A 
BRANCH  77  80
ATOM     80  S   UNL A   1      41.360  22.732  26.592  1.00  0.00     0.127 S 
ATOM     81  O   UNL A   1      42.145  22.318  25.430  1.00  0.00    -0.237 OA
ATOM     82  O   UNL A   1      41.921  22.328  27.882  1.00  0.00    -0.237 OA
ATOM     83  O   UNL A   1      39.920  22.547  26.478  1.00  0.00    -0.744 OA
ENDBRANCH  77  80
ENDBRANCH  59  73
BRANCH  60  84
ATOM     84  C   UNL A   1      39.114  32.134  35.604  1.00  0.00     0.023 A 
ATOM     85  C   UNL A   1      38.252  31.516  36.531  1.00  0.00     0.012 A 
ATOM     86  C   UNL A   1      39.582  33.434  35.864  1.00  0.00     0.148 A 
ATOM     87  C   UNL A   1      37.839  32.192  37.681  1.00  0.00     0.002 A 
ATOM     88  C   UNL A   1      39.204  34.084  37.037  1.00  0.00     0.091 A 
ATOM     89  F   UNL A   1      40.388  34.019  34.966  1.00  0.00    -0.205 F 
ATOM     90  C   UNL A   1      38.322  33.471  37.939  1.00  0.00     0.022 A 
BRANCH  88  91
ATOM     91  S   UNL A   1      39.902  35.678  37.483  1.00  0.00     0.127 S 
ATOM     92  O   UNL A   1      39.558  36.495  36.324  1.00  0.00    -0.237 OA
ATOM     93  O   UNL A   1      39.175  36.013  38.709  1.00  0.00    -0.237 OA
ATOM     94  O   UNL A   1      41.320  35.410  37.693  1.00  0.00    -0.744 OA
ENDBRANCH  88  91
ENDBRANCH  60  84
BRANCH  72  95
ATOM     95  C   UNL A   1      44.333  27.701  34.243  1.00  0.00     0.023 A 
ATOM     96  C   UNL A   1      45.500  28.470  34.415  1.00  0.00     0.012 A 
ATOM     97  C   UNL A   1      44.191  26.485  34.938  1.00  0.00     0.148 A 
ATOM     98  C   UNL A   1      46.515  28.032  35.262  1.00  0.00     0.002 A 
ATOM     99  C   UNL A   1      45.193  26.072  35.809  1.00  0.00     0.091 A 
ATOM    100  F   UNL A   1      43.082  25.758  34.739  1.00  0.00    -0.205 F 
ATOM    101  C   UNL A   1      46.357  26.842  35.970  1.00  0.00     0.022 A 
BRANCH  99 102
ATOM    102  S   UNL A   1      45.026  24.598  36.823  1.00  0.00     0.127 S 
ATOM    103  O   UNL A   1      44.504  25.150  38.071  1.00  0.00    -0.237 OA
ATOM    104  O   UNL A   1      44.066  23.797  36.062  1.00  0.00    -0.237 OA
ATOM    105  O   UNL A   1      46.361  24.018  36.899  1.00  0.00    -0.744 OA
ENDBRANCH  99 102
ENDBRANCH  72  95
ENDBRANCH  46  47
ENDBRANCH  38  41
ENDBRANCH  36  37
ENDBRANCH  35  36
ENDBRANCH   1  35
TORSDOF 18
ENDMDL
