MODEL 1
REMARK VINA RESULT:     -11.5      0.000      0.000
REMARK SMILES CN1CC[N@H+](CC(=O)NCCCCNC(=O)c2ccc(-c3c4nc(c(-c5cccc(S(=O)(=O)[O-])c5F)c5ccc([nH]5)c(-c5cccc(S(=O)(=O)[O-])c5F)c5nc(c(-c6cccc(S(=O)(=O)[O-])c6F)c6ccc3[nH]6)C=C5)C=C4)cc2)C(C)(C)C1=O
REMARK SMILES IDX 12 1 11 2 10 3 9 4 7 5 8 6 6 8 5 9 1 10 2 11 3 12 83 13 4 14
REMARK SMILES IDX 80 15 84 16 81 17 82 18 13 20 14 21 15 22 16 24 17 25 18 26
REMARK SMILES IDX 79 27 19 28 78 29 20 30 21 31 22 32 72 33 23 34 77 35 71 36
REMARK SMILES IDX 73 37 24 38 76 39 70 40 69 41 25 43 57 44 37 45 56 46 38 47
REMARK SMILES IDX 41 48 55 49 74 50 39 51 40 52 54 54 75 55 42 56 26 57 27 58
REMARK SMILES IDX 35 59 28 60 30 61 36 62 29 63 31 64 32 65 33 66 34 67 58 68
REMARK SMILES IDX 59 69 67 70 60 71 62 72 68 73 61 74 63 75 64 76 65 77 66 78
REMARK SMILES IDX 43 79 44 80 52 81 45 82 47 83 53 84 46 85 48 86 49 87 50 88
REMARK SMILES IDX 51 89
REMARK H PARENT 9 7 5 19 14 23 73 42 41 53
REMARK Flexibility Score: inf
ROOT
ATOM      1  C   UNL A   1      33.643  28.663  24.005  1.00  0.00     0.023 C 
ENDROOT
BRANCH   1   2
ATOM      2  C   UNL A   1      32.288  28.953  23.376  1.00  0.00     0.023 C 
BRANCH   2   3
ATOM      3  C   UNL A   1      31.504  27.749  22.860  1.00  0.00     0.116 C 
BRANCH   3   4
ATOM      4  N   UNL A   1      32.125  27.064  21.737  1.00  0.00    -0.351 N 
ATOM      5  C   UNL A   1      32.904  25.953  21.615  1.00  0.00     0.275 C 
ATOM      6  O   UNL A   1      33.109  25.549  20.464  1.00  0.00    -0.269 OA
ATOM      7  H   UNL A   1      31.942  27.500  20.873  1.00  0.00     0.163 HD
BRANCH   5   8
ATOM      8  C   UNL A   1      33.472  25.173  22.810  1.00  0.00     0.364 C 
BRANCH   8   9
ATOM      9  N   UNL A   1      32.515  24.707  23.865  1.00  0.00    -0.314 N 
ATOM     10  C   UNL A   1      32.934  20.402  24.089  1.00  0.00     0.147 C 
ATOM     11  N   UNL A   1      32.730  21.841  24.106  1.00  0.00    -0.335 N 
ATOM     12  C   UNL A   1      31.767  22.386  23.156  1.00  0.00     0.180 C 
ATOM     13  C   UNL A   1      33.614  22.658  24.822  1.00  0.00     0.283 C 
ATOM     14  C   UNL A   1      31.425  23.865  23.361  1.00  0.00     0.285 C 
ATOM     15  C   UNL A   1      33.119  24.127  25.093  1.00  0.00     0.172 C 
ATOM     16  O   UNL A   1      34.597  22.179  25.381  1.00  0.00    -0.268 OA
ATOM     17  C   UNL A   1      32.140  23.871  26.274  1.00  0.00     0.090 C 
ATOM     18  C   UNL A   1      34.049  25.199  25.700  1.00  0.00     0.090 C 
ATOM     19  H   UNL A   1      32.107  25.593  24.165  1.00  0.00     0.349 HD
ENDBRANCH   8   9
ENDBRANCH   5   8
ENDBRANCH   3   4
ENDBRANCH   2   3
ENDBRANCH   1   2
BRANCH   1  20
ATOM     20  C   UNL A   1      33.618  28.861  25.493  1.00  0.00     0.116 C 
BRANCH  20  21
ATOM     21  N   UNL A   1      33.013  30.144  25.851  1.00  0.00    -0.352 N 
ATOM     22  C   UNL A   1      33.359  30.987  26.867  1.00  0.00     0.251 C 
ATOM     23  H   UNL A   1      32.260  30.435  25.288  1.00  0.00     0.163 HD
ATOM     24  O   UNL A   1      32.632  31.934  27.170  1.00  0.00    -0.269 OA
BRANCH  22  25
ATOM     25  C   UNL A   1      34.606  30.726  27.599  1.00  0.00     0.039 A 
ATOM     26  C   UNL A   1      35.575  31.722  27.680  1.00  0.00     0.014 A 
ATOM     27  C   UNL A   1      34.781  29.499  28.246  1.00  0.00     0.014 A 
ATOM     28  C   UNL A   1      36.729  31.472  28.412  1.00  0.00     0.010 A 
ATOM     29  C   UNL A   1      35.837  29.325  29.113  1.00  0.00     0.010 A 
ATOM     30  C   UNL A   1      36.861  30.272  29.131  1.00  0.00    -0.014 A 
BRANCH  30  31
ATOM     31  C   UNL A   1      38.120  29.931  29.817  1.00  0.00     0.031 A 
ATOM     32  C   UNL A   1      38.353  30.441  31.215  1.00  0.00     0.074 A 
ATOM     33  C   UNL A   1      39.041  29.199  29.170  1.00  0.00     0.049 A 
ATOM     34  N   UNL A   1      39.368  30.226  32.007  1.00  0.00    -0.248 NA
ATOM     35  C   UNL A   1      37.336  31.344  31.791  1.00  0.00     0.031 C 
ATOM     36  C   UNL A   1      38.945  28.752  27.777  1.00  0.00     0.029 A 
ATOM     37  N   UNL A   1      40.239  28.702  29.599  1.00  0.00    -0.354 N 
ATOM     38  C   UNL A   1      39.125  30.987  33.144  1.00  0.00     0.074 A 
ATOM     39  C   UNL A   1      37.911  31.728  32.917  1.00  0.00     0.031 C 
ATOM     40  C   UNL A   1      40.025  28.013  27.480  1.00  0.00     0.029 A 
ATOM     41  C   UNL A   1      40.894  27.957  28.650  1.00  0.00     0.049 A 
ATOM     42  H   UNL A   1      40.598  28.863  30.502  1.00  0.00     0.167 HD
ATOM     43  C   UNL A   1      39.826  31.025  34.300  1.00  0.00     0.034 A 
ATOM     44  C   UNL A   1      42.061  27.294  28.731  1.00  0.00     0.034 A 
ATOM     45  C   UNL A   1      41.004  30.239  34.524  1.00  0.00     0.049 A 
ATOM     46  C   UNL A   1      42.782  27.290  30.049  1.00  0.00     0.074 A 
ATOM     47  C   UNL A   1      41.763  30.129  35.672  1.00  0.00     0.029 A 
ATOM     48  N   UNL A   1      41.593  29.422  33.569  1.00  0.00    -0.354 N 
ATOM     49  N   UNL A   1      42.463  27.897  31.168  1.00  0.00    -0.248 NA
ATOM     50  C   UNL A   1      43.994  26.467  30.135  1.00  0.00     0.031 C 
ATOM     51  C   UNL A   1      42.831  29.266  35.402  1.00  0.00     0.029 A 
ATOM     52  C   UNL A   1      42.708  28.804  34.100  1.00  0.00     0.049 A 
ATOM     53  H   UNL A   1      41.264  29.302  32.649  1.00  0.00     0.167 HD
ATOM     54  C   UNL A   1      43.410  27.498  32.103  1.00  0.00     0.074 A 
ATOM     55  C   UNL A   1      44.300  26.579  31.419  1.00  0.00     0.031 C 
ATOM     56  C   UNL A   1      43.544  27.861  33.403  1.00  0.00     0.034 A 
BRANCH  43  57
ATOM     57  C   UNL A   1      39.303  31.904  35.406  1.00  0.00     0.023 A 
ATOM     58  C   UNL A   1      38.314  31.414  36.287  1.00  0.00     0.012 A 
ATOM     59  C   UNL A   1      39.803  33.206  35.590  1.00  0.00     0.148 A 
ATOM     60  C   UNL A   1      37.802  32.219  37.304  1.00  0.00     0.002 A 
ATOM     61  C   UNL A   1      39.327  33.984  36.640  1.00  0.00     0.091 A 
ATOM     62  F   UNL A   1      40.719  33.666  34.728  1.00  0.00    -0.205 F 
ATOM     63  C   UNL A   1      38.317  33.498  37.487  1.00  0.00     0.022 A 
BRANCH  61  64
ATOM     64  S   UNL A   1      39.984  35.612  37.013  1.00  0.00     0.127 S 
ATOM     65  O   UNL A   1      39.279  35.938  38.252  1.00  0.00    -0.237 OA
ATOM     66  O   UNL A   1      41.410  35.335  37.177  1.00  0.00    -0.237 OA
ATOM     67  O   UNL A   1      39.653  36.451  35.870  1.00  0.00    -0.744 OA
ENDBRANCH  61  64
ENDBRANCH  43  57
BRANCH  44  68
ATOM     68  C   UNL A   1      42.559  26.522  27.562  1.00  0.00     0.023 A 
ATOM     69  C   UNL A   1      43.445  27.125  26.648  1.00  0.00     0.012 A 
ATOM     70  C   UNL A   1      42.190  25.176  27.373  1.00  0.00     0.148 A 
ATOM     71  C   UNL A   1      43.921  26.416  25.544  1.00  0.00     0.002 A 
ATOM     72  C   UNL A   1      42.711  24.459  26.304  1.00  0.00     0.091 A 
ATOM     73  F   UNL A   1      41.346  24.622  28.255  1.00  0.00    -0.205 F 
ATOM     74  C   UNL A   1      43.561  25.082  25.377  1.00  0.00     0.022 A 
BRANCH  72  75
ATOM     75  S   UNL A   1      42.407  22.702  26.086  1.00  0.00     0.127 S 
ATOM     76  O   UNL A   1      43.033  22.450  24.790  1.00  0.00    -0.237 OA
ATOM     77  O   UNL A   1      43.112  22.130  27.234  1.00  0.00    -0.237 OA
ATOM     78  O   UNL A   1      40.960  22.543  26.130  1.00  0.00    -0.744 OA
ENDBRANCH  72  75
ENDBRANCH  44  68
BRANCH  56  79
ATOM     79  C   UNL A   1      44.658  27.220  34.183  1.00  0.00     0.023 A 
ATOM     80  C   UNL A   1      45.936  27.812  34.211  1.00  0.00     0.012 A 
ATOM     81  C   UNL A   1      44.417  26.050  34.929  1.00  0.00     0.148 A 
ATOM     82  C   UNL A   1      46.973  27.217  34.927  1.00  0.00     0.002 A 
ATOM     83  C   UNL A   1      45.439  25.497  35.687  1.00  0.00     0.091 A 
ATOM     84  F   UNL A   1      43.198  25.493  34.874  1.00  0.00    -0.205 F 
ATOM     85  C   UNL A   1      46.722  26.067  35.673  1.00  0.00     0.022 A 
BRANCH  83  86
ATOM     86  S   UNL A   1      45.172  24.084  36.761  1.00  0.00     0.127 S 
ATOM     87  O   UNL A   1      46.517  23.847  37.283  1.00  0.00    -0.237 OA
ATOM     88  O   UNL A   1      44.221  24.613  37.740  1.00  0.00    -0.237 OA
ATOM     89  O   UNL A   1      44.633  23.031  35.910  1.00  0.00    -0.744 OA
ENDBRANCH  83  86
ENDBRANCH  56  79
ENDBRANCH  30  31
ENDBRANCH  22  25
ENDBRANCH  20  21
ENDBRANCH   1  20
TORSDOF 15
ENDMDL
MODEL 2
REMARK VINA RESULT:     -11.4      1.744      2.307
REMARK SMILES CN1CC[N@H+](CC(=O)NCCCCNC(=O)c2ccc(-c3c4nc(c(-c5cccc(S(=O)(=O)[O-])c5F)c5ccc([nH]5)c(-c5cccc(S(=O)(=O)[O-])c5F)c5nc(c(-c6cccc(S(=O)(=O)[O-])c6F)c6ccc3[nH]6)C=C5)C=C4)cc2)C(C)(C)C1=O
REMARK SMILES IDX 12 1 11 2 10 3 9 4 7 5 8 6 6 8 5 9 1 10 2 11 3 12 83 13 4 14
REMARK SMILES IDX 80 15 84 16 81 17 82 18 13 20 14 21 15 22 16 24 17 25 18 26
REMARK SMILES IDX 79 27 19 28 78 29 20 30 21 31 22 32 72 33 23 34 77 35 71 36
REMARK SMILES IDX 73 37 24 38 76 39 70 40 69 41 25 43 57 44 37 45 56 46 38 47
REMARK SMILES IDX 41 48 55 49 74 50 39 51 40 52 54 54 75 55 42 56 26 57 27 58
REMARK SMILES IDX 35 59 28 60 30 61 36 62 29 63 31 64 32 65 33 66 34 67 58 68
REMARK SMILES IDX 59 69 67 70 60 71 62 72 68 73 61 74 63 75 64 76 65 77 66 78
REMARK SMILES IDX 43 79 44 80 52 81 45 82 47 83 53 84 46 85 48 86 49 87 50 88
REMARK SMILES IDX 51 89
REMARK H PARENT 9 7 5 19 14 23 73 42 41 53
REMARK Flexibility Score: inf
ROOT
ATOM      1  C   UNL A   1      33.063  27.964  26.774  1.00  0.00     0.023 C 
ENDROOT
BRANCH   1   2
ATOM      2  C   UNL A   1      31.578  27.999  26.444  1.00  0.00     0.023 C 
BRANCH   2   3
ATOM      3  C   UNL A   1      31.054  26.887  25.538  1.00  0.00     0.116 C 
BRANCH   3   4
ATOM      4  N   UNL A   1      30.451  25.769  26.246  1.00  0.00    -0.351 N 
ATOM      5  C   UNL A   1      30.767  24.451  26.385  1.00  0.00     0.275 C 
ATOM      6  O   UNL A   1      30.117  23.816  27.225  1.00  0.00    -0.269 OA
ATOM      7  H   UNL A   1      29.633  26.020  26.734  1.00  0.00     0.163 HD
BRANCH   5   8
ATOM      8  C   UNL A   1      31.896  23.756  25.609  1.00  0.00     0.364 C 
BRANCH   8   9
ATOM      9  N   UNL A   1      33.281  23.822  26.176  1.00  0.00    -0.314 N 
ATOM     10  C   UNL A   1      35.288  20.189  24.935  1.00  0.00     0.147 C 
ATOM     11  N   UNL A   1      34.714  21.446  25.387  1.00  0.00    -0.335 N 
ATOM     12  C   UNL A   1      33.964  21.419  26.637  1.00  0.00     0.180 C 
ATOM     13  C   UNL A   1      34.677  22.544  24.520  1.00  0.00     0.283 C 
ATOM     14  C   UNL A   1      33.570  22.796  27.183  1.00  0.00     0.285 C 
ATOM     15  C   UNL A   1      34.390  23.937  25.192  1.00  0.00     0.172 C 
ATOM     16  O   UNL A   1      35.064  22.439  23.359  1.00  0.00    -0.268 OA
ATOM     17  C   UNL A   1      35.794  24.246  25.787  1.00  0.00     0.090 C 
ATOM     18  C   UNL A   1      34.133  25.208  24.354  1.00  0.00     0.090 C 
ATOM     19  H   UNL A   1      33.257  24.723  26.652  1.00  0.00     0.349 HD
ENDBRANCH   8   9
ENDBRANCH   5   8
ENDBRANCH   3   4
ENDBRANCH   2   3
ENDBRANCH   1   2
BRANCH   1  20
ATOM     20  C   UNL A   1      33.827  29.008  26.012  1.00  0.00     0.116 C 
BRANCH  20  21
ATOM     21  N   UNL A   1      33.372  30.357  26.353  1.00  0.00    -0.352 N 
ATOM     22  C   UNL A   1      33.871  31.201  27.303  1.00  0.00     0.251 C 
ATOM     23  H   UNL A   1      32.610  30.697  25.832  1.00  0.00     0.163 HD
ATOM     24  O   UNL A   1      33.260  32.225  27.613  1.00  0.00    -0.269 OA
BRANCH  22  25
ATOM     25  C   UNL A   1      35.140  30.849  27.955  1.00  0.00     0.039 A 
ATOM     26  C   UNL A   1      36.232  31.703  27.836  1.00  0.00     0.014 A 
ATOM     27  C   UNL A   1      35.217  29.687  28.728  1.00  0.00     0.014 A 
ATOM     28  C   UNL A   1      37.411  31.375  28.495  1.00  0.00     0.010 A 
ATOM     29  C   UNL A   1      36.322  29.461  29.520  1.00  0.00     0.010 A 
ATOM     30  C   UNL A   1      37.456  30.253  29.339  1.00  0.00    -0.014 A 
BRANCH  30  31
ATOM     31  C   UNL A   1      38.721  29.816  29.955  1.00  0.00     0.031 A 
ATOM     32  C   UNL A   1      39.094  30.344  31.316  1.00  0.00     0.074 A 
ATOM     33  C   UNL A   1      39.526  28.980  29.277  1.00  0.00     0.049 A 
ATOM     34  N   UNL A   1      40.136  30.058  32.048  1.00  0.00    -0.248 NA
ATOM     35  C   UNL A   1      38.206  31.356  31.922  1.00  0.00     0.031 C 
ATOM     36  C   UNL A   1      39.295  28.503  27.911  1.00  0.00     0.029 A 
ATOM     37  N   UNL A   1      40.699  28.386  29.647  1.00  0.00    -0.354 N 
ATOM     38  C   UNL A   1      40.042  30.872  33.170  1.00  0.00     0.074 A 
ATOM     39  C   UNL A   1      38.888  31.718  32.994  1.00  0.00     0.031 C 
ATOM     40  C   UNL A   1      40.280  27.656  27.573  1.00  0.00     0.029 A 
ATOM     41  C   UNL A   1      41.217  27.555  28.685  1.00  0.00     0.049 A 
ATOM     42  H   UNL A   1      41.131  28.539  30.518  1.00  0.00     0.167 HD
ATOM     43  C   UNL A   1      40.820  30.880  34.276  1.00  0.00     0.034 A 
ATOM     44  C   UNL A   1      42.321  26.787  28.715  1.00  0.00     0.034 A 
ATOM     45  C   UNL A   1      41.932  29.993  34.452  1.00  0.00     0.049 A 
ATOM     46  C   UNL A   1      43.126  26.754  29.984  1.00  0.00     0.074 A 
ATOM     47  C   UNL A   1      42.753  29.847  35.553  1.00  0.00     0.029 A 
ATOM     48  N   UNL A   1      42.378  29.096  33.492  1.00  0.00    -0.354 N 
ATOM     49  N   UNL A   1      42.940  27.423  31.098  1.00  0.00    -0.248 NA
ATOM     50  C   UNL A   1      44.260  25.824  30.021  1.00  0.00     0.031 C 
ATOM     51  C   UNL A   1      43.717  28.879  35.246  1.00  0.00     0.029 A 
ATOM     52  C   UNL A   1      43.465  28.391  33.972  1.00  0.00     0.049 A 
ATOM     53  H   UNL A   1      41.978  28.979  32.600  1.00  0.00     0.167 HD
ATOM     54  C   UNL A   1      43.907  26.965  31.984  1.00  0.00     0.074 A 
ATOM     55  C   UNL A   1      44.661  25.946  31.278  1.00  0.00     0.031 C 
ATOM     56  C   UNL A   1      44.161  27.353  33.258  1.00  0.00     0.034 A 
BRANCH  43  57
ATOM     57  C   UNL A   1      40.455  31.837  35.381  1.00  0.00     0.023 A 
ATOM     58  C   UNL A   1      41.216  33.010  35.576  1.00  0.00     0.012 A 
ATOM     59  C   UNL A   1      39.348  31.589  36.213  1.00  0.00     0.148 A 
ATOM     60  C   UNL A   1      40.908  33.898  36.607  1.00  0.00     0.002 A 
ATOM     61  C   UNL A   1      39.013  32.506  37.203  1.00  0.00     0.091 A 
ATOM     62  F   UNL A   1      38.654  30.458  36.034  1.00  0.00    -0.205 F 
ATOM     63  C   UNL A   1      39.800  33.651  37.411  1.00  0.00     0.022 A 
BRANCH  61  64
ATOM     64  S   UNL A   1      37.558  32.325  38.238  1.00  0.00     0.127 S 
ATOM     65  O   UNL A   1      36.565  33.091  37.488  1.00  0.00    -0.237 OA
ATOM     66  O   UNL A   1      37.351  30.877  38.222  1.00  0.00    -0.237 OA
ATOM     67  O   UNL A   1      37.917  32.875  39.538  1.00  0.00    -0.744 OA
ENDBRANCH  61  64
ENDBRANCH  43  57
BRANCH  44  68
ATOM     68  C   UNL A   1      42.666  25.935  27.545  1.00  0.00     0.023 A 
ATOM     69  C   UNL A   1      43.509  26.439  26.536  1.00  0.00     0.012 A 
ATOM     70  C   UNL A   1      42.194  24.612  27.449  1.00  0.00     0.148 A 
ATOM     71  C   UNL A   1      43.841  25.655  25.430  1.00  0.00     0.002 A 
ATOM     72  C   UNL A   1      42.573  23.819  26.375  1.00  0.00     0.091 A 
ATOM     73  F   UNL A   1      41.393  24.154  28.422  1.00  0.00    -0.205 F 
ATOM     74  C   UNL A   1      43.381  24.343  25.354  1.00  0.00     0.022 A 
BRANCH  72  75
ATOM     75  S   UNL A   1      42.137  22.080  26.263  1.00  0.00     0.127 S 
ATOM     76  O   UNL A   1      40.693  22.148  26.053  1.00  0.00    -0.237 OA
ATOM     77  O   UNL A   1      42.912  21.649  25.098  1.00  0.00    -0.237 OA
ATOM     78  O   UNL A   1      42.565  21.484  27.521  1.00  0.00    -0.744 OA
ENDBRANCH  72  75
ENDBRANCH  44  68
BRANCH  56  79
ATOM     79  C   UNL A   1      45.261  26.633  33.988  1.00  0.00     0.023 A 
ATOM     80  C   UNL A   1      46.585  27.112  33.926  1.00  0.00     0.012 A 
ATOM     81  C   UNL A   1      44.967  25.504  34.777  1.00  0.00     0.148 A 
ATOM     82  C   UNL A   1      47.609  26.445  34.596  1.00  0.00     0.002 A 
ATOM     83  C   UNL A   1      45.982  24.881  35.488  1.00  0.00     0.091 A 
ATOM     84  F   UNL A   1      43.703  25.055  34.808  1.00  0.00    -0.205 F 
ATOM     85  C   UNL A   1      47.306  25.337  35.384  1.00  0.00     0.022 A 
BRANCH  83  86
ATOM     86  S   UNL A   1      45.660  23.519  36.612  1.00  0.00     0.127 S 
ATOM     87  O   UNL A   1      44.858  24.170  37.647  1.00  0.00    -0.237 OA
ATOM     88  O   UNL A   1      44.920  22.584  35.763  1.00  0.00    -0.237 OA
ATOM     89  O   UNL A   1      46.966  23.036  37.040  1.00  0.00    -0.744 OA
ENDBRANCH  83  86
ENDBRANCH  56  79
ENDBRANCH  30  31
ENDBRANCH  22  25
ENDBRANCH  20  21
ENDBRANCH   1  20
TORSDOF 15
ENDMDL
MODEL 3
REMARK VINA RESULT:     -11.3      1.318      1.948
REMARK SMILES CN1CC[N@H+](CC(=O)NCCCCNC(=O)c2ccc(-c3c4nc(c(-c5cccc(S(=O)(=O)[O-])c5F)c5ccc([nH]5)c(-c5cccc(S(=O)(=O)[O-])c5F)c5nc(c(-c6cccc(S(=O)(=O)[O-])c6F)c6ccc3[nH]6)C=C5)C=C4)cc2)C(C)(C)C1=O
REMARK SMILES IDX 12 1 11 2 10 3 9 4 7 5 8 6 6 8 5 9 1 10 2 11 3 12 83 13 4 14
REMARK SMILES IDX 80 15 84 16 81 17 82 18 13 20 14 21 15 22 16 24 17 25 18 26
REMARK SMILES IDX 79 27 19 28 78 29 20 30 21 31 22 32 72 33 23 34 77 35 71 36
REMARK SMILES IDX 73 37 24 38 76 39 70 40 69 41 25 43 57 44 37 45 56 46 38 47
REMARK SMILES IDX 41 48 55 49 74 50 39 51 40 52 54 54 75 55 42 56 26 57 27 58
REMARK SMILES IDX 35 59 28 60 30 61 36 62 29 63 31 64 32 65 33 66 34 67 58 68
REMARK SMILES IDX 59 69 67 70 60 71 62 72 68 73 61 74 63 75 64 76 65 77 66 78
REMARK SMILES IDX 43 79 44 80 52 81 45 82 47 83 53 84 46 85 48 86 49 87 50 88
REMARK SMILES IDX 51 89
REMARK H PARENT 9 7 5 19 14 23 73 42 41 53
REMARK Flexibility Score: inf
ROOT
ATOM      1  C   UNL A   1      31.736  28.854  26.578  1.00  0.00     0.023 C 
ENDROOT
BRANCH   1   2
ATOM      2  C   UNL A   1      31.959  27.375  26.298  1.00  0.00     0.023 C 
BRANCH   2   3
ATOM      3  C   UNL A   1      30.804  26.622  25.643  1.00  0.00     0.116 C 
BRANCH   3   4
ATOM      4  N   UNL A   1      30.371  25.437  26.368  1.00  0.00    -0.351 N 
ATOM      5  C   UNL A   1      30.852  24.167  26.486  1.00  0.00     0.275 C 
ATOM      6  O   UNL A   1      30.319  23.456  27.347  1.00  0.00    -0.269 OA
ATOM      7  H   UNL A   1      29.549  25.585  26.889  1.00  0.00     0.163 HD
BRANCH   5   8
ATOM      8  C   UNL A   1      32.026  23.618  25.662  1.00  0.00     0.364 C 
BRANCH   8   9
ATOM      9  N   UNL A   1      33.407  23.763  26.223  1.00  0.00    -0.314 N 
ATOM     10  C   UNL A   1      35.610  20.245  24.987  1.00  0.00     0.147 C 
ATOM     11  N   UNL A   1      34.968  21.469  25.437  1.00  0.00    -0.335 N 
ATOM     12  C   UNL A   1      34.225  21.405  26.690  1.00  0.00     0.180 C 
ATOM     13  C   UNL A   1      34.867  22.560  24.566  1.00  0.00     0.283 C 
ATOM     14  C   UNL A   1      33.757  22.759  27.232  1.00  0.00     0.285 C 
ATOM     15  C   UNL A   1      34.504  23.937  25.235  1.00  0.00     0.172 C 
ATOM     16  O   UNL A   1      35.254  22.472  23.404  1.00  0.00    -0.268 OA
ATOM     17  C   UNL A   1      35.890  24.327  25.823  1.00  0.00     0.090 C 
ATOM     18  C   UNL A   1      34.173  25.188  24.393  1.00  0.00     0.090 C 
ATOM     19  H   UNL A   1      33.334  24.664  26.696  1.00  0.00     0.349 HD
ENDBRANCH   8   9
ENDBRANCH   5   8
ENDBRANCH   3   4
ENDBRANCH   2   3
ENDBRANCH   1   2
BRANCH   1  20
ATOM     20  C   UNL A   1      32.977  29.660  26.327  1.00  0.00     0.116 C 
BRANCH  20  21
ATOM     21  N   UNL A   1      32.740  31.087  26.551  1.00  0.00    -0.352 N 
ATOM     22  C   UNL A   1      33.411  31.933  27.387  1.00  0.00     0.251 C 
ATOM     23  H   UNL A   1      32.004  31.486  26.034  1.00  0.00     0.163 HD
ATOM     24  O   UNL A   1      32.971  33.060  27.620  1.00  0.00    -0.269 OA
BRANCH  22  25
ATOM     25  C   UNL A   1      34.653  31.460  28.012  1.00  0.00     0.039 A 
ATOM     26  C   UNL A   1      34.763  30.127  28.395  1.00  0.00     0.014 A 
ATOM     27  C   UNL A   1      35.725  32.344  28.169  1.00  0.00     0.014 A 
ATOM     28  C   UNL A   1      35.961  29.688  28.946  1.00  0.00     0.010 A 
ATOM     29  C   UNL A   1      36.960  31.865  28.545  1.00  0.00     0.010 A 
ATOM     30  C   UNL A   1      37.062  30.558  29.021  1.00  0.00    -0.014 A 
BRANCH  30  31
ATOM     31  C   UNL A   1      38.303  30.156  29.706  1.00  0.00     0.031 A 
ATOM     32  C   UNL A   1      38.551  30.634  31.113  1.00  0.00     0.074 A 
ATOM     33  C   UNL A   1      39.197  29.397  29.051  1.00  0.00     0.049 A 
ATOM     34  N   UNL A   1      39.552  30.366  31.905  1.00  0.00    -0.248 NA
ATOM     35  C   UNL A   1      37.568  31.569  31.698  1.00  0.00     0.031 C 
ATOM     36  C   UNL A   1      39.089  28.976  27.651  1.00  0.00     0.029 A 
ATOM     37  N   UNL A   1      40.372  28.845  29.477  1.00  0.00    -0.354 N 
ATOM     38  C   UNL A   1      39.336  31.118  33.053  1.00  0.00     0.074 A 
ATOM     39  C   UNL A   1      38.153  31.912  32.833  1.00  0.00     0.031 C 
ATOM     40  C   UNL A   1      40.140  28.198  27.347  1.00  0.00     0.029 A 
ATOM     41  C   UNL A   1      41.000  28.090  28.519  1.00  0.00     0.049 A 
ATOM     42  H   UNL A   1      40.733  28.977  30.384  1.00  0.00     0.167 HD
ATOM     43  C   UNL A   1      40.033  31.111  34.212  1.00  0.00     0.034 A 
ATOM     44  C   UNL A   1      42.140  27.379  28.594  1.00  0.00     0.034 A 
ATOM     45  C   UNL A   1      41.177  30.274  34.428  1.00  0.00     0.049 A 
ATOM     46  C   UNL A   1      42.854  27.324  29.915  1.00  0.00     0.074 A 
ATOM     47  C   UNL A   1      41.925  30.115  35.577  1.00  0.00     0.029 A 
ATOM     48  N   UNL A   1      41.736  29.449  33.463  1.00  0.00    -0.354 N 
ATOM     49  N   UNL A   1      42.555  27.927  31.042  1.00  0.00    -0.248 NA
ATOM     50  C   UNL A   1      44.032  26.452  29.992  1.00  0.00     0.031 C 
ATOM     51  C   UNL A   1      42.959  29.215  35.298  1.00  0.00     0.029 A 
ATOM     52  C   UNL A   1      42.823  28.778  33.988  1.00  0.00     0.049 A 
ATOM     53  H   UNL A   1      41.407  29.356  32.540  1.00  0.00     0.167 HD
ATOM     54  C   UNL A   1      43.481  27.476  31.974  1.00  0.00     0.074 A 
ATOM     55  C   UNL A   1      44.336  26.532  31.279  1.00  0.00     0.031 C 
ATOM     56  C   UNL A   1      43.623  27.813  33.280  1.00  0.00     0.034 A 
BRANCH  43  57
ATOM     57  C   UNL A   1      39.540  31.992  35.330  1.00  0.00     0.023 A 
ATOM     58  C   UNL A   1      38.620  31.486  36.273  1.00  0.00     0.012 A 
ATOM     59  C   UNL A   1      40.003  33.314  35.461  1.00  0.00     0.148 A 
ATOM     60  C   UNL A   1      38.137  32.293  37.303  1.00  0.00     0.002 A 
ATOM     61  C   UNL A   1      39.558  34.096  36.522  1.00  0.00     0.091 A 
ATOM     62  F   UNL A   1      40.853  33.789  34.541  1.00  0.00    -0.205 F 
ATOM     63  C   UNL A   1      38.615  33.593  37.434  1.00  0.00     0.022 A 
BRANCH  61  64
ATOM     64  S   UNL A   1      40.175  35.754  36.829  1.00  0.00     0.127 S 
ATOM     65  O   UNL A   1      39.657  36.480  35.670  1.00  0.00    -0.237 OA
ATOM     66  O   UNL A   1      39.531  36.089  38.098  1.00  0.00    -0.237 OA
ATOM     67  O   UNL A   1      41.625  35.638  36.893  1.00  0.00    -0.744 OA
ENDBRANCH  61  64
ENDBRANCH  43  57
BRANCH  44  68
ATOM     68  C   UNL A   1      42.612  26.604  27.415  1.00  0.00     0.023 A 
ATOM     69  C   UNL A   1      43.453  27.216  26.466  1.00  0.00     0.012 A 
ATOM     70  C   UNL A   1      42.261  25.251  27.250  1.00  0.00     0.148 A 
ATOM     71  C   UNL A   1      43.904  26.506  25.352  1.00  0.00     0.002 A 
ATOM     72  C   UNL A   1      42.758  24.534  26.170  1.00  0.00     0.091 A 
ATOM     73  F   UNL A   1      41.458  24.689  28.166  1.00  0.00    -0.205 F 
ATOM     74  C   UNL A   1      43.564  25.163  25.209  1.00  0.00     0.022 A 
BRANCH  72  75
ATOM     75  S   UNL A   1      42.480  22.769  25.978  1.00  0.00     0.127 S 
ATOM     76  O   UNL A   1      43.022  22.526  24.643  1.00  0.00    -0.237 OA
ATOM     77  O   UNL A   1      43.273  22.218  27.077  1.00  0.00    -0.237 OA
ATOM     78  O   UNL A   1      41.043  22.579  26.121  1.00  0.00    -0.744 OA
ENDBRANCH  72  75
ENDBRANCH  44  68
BRANCH  56  79
ATOM     79  C   UNL A   1      44.707  27.115  34.054  1.00  0.00     0.023 A 
ATOM     80  C   UNL A   1      46.024  27.615  34.038  1.00  0.00     0.012 A 
ATOM     81  C   UNL A   1      44.402  25.986  34.838  1.00  0.00     0.148 A 
ATOM     82  C   UNL A   1      47.033  26.967  34.749  1.00  0.00     0.002 A 
ATOM     83  C   UNL A   1      45.400  25.382  35.590  1.00  0.00     0.091 A 
ATOM     84  F   UNL A   1      43.145  25.516  34.826  1.00  0.00    -0.205 F 
ATOM     85  C   UNL A   1      46.719  25.859  35.532  1.00  0.00     0.022 A 
BRANCH  83  86
ATOM     86  S   UNL A   1      45.058  24.021  36.709  1.00  0.00     0.127 S 
ATOM     87  O   UNL A   1      44.133  24.641  37.658  1.00  0.00    -0.237 OA
ATOM     88  O   UNL A   1      44.449  23.033  35.819  1.00  0.00    -0.237 OA
ATOM     89  O   UNL A   1      46.346  23.621  37.258  1.00  0.00    -0.744 OA
ENDBRANCH  83  86
ENDBRANCH  56  79
ENDBRANCH  30  31
ENDBRANCH  22  25
ENDBRANCH  20  21
ENDBRANCH   1  20
TORSDOF 15
ENDMDL
