MODEL 1
REMARK VINA RESULT:     -13.2      0.000      0.000
REMARK SMILES Cc1ccc(-c2c(C)sc(NC(=O)[C@H]3CC=CC[C@H]3C(=O)NCCCCNC(=O)c3ccc(-c4c5nc(c(-c6cccc(S(=O)(=O)[O-])c6F)c6ccc([nH]6)c(-c6cccc(S(=O)(=O)[O-])c6F)c6nc(c(-c7cccc(S(=O)(=O)[O-])c7F)c7ccc4[nH]7)C=C6)C=C5)cc3)c2C(N)=O)cc1
REMARK SMILES IDX 24 1 23 2 22 3 20 4 21 5 19 7 14 8 15 9 16 10 18 11 17 12
REMARK SMILES IDX 12 13 11 14 13 16 10 17 6 18 7 19 93 20 8 21 9 22 5 23 1 24
REMARK SMILES IDX 2 25 3 26 98 27 4 28 97 29 94 30 95 31 96 32 25 35 26 36
REMARK SMILES IDX 27 37 28 38 29 40 30 41 31 42 92 43 32 44 91 45 33 46 34 47
REMARK SMILES IDX 35 48 85 49 36 50 90 51 84 52 86 53 37 54 89 55 83 56 82 57
REMARK SMILES IDX 38 59 70 60 50 61 69 62 51 63 54 64 68 65 87 66 52 67 53 68
REMARK SMILES IDX 67 70 88 71 55 72 39 73 40 74 48 75 41 76 43 77 49 78 42 79
REMARK SMILES IDX 44 80 45 81 46 82 47 83 71 84 72 85 80 86 73 87 75 88 81 89
REMARK SMILES IDX 74 90 76 91 77 92 78 93 79 94 56 95 57 96 65 97 58 98 60 99
REMARK SMILES IDX 66 100 59 101 61 102 62 103 63 104 64 105
REMARK H PARENT 22 6 11 15 95 33 95 34 27 39 86 58 54 69
REMARK Flexibility Score: inf
ROOT
ATOM      1  C   UNL A   1      31.642  28.824  26.591  1.00  0.00     0.023 C 
ENDROOT
BRANCH   1   2
ATOM      2  C   UNL A   1      32.287  27.463  26.856  1.00  0.00     0.116 C 
BRANCH   2   3
ATOM      3  N   UNL A   1      33.226  27.138  25.824  1.00  0.00    -0.356 N 
ATOM      4  C   UNL A   1      33.853  25.974  25.569  1.00  0.00     0.224 C 
ATOM      5  O   UNL A   1      34.834  26.033  24.820  1.00  0.00    -0.275 OA
ATOM      6  H   UNL A   1      33.446  27.877  25.212  1.00  0.00     0.163 HD
BRANCH   4   7
ATOM      7  C   UNL A   1      33.368  24.624  26.080  1.00  0.00     0.095 C 
ATOM      8  C   UNL A   1      31.883  24.210  26.077  1.00  0.00     0.095 C 
ATOM      9  C   UNL A   1      31.673  23.224  27.247  1.00  0.00     0.041 C 
ATOM     10  C   UNL A   1      32.846  22.293  27.489  1.00  0.00    -0.030 C 
ATOM     11  C   UNL A   1      34.328  23.467  25.840  1.00  0.00     0.041 C 
ATOM     12  C   UNL A   1      34.011  22.366  26.820  1.00  0.00    -0.030 C 
BRANCH   8  13
ATOM     13  C   UNL A   1      31.071  23.844  24.798  1.00  0.00     0.229 C 
ATOM     14  N   UNL A   1      30.259  24.627  24.029  1.00  0.00    -0.317 N 
ATOM     15  H   UNL A   1      29.452  24.173  23.696  1.00  0.00     0.170 HD
ATOM     16  O   UNL A   1      31.101  22.654  24.434  1.00  0.00    -0.274 OA
BRANCH  14  17
ATOM     17  C   UNL A   1      30.374  25.945  23.635  1.00  0.00     0.109 A 
ATOM     18  C   UNL A   1      30.143  28.209  23.117  1.00  0.00     0.010 A 
ATOM     19  C   UNL A   1      31.468  27.946  22.799  1.00  0.00     0.012 A 
ATOM     20  C   UNL A   1      29.454  26.997  23.578  1.00  0.00     0.082 A 
ATOM     21  C   UNL A   1      32.628  28.839  22.513  1.00  0.00     0.057 C 
ATOM     22  S   UNL A   1      31.624  26.279  22.532  1.00  0.00    -0.122 S 
BRANCH  18  23
ATOM     23  C   UNL A   1      29.594  29.530  22.823  1.00  0.00    -0.016 A 
ATOM     24  C   UNL A   1      28.048  33.507  22.209  1.00  0.00     0.044 C 
ATOM     25  C   UNL A   1      28.557  32.114  22.427  1.00  0.00    -0.051 A 
ATOM     26  C   UNL A   1      28.656  31.208  21.357  1.00  0.00     0.004 A 
ATOM     27  C   UNL A   1      28.982  31.717  23.694  1.00  0.00     0.004 A 
ATOM     28  C   UNL A   1      29.165  29.917  21.553  1.00  0.00     0.009 A 
ATOM     29  C   UNL A   1      29.508  30.445  23.884  1.00  0.00     0.009 A 
ENDBRANCH  18  23
BRANCH  20  30
ATOM     30  C   UNL A   1      28.020  26.936  23.875  1.00  0.00     0.252 C 
ATOM     31  N   UNL A   1      27.198  27.822  23.238  1.00  0.00    -0.365 N 
ATOM     32  O   UNL A   1      27.524  26.165  24.681  1.00  0.00    -0.269 OA
ATOM     33  H   UNL A   1      27.571  28.456  22.583  1.00  0.00     0.159 HD
ATOM     34  H   UNL A   1      26.233  27.827  23.434  1.00  0.00     0.159 HD
ENDBRANCH  20  30
ENDBRANCH  14  17
ENDBRANCH   8  13
ENDBRANCH   4   7
ENDBRANCH   2   3
ENDBRANCH   1   2
BRANCH   1  35
ATOM     35  C   UNL A   1      32.531  30.070  26.704  1.00  0.00     0.023 C 
BRANCH  35  36
ATOM     36  C   UNL A   1      33.853  29.871  27.419  1.00  0.00     0.116 C 
BRANCH  36  37
ATOM     37  N   UNL A   1      34.708  31.052  27.295  1.00  0.00    -0.352 N 
ATOM     38  C   UNL A   1      35.946  31.300  27.856  1.00  0.00     0.251 C 
ATOM     39  H   UNL A   1      34.349  31.774  26.732  1.00  0.00     0.163 HD
ATOM     40  O   UNL A   1      36.312  32.459  28.011  1.00  0.00    -0.269 OA
BRANCH  38  41
ATOM     41  C   UNL A   1      36.843  30.168  28.135  1.00  0.00     0.039 A 
ATOM     42  C   UNL A   1      36.786  29.395  29.294  1.00  0.00     0.014 A 
ATOM     43  C   UNL A   1      37.900  30.012  27.250  1.00  0.00     0.014 A 
ATOM     44  C   UNL A   1      37.871  28.574  29.596  1.00  0.00     0.010 A 
ATOM     45  C   UNL A   1      38.786  29.003  27.384  1.00  0.00     0.010 A 
ATOM     46  C   UNL A   1      38.893  28.472  28.658  1.00  0.00    -0.014 A 
BRANCH  46  47
ATOM     47  C   UNL A   1      40.224  27.958  28.880  1.00  0.00     0.031 A 
ATOM     48  C   UNL A   1      40.446  26.530  28.776  1.00  0.00     0.074 A 
ATOM     49  C   UNL A   1      41.202  28.894  28.823  1.00  0.00     0.049 A 
ATOM     50  N   UNL A   1      41.545  25.964  29.107  1.00  0.00    -0.248 NA
ATOM     51  C   UNL A   1      39.418  25.611  28.307  1.00  0.00     0.031 C 
ATOM     52  C   UNL A   1      42.587  28.793  28.396  1.00  0.00     0.029 A 
ATOM     53  N   UNL A   1      41.074  30.239  29.169  1.00  0.00    -0.354 N 
ATOM     54  C   UNL A   1      41.498  24.697  28.577  1.00  0.00     0.074 A 
ATOM     55  C   UNL A   1      40.106  24.469  28.283  1.00  0.00     0.031 C 
ATOM     56  C   UNL A   1      43.230  29.930  28.738  1.00  0.00     0.029 A 
ATOM     57  C   UNL A   1      42.325  30.696  29.582  1.00  0.00     0.049 A 
ATOM     58  H   UNL A   1      40.247  30.771  29.128  1.00  0.00     0.167 HD
ATOM     59  C   UNL A   1      42.682  24.110  28.254  1.00  0.00     0.034 A 
ATOM     60  C   UNL A   1      42.493  30.934  30.922  1.00  0.00     0.034 A 
ATOM     61  C   UNL A   1      43.805  24.987  28.672  1.00  0.00     0.049 A 
ATOM     62  C   UNL A   1      43.442  29.937  31.574  1.00  0.00     0.074 A 
ATOM     63  C   UNL A   1      44.648  25.857  27.995  1.00  0.00     0.029 A 
ATOM     64  N   UNL A   1      43.929  25.320  30.017  1.00  0.00    -0.354 N 
ATOM     65  N   UNL A   1      43.964  28.894  30.987  1.00  0.00    -0.248 NA
ATOM     66  C   UNL A   1      43.820  30.022  32.977  1.00  0.00     0.031 C 
ATOM     67  C   UNL A   1      45.252  26.732  28.954  1.00  0.00     0.029 A 
ATOM     68  C   UNL A   1      44.808  26.377  30.217  1.00  0.00     0.049 A 
ATOM     69  H   UNL A   1      43.450  24.859  30.744  1.00  0.00     0.167 HD
ATOM     70  C   UNL A   1      44.582  28.088  31.909  1.00  0.00     0.074 A 
ATOM     71  C   UNL A   1      44.486  28.866  33.139  1.00  0.00     0.031 C 
ATOM     72  C   UNL A   1      45.059  26.835  31.588  1.00  0.00     0.034 A 
BRANCH  59  73
ATOM     73  C   UNL A   1      42.855  22.913  27.327  1.00  0.00     0.023 A 
ATOM     74  C   UNL A   1      42.071  21.774  27.613  1.00  0.00     0.012 A 
ATOM     75  C   UNL A   1      43.742  22.781  26.227  1.00  0.00     0.148 A 
ATOM     76  C   UNL A   1      42.196  20.573  26.904  1.00  0.00     0.002 A 
ATOM     77  C   UNL A   1      43.884  21.577  25.529  1.00  0.00     0.091 A 
ATOM     78  F   UNL A   1      44.442  23.824  25.793  1.00  0.00    -0.205 F 
ATOM     79  C   UNL A   1      43.114  20.467  25.871  1.00  0.00     0.022 A 
BRANCH  77  80
ATOM     80  S   UNL A   1      45.068  21.362  24.182  1.00  0.00     0.127 S 
ATOM     81  O   UNL A   1      44.993  19.919  23.938  1.00  0.00    -0.237 OA
ATOM     82  O   UNL A   1      44.492  22.187  23.123  1.00  0.00    -0.237 OA
ATOM     83  O   UNL A   1      46.361  21.814  24.683  1.00  0.00    -0.744 OA
ENDBRANCH  77  80
ENDBRANCH  59  73
BRANCH  60  84
ATOM     84  C   UNL A   1      41.207  31.432  31.558  1.00  0.00     0.023 A 
ATOM     85  C   UNL A   1      40.589  32.564  30.966  1.00  0.00     0.012 A 
ATOM     86  C   UNL A   1      40.406  30.570  32.332  1.00  0.00     0.148 A 
ATOM     87  C   UNL A   1      39.194  32.681  30.939  1.00  0.00     0.002 A 
ATOM     88  C   UNL A   1      39.019  30.719  32.327  1.00  0.00     0.091 A 
ATOM     89  F   UNL A   1      40.990  29.580  33.019  1.00  0.00    -0.205 F 
ATOM     90  C   UNL A   1      38.407  31.728  31.574  1.00  0.00     0.022 A 
BRANCH  88  91
ATOM     91  S   UNL A   1      37.982  29.559  33.226  1.00  0.00     0.127 S 
ATOM     92  O   UNL A   1      38.192  29.986  34.607  1.00  0.00    -0.237 OA
ATOM     93  O   UNL A   1      36.640  29.829  32.707  1.00  0.00    -0.237 OA
ATOM     94  O   UNL A   1      38.503  28.249  32.863  1.00  0.00    -0.744 OA
ENDBRANCH  88  91
ENDBRANCH  60  84
BRANCH  72  95
ATOM     95  C   UNL A   1      45.738  25.862  32.557  1.00  0.00     0.023 A 
ATOM     96  C   UNL A   1      47.132  25.707  32.625  1.00  0.00     0.012 A 
ATOM     97  C   UNL A   1      44.989  25.014  33.423  1.00  0.00     0.148 A 
ATOM     98  C   UNL A   1      47.753  24.907  33.594  1.00  0.00     0.002 A 
ATOM     99  C   UNL A   1      45.601  24.225  34.391  1.00  0.00     0.091 A 
ATOM    100  F   UNL A   1      43.668  24.884  33.266  1.00  0.00    -0.205 F 
ATOM    101  C   UNL A   1      46.987  24.192  34.500  1.00  0.00     0.022 A 
BRANCH  99 102
ATOM    102  S   UNL A   1      44.653  23.209  35.533  1.00  0.00     0.127 S 
ATOM    103  O   UNL A   1      43.852  22.404  34.612  1.00  0.00    -0.237 OA
ATOM    104  O   UNL A   1      45.708  22.472  36.228  1.00  0.00    -0.237 OA
ATOM    105  O   UNL A   1      43.903  24.131  36.375  1.00  0.00    -0.744 OA
ENDBRANCH  99 102
ENDBRANCH  72  95
ENDBRANCH  46  47
ENDBRANCH  38  41
ENDBRANCH  36  37
ENDBRANCH  35  36
ENDBRANCH   1  35
TORSDOF 18
ENDMDL
MODEL 2
REMARK VINA RESULT:     -13.2      3.894      9.820
REMARK SMILES Cc1ccc(-c2c(C)sc(NC(=O)[C@H]3CC=CC[C@H]3C(=O)NCCCCNC(=O)c3ccc(-c4c5nc(c(-c6cccc(S(=O)(=O)[O-])c6F)c6ccc([nH]6)c(-c6cccc(S(=O)(=O)[O-])c6F)c6nc(c(-c7cccc(S(=O)(=O)[O-])c7F)c7ccc4[nH]7)C=C6)C=C5)cc3)c2C(N)=O)cc1
REMARK SMILES IDX 24 1 23 2 22 3 20 4 21 5 19 7 14 8 15 9 16 10 18 11 17 12
REMARK SMILES IDX 12 13 11 14 13 16 10 17 6 18 7 19 93 20 8 21 9 22 5 23 1 24
REMARK SMILES IDX 2 25 3 26 98 27 4 28 97 29 94 30 95 31 96 32 25 35 26 36
REMARK SMILES IDX 27 37 28 38 29 40 30 41 31 42 92 43 32 44 91 45 33 46 34 47
REMARK SMILES IDX 35 48 85 49 36 50 90 51 84 52 86 53 37 54 89 55 83 56 82 57
REMARK SMILES IDX 38 59 70 60 50 61 69 62 51 63 54 64 68 65 87 66 52 67 53 68
REMARK SMILES IDX 67 70 88 71 55 72 39 73 40 74 48 75 41 76 43 77 49 78 42 79
REMARK SMILES IDX 44 80 45 81 46 82 47 83 71 84 72 85 80 86 73 87 75 88 81 89
REMARK SMILES IDX 74 90 76 91 77 92 78 93 79 94 56 95 57 96 65 97 58 98 60 99
REMARK SMILES IDX 66 100 59 101 61 102 62 103 63 104 64 105
REMARK H PARENT 22 6 11 15 95 33 95 34 27 39 86 58 54 69
REMARK Flexibility Score: inf
ROOT
ATOM      1  C   UNL A   1      36.180  24.179  26.066  1.00  0.00     0.023 C 
ENDROOT
BRANCH   1   2
ATOM      2  C   UNL A   1      34.923  24.721  25.384  1.00  0.00     0.116 C 
BRANCH   2   3
ATOM      3  N   UNL A   1      34.266  25.679  26.222  1.00  0.00    -0.356 N 
ATOM      4  C   UNL A   1      33.759  26.887  25.912  1.00  0.00     0.224 C 
ATOM      5  O   UNL A   1      33.521  27.642  26.861  1.00  0.00    -0.275 OA
ATOM      6  H   UNL A   1      34.173  25.414  27.166  1.00  0.00     0.163 HD
BRANCH   4   7
ATOM      7  C   UNL A   1      33.401  27.314  24.495  1.00  0.00     0.095 C 
ATOM      8  C   UNL A   1      32.938  26.320  23.411  1.00  0.00     0.095 C 
ATOM      9  C   UNL A   1      33.367  26.891  22.041  1.00  0.00     0.041 C 
ATOM     10  C   UNL A   1      33.275  28.403  21.947  1.00  0.00    -0.030 C 
ATOM     11  C   UNL A   1      32.753  28.687  24.384  1.00  0.00     0.041 C 
ATOM     12  C   UNL A   1      32.945  29.200  22.980  1.00  0.00    -0.030 C 
BRANCH   8  13
ATOM     13  C   UNL A   1      31.544  25.624  23.388  1.00  0.00     0.229 C 
ATOM     14  N   UNL A   1      31.234  24.294  23.398  1.00  0.00    -0.317 N 
ATOM     15  H   UNL A   1      30.471  24.050  22.826  1.00  0.00     0.170 HD
ATOM     16  O   UNL A   1      30.548  26.363  23.288  1.00  0.00    -0.274 OA
BRANCH  14  17
ATOM     17  C   UNL A   1      31.805  23.232  24.069  1.00  0.00     0.109 A 
ATOM     18  C   UNL A   1      32.830  21.264  24.793  1.00  0.00     0.010 A 
ATOM     19  C   UNL A   1      32.653  21.978  25.970  1.00  0.00     0.012 A 
ATOM     20  C   UNL A   1      32.278  21.988  23.641  1.00  0.00     0.082 A 
ATOM     21  C   UNL A   1      33.211  21.807  27.341  1.00  0.00     0.057 C 
ATOM     22  S   UNL A   1      31.410  23.104  25.719  1.00  0.00    -0.122 S 
BRANCH  18  23
ATOM     23  C   UNL A   1      33.363  19.906  24.864  1.00  0.00    -0.016 A 
ATOM     24  C   UNL A   1      34.673  15.806  25.093  1.00  0.00     0.044 C 
ATOM     25  C   UNL A   1      34.225  17.235  25.043  1.00  0.00    -0.051 A 
ATOM     26  C   UNL A   1      35.131  18.263  24.730  1.00  0.00     0.004 A 
ATOM     27  C   UNL A   1      32.886  17.554  25.264  1.00  0.00     0.004 A 
ATOM     28  C   UNL A   1      34.705  19.596  24.648  1.00  0.00     0.009 A 
ATOM     29  C   UNL A   1      32.459  18.872  25.160  1.00  0.00     0.009 A 
ENDBRANCH  18  23
BRANCH  20  30
ATOM     30  C   UNL A   1      32.213  21.436  22.284  1.00  0.00     0.252 C 
ATOM     31  N   UNL A   1      32.581  22.246  21.247  1.00  0.00    -0.365 N 
ATOM     32  O   UNL A   1      31.818  20.311  22.025  1.00  0.00    -0.269 OA
ATOM     33  H   UNL A   1      32.903  23.160  21.426  1.00  0.00     0.159 HD
ATOM     34  H   UNL A   1      32.523  21.917  20.321  1.00  0.00     0.159 HD
ENDBRANCH  20  30
ENDBRANCH  14  17
ENDBRANCH   8  13
ENDBRANCH   4   7
ENDBRANCH   2   3
ENDBRANCH   1   2
BRANCH   1  35
ATOM     35  C   UNL A   1      36.586  22.729  25.766  1.00  0.00     0.023 C 
BRANCH  35  36
ATOM     36  C   UNL A   1      38.001  22.535  25.257  1.00  0.00     0.116 C 
BRANCH  36  37
ATOM     37  N   UNL A   1      38.886  22.052  26.318  1.00  0.00    -0.352 N 
ATOM     38  C   UNL A   1      39.910  22.709  26.972  1.00  0.00     0.251 C 
ATOM     39  H   UNL A   1      38.729  21.124  26.607  1.00  0.00     0.163 HD
ATOM     40  O   UNL A   1      40.803  22.054  27.495  1.00  0.00    -0.269 OA
BRANCH  38  41
ATOM     41  C   UNL A   1      39.833  24.169  27.131  1.00  0.00     0.039 A 
ATOM     42  C   UNL A   1      40.404  25.082  26.244  1.00  0.00     0.014 A 
ATOM     43  C   UNL A   1      39.310  24.612  28.337  1.00  0.00     0.014 A 
ATOM     44  C   UNL A   1      40.549  26.404  26.658  1.00  0.00     0.010 A 
ATOM     45  C   UNL A   1      39.170  25.927  28.603  1.00  0.00     0.010 A 
ATOM     46  C   UNL A   1      39.998  26.770  27.882  1.00  0.00    -0.014 A 
BRANCH  46  47
ATOM     47  C   UNL A   1      40.294  27.961  28.643  1.00  0.00     0.031 A 
ATOM     48  C   UNL A   1      39.381  29.083  28.565  1.00  0.00     0.074 A 
ATOM     49  C   UNL A   1      41.212  27.784  29.624  1.00  0.00     0.049 A 
ATOM     50  N   UNL A   1      39.633  30.230  29.072  1.00  0.00    -0.248 NA
ATOM     51  C   UNL A   1      38.103  29.003  27.871  1.00  0.00     0.031 C 
ATOM     52  C   UNL A   1      41.356  28.434  30.915  1.00  0.00     0.029 A 
ATOM     53  N   UNL A   1      42.268  26.873  29.608  1.00  0.00    -0.354 N 
ATOM     54  C   UNL A   1      38.440  30.913  29.085  1.00  0.00     0.074 A 
ATOM     55  C   UNL A   1      37.595  30.203  28.159  1.00  0.00     0.031 C 
ATOM     56  C   UNL A   1      42.552  28.093  31.441  1.00  0.00     0.029 A 
ATOM     57  C   UNL A   1      43.291  27.389  30.403  1.00  0.00     0.049 A 
ATOM     58  H   UNL A   1      42.287  26.018  29.121  1.00  0.00     0.167 HD
ATOM     59  C   UNL A   1      38.269  31.853  30.054  1.00  0.00     0.034 A 
ATOM     60  C   UNL A   1      44.407  27.858  29.760  1.00  0.00     0.034 A 
ATOM     61  C   UNL A   1      39.520  31.994  30.841  1.00  0.00     0.049 A 
ATOM     62  C   UNL A   1      44.543  29.372  29.862  1.00  0.00     0.074 A 
ATOM     63  C   UNL A   1      39.930  31.536  32.085  1.00  0.00     0.029 A 
ATOM     64  N   UNL A   1      40.686  32.372  30.182  1.00  0.00    -0.354 N 
ATOM     65  N   UNL A   1      43.660  30.176  30.391  1.00  0.00    -0.248 NA
ATOM     66  C   UNL A   1      45.678  30.093  29.307  1.00  0.00     0.031 C 
ATOM     67  C   UNL A   1      41.358  31.620  32.146  1.00  0.00     0.029 A 
ATOM     68  C   UNL A   1      41.819  32.158  30.956  1.00  0.00     0.049 A 
ATOM     69  H   UNL A   1      40.706  32.748  29.272  1.00  0.00     0.167 HD
ATOM     70  C   UNL A   1      43.982  31.481  30.119  1.00  0.00     0.074 A 
ATOM     71  C   UNL A   1      45.279  31.367  29.461  1.00  0.00     0.031 C 
ATOM     72  C   UNL A   1      43.129  32.525  30.405  1.00  0.00     0.034 A 
BRANCH  59  73
ATOM     73  C   UNL A   1      36.933  32.441  30.493  1.00  0.00     0.023 A 
ATOM     74  C   UNL A   1      36.503  32.122  31.799  1.00  0.00     0.012 A 
ATOM     75  C   UNL A   1      36.040  33.243  29.737  1.00  0.00     0.148 A 
ATOM     76  C   UNL A   1      35.255  32.513  32.300  1.00  0.00     0.002 A 
ATOM     77  C   UNL A   1      34.785  33.619  30.225  1.00  0.00     0.091 A 
ATOM     78  F   UNL A   1      36.392  33.703  28.540  1.00  0.00    -0.205 F 
ATOM     79  C   UNL A   1      34.387  33.250  31.509  1.00  0.00     0.022 A 
BRANCH  77  80
ATOM     80  S   UNL A   1      33.598  34.567  29.247  1.00  0.00     0.127 S 
ATOM     81  O   UNL A   1      34.418  35.684  28.772  1.00  0.00    -0.237 OA
ATOM     82  O   UNL A   1      33.214  33.612  28.209  1.00  0.00    -0.237 OA
ATOM     83  O   UNL A   1      32.525  34.958  30.153  1.00  0.00    -0.744 OA
ENDBRANCH  77  80
ENDBRANCH  59  73
BRANCH  60  84
ATOM     84  C   UNL A   1      44.695  27.057  28.502  1.00  0.00     0.023 A 
ATOM     85  C   UNL A   1      43.973  27.409  27.331  1.00  0.00     0.012 A 
ATOM     86  C   UNL A   1      45.918  26.378  28.346  1.00  0.00     0.148 A 
ATOM     87  C   UNL A   1      44.572  27.314  26.070  1.00  0.00     0.002 A 
ATOM     88  C   UNL A   1      46.489  26.257  27.078  1.00  0.00     0.091 A 
ATOM     89  F   UNL A   1      46.546  25.907  29.430  1.00  0.00    -0.205 F 
ATOM     90  C   UNL A   1      45.852  26.788  25.950  1.00  0.00     0.022 A 
BRANCH  88  91
ATOM     91  S   UNL A   1      48.100  25.487  26.881  1.00  0.00     0.127 S 
ATOM     92  O   UNL A   1      48.358  25.703  25.460  1.00  0.00    -0.237 OA
ATOM     93  O   UNL A   1      48.961  26.261  27.777  1.00  0.00    -0.237 OA
ATOM     94  O   UNL A   1      47.897  24.108  27.303  1.00  0.00    -0.744 OA
ENDBRANCH  88  91
ENDBRANCH  60  84
BRANCH  72  95
ATOM     95  C   UNL A   1      43.397  34.005  30.114  1.00  0.00     0.023 A 
ATOM     96  C   UNL A   1      43.455  34.979  31.123  1.00  0.00     0.012 A 
ATOM     97  C   UNL A   1      43.558  34.495  28.785  1.00  0.00     0.148 A 
ATOM     98  C   UNL A   1      43.819  36.308  30.865  1.00  0.00     0.002 A 
ATOM     99  C   UNL A   1      43.927  35.809  28.525  1.00  0.00     0.091 A 
ATOM    100  F   UNL A   1      43.267  33.717  27.738  1.00  0.00    -0.205 F 
ATOM    101  C   UNL A   1      44.089  36.715  29.569  1.00  0.00     0.022 A 
BRANCH  99 102
ATOM    102  S   UNL A   1      44.202  36.412  26.853  1.00  0.00     0.127 S 
ATOM    103  O   UNL A   1      42.876  36.241  26.260  1.00  0.00    -0.237 OA
ATOM    104  O   UNL A   1      44.589  37.802  27.092  1.00  0.00    -0.237 OA
ATOM    105  O   UNL A   1      45.255  35.579  26.287  1.00  0.00    -0.744 OA
ENDBRANCH  99 102
ENDBRANCH  72  95
ENDBRANCH  46  47
ENDBRANCH  38  41
ENDBRANCH  36  37
ENDBRANCH  35  36
ENDBRANCH   1  35
TORSDOF 18
ENDMDL
MODEL 3
REMARK VINA RESULT:     -12.7      4.063      9.751
REMARK SMILES Cc1ccc(-c2c(C)sc(NC(=O)[C@H]3CC=CC[C@H]3C(=O)NCCCCNC(=O)c3ccc(-c4c5nc(c(-c6cccc(S(=O)(=O)[O-])c6F)c6ccc([nH]6)c(-c6cccc(S(=O)(=O)[O-])c6F)c6nc(c(-c7cccc(S(=O)(=O)[O-])c7F)c7ccc4[nH]7)C=C6)C=C5)cc3)c2C(N)=O)cc1
REMARK SMILES IDX 24 1 23 2 22 3 20 4 21 5 19 7 14 8 15 9 16 10 18 11 17 12
REMARK SMILES IDX 12 13 11 14 13 16 10 17 6 18 7 19 93 20 8 21 9 22 5 23 1 24
REMARK SMILES IDX 2 25 3 26 98 27 4 28 97 29 94 30 95 31 96 32 25 35 26 36
REMARK SMILES IDX 27 37 28 38 29 40 30 41 31 42 92 43 32 44 91 45 33 46 34 47
REMARK SMILES IDX 35 48 85 49 36 50 90 51 84 52 86 53 37 54 89 55 83 56 82 57
REMARK SMILES IDX 38 59 70 60 50 61 69 62 51 63 54 64 68 65 87 66 52 67 53 68
REMARK SMILES IDX 67 70 88 71 55 72 39 73 40 74 48 75 41 76 43 77 49 78 42 79
REMARK SMILES IDX 44 80 45 81 46 82 47 83 71 84 72 85 80 86 73 87 75 88 81 89
REMARK SMILES IDX 74 90 76 91 77 92 78 93 79 94 56 95 57 96 65 97 58 98 60 99
REMARK SMILES IDX 66 100 59 101 61 102 62 103 63 104 64 105
REMARK H PARENT 22 6 11 15 95 33 95 34 27 39 86 58 54 69
REMARK Flexibility Score: inf
ROOT
ATOM      1  C   UNL A   1      36.624  22.973  23.756  1.00  0.00     0.023 C 
ENDROOT
BRANCH   1   2
ATOM      2  C   UNL A   1      35.318  23.726  24.011  1.00  0.00     0.116 C 
BRANCH   2   3
ATOM      3  N   UNL A   1      34.936  24.483  22.856  1.00  0.00    -0.356 N 
ATOM      4  C   UNL A   1      33.954  25.392  22.711  1.00  0.00     0.224 C 
ATOM      5  O   UNL A   1      33.635  25.675  21.551  1.00  0.00    -0.275 OA
ATOM      6  H   UNL A   1      35.472  24.311  22.048  1.00  0.00     0.163 HD
BRANCH   4   7
ATOM      7  C   UNL A   1      33.301  26.123  23.876  1.00  0.00     0.095 C 
ATOM      8  C   UNL A   1      31.869  26.693  23.814  1.00  0.00     0.095 C 
ATOM      9  C   UNL A   1      31.812  27.913  24.759  1.00  0.00     0.041 C 
ATOM     10  C   UNL A   1      32.643  27.757  26.019  1.00  0.00    -0.030 C 
ATOM     11  C   UNL A   1      33.698  25.613  25.255  1.00  0.00     0.041 C 
ATOM     12  C   UNL A   1      33.442  26.702  26.265  1.00  0.00    -0.030 C 
BRANCH   8  13
ATOM     13  C   UNL A   1      30.573  25.827  23.831  1.00  0.00     0.229 C 
ATOM     14  N   UNL A   1      30.431  24.470  23.776  1.00  0.00    -0.317 N 
ATOM     15  H   UNL A   1      29.668  24.162  23.237  1.00  0.00     0.170 HD
ATOM     16  O   UNL A   1      29.489  26.439  23.835  1.00  0.00    -0.274 OA
BRANCH  14  17
ATOM     17  C   UNL A   1      31.172  23.455  24.347  1.00  0.00     0.109 A 
ATOM     18  C   UNL A   1      32.501  21.613  24.885  1.00  0.00     0.010 A 
ATOM     19  C   UNL A   1      32.243  22.188  26.121  1.00  0.00     0.012 A 
ATOM     20  C   UNL A   1      31.819  22.340  23.806  1.00  0.00     0.082 A 
ATOM     21  C   UNL A   1      32.852  21.988  27.467  1.00  0.00     0.057 C 
ATOM     22  S   UNL A   1      30.838  23.128  25.982  1.00  0.00    -0.122 S 
BRANCH  18  23
ATOM     23  C   UNL A   1      33.235  20.352  24.831  1.00  0.00    -0.016 A 
ATOM     24  C   UNL A   1      35.161  16.501  24.626  1.00  0.00     0.044 C 
ATOM     25  C   UNL A   1      34.493  17.839  24.728  1.00  0.00    -0.051 A 
ATOM     26  C   UNL A   1      35.252  19.021  24.770  1.00  0.00     0.004 A 
ATOM     27  C   UNL A   1      33.102  17.925  24.737  1.00  0.00     0.004 A 
ATOM     28  C   UNL A   1      34.627  20.275  24.830  1.00  0.00     0.009 A 
ATOM     29  C   UNL A   1      32.482  19.168  24.772  1.00  0.00     0.009 A 
ENDBRANCH  18  23
BRANCH  20  30
ATOM     30  C   UNL A   1      31.809  21.903  22.406  1.00  0.00     0.252 C 
ATOM     31  N   UNL A   1      32.619  22.562  21.525  1.00  0.00    -0.365 N 
ATOM     32  O   UNL A   1      31.095  21.011  21.978  1.00  0.00    -0.269 OA
ATOM     33  H   UNL A   1      33.205  23.287  21.844  1.00  0.00     0.159 HD
ATOM     34  H   UNL A   1      32.616  22.313  20.573  1.00  0.00     0.159 HD
ENDBRANCH  20  30
ENDBRANCH  14  17
ENDBRANCH   8  13
ENDBRANCH   4   7
ENDBRANCH   2   3
ENDBRANCH   1   2
BRANCH   1  35
ATOM     35  C   UNL A   1      37.406  22.468  24.976  1.00  0.00     0.023 C 
BRANCH  35  36
ATOM     36  C   UNL A   1      37.712  23.506  26.036  1.00  0.00     0.116 C 
BRANCH  36  37
ATOM     37  N   UNL A   1      38.809  23.075  26.904  1.00  0.00    -0.352 N 
ATOM     38  C   UNL A   1      39.859  23.810  27.419  1.00  0.00     0.251 C 
ATOM     39  H   UNL A   1      38.798  22.123  27.154  1.00  0.00     0.163 HD
ATOM     40  O   UNL A   1      40.889  23.233  27.746  1.00  0.00    -0.269 OA
BRANCH  38  41
ATOM     41  C   UNL A   1      39.664  25.244  27.682  1.00  0.00     0.039 A 
ATOM     42  C   UNL A   1      40.071  26.258  26.814  1.00  0.00     0.014 A 
ATOM     43  C   UNL A   1      39.210  25.562  28.953  1.00  0.00     0.014 A 
ATOM     44  C   UNL A   1      40.132  27.561  27.303  1.00  0.00     0.010 A 
ATOM     45  C   UNL A   1      38.975  26.840  29.317  1.00  0.00     0.010 A 
ATOM     46  C   UNL A   1      39.658  27.800  28.589  1.00  0.00    -0.014 A 
BRANCH  46  47
ATOM     47  C   UNL A   1      39.910  28.966  29.402  1.00  0.00     0.031 A 
ATOM     48  C   UNL A   1      39.074  30.136  29.220  1.00  0.00     0.074 A 
ATOM     49  C   UNL A   1      40.678  28.732  30.493  1.00  0.00     0.049 A 
ATOM     50  N   UNL A   1      39.315  31.263  29.775  1.00  0.00    -0.248 NA
ATOM     51  C   UNL A   1      37.898  30.130  28.362  1.00  0.00     0.031 C 
ATOM     52  C   UNL A   1      40.681  29.362  31.802  1.00  0.00     0.029 A 
ATOM     53  N   UNL A   1      41.679  27.767  30.603  1.00  0.00    -0.354 N 
ATOM     54  C   UNL A   1      38.167  32.008  29.640  1.00  0.00     0.074 A 
ATOM     55  C   UNL A   1      37.418  31.352  28.599  1.00  0.00     0.031 C 
ATOM     56  C   UNL A   1      41.777  28.954  32.477  1.00  0.00     0.029 A 
ATOM     57  C   UNL A   1      42.611  28.221  31.536  1.00  0.00     0.049 A 
ATOM     58  H   UNL A   1      41.719  26.916  30.110  1.00  0.00     0.167 HD
ATOM     59  C   UNL A   1      37.916  32.947  30.592  1.00  0.00     0.034 A 
ATOM     60  C   UNL A   1      43.826  28.636  31.054  1.00  0.00     0.034 A 
ATOM     61  C   UNL A   1      39.056  33.015  31.541  1.00  0.00     0.049 A 
ATOM     62  C   UNL A   1      44.024  30.139  31.198  1.00  0.00     0.074 A 
ATOM     63  C   UNL A   1      39.272  32.525  32.821  1.00  0.00     0.029 A 
ATOM     64  N   UNL A   1      40.317  33.337  31.049  1.00  0.00    -0.354 N 
ATOM     65  N   UNL A   1      43.121  30.985  31.618  1.00  0.00    -0.248 NA
ATOM     66  C   UNL A   1      45.259  30.805  30.810  1.00  0.00     0.031 C 
ATOM     67  C   UNL A   1      40.681  32.533  33.073  1.00  0.00     0.029 A 
ATOM     68  C   UNL A   1      41.324  33.056  31.964  1.00  0.00     0.049 A 
ATOM     69  H   UNL A   1      40.478  33.719  30.156  1.00  0.00     0.167 HD
ATOM     70  C   UNL A   1      43.543  32.273  31.412  1.00  0.00     0.074 A 
ATOM     71  C   UNL A   1      44.909  32.097  30.931  1.00  0.00     0.031 C 
ATOM     72  C   UNL A   1      42.713  33.358  31.598  1.00  0.00     0.034 A 
BRANCH  59  73
ATOM     73  C   UNL A   1      36.566  33.601  30.859  1.00  0.00     0.023 A 
ATOM     74  C   UNL A   1      36.081  33.530  32.183  1.00  0.00     0.012 A 
ATOM     75  C   UNL A   1      35.707  34.244  29.930  1.00  0.00     0.148 A 
ATOM     76  C   UNL A   1      34.815  34.002  32.551  1.00  0.00     0.002 A 
ATOM     77  C   UNL A   1      34.434  34.699  30.288  1.00  0.00     0.091 A 
ATOM     78  F   UNL A   1      36.109  34.474  28.684  1.00  0.00    -0.205 F 
ATOM     79  C   UNL A   1      33.982  34.574  31.601  1.00  0.00     0.022 A 
BRANCH  77  80
ATOM     80  S   UNL A   1      33.291  35.442  29.103  1.00  0.00     0.127 S 
ATOM     81  O   UNL A   1      34.177  36.318  28.334  1.00  0.00    -0.237 OA
ATOM     82  O   UNL A   1      32.802  34.278  28.367  1.00  0.00    -0.237 OA
ATOM     83  O   UNL A   1      32.282  36.150  29.881  1.00  0.00    -0.744 OA
ENDBRANCH  77  80
ENDBRANCH  59  73
BRANCH  60  84
ATOM     84  C   UNL A   1      44.238  27.832  29.833  1.00  0.00     0.023 A 
ATOM     85  C   UNL A   1      44.279  26.420  29.973  1.00  0.00     0.012 A 
ATOM     86  C   UNL A   1      44.094  28.366  28.539  1.00  0.00     0.148 A 
ATOM     87  C   UNL A   1      43.934  25.589  28.900  1.00  0.00     0.002 A 
ATOM     88  C   UNL A   1      43.786  27.523  27.469  1.00  0.00     0.091 A 
ATOM     89  F   UNL A   1      44.199  29.689  28.363  1.00  0.00    -0.205 F 
ATOM     90  C   UNL A   1      43.635  26.145  27.662  1.00  0.00     0.022 A 
BRANCH  88  91
ATOM     91  S   UNL A   1      43.496  28.206  25.834  1.00  0.00     0.127 S 
ATOM     92  O   UNL A   1      42.763  29.430  26.152  1.00  0.00    -0.237 OA
ATOM     93  O   UNL A   1      44.845  28.428  25.311  1.00  0.00    -0.237 OA
ATOM     94  O   UNL A   1      42.754  27.167  25.133  1.00  0.00    -0.744 OA
ENDBRANCH  88  91
ENDBRANCH  60  84
BRANCH  72  95
ATOM     95  C   UNL A   1      43.093  34.824  31.369  1.00  0.00     0.023 A 
ATOM     96  C   UNL A   1      43.442  35.691  32.417  1.00  0.00     0.012 A 
ATOM     97  C   UNL A   1      43.070  35.416  30.072  1.00  0.00     0.148 A 
ATOM     98  C   UNL A   1      43.905  36.995  32.191  1.00  0.00     0.002 A 
ATOM     99  C   UNL A   1      43.535  36.705  29.843  1.00  0.00     0.091 A 
ATOM    100  F   UNL A   1      42.509  34.770  29.045  1.00  0.00    -0.205 F 
ATOM    101  C   UNL A   1      43.984  37.491  30.900  1.00  0.00     0.022 A 
BRANCH  99 102
ATOM    102  S   UNL A   1      43.575  37.428  28.196  1.00  0.00     0.127 S 
ATOM    103  O   UNL A   1      44.301  38.674  28.442  1.00  0.00    -0.237 OA
ATOM    104  O   UNL A   1      44.325  36.423  27.443  1.00  0.00    -0.237 OA
ATOM    105  O   UNL A   1      42.187  37.582  27.784  1.00  0.00    -0.744 OA
ENDBRANCH  99 102
ENDBRANCH  72  95
ENDBRANCH  46  47
ENDBRANCH  38  41
ENDBRANCH  36  37
ENDBRANCH  35  36
ENDBRANCH   1  35
TORSDOF 18
ENDMDL
