MODEL 1
REMARK VINA RESULT:     -11.2      0.000      0.000
REMARK SMILES CC(C)[C@H](NS(=O)(=O)c1cccc(F)c1)C(=O)NCCCCNC(=O)c1ccc(-c2c3nc(c(-c4cccc(S(=O)(=O)[O-])c4F)c4ccc([nH]4)c(-c4cccc(S(=O)(=O)[O-])c4F)c4nc(c(-c5cccc(S(=O)(=O)[O-])c5F)c5ccc2[nH]5)C=C4)C=C3)cc1
REMARK SMILES IDX 20 1 19 2 18 3 16 4 17 5 4 7 2 8 1 9 3 10 5 11 6 13 7 14
REMARK SMILES IDX 8 15 9 16 10 17 15 18 11 19 13 20 12 21 14 22 21 23 22 24
REMARK SMILES IDX 23 25 24 26 25 28 26 29 27 30 88 31 28 32 87 33 29 34 30 35
REMARK SMILES IDX 31 36 81 37 32 38 86 39 80 40 82 41 33 42 85 43 79 44 78 45
REMARK SMILES IDX 34 47 66 48 46 49 65 50 47 51 50 52 64 53 83 54 48 55 49 56
REMARK SMILES IDX 63 58 84 59 51 60 35 61 36 62 44 63 37 64 39 65 45 66 38 67
REMARK SMILES IDX 40 68 41 69 42 70 43 71 67 72 68 73 76 74 69 75 71 76 77 77
REMARK SMILES IDX 70 78 72 79 73 80 74 81 75 82 52 83 53 84 61 85 54 86 56 87
REMARK SMILES IDX 62 88 55 89 57 90 58 91 59 92 60 93
REMARK H PARENT 18 6 5 12 23 27 82 46 50 57
REMARK Flexibility Score: inf
ROOT
ATOM      1  C   UNL A   1      37.399  20.877  24.592  1.00  0.00     0.023 C 
ENDROOT
BRANCH   1   2
ATOM      2  C   UNL A   1      36.163  21.094  25.453  1.00  0.00     0.116 C 
BRANCH   2   3
ATOM      3  N   UNL A   1      35.085  20.182  25.136  1.00  0.00    -0.355 N 
ATOM      4  C   UNL A   1      33.867  20.432  24.574  1.00  0.00     0.238 C 
ATOM      5  O   UNL A   1      33.216  19.471  24.157  1.00  0.00    -0.273 OA
ATOM      6  H   UNL A   1      35.256  19.238  25.358  1.00  0.00     0.163 HD
BRANCH   4   7
ATOM      7  C   UNL A   1      33.311  21.858  24.460  1.00  0.00     0.161 C 
BRANCH   7   8
ATOM      8  C   UNL A   1      34.067  22.801  23.475  1.00  0.00     0.010 C 
ATOM      9  C   UNL A   1      33.314  23.100  22.174  1.00  0.00     0.009 C 
ATOM     10  C   UNL A   1      34.611  24.115  24.052  1.00  0.00     0.009 C 
ENDBRANCH   7   8
BRANCH   7  11
ATOM     11  N   UNL A   1      33.100  22.440  25.799  1.00  0.00    -0.198 NA
ATOM     12  H   UNL A   1      33.674  23.282  25.838  1.00  0.00     0.142 HD
BRANCH  11  13
ATOM     13  S   UNL A   1      31.585  22.880  26.342  1.00  0.00     0.241 S 
ATOM     14  O   UNL A   1      30.685  21.881  25.811  1.00  0.00    -0.207 OA
ATOM     15  O   UNL A   1      31.680  23.118  27.768  1.00  0.00    -0.207 OA
BRANCH  13  16
ATOM     16  C   UNL A   1      31.222  24.420  25.544  1.00  0.00     0.085 A 
ATOM     17  C   UNL A   1      30.677  24.435  24.254  1.00  0.00     0.022 A 
ATOM     18  C   UNL A   1      31.392  25.611  26.254  1.00  0.00     0.061 A 
ATOM     19  C   UNL A   1      30.337  25.655  23.661  1.00  0.00     0.004 A 
ATOM     20  C   UNL A   1      31.056  26.814  25.647  1.00  0.00     0.124 A 
ATOM     21  C   UNL A   1      30.534  26.848  24.359  1.00  0.00     0.039 A 
ATOM     22  F   UNL A   1      31.225  27.959  26.321  1.00  0.00    -0.207 F 
ENDBRANCH  13  16
ENDBRANCH  11  13
ENDBRANCH   7  11
ENDBRANCH   4   7
ENDBRANCH   2   3
ENDBRANCH   1   2
BRANCH   1  23
ATOM     23  C   UNL A   1      38.181  19.605  24.920  1.00  0.00     0.023 C 
BRANCH  23  24
ATOM     24  C   UNL A   1      39.051  19.677  26.172  1.00  0.00     0.116 C 
BRANCH  24  25
ATOM     25  N   UNL A   1      40.330  18.997  26.019  1.00  0.00    -0.352 N 
ATOM     26  C   UNL A   1      41.600  19.522  26.077  1.00  0.00     0.251 C 
ATOM     27  H   UNL A   1      40.279  18.029  25.850  1.00  0.00     0.163 HD
ATOM     28  O   UNL A   1      42.569  18.825  25.790  1.00  0.00    -0.269 OA
BRANCH  26  29
ATOM     29  C   UNL A   1      41.784  20.938  26.459  1.00  0.00     0.039 A 
ATOM     30  C   UNL A   1      42.181  21.241  27.763  1.00  0.00     0.014 A 
ATOM     31  C   UNL A   1      41.614  21.956  25.518  1.00  0.00     0.014 A 
ATOM     32  C   UNL A   1      42.485  22.562  28.099  1.00  0.00     0.010 A 
ATOM     33  C   UNL A   1      42.000  23.255  25.831  1.00  0.00     0.010 A 
ATOM     34  C   UNL A   1      42.440  23.574  27.124  1.00  0.00    -0.014 A 
BRANCH  34  35
ATOM     35  C   UNL A   1      42.877  24.962  27.431  1.00  0.00     0.031 A 
ATOM     36  C   UNL A   1      41.922  25.936  28.067  1.00  0.00     0.074 A 
ATOM     37  C   UNL A   1      44.107  25.371  27.061  1.00  0.00     0.049 A 
ATOM     38  N   UNL A   1      42.109  27.198  28.353  1.00  0.00    -0.248 NA
ATOM     39  C   UNL A   1      40.577  25.439  28.401  1.00  0.00     0.031 C 
ATOM     40  C   UNL A   1      45.099  24.545  26.368  1.00  0.00     0.029 A 
ATOM     41  N   UNL A   1      44.727  26.590  27.193  1.00  0.00    -0.354 N 
ATOM     42  C   UNL A   1      40.901  27.653  28.867  1.00  0.00     0.074 A 
ATOM     43  C   UNL A   1      39.977  26.543  28.824  1.00  0.00     0.031 C 
ATOM     44  C   UNL A   1      46.202  25.276  26.145  1.00  0.00     0.029 A 
ATOM     45  C   UNL A   1      45.986  26.633  26.640  1.00  0.00     0.049 A 
ATOM     46  H   UNL A   1      44.309  27.361  27.640  1.00  0.00     0.167 HD
ATOM     47  C   UNL A   1      40.597  28.878  29.356  1.00  0.00     0.034 A 
ATOM     48  C   UNL A   1      46.866  27.649  26.528  1.00  0.00     0.034 A 
ATOM     49  C   UNL A   1      41.532  29.968  29.438  1.00  0.00     0.049 A 
ATOM     50  C   UNL A   1      46.514  28.991  27.109  1.00  0.00     0.074 A 
ATOM     51  C   UNL A   1      41.340  31.215  30.006  1.00  0.00     0.029 A 
ATOM     52  N   UNL A   1      42.822  29.950  28.933  1.00  0.00    -0.354 N 
ATOM     53  N   UNL A   1      45.419  29.358  27.727  1.00  0.00    -0.248 NA
ATOM     54  C   UNL A   1      47.530  30.051  27.010  1.00  0.00     0.031 C 
ATOM     55  C   UNL A   1      42.500  31.967  29.806  1.00  0.00     0.029 A 
ATOM     56  C   UNL A   1      43.432  31.171  29.160  1.00  0.00     0.049 A 
ATOM     57  H   UNL A   1      43.241  29.183  28.481  1.00  0.00     0.167 HD
ATOM     58  C   UNL A   1      45.623  30.676  28.117  1.00  0.00     0.074 A 
ATOM     59  C   UNL A   1      46.955  31.040  27.683  1.00  0.00     0.031 C 
ATOM     60  C   UNL A   1      44.776  31.512  28.767  1.00  0.00     0.034 A 
BRANCH  47  61
ATOM     61  C   UNL A   1      39.208  29.108  29.892  1.00  0.00     0.023 A 
ATOM     62  C   UNL A   1      38.892  28.703  31.204  1.00  0.00     0.012 A 
ATOM     63  C   UNL A   1      38.258  29.828  29.141  1.00  0.00     0.148 A 
ATOM     64  C   UNL A   1      37.645  28.995  31.755  1.00  0.00     0.002 A 
ATOM     65  C   UNL A   1      37.037  30.159  29.716  1.00  0.00     0.091 A 
ATOM     66  F   UNL A   1      38.574  30.187  27.888  1.00  0.00    -0.205 F 
ATOM     67  C   UNL A   1      36.725  29.736  31.018  1.00  0.00     0.022 A 
BRANCH  65  68
ATOM     68  S   UNL A   1      35.822  31.190  28.886  1.00  0.00     0.127 S 
ATOM     69  O   UNL A   1      36.667  32.238  28.315  1.00  0.00    -0.237 OA
ATOM     70  O   UNL A   1      35.254  30.263  27.907  1.00  0.00    -0.237 OA
ATOM     71  O   UNL A   1      34.896  31.635  29.917  1.00  0.00    -0.744 OA
ENDBRANCH  65  68
ENDBRANCH  47  61
BRANCH  48  72
ATOM     72  C   UNL A   1      48.188  27.409  25.883  1.00  0.00     0.023 A 
ATOM     73  C   UNL A   1      49.272  26.959  26.663  1.00  0.00     0.012 A 
ATOM     74  C   UNL A   1      48.361  27.567  24.493  1.00  0.00     0.148 A 
ATOM     75  C   UNL A   1      50.509  26.690  26.073  1.00  0.00     0.002 A 
ATOM     76  C   UNL A   1      49.575  27.238  23.904  1.00  0.00     0.091 A 
ATOM     77  F   UNL A   1      47.320  28.007  23.772  1.00  0.00    -0.205 F 
ATOM     78  C   UNL A   1      50.657  26.817  24.694  1.00  0.00     0.022 A 
BRANCH  76  79
ATOM     79  S   UNL A   1      49.812  27.225  22.124  1.00  0.00     0.127 S 
ATOM     80  O   UNL A   1      48.782  26.284  21.692  1.00  0.00    -0.237 OA
ATOM     81  O   UNL A   1      49.555  28.624  21.779  1.00  0.00    -0.237 OA
ATOM     82  O   UNL A   1      51.187  26.796  21.909  1.00  0.00    -0.744 OA
ENDBRANCH  76  79
ENDBRANCH  48  72
BRANCH  60  83
ATOM     83  C   UNL A   1      45.253  32.903  29.092  1.00  0.00     0.023 A 
ATOM     84  C   UNL A   1      45.967  33.141  30.283  1.00  0.00     0.012 A 
ATOM     85  C   UNL A   1      45.100  33.947  28.157  1.00  0.00     0.148 A 
ATOM     86  C   UNL A   1      46.507  34.401  30.544  1.00  0.00     0.002 A 
ATOM     87  C   UNL A   1      45.687  35.182  28.399  1.00  0.00     0.091 A 
ATOM     88  F   UNL A   1      44.404  33.703  27.037  1.00  0.00    -0.205 F 
ATOM     89  C   UNL A   1      46.381  35.414  29.598  1.00  0.00     0.022 A 
BRANCH  87  90
ATOM     90  S   UNL A   1      45.674  36.512  27.191  1.00  0.00     0.127 S 
ATOM     91  O   UNL A   1      46.429  37.553  27.888  1.00  0.00    -0.237 OA
ATOM     92  O   UNL A   1      46.372  35.907  26.057  1.00  0.00    -0.237 OA
ATOM     93  O   UNL A   1      44.272  36.823  26.947  1.00  0.00    -0.744 OA
ENDBRANCH  87  90
ENDBRANCH  60  83
ENDBRANCH  34  35
ENDBRANCH  26  29
ENDBRANCH  24  25
ENDBRANCH  23  24
ENDBRANCH   1  23
TORSDOF 18
ENDMDL
MODEL 2
REMARK VINA RESULT:     -11.1      6.510     11.586
REMARK SMILES CC(C)[C@H](NS(=O)(=O)c1cccc(F)c1)C(=O)NCCCCNC(=O)c1ccc(-c2c3nc(c(-c4cccc(S(=O)(=O)[O-])c4F)c4ccc([nH]4)c(-c4cccc(S(=O)(=O)[O-])c4F)c4nc(c(-c5cccc(S(=O)(=O)[O-])c5F)c5ccc2[nH]5)C=C4)C=C3)cc1
REMARK SMILES IDX 20 1 19 2 18 3 16 4 17 5 4 7 2 8 1 9 3 10 5 11 6 13 7 14
REMARK SMILES IDX 8 15 9 16 10 17 15 18 11 19 13 20 12 21 14 22 21 23 22 24
REMARK SMILES IDX 23 25 24 26 25 28 26 29 27 30 88 31 28 32 87 33 29 34 30 35
REMARK SMILES IDX 31 36 81 37 32 38 86 39 80 40 82 41 33 42 85 43 79 44 78 45
REMARK SMILES IDX 34 47 66 48 46 49 65 50 47 51 50 52 64 53 83 54 48 55 49 56
REMARK SMILES IDX 63 58 84 59 51 60 35 61 36 62 44 63 37 64 39 65 45 66 38 67
REMARK SMILES IDX 40 68 41 69 42 70 43 71 67 72 68 73 76 74 69 75 71 76 77 77
REMARK SMILES IDX 70 78 72 79 73 80 74 81 75 82 52 83 53 84 61 85 54 86 56 87
REMARK SMILES IDX 62 88 55 89 57 90 58 91 59 92 60 93
REMARK H PARENT 18 6 5 12 23 27 82 46 50 57
REMARK Flexibility Score: inf
ROOT
ATOM      1  C   UNL A   1      32.169  30.091  26.813  1.00  0.00     0.023 C 
ENDROOT
BRANCH   1   2
ATOM      2  C   UNL A   1      32.602  29.706  25.405  1.00  0.00     0.116 C 
BRANCH   2   3
ATOM      3  N   UNL A   1      31.516  29.741  24.449  1.00  0.00    -0.355 N 
ATOM      4  C   UNL A   1      30.821  28.714  23.881  1.00  0.00     0.238 C 
ATOM      5  O   UNL A   1      29.769  28.983  23.297  1.00  0.00    -0.273 OA
ATOM      6  H   UNL A   1      31.236  30.642  24.166  1.00  0.00     0.163 HD
BRANCH   4   7
ATOM      7  C   UNL A   1      31.321  27.264  23.956  1.00  0.00     0.161 C 
BRANCH   7   8
ATOM      8  C   UNL A   1      31.900  26.679  22.632  1.00  0.00     0.010 C 
ATOM      9  C   UNL A   1      33.373  27.014  22.376  1.00  0.00     0.009 C 
ATOM     10  C   UNL A   1      31.675  25.183  22.379  1.00  0.00     0.009 C 
ENDBRANCH   7   8
BRANCH   7  11
ATOM     11  N   UNL A   1      30.312  26.402  24.599  1.00  0.00    -0.198 NA
ATOM     12  H   UNL A   1      30.167  25.613  23.970  1.00  0.00     0.142 HD
BRANCH  11  13
ATOM     13  S   UNL A   1      30.545  25.751  26.118  1.00  0.00     0.241 S 
ATOM     14  O   UNL A   1      31.199  26.790  26.882  1.00  0.00    -0.207 OA
ATOM     15  O   UNL A   1      29.285  25.185  26.552  1.00  0.00    -0.207 OA
BRANCH  13  16
ATOM     16  C   UNL A   1      31.704  24.428  25.896  1.00  0.00     0.085 A 
ATOM     17  C   UNL A   1      33.078  24.663  26.029  1.00  0.00     0.022 A 
ATOM     18  C   UNL A   1      31.224  23.132  25.688  1.00  0.00     0.061 A 
ATOM     19  C   UNL A   1      33.976  23.598  25.913  1.00  0.00     0.004 A 
ATOM     20  C   UNL A   1      32.131  22.087  25.568  1.00  0.00     0.124 A 
ATOM     21  C   UNL A   1      33.500  22.307  25.675  1.00  0.00     0.039 A 
ATOM     22  F   UNL A   1      31.676  20.845  25.361  1.00  0.00    -0.207 F 
ENDBRANCH  13  16
ENDBRANCH  11  13
ENDBRANCH   7  11
ENDBRANCH   4   7
ENDBRANCH   2   3
ENDBRANCH   1   2
BRANCH   1  23
ATOM     23  C   UNL A   1      31.855  31.576  26.992  1.00  0.00     0.023 C 
BRANCH  23  24
ATOM     24  C   UNL A   1      33.054  32.462  27.320  1.00  0.00     0.116 C 
BRANCH  24  25
ATOM     25  N   UNL A   1      32.684  33.843  27.602  1.00  0.00    -0.352 N 
ATOM     26  C   UNL A   1      33.165  34.684  28.577  1.00  0.00     0.251 C 
ATOM     27  H   UNL A   1      31.994  34.225  27.014  1.00  0.00     0.163 HD
ATOM     28  O   UNL A   1      32.642  35.780  28.759  1.00  0.00    -0.269 OA
BRANCH  26  29
ATOM     29  C   UNL A   1      34.296  34.246  29.422  1.00  0.00     0.039 A 
ATOM     30  C   UNL A   1      34.047  33.382  30.491  1.00  0.00     0.014 A 
ATOM     31  C   UNL A   1      35.601  34.645  29.125  1.00  0.00     0.014 A 
ATOM     32  C   UNL A   1      35.120  32.857  31.214  1.00  0.00     0.010 A 
ATOM     33  C   UNL A   1      36.670  34.054  29.790  1.00  0.00     0.010 A 
ATOM     34  C   UNL A   1      36.443  33.153  30.841  1.00  0.00    -0.014 A 
BRANCH  34  35
ATOM     35  C   UNL A   1      37.598  32.509  31.520  1.00  0.00     0.031 A 
ATOM     36  C   UNL A   1      38.316  31.357  30.870  1.00  0.00     0.074 A 
ATOM     37  C   UNL A   1      37.948  32.904  32.761  1.00  0.00     0.049 A 
ATOM     38  N   UNL A   1      39.304  30.638  31.336  1.00  0.00    -0.248 NA
ATOM     39  C   UNL A   1      37.852  30.943  29.535  1.00  0.00     0.031 C 
ATOM     40  C   UNL A   1      37.283  33.957  33.531  1.00  0.00     0.029 A 
ATOM     41  N   UNL A   1      38.936  32.453  33.603  1.00  0.00    -0.354 N 
ATOM     42  C   UNL A   1      39.555  29.668  30.373  1.00  0.00     0.074 A 
ATOM     43  C   UNL A   1      38.597  29.869  29.310  1.00  0.00     0.031 C 
ATOM     44  C   UNL A   1      37.884  34.077  34.726  1.00  0.00     0.029 A 
ATOM     45  C   UNL A   1      38.951  33.085  34.825  1.00  0.00     0.049 A 
ATOM     46  H   UNL A   1      39.572  31.743  33.357  1.00  0.00     0.167 HD
ATOM     47  C   UNL A   1      40.514  28.715  30.363  1.00  0.00     0.034 A 
ATOM     48  C   UNL A   1      39.724  32.884  35.912  1.00  0.00     0.034 A 
ATOM     49  C   UNL A   1      41.495  28.545  31.402  1.00  0.00     0.049 A 
ATOM     50  C   UNL A   1      40.805  31.838  35.861  1.00  0.00     0.074 A 
ATOM     51  C   UNL A   1      42.564  27.668  31.432  1.00  0.00     0.029 A 
ATOM     52  N   UNL A   1      41.522  29.254  32.593  1.00  0.00    -0.354 N 
ATOM     53  N   UNL A   1      41.122  31.032  34.879  1.00  0.00    -0.248 NA
ATOM     54  C   UNL A   1      41.656  31.696  37.053  1.00  0.00     0.031 C 
ATOM     55  C   UNL A   1      43.213  27.815  32.659  1.00  0.00     0.029 A 
ATOM     56  C   UNL A   1      42.580  28.819  33.373  1.00  0.00     0.049 A 
ATOM     57  H   UNL A   1      40.885  29.960  32.846  1.00  0.00     0.167 HD
ATOM     58  C   UNL A   1      42.225  30.310  35.319  1.00  0.00     0.074 A 
ATOM     59  C   UNL A   1      42.535  30.787  36.650  1.00  0.00     0.031 C 
ATOM     60  C   UNL A   1      42.911  29.331  34.678  1.00  0.00     0.034 A 
BRANCH  47  61
ATOM     61  C   UNL A   1      40.598  27.798  29.171  1.00  0.00     0.023 A 
ATOM     62  C   UNL A   1      39.669  26.746  29.034  1.00  0.00     0.012 A 
ATOM     63  C   UNL A   1      41.516  28.049  28.133  1.00  0.00     0.148 A 
ATOM     64  C   UNL A   1      39.665  25.947  27.892  1.00  0.00     0.002 A 
ATOM     65  C   UNL A   1      41.471  27.282  26.976  1.00  0.00     0.091 A 
ATOM     66  F   UNL A   1      42.402  29.043  28.292  1.00  0.00    -0.205 F 
ATOM     67  C   UNL A   1      40.554  26.225  26.857  1.00  0.00     0.022 A 
BRANCH  65  68
ATOM     68  S   UNL A   1      42.509  27.617  25.548  1.00  0.00     0.127 S 
ATOM     69  O   UNL A   1      41.955  28.884  25.074  1.00  0.00    -0.237 OA
ATOM     70  O   UNL A   1      43.836  27.721  26.154  1.00  0.00    -0.237 OA
ATOM     71  O   UNL A   1      42.335  26.489  24.646  1.00  0.00    -0.744 OA
ENDBRANCH  65  68
ENDBRANCH  47  61
BRANCH  48  72
ATOM     72  C   UNL A   1      39.531  33.737  37.120  1.00  0.00     0.023 A 
ATOM     73  C   UNL A   1      39.968  35.077  37.103  1.00  0.00     0.012 A 
ATOM     74  C   UNL A   1      38.864  33.246  38.260  1.00  0.00     0.148 A 
ATOM     75  C   UNL A   1      39.762  35.905  38.208  1.00  0.00     0.002 A 
ATOM     76  C   UNL A   1      38.608  34.093  39.331  1.00  0.00     0.091 A 
ATOM     77  F   UNL A   1      38.467  31.966  38.259  1.00  0.00    -0.205 F 
ATOM     78  C   UNL A   1      39.072  35.418  39.315  1.00  0.00     0.022 A 
BRANCH  76  79
ATOM     79  S   UNL A   1      37.598  33.599  40.731  1.00  0.00     0.127 S 
ATOM     80  O   UNL A   1      38.448  32.603  41.378  1.00  0.00    -0.237 OA
ATOM     81  O   UNL A   1      37.460  34.861  41.460  1.00  0.00    -0.237 OA
ATOM     82  O   UNL A   1      36.354  33.095  40.165  1.00  0.00    -0.744 OA
ENDBRANCH  76  79
ENDBRANCH  48  72
BRANCH  60  83
ATOM     83  C   UNL A   1      44.096  28.714  35.376  1.00  0.00     0.023 A 
ATOM     84  C   UNL A   1      45.379  29.268  35.204  1.00  0.00     0.012 A 
ATOM     85  C   UNL A   1      43.913  27.664  36.298  1.00  0.00     0.148 A 
ATOM     86  C   UNL A   1      46.465  28.774  35.927  1.00  0.00     0.002 A 
ATOM     87  C   UNL A   1      44.988  27.214  37.054  1.00  0.00     0.091 A 
ATOM     88  F   UNL A   1      42.685  27.141  36.434  1.00  0.00    -0.205 F 
ATOM     89  C   UNL A   1      46.267  27.761  36.861  1.00  0.00     0.022 A 
BRANCH  87  90
ATOM     90  S   UNL A   1      44.809  25.991  38.358  1.00  0.00     0.127 S 
ATOM     91  O   UNL A   1      46.182  25.874  38.846  1.00  0.00    -0.237 OA
ATOM     92  O   UNL A   1      43.888  26.656  39.280  1.00  0.00    -0.237 OA
ATOM     93  O   UNL A   1      44.273  24.796  37.721  1.00  0.00    -0.744 OA
ENDBRANCH  87  90
ENDBRANCH  60  83
ENDBRANCH  34  35
ENDBRANCH  26  29
ENDBRANCH  24  25
ENDBRANCH  23  24
ENDBRANCH   1  23
TORSDOF 18
ENDMDL
MODEL 3
REMARK VINA RESULT:     -11.0      5.648     10.744
REMARK SMILES CC(C)[C@H](NS(=O)(=O)c1cccc(F)c1)C(=O)NCCCCNC(=O)c1ccc(-c2c3nc(c(-c4cccc(S(=O)(=O)[O-])c4F)c4ccc([nH]4)c(-c4cccc(S(=O)(=O)[O-])c4F)c4nc(c(-c5cccc(S(=O)(=O)[O-])c5F)c5ccc2[nH]5)C=C4)C=C3)cc1
REMARK SMILES IDX 20 1 19 2 18 3 16 4 17 5 4 7 2 8 1 9 3 10 5 11 6 13 7 14
REMARK SMILES IDX 8 15 9 16 10 17 15 18 11 19 13 20 12 21 14 22 21 23 22 24
REMARK SMILES IDX 23 25 24 26 25 28 26 29 27 30 88 31 28 32 87 33 29 34 30 35
REMARK SMILES IDX 31 36 81 37 32 38 86 39 80 40 82 41 33 42 85 43 79 44 78 45
REMARK SMILES IDX 34 47 66 48 46 49 65 50 47 51 50 52 64 53 83 54 48 55 49 56
REMARK SMILES IDX 63 58 84 59 51 60 35 61 36 62 44 63 37 64 39 65 45 66 38 67
REMARK SMILES IDX 40 68 41 69 42 70 43 71 67 72 68 73 76 74 69 75 71 76 77 77
REMARK SMILES IDX 70 78 72 79 73 80 74 81 75 82 52 83 53 84 61 85 54 86 56 87
REMARK SMILES IDX 62 88 55 89 57 90 58 91 59 92 60 93
REMARK H PARENT 18 6 5 12 23 27 82 46 50 57
REMARK Flexibility Score: inf
ROOT
ATOM      1  C   UNL A   1      33.661  28.792  25.137  1.00  0.00     0.023 C 
ENDROOT
BRANCH   1   2
ATOM      2  C   UNL A   1      33.322  27.315  24.993  1.00  0.00     0.116 C 
BRANCH   2   3
ATOM      3  N   UNL A   1      33.789  26.746  23.747  1.00  0.00    -0.355 N 
ATOM      4  C   UNL A   1      33.104  26.051  22.794  1.00  0.00     0.238 C 
ATOM      5  O   UNL A   1      33.643  25.891  21.697  1.00  0.00    -0.273 OA
ATOM      6  H   UNL A   1      34.746  26.882  23.558  1.00  0.00     0.163 HD
BRANCH   4   7
ATOM      7  C   UNL A   1      31.705  25.479  23.065  1.00  0.00     0.161 C 
BRANCH   7   8
ATOM      8  C   UNL A   1      30.527  26.496  22.960  1.00  0.00     0.010 C 
ATOM      9  C   UNL A   1      29.724  26.677  24.253  1.00  0.00     0.009 C 
ATOM     10  C   UNL A   1      30.854  27.876  22.376  1.00  0.00     0.009 C 
ENDBRANCH   7   8
BRANCH   7  11
ATOM     11  N   UNL A   1      31.702  24.688  24.309  1.00  0.00    -0.198 NA
ATOM     12  H   UNL A   1      30.739  24.687  24.645  1.00  0.00     0.142 HD
BRANCH  11  13
ATOM     13  S   UNL A   1      32.212  23.100  24.348  1.00  0.00     0.241 S 
ATOM     14  O   UNL A   1      31.603  22.532  25.530  1.00  0.00    -0.207 OA
ATOM     15  O   UNL A   1      31.976  22.530  23.038  1.00  0.00    -0.207 OA
BRANCH  13  16
ATOM     16  C   UNL A   1      33.963  23.169  24.618  1.00  0.00     0.085 A 
ATOM     17  C   UNL A   1      34.471  23.337  25.912  1.00  0.00     0.022 A 
ATOM     18  C   UNL A   1      34.826  22.954  23.540  1.00  0.00     0.061 A 
ATOM     19  C   UNL A   1      35.854  23.328  26.118  1.00  0.00     0.004 A 
ATOM     20  C   UNL A   1      36.197  22.955  23.762  1.00  0.00     0.124 A 
ATOM     21  C   UNL A   1      36.719  23.142  25.038  1.00  0.00     0.039 A 
ATOM     22  F   UNL A   1      37.028  22.757  22.732  1.00  0.00    -0.207 F 
ENDBRANCH  13  16
ENDBRANCH  11  13
ENDBRANCH   7  11
ENDBRANCH   4   7
ENDBRANCH   2   3
ENDBRANCH   1   2
BRANCH   1  23
ATOM     23  C   UNL A   1      32.445  29.704  25.298  1.00  0.00     0.023 C 
BRANCH  23  24
ATOM     24  C   UNL A   1      32.152  30.157  26.726  1.00  0.00     0.116 C 
BRANCH  24  25
ATOM     25  N   UNL A   1      32.072  31.606  26.861  1.00  0.00    -0.352 N 
ATOM     26  C   UNL A   1      32.966  32.469  27.450  1.00  0.00     0.251 C 
ATOM     27  H   UNL A   1      31.267  32.024  26.479  1.00  0.00     0.163 HD
ATOM     28  O   UNL A   1      32.675  33.653  27.596  1.00  0.00    -0.269 OA
BRANCH  26  29
ATOM     29  C   UNL A   1      34.265  31.953  27.931  1.00  0.00     0.039 A 
ATOM     30  C   UNL A   1      35.347  32.830  28.031  1.00  0.00     0.014 A 
ATOM     31  C   UNL A   1      34.396  30.621  28.332  1.00  0.00     0.014 A 
ATOM     32  C   UNL A   1      36.540  32.388  28.607  1.00  0.00     0.010 A 
ATOM     33  C   UNL A   1      35.554  30.209  28.982  1.00  0.00     0.010 A 
ATOM     34  C   UNL A   1      36.639  31.086  29.128  1.00  0.00    -0.014 A 
BRANCH  34  35
ATOM     35  C   UNL A   1      37.856  30.636  29.853  1.00  0.00     0.031 A 
ATOM     36  C   UNL A   1      38.802  29.655  29.215  1.00  0.00     0.074 A 
ATOM     37  C   UNL A   1      38.067  31.046  31.121  1.00  0.00     0.049 A 
ATOM     38  N   UNL A   1      39.879  29.109  29.718  1.00  0.00    -0.248 NA
ATOM     39  C   UNL A   1      38.488  29.210  27.848  1.00  0.00     0.031 C 
ATOM     40  C   UNL A   1      37.184  31.935  31.879  1.00  0.00     0.029 A 
ATOM     41  N   UNL A   1      39.076  30.751  32.005  1.00  0.00    -0.354 N 
ATOM     42  C   UNL A   1      40.349  28.234  28.747  1.00  0.00     0.074 A 
ATOM     43  C   UNL A   1      39.425  28.295  27.638  1.00  0.00     0.031 C 
ATOM     44  C   UNL A   1      37.693  32.120  33.107  1.00  0.00     0.029 A 
ATOM     45  C   UNL A   1      38.916  31.333  33.241  1.00  0.00     0.049 A 
ATOM     46  H   UNL A   1      39.842  30.176  31.777  1.00  0.00     0.167 HD
ATOM     47  C   UNL A   1      41.465  27.469  28.766  1.00  0.00     0.034 A 
ATOM     48  C   UNL A   1      39.658  31.238  34.364  1.00  0.00     0.034 A 
ATOM     49  C   UNL A   1      42.407  27.443  29.853  1.00  0.00     0.049 A 
ATOM     50  C   UNL A   1      40.911  30.405  34.347  1.00  0.00     0.074 A 
ATOM     51  C   UNL A   1      43.614  26.771  29.921  1.00  0.00     0.029 A 
ATOM     52  N   UNL A   1      42.246  28.104  31.061  1.00  0.00    -0.354 N 
ATOM     53  N   UNL A   1      41.417  29.703  33.365  1.00  0.00    -0.248 NA
ATOM     54  C   UNL A   1      41.713  30.378  35.580  1.00  0.00     0.031 C 
ATOM     55  C   UNL A   1      44.164  26.990  31.185  1.00  0.00     0.029 A 
ATOM     56  C   UNL A   1      43.324  27.840  31.888  1.00  0.00     0.049 A 
ATOM     57  H   UNL A   1      41.480  28.675  31.295  1.00  0.00     0.167 HD
ATOM     58  C   UNL A   1      42.610  29.175  33.846  1.00  0.00     0.074 A 
ATOM     59  C   UNL A   1      42.761  29.655  35.204  1.00  0.00     0.031 C 
ATOM     60  C   UNL A   1      43.493  28.359  33.221  1.00  0.00     0.034 A 
BRANCH  47  61
ATOM     61  C   UNL A   1      41.772  26.623  27.558  1.00  0.00     0.023 A 
ATOM     62  C   UNL A   1      42.454  27.192  26.464  1.00  0.00     0.012 A 
ATOM     63  C   UNL A   1      41.491  25.243  27.557  1.00  0.00     0.148 A 
ATOM     64  C   UNL A   1      42.836  26.405  25.379  1.00  0.00     0.002 A 
ATOM     65  C   UNL A   1      41.920  24.456  26.496  1.00  0.00     0.091 A 
ATOM     66  F   UNL A   1      40.825  24.726  28.600  1.00  0.00    -0.205 F 
ATOM     67  C   UNL A   1      42.583  25.035  25.402  1.00  0.00     0.022 A 
BRANCH  65  68
ATOM     68  S   UNL A   1      41.729  22.670  26.473  1.00  0.00     0.127 S 
ATOM     69  O   UNL A   1      40.274  22.531  26.434  1.00  0.00    -0.237 OA
ATOM     70  O   UNL A   1      42.409  22.306  25.230  1.00  0.00    -0.237 OA
ATOM     71  O   UNL A   1      42.366  22.177  27.685  1.00  0.00    -0.744 OA
ENDBRANCH  65  68
ENDBRANCH  47  61
BRANCH  48  72
ATOM     72  C   UNL A   1      39.254  32.000  35.580  1.00  0.00     0.023 A 
ATOM     73  C   UNL A   1      39.559  33.373  35.674  1.00  0.00     0.012 A 
ATOM     74  C   UNL A   1      38.517  31.388  36.613  1.00  0.00     0.148 A 
ATOM     75  C   UNL A   1      39.156  34.116  36.785  1.00  0.00     0.002 A 
ATOM     76  C   UNL A   1      38.066  32.148  37.686  1.00  0.00     0.091 A 
ATOM     77  F   UNL A   1      38.247  30.080  36.509  1.00  0.00    -0.205 F 
ATOM     78  C   UNL A   1      38.400  33.508  37.783  1.00  0.00     0.022 A 
BRANCH  76  79
ATOM     79  S   UNL A   1      36.961  31.487  38.938  1.00  0.00     0.127 S 
ATOM     80  O   UNL A   1      37.783  31.579  40.142  1.00  0.00    -0.237 OA
ATOM     81  O   UNL A   1      35.844  32.431  38.879  1.00  0.00    -0.237 OA
ATOM     82  O   UNL A   1      36.630  30.136  38.503  1.00  0.00    -0.744 OA
ENDBRANCH  76  79
ENDBRANCH  48  72
BRANCH  60  83
ATOM     83  C   UNL A   1      44.733  27.941  33.967  1.00  0.00     0.023 A 
ATOM     84  C   UNL A   1      45.874  28.766  33.952  1.00  0.00     0.012 A 
ATOM     85  C   UNL A   1      44.721  26.792  34.784  1.00  0.00     0.148 A 
ATOM     86  C   UNL A   1      46.990  28.445  34.725  1.00  0.00     0.002 A 
ATOM     87  C   UNL A   1      45.814  26.508  35.592  1.00  0.00     0.091 A 
ATOM     88  F   UNL A   1      43.629  26.012  34.773  1.00  0.00    -0.205 F 
ATOM     89  C   UNL A   1      46.954  27.328  35.555  1.00  0.00     0.022 A 
BRANCH  87  90
ATOM     90  S   UNL A   1      45.817  25.156  36.776  1.00  0.00     0.127 S 
ATOM     91  O   UNL A   1      44.647  25.475  37.593  1.00  0.00    -0.237 OA
ATOM     92  O   UNL A   1      45.658  23.988  35.910  1.00  0.00    -0.237 OA
ATOM     93  O   UNL A   1      47.096  25.229  37.469  1.00  0.00    -0.744 OA
ENDBRANCH  87  90
ENDBRANCH  60  83
ENDBRANCH  34  35
ENDBRANCH  26  29
ENDBRANCH  24  25
ENDBRANCH  23  24
ENDBRANCH   1  23
TORSDOF 18
ENDMDL
