MODEL 1
REMARK VINA RESULT:     -12.1      0.000      0.000
REMARK SMILES CCc1[nH]nc(-n2cccc2)c1C(=O)NCCCCNC(=O)c1ccc(-c2c3nc(c(-c4cccc(S(=O)(=O)[O-])c4F)c4ccc([nH]4)c(-c4cccc(S(=O)(=O)[O-])c4F)c4nc(c(-c5cccc(S(=O)(=O)[O-])c5F)c5ccc2[nH]5)C=C4)C=C3)cc1
REMARK SMILES IDX 18 1 17 2 16 3 15 4 13 5 14 6 12 8 3 9 4 10 5 11 6 13 2 14
REMARK SMILES IDX 1 15 7 16 8 17 11 18 9 19 10 20 19 21 20 22 21 23 22 25
REMARK SMILES IDX 23 26 24 27 85 28 25 29 84 30 26 31 27 32 28 33 78 34 29 35
REMARK SMILES IDX 83 36 77 37 79 38 30 39 82 40 76 41 75 42 31 44 63 45 43 46
REMARK SMILES IDX 62 47 44 48 47 49 61 50 80 51 45 52 46 53 60 55 81 56 48 57
REMARK SMILES IDX 32 58 33 59 41 60 34 61 36 62 42 63 35 64 37 65 38 66 39 67
REMARK SMILES IDX 40 68 64 69 65 70 73 71 66 72 68 73 74 74 67 75 69 76 70 77
REMARK SMILES IDX 71 78 72 79 49 80 50 81 58 82 51 83 53 84 59 85 52 86 54 87
REMARK SMILES IDX 55 88 56 89 57 90
REMARK H PARENT 15 7 4 12 20 24 79 43 47 54
REMARK Flexibility Score: inf
ROOT
ATOM      1  C   UNL A   1      33.562  28.897  26.382  1.00  0.00     0.023 C 
ENDROOT
BRANCH   1   2
ATOM      2  C   UNL A   1      32.230  29.557  26.748  1.00  0.00     0.023 C 
BRANCH   2   3
ATOM      3  C   UNL A   1      31.431  30.172  25.608  1.00  0.00     0.116 C 
BRANCH   3   4
ATOM      4  N   UNL A   1      31.826  29.791  24.283  1.00  0.00    -0.352 N 
ATOM      5  C   UNL A   1      31.184  29.057  23.314  1.00  0.00     0.256 C 
ATOM      6  O   UNL A   1      31.798  28.973  22.253  1.00  0.00    -0.269 OA
ATOM      7  H   UNL A   1      32.718  30.113  24.019  1.00  0.00     0.163 HD
BRANCH   5   8
ATOM      8  C   UNL A   1      29.885  28.372  23.479  1.00  0.00     0.105 A 
ATOM      9  C   UNL A   1      28.567  28.679  23.103  1.00  0.00     0.050 A 
ATOM     10  N   UNL A   1      27.807  27.585  23.429  1.00  0.00    -0.280 N 
ATOM     11  N   UNL A   1      28.497  26.540  23.862  1.00  0.00    -0.156 NA
ATOM     12  H   UNL A   1      26.826  27.577  23.350  1.00  0.00     0.190 HD
ATOM     13  C   UNL A   1      29.750  27.006  23.925  1.00  0.00     0.171 A 
BRANCH   9  14
ATOM     14  C   UNL A   1      27.852  29.781  22.386  1.00  0.00     0.053 C 
ATOM     15  C   UNL A   1      27.833  31.082  23.188  1.00  0.00     0.011 C 
ENDBRANCH   9  14
BRANCH  13  16
ATOM     16  N   UNL A   1      30.739  26.079  24.381  1.00  0.00    -0.307 N 
ATOM     17  C   UNL A   1      31.291  25.970  25.642  1.00  0.00     0.093 A 
ATOM     18  C   UNL A   1      31.277  25.056  23.613  1.00  0.00     0.093 A 
ATOM     19  C   UNL A   1      32.213  24.945  25.646  1.00  0.00     0.020 A 
ATOM     20  C   UNL A   1      32.228  24.387  24.350  1.00  0.00     0.020 A 
ENDBRANCH  13  16
ENDBRANCH   5   8
ENDBRANCH   3   4
ENDBRANCH   2   3
ENDBRANCH   1   2
BRANCH   1  21
ATOM     21  C   UNL A   1      34.673  29.022  27.432  1.00  0.00     0.116 C 
BRANCH  21  22
ATOM     22  N   UNL A   1      35.232  30.367  27.476  1.00  0.00    -0.352 N 
ATOM     23  C   UNL A   1      36.454  30.785  27.947  1.00  0.00     0.251 C 
ATOM     24  H   UNL A   1      34.652  31.077  27.117  1.00  0.00     0.163 HD
ATOM     25  O   UNL A   1      36.612  31.980  28.201  1.00  0.00    -0.269 OA
BRANCH  23  26
ATOM     26  C   UNL A   1      37.573  29.841  28.164  1.00  0.00     0.039 A 
ATOM     27  C   UNL A   1      38.545  29.714  27.159  1.00  0.00     0.014 A 
ATOM     28  C   UNL A   1      37.631  29.024  29.295  1.00  0.00     0.014 A 
ATOM     29  C   UNL A   1      39.616  28.834  27.328  1.00  0.00     0.010 A 
ATOM     30  C   UNL A   1      38.695  28.137  29.460  1.00  0.00     0.010 A 
ATOM     31  C   UNL A   1      39.713  28.071  28.501  1.00  0.00    -0.014 A 
BRANCH  31  32
ATOM     32  C   UNL A   1      41.020  27.449  28.853  1.00  0.00     0.031 A 
ATOM     33  C   UNL A   1      41.017  25.931  28.469  1.00  0.00     0.074 A 
ATOM     34  C   UNL A   1      41.980  28.249  29.425  1.00  0.00     0.049 A 
ATOM     35  N   UNL A   1      41.699  24.932  28.948  1.00  0.00    -0.248 NA
ATOM     36  C   UNL A   1      40.034  25.437  27.457  1.00  0.00     0.031 C 
ATOM     37  C   UNL A   1      41.846  29.712  29.633  1.00  0.00     0.029 A 
ATOM     38  N   UNL A   1      43.253  28.034  29.930  1.00  0.00    -0.354 N 
ATOM     39  C   UNL A   1      41.438  23.802  28.117  1.00  0.00     0.074 A 
ATOM     40  C   UNL A   1      40.295  24.133  27.336  1.00  0.00     0.031 C 
ATOM     41  C   UNL A   1      42.921  30.219  30.284  1.00  0.00     0.029 A 
ATOM     42  C   UNL A   1      43.883  29.162  30.539  1.00  0.00     0.049 A 
ATOM     43  H   UNL A   1      43.695  27.157  29.874  1.00  0.00     0.167 HD
ATOM     44  C   UNL A   1      42.302  22.747  27.996  1.00  0.00     0.034 A 
ATOM     45  C   UNL A   1      45.083  29.234  31.210  1.00  0.00     0.034 A 
ATOM     46  C   UNL A   1      43.414  22.977  28.852  1.00  0.00     0.049 A 
ATOM     47  C   UNL A   1      45.758  27.973  30.901  1.00  0.00     0.074 A 
ATOM     48  C   UNL A   1      43.562  22.958  30.212  1.00  0.00     0.029 A 
ATOM     49  N   UNL A   1      44.453  23.662  28.268  1.00  0.00    -0.354 N 
ATOM     50  N   UNL A   1      46.284  27.701  29.745  1.00  0.00    -0.248 NA
ATOM     51  C   UNL A   1      45.795  26.913  31.914  1.00  0.00     0.031 C 
ATOM     52  C   UNL A   1      44.423  24.046  30.437  1.00  0.00     0.029 A 
ATOM     53  C   UNL A   1      44.966  24.490  29.223  1.00  0.00     0.049 A 
ATOM     54  H   UNL A   1      44.766  23.572  27.340  1.00  0.00     0.167 HD
ATOM     55  C   UNL A   1      46.326  26.334  29.787  1.00  0.00     0.074 A 
ATOM     56  C   UNL A   1      46.380  25.966  31.186  1.00  0.00     0.031 C 
ATOM     57  C   UNL A   1      45.722  25.635  28.792  1.00  0.00     0.034 A 
BRANCH  44  58
ATOM     58  C   UNL A   1      42.490  21.617  26.999  1.00  0.00     0.023 A 
ATOM     59  C   UNL A   1      41.825  20.398  27.338  1.00  0.00     0.012 A 
ATOM     60  C   UNL A   1      43.485  21.545  26.013  1.00  0.00     0.148 A 
ATOM     61  C   UNL A   1      42.244  19.155  26.867  1.00  0.00     0.002 A 
ATOM     62  C   UNL A   1      43.858  20.298  25.493  1.00  0.00     0.091 A 
ATOM     63  F   UNL A   1      44.119  22.657  25.633  1.00  0.00    -0.205 F 
ATOM     64  C   UNL A   1      43.279  19.105  25.956  1.00  0.00     0.022 A 
BRANCH  62  65
ATOM     65  S   UNL A   1      45.104  20.105  24.213  1.00  0.00     0.127 S 
ATOM     66  O   UNL A   1      44.932  18.707  23.828  1.00  0.00    -0.237 OA
ATOM     67  O   UNL A   1      44.650  21.070  23.206  1.00  0.00    -0.237 OA
ATOM     68  O   UNL A   1      46.370  20.458  24.840  1.00  0.00    -0.744 OA
ENDBRANCH  62  65
ENDBRANCH  44  58
BRANCH  45  69
ATOM     69  C   UNL A   1      45.857  30.161  32.139  1.00  0.00     0.023 A 
ATOM     70  C   UNL A   1      46.120  29.902  33.490  1.00  0.00     0.012 A 
ATOM     71  C   UNL A   1      46.497  31.330  31.604  1.00  0.00     0.148 A 
ATOM     72  C   UNL A   1      47.040  30.694  34.219  1.00  0.00     0.002 A 
ATOM     73  C   UNL A   1      47.507  32.013  32.273  1.00  0.00     0.091 A 
ATOM     74  F   UNL A   1      46.103  31.828  30.428  1.00  0.00    -0.205 F 
ATOM     75  C   UNL A   1      47.774  31.708  33.599  1.00  0.00     0.022 A 
BRANCH  73  76
ATOM     76  S   UNL A   1      48.608  33.165  31.415  1.00  0.00     0.127 S 
ATOM     77  O   UNL A   1      47.857  34.417  31.467  1.00  0.00    -0.237 OA
ATOM     78  O   UNL A   1      49.793  33.124  32.271  1.00  0.00    -0.237 OA
ATOM     79  O   UNL A   1      48.811  32.624  30.077  1.00  0.00    -0.744 OA
ENDBRANCH  73  76
ENDBRANCH  45  69
BRANCH  57  80
ATOM     80  C   UNL A   1      45.678  26.338  27.431  1.00  0.00     0.023 A 
ATOM     81  C   UNL A   1      44.407  26.758  26.986  1.00  0.00     0.012 A 
ATOM     82  C   UNL A   1      46.763  26.519  26.536  1.00  0.00     0.148 A 
ATOM     83  C   UNL A   1      44.206  27.309  25.718  1.00  0.00     0.002 A 
ATOM     84  C   UNL A   1      46.560  27.061  25.257  1.00  0.00     0.091 A 
ATOM     85  F   UNL A   1      47.985  26.157  26.925  1.00  0.00    -0.205 F 
ATOM     86  C   UNL A   1      45.280  27.459  24.852  1.00  0.00     0.022 A 
BRANCH  84  87
ATOM     87  S   UNL A   1      47.857  27.260  24.015  1.00  0.00     0.127 S 
ATOM     88  O   UNL A   1      48.127  25.878  23.613  1.00  0.00    -0.237 OA
ATOM     89  O   UNL A   1      47.187  28.058  22.990  1.00  0.00    -0.237 OA
ATOM     90  O   UNL A   1      48.973  27.918  24.681  1.00  0.00    -0.744 OA
ENDBRANCH  84  87
ENDBRANCH  57  80
ENDBRANCH  31  32
ENDBRANCH  23  26
ENDBRANCH  21  22
ENDBRANCH   1  21
TORSDOF 16
ENDMDL
MODEL 2
REMARK VINA RESULT:     -12.0      1.239      1.747
REMARK SMILES CCc1[nH]nc(-n2cccc2)c1C(=O)NCCCCNC(=O)c1ccc(-c2c3nc(c(-c4cccc(S(=O)(=O)[O-])c4F)c4ccc([nH]4)c(-c4cccc(S(=O)(=O)[O-])c4F)c4nc(c(-c5cccc(S(=O)(=O)[O-])c5F)c5ccc2[nH]5)C=C4)C=C3)cc1
REMARK SMILES IDX 18 1 17 2 16 3 15 4 13 5 14 6 12 8 3 9 4 10 5 11 6 13 2 14
REMARK SMILES IDX 1 15 7 16 8 17 11 18 9 19 10 20 19 21 20 22 21 23 22 25
REMARK SMILES IDX 23 26 24 27 85 28 25 29 84 30 26 31 27 32 28 33 78 34 29 35
REMARK SMILES IDX 83 36 77 37 79 38 30 39 82 40 76 41 75 42 31 44 63 45 43 46
REMARK SMILES IDX 62 47 44 48 47 49 61 50 80 51 45 52 46 53 60 55 81 56 48 57
REMARK SMILES IDX 32 58 33 59 41 60 34 61 36 62 42 63 35 64 37 65 38 66 39 67
REMARK SMILES IDX 40 68 64 69 65 70 73 71 66 72 68 73 74 74 67 75 69 76 70 77
REMARK SMILES IDX 71 78 72 79 49 80 50 81 58 82 51 83 53 84 59 85 52 86 54 87
REMARK SMILES IDX 55 88 56 89 57 90
REMARK H PARENT 15 7 4 12 20 24 79 43 47 54
REMARK Flexibility Score: inf
ROOT
ATOM      1  C   UNL A   1      33.519  28.976  27.200  1.00  0.00     0.023 C 
ENDROOT
BRANCH   1   2
ATOM      2  C   UNL A   1      32.797  27.979  26.291  1.00  0.00     0.023 C 
BRANCH   2   3
ATOM      3  C   UNL A   1      31.366  27.618  26.665  1.00  0.00     0.116 C 
BRANCH   3   4
ATOM      4  N   UNL A   1      30.969  26.264  26.408  1.00  0.00    -0.352 N 
ATOM      5  C   UNL A   1      30.916  25.533  25.244  1.00  0.00     0.256 C 
ATOM      6  O   UNL A   1      30.580  24.361  25.399  1.00  0.00    -0.269 OA
ATOM      7  H   UNL A   1      30.684  25.768  27.209  1.00  0.00     0.163 HD
BRANCH   5   8
ATOM      8  C   UNL A   1      31.191  26.057  23.891  1.00  0.00     0.105 A 
ATOM      9  C   UNL A   1      30.614  27.065  23.101  1.00  0.00     0.050 A 
ATOM     10  N   UNL A   1      31.392  27.168  21.976  1.00  0.00    -0.280 N 
ATOM     11  N   UNL A   1      32.492  26.428  21.993  1.00  0.00    -0.156 NA
ATOM     12  H   UNL A   1      31.152  27.744  21.215  1.00  0.00     0.190 HD
ATOM     13  C   UNL A   1      32.372  25.730  23.129  1.00  0.00     0.171 A 
BRANCH   9  14
ATOM     14  C   UNL A   1      29.504  28.061  23.220  1.00  0.00     0.053 C 
ATOM     15  C   UNL A   1      30.015  29.468  23.532  1.00  0.00     0.011 C 
ENDBRANCH   9  14
BRANCH  13  16
ATOM     16  N   UNL A   1      33.436  24.817  23.416  1.00  0.00    -0.307 N 
ATOM     17  C   UNL A   1      33.729  23.624  22.787  1.00  0.00     0.093 A 
ATOM     18  C   UNL A   1      34.421  25.027  24.370  1.00  0.00     0.093 A 
ATOM     19  C   UNL A   1      34.836  23.057  23.384  1.00  0.00     0.020 A 
ATOM     20  C   UNL A   1      35.254  23.932  24.409  1.00  0.00     0.020 A 
ENDBRANCH  13  16
ENDBRANCH   5   8
ENDBRANCH   3   4
ENDBRANCH   2   3
ENDBRANCH   1   2
BRANCH   1  21
ATOM     21  C   UNL A   1      34.995  29.229  26.865  1.00  0.00     0.116 C 
BRANCH  21  22
ATOM     22  N   UNL A   1      35.450  30.522  27.358  1.00  0.00    -0.352 N 
ATOM     23  C   UNL A   1      36.536  30.818  28.149  1.00  0.00     0.251 C 
ATOM     24  H   UNL A   1      34.903  31.294  27.088  1.00  0.00     0.163 HD
ATOM     25  O   UNL A   1      36.570  31.905  28.725  1.00  0.00    -0.269 OA
BRANCH  23  26
ATOM     26  C   UNL A   1      37.654  29.864  28.330  1.00  0.00     0.039 A 
ATOM     27  C   UNL A   1      38.608  29.749  27.307  1.00  0.00     0.014 A 
ATOM     28  C   UNL A   1      37.725  29.026  29.445  1.00  0.00     0.014 A 
ATOM     29  C   UNL A   1      39.677  28.861  27.443  1.00  0.00     0.010 A 
ATOM     30  C   UNL A   1      38.787  28.131  29.577  1.00  0.00     0.010 A 
ATOM     31  C   UNL A   1      39.789  28.077  28.600  1.00  0.00    -0.014 A 
BRANCH  31  32
ATOM     32  C   UNL A   1      41.098  27.441  28.919  1.00  0.00     0.031 A 
ATOM     33  C   UNL A   1      41.074  25.927  28.527  1.00  0.00     0.074 A 
ATOM     34  C   UNL A   1      42.076  28.231  29.475  1.00  0.00     0.049 A 
ATOM     35  N   UNL A   1      41.757  24.918  28.985  1.00  0.00    -0.248 NA
ATOM     36  C   UNL A   1      40.065  25.446  27.533  1.00  0.00     0.031 C 
ATOM     37  C   UNL A   1      41.960  29.693  29.695  1.00  0.00     0.029 A 
ATOM     38  N   UNL A   1      43.359  28.002  29.951  1.00  0.00    -0.354 N 
ATOM     39  C   UNL A   1      41.469  23.796  28.152  1.00  0.00     0.074 A 
ATOM     40  C   UNL A   1      40.312  24.142  27.398  1.00  0.00     0.031 C 
ATOM     41  C   UNL A   1      43.053  30.187  30.326  1.00  0.00     0.029 A 
ATOM     42  C   UNL A   1      44.012  29.120  30.553  1.00  0.00     0.049 A 
ATOM     43  H   UNL A   1      43.792  27.121  29.879  1.00  0.00     0.167 HD
ATOM     44  C   UNL A   1      42.321  22.735  28.006  1.00  0.00     0.034 A 
ATOM     45  C   UNL A   1      45.227  29.178  31.197  1.00  0.00     0.034 A 
ATOM     46  C   UNL A   1      43.454  22.951  28.839  1.00  0.00     0.049 A 
ATOM     47  C   UNL A   1      45.884  27.914  30.865  1.00  0.00     0.074 A 
ATOM     48  C   UNL A   1      43.631  22.921  30.195  1.00  0.00     0.029 A 
ATOM     49  N   UNL A   1      44.485  23.630  28.236  1.00  0.00    -0.354 N 
ATOM     50  N   UNL A   1      46.382  27.644  29.697  1.00  0.00    -0.248 NA
ATOM     51  C   UNL A   1      45.935  26.847  31.871  1.00  0.00     0.031 C 
ATOM     52  C   UNL A   1      44.506  24.001  30.407  1.00  0.00     0.029 A 
ATOM     53  C   UNL A   1      45.026  24.448  29.184  1.00  0.00     0.049 A 
ATOM     54  H   UNL A   1      44.777  23.544  27.300  1.00  0.00     0.167 HD
ATOM     55  C   UNL A   1      46.413  26.277  29.729  1.00  0.00     0.074 A 
ATOM     56  C   UNL A   1      46.495  25.899  31.125  1.00  0.00     0.031 C 
ATOM     57  C   UNL A   1      45.781  25.589  28.743  1.00  0.00     0.034 A 
BRANCH  44  58
ATOM     58  C   UNL A   1      42.478  21.610  26.998  1.00  0.00     0.023 A 
ATOM     59  C   UNL A   1      41.734  20.426  27.297  1.00  0.00     0.012 A 
ATOM     60  C   UNL A   1      43.499  21.494  26.043  1.00  0.00     0.148 A 
ATOM     61  C   UNL A   1      42.097  19.168  26.820  1.00  0.00     0.002 A 
ATOM     62  C   UNL A   1      43.818  20.235  25.517  1.00  0.00     0.091 A 
ATOM     63  F   UNL A   1      44.207  22.574  25.701  1.00  0.00    -0.205 F 
ATOM     64  C   UNL A   1      43.157  19.071  25.942  1.00  0.00     0.022 A 
BRANCH  62  65
ATOM     65  S   UNL A   1      45.091  19.989  24.274  1.00  0.00     0.127 S 
ATOM     66  O   UNL A   1      45.000  18.554  24.023  1.00  0.00    -0.237 OA
ATOM     67  O   UNL A   1      44.604  20.828  23.175  1.00  0.00    -0.237 OA
ATOM     68  O   UNL A   1      46.327  20.468  24.878  1.00  0.00    -0.744 OA
ENDBRANCH  62  65
ENDBRANCH  44  58
BRANCH  45  69
ATOM     69  C   UNL A   1      46.028  30.092  32.115  1.00  0.00     0.023 A 
ATOM     70  C   UNL A   1      45.806  30.241  33.489  1.00  0.00     0.012 A 
ATOM     71  C   UNL A   1      47.191  30.767  31.607  1.00  0.00     0.148 A 
ATOM     72  C   UNL A   1      46.737  30.923  34.310  1.00  0.00     0.002 A 
ATOM     73  C   UNL A   1      48.174  31.305  32.430  1.00  0.00     0.091 A 
ATOM     74  F   UNL A   1      47.346  30.930  30.289  1.00  0.00    -0.205 F 
ATOM     75  C   UNL A   1      47.943  31.403  33.794  1.00  0.00     0.022 A 
BRANCH  73  76
ATOM     76  S   UNL A   1      49.820  31.719  31.802  1.00  0.00     0.127 S 
ATOM     77  O   UNL A   1      50.215  30.490  31.118  1.00  0.00    -0.237 OA
ATOM     78  O   UNL A   1      49.517  32.844  30.917  1.00  0.00    -0.237 OA
ATOM     79  O   UNL A   1      50.630  32.065  32.962  1.00  0.00    -0.744 OA
ENDBRANCH  73  76
ENDBRANCH  45  69
BRANCH  57  80
ATOM     80  C   UNL A   1      45.714  26.301  27.389  1.00  0.00     0.023 A 
ATOM     81  C   UNL A   1      44.427  26.665  26.938  1.00  0.00     0.012 A 
ATOM     82  C   UNL A   1      46.795  26.540  26.503  1.00  0.00     0.148 A 
ATOM     83  C   UNL A   1      44.209  27.217  25.673  1.00  0.00     0.002 A 
ATOM     84  C   UNL A   1      46.575  27.083  25.226  1.00  0.00     0.091 A 
ATOM     85  F   UNL A   1      48.030  26.232  26.897  1.00  0.00    -0.205 F 
ATOM     86  C   UNL A   1      45.281  27.425  24.816  1.00  0.00     0.022 A 
BRANCH  84  87
ATOM     87  S   UNL A   1      47.869  27.353  23.994  1.00  0.00     0.127 S 
ATOM     88  O   UNL A   1      48.182  25.990  23.559  1.00  0.00    -0.237 OA
ATOM     89  O   UNL A   1      47.179  28.156  22.988  1.00  0.00    -0.237 OA
ATOM     90  O   UNL A   1      48.963  28.026  24.682  1.00  0.00    -0.744 OA
ENDBRANCH  84  87
ENDBRANCH  57  80
ENDBRANCH  31  32
ENDBRANCH  23  26
ENDBRANCH  21  22
ENDBRANCH   1  21
TORSDOF 16
ENDMDL
MODEL 3
REMARK VINA RESULT:     -12.0      4.954     10.162
REMARK SMILES CCc1[nH]nc(-n2cccc2)c1C(=O)NCCCCNC(=O)c1ccc(-c2c3nc(c(-c4cccc(S(=O)(=O)[O-])c4F)c4ccc([nH]4)c(-c4cccc(S(=O)(=O)[O-])c4F)c4nc(c(-c5cccc(S(=O)(=O)[O-])c5F)c5ccc2[nH]5)C=C4)C=C3)cc1
REMARK SMILES IDX 18 1 17 2 16 3 15 4 13 5 14 6 12 8 3 9 4 10 5 11 6 13 2 14
REMARK SMILES IDX 1 15 7 16 8 17 11 18 9 19 10 20 19 21 20 22 21 23 22 25
REMARK SMILES IDX 23 26 24 27 85 28 25 29 84 30 26 31 27 32 28 33 78 34 29 35
REMARK SMILES IDX 83 36 77 37 79 38 30 39 82 40 76 41 75 42 31 44 63 45 43 46
REMARK SMILES IDX 62 47 44 48 47 49 61 50 80 51 45 52 46 53 60 55 81 56 48 57
REMARK SMILES IDX 32 58 33 59 41 60 34 61 36 62 42 63 35 64 37 65 38 66 39 67
REMARK SMILES IDX 40 68 64 69 65 70 73 71 66 72 68 73 74 74 67 75 69 76 70 77
REMARK SMILES IDX 71 78 72 79 49 80 50 81 58 82 51 83 53 84 59 85 52 86 54 87
REMARK SMILES IDX 55 88 56 89 57 90
REMARK H PARENT 15 7 4 12 20 24 79 43 47 54
REMARK Flexibility Score: inf
ROOT
ATOM      1  C   UNL A   1      36.833  22.873  25.786  1.00  0.00     0.023 C 
ENDROOT
BRANCH   1   2
ATOM      2  C   UNL A   1      35.353  23.239  25.916  1.00  0.00     0.023 C 
BRANCH   2   3
ATOM      3  C   UNL A   1      34.939  24.619  25.422  1.00  0.00     0.116 C 
BRANCH   3   4
ATOM      4  N   UNL A   1      33.657  25.088  25.861  1.00  0.00    -0.352 N 
ATOM      5  C   UNL A   1      32.787  26.006  25.321  1.00  0.00     0.256 C 
ATOM      6  O   UNL A   1      31.730  26.124  25.938  1.00  0.00    -0.269 OA
ATOM      7  H   UNL A   1      33.343  24.680  26.700  1.00  0.00     0.163 HD
BRANCH   5   8
ATOM      8  C   UNL A   1      33.051  26.837  24.129  1.00  0.00     0.105 A 
ATOM      9  C   UNL A   1      33.186  26.559  22.758  1.00  0.00     0.050 A 
ATOM     10  N   UNL A   1      33.301  27.772  22.128  1.00  0.00    -0.280 N 
ATOM     11  N   UNL A   1      33.130  28.825  22.915  1.00  0.00    -0.156 NA
ATOM     12  H   UNL A   1      33.497  27.854  21.167  1.00  0.00     0.190 HD
ATOM     13  C   UNL A   1      33.006  28.280  24.131  1.00  0.00     0.171 A 
BRANCH   9  14
ATOM     14  C   UNL A   1      33.129  25.361  21.864  1.00  0.00     0.053 C 
ATOM     15  C   UNL A   1      32.464  25.667  20.523  1.00  0.00     0.011 C 
ENDBRANCH   9  14
BRANCH  13  16
ATOM     16  N   UNL A   1      32.815  29.199  25.210  1.00  0.00    -0.307 N 
ATOM     17  C   UNL A   1      31.667  29.884  25.555  1.00  0.00     0.093 A 
ATOM     18  C   UNL A   1      33.776  29.511  26.162  1.00  0.00     0.093 A 
ATOM     19  C   UNL A   1      31.923  30.670  26.659  1.00  0.00     0.020 A 
ATOM     20  C   UNL A   1      33.270  30.458  27.023  1.00  0.00     0.020 A 
ENDBRANCH  13  16
ENDBRANCH   5   8
ENDBRANCH   3   4
ENDBRANCH   2   3
ENDBRANCH   1   2
BRANCH   1  21
ATOM     21  C   UNL A   1      37.826  23.960  26.217  1.00  0.00     0.116 C 
BRANCH  21  22
ATOM     22  N   UNL A   1      38.980  23.400  26.907  1.00  0.00    -0.352 N 
ATOM     23  C   UNL A   1      40.011  24.049  27.543  1.00  0.00     0.251 C 
ATOM     24  H   UNL A   1      39.028  22.417  26.921  1.00  0.00     0.163 HD
ATOM     25  O   UNL A   1      41.047  23.426  27.777  1.00  0.00    -0.269 OA
BRANCH  23  26
ATOM     26  C   UNL A   1      39.911  25.471  27.944  1.00  0.00     0.039 A 
ATOM     27  C   UNL A   1      39.310  25.778  29.175  1.00  0.00     0.014 A 
ATOM     28  C   UNL A   1      40.320  26.500  27.093  1.00  0.00     0.014 A 
ATOM     29  C   UNL A   1      39.199  27.107  29.587  1.00  0.00     0.010 A 
ATOM     30  C   UNL A   1      40.199  27.829  27.499  1.00  0.00     0.010 A 
ATOM     31  C   UNL A   1      39.681  28.135  28.764  1.00  0.00    -0.014 A 
BRANCH  31  32
ATOM     32  C   UNL A   1      39.921  29.482  29.353  1.00  0.00     0.031 A 
ATOM     33  C   UNL A   1      38.716  30.432  29.043  1.00  0.00     0.074 A 
ATOM     34  C   UNL A   1      41.092  29.681  30.045  1.00  0.00     0.049 A 
ATOM     35  N   UNL A   1      38.656  31.729  28.957  1.00  0.00    -0.248 NA
ATOM     36  C   UNL A   1      37.393  29.837  28.680  1.00  0.00     0.031 C 
ATOM     37  C   UNL A   1      42.096  28.627  30.330  1.00  0.00     0.029 A 
ATOM     38  N   UNL A   1      41.685  30.772  30.664  1.00  0.00    -0.354 N 
ATOM     39  C   UNL A   1      37.280  32.082  28.828  1.00  0.00     0.074 A 
ATOM     40  C   UNL A   1      36.586  30.883  28.499  1.00  0.00     0.031 C 
ATOM     41  C   UNL A   1      43.180  29.134  30.964  1.00  0.00     0.029 A 
ATOM     42  C   UNL A   1      42.992  30.555  31.196  1.00  0.00     0.049 A 
ATOM     43  H   UNL A   1      41.231  31.643  30.732  1.00  0.00     0.167 HD
ATOM     44  C   UNL A   1      36.784  33.306  29.191  1.00  0.00     0.034 A 
ATOM     45  C   UNL A   1      43.862  31.457  31.767  1.00  0.00     0.034 A 
ATOM     46  C   UNL A   1      37.865  34.110  29.648  1.00  0.00     0.049 A 
ATOM     47  C   UNL A   1      43.050  32.647  32.020  1.00  0.00     0.074 A 
ATOM     48  C   UNL A   1      38.913  34.711  29.007  1.00  0.00     0.029 A 
ATOM     49  N   UNL A   1      38.120  34.013  30.995  1.00  0.00    -0.354 N 
ATOM     50  N   UNL A   1      42.161  32.728  32.962  1.00  0.00    -0.248 NA
ATOM     51  C   UNL A   1      43.180  33.805  31.128  1.00  0.00     0.031 C 
ATOM     52  C   UNL A   1      39.971  34.518  29.912  1.00  0.00     0.029 A 
ATOM     53  C   UNL A   1      39.475  34.071  31.145  1.00  0.00     0.049 A 
ATOM     54  H   UNL A   1      37.454  33.921  31.713  1.00  0.00     0.167 HD
ATOM     55  C   UNL A   1      41.378  33.751  32.503  1.00  0.00     0.074 A 
ATOM     56  C   UNL A   1      42.220  34.564  31.649  1.00  0.00     0.031 C 
ATOM     57  C   UNL A   1      40.046  33.533  32.350  1.00  0.00     0.034 A 
BRANCH  44  58
ATOM     58  C   UNL A   1      35.405  33.863  29.496  1.00  0.00     0.023 A 
ATOM     59  C   UNL A   1      34.729  34.442  28.377  1.00  0.00     0.012 A 
ATOM     60  C   UNL A   1      34.900  34.166  30.769  1.00  0.00     0.148 A 
ATOM     61  C   UNL A   1      33.734  35.408  28.515  1.00  0.00     0.002 A 
ATOM     62  C   UNL A   1      33.854  35.089  30.900  1.00  0.00     0.091 A 
ATOM     63  F   UNL A   1      35.472  33.629  31.850  1.00  0.00    -0.205 F 
ATOM     64  C   UNL A   1      33.310  35.747  29.784  1.00  0.00     0.022 A 
BRANCH  62  65
ATOM     65  S   UNL A   1      33.126  35.525  32.483  1.00  0.00     0.127 S 
ATOM     66  O   UNL A   1      32.019  36.388  32.083  1.00  0.00    -0.237 OA
ATOM     67  O   UNL A   1      32.717  34.214  32.996  1.00  0.00    -0.237 OA
ATOM     68  O   UNL A   1      34.196  36.150  33.249  1.00  0.00    -0.744 OA
ENDBRANCH  62  65
ENDBRANCH  44  58
BRANCH  45  69
ATOM     69  C   UNL A   1      45.327  31.587  32.163  1.00  0.00     0.023 A 
ATOM     70  C   UNL A   1      46.401  31.600  31.265  1.00  0.00     0.012 A 
ATOM     71  C   UNL A   1      45.672  31.855  33.532  1.00  0.00     0.148 A 
ATOM     72  C   UNL A   1      47.703  31.960  31.688  1.00  0.00     0.002 A 
ATOM     73  C   UNL A   1      46.912  32.350  33.917  1.00  0.00     0.091 A 
ATOM     74  F   UNL A   1      44.793  31.595  34.505  1.00  0.00    -0.205 F 
ATOM     75  C   UNL A   1      47.948  32.389  32.995  1.00  0.00     0.022 A 
BRANCH  73  76
ATOM     76  S   UNL A   1      47.172  33.114  35.537  1.00  0.00     0.127 S 
ATOM     77  O   UNL A   1      48.543  33.609  35.438  1.00  0.00    -0.237 OA
ATOM     78  O   UNL A   1      46.143  34.154  35.534  1.00  0.00    -0.237 OA
ATOM     79  O   UNL A   1      46.967  32.065  36.527  1.00  0.00    -0.744 OA
ENDBRANCH  73  76
ENDBRANCH  45  69
BRANCH  57  80
ATOM     80  C   UNL A   1      39.439  32.501  33.305  1.00  0.00     0.023 A 
ATOM     81  C   UNL A   1      39.023  31.283  32.725  1.00  0.00     0.012 A 
ATOM     82  C   UNL A   1      39.162  32.682  34.683  1.00  0.00     0.148 A 
ATOM     83  C   UNL A   1      38.351  30.300  33.457  1.00  0.00     0.002 A 
ATOM     84  C   UNL A   1      38.476  31.700  35.417  1.00  0.00     0.091 A 
ATOM     85  F   UNL A   1      39.558  33.808  35.277  1.00  0.00    -0.205 F 
ATOM     86  C   UNL A   1      38.076  30.508  34.801  1.00  0.00     0.022 A 
BRANCH  84  87
ATOM     87  S   UNL A   1      38.005  31.865  37.153  1.00  0.00     0.127 S 
ATOM     88  O   UNL A   1      36.974  32.904  37.106  1.00  0.00    -0.237 OA
ATOM     89  O   UNL A   1      37.496  30.533  37.466  1.00  0.00    -0.237 OA
ATOM     90  O   UNL A   1      39.210  32.253  37.875  1.00  0.00    -0.744 OA
ENDBRANCH  84  87
ENDBRANCH  57  80
ENDBRANCH  31  32
ENDBRANCH  23  26
ENDBRANCH  21  22
ENDBRANCH   1  21
TORSDOF 16
ENDMDL
