MODEL 1
REMARK VINA RESULT:     -13.0      0.000      0.000
REMARK SMILES CC(C)c1cc(C#N)cc2nc(-c3ccc(C(=O)NCCCCNC(=O)c4ccc(-c5c6nc(c(-c7cccc(S(=O)(=O)[O-])c7F)c7ccc([nH]7)c(-c7cccc(S(=O)(=O)[O-])c7F)c7nc(c(-c8cccc(S(=O)(=O)[O-])c8F)c8ccc5[nH]8)C=C7)C=C6)cc4)cc3)oc12
REMARK SMILES IDX 22 1 21 2 20 3 19 4 17 5 18 6 16 8 13 9 14 10 91 11 15 12
REMARK SMILES IDX 90 13 12 14 4 15 5 16 93 17 6 18 10 19 92 20 9 21 11 22 2 23
REMARK SMILES IDX 1 24 3 25 7 26 8 27 23 28 24 29 25 30 26 32 27 33 28 34
REMARK SMILES IDX 89 35 29 36 88 37 30 38 31 39 32 40 82 41 33 42 87 43 81 44
REMARK SMILES IDX 83 45 34 46 86 47 80 48 79 49 35 51 67 52 47 53 66 54 48 55
REMARK SMILES IDX 51 56 65 57 84 58 49 59 50 60 64 62 85 63 52 64 36 65 37 66
REMARK SMILES IDX 45 67 38 68 40 69 46 70 39 71 41 72 42 73 43 74 44 75 68 76
REMARK SMILES IDX 69 77 77 78 70 79 72 80 78 81 71 82 73 83 74 84 75 85 76 86
REMARK SMILES IDX 53 87 54 88 62 89 55 90 57 91 63 92 56 93 58 94 59 95 60 96
REMARK SMILES IDX 61 97
REMARK H PARENT 19 7 24 31 83 50 51 61
REMARK Flexibility Score: inf
ROOT
ATOM      1  C   UNL A   1      33.577  29.020  26.100  1.00  0.00     0.023 C 
ENDROOT
BRANCH   1   2
ATOM      2  C   UNL A   1      32.869  29.698  24.928  1.00  0.00     0.023 C 
BRANCH   2   3
ATOM      3  C   UNL A   1      31.354  29.836  25.011  1.00  0.00     0.116 C 
BRANCH   3   4
ATOM      4  N   UNL A   1      30.667  29.905  23.730  1.00  0.00    -0.352 N 
ATOM      5  C   UNL A   1      30.375  28.928  22.800  1.00  0.00     0.251 C 
ATOM      6  O   UNL A   1      29.758  29.249  21.784  1.00  0.00    -0.269 OA
ATOM      7  H   UNL A   1      30.357  30.806  23.484  1.00  0.00     0.163 HD
BRANCH   5   8
ATOM      8  C   UNL A   1      30.821  27.512  22.949  1.00  0.00     0.039 A 
ATOM      9  C   UNL A   1      31.860  24.917  23.366  1.00  0.00     0.037 A 
ATOM     10  C   UNL A   1      32.573  25.842  22.598  1.00  0.00     0.014 A 
ATOM     11  C   UNL A   1      30.594  25.278  23.848  1.00  0.00     0.014 A 
ATOM     12  C   UNL A   1      32.056  27.133  22.395  1.00  0.00     0.014 A 
ATOM     13  C   UNL A   1      30.062  26.541  23.599  1.00  0.00     0.014 A 
BRANCH   9  14
ATOM     14  C   UNL A   1      32.333  23.573  23.664  1.00  0.00     0.227 A 
ATOM     15  C   UNL A   1      34.952  21.349  24.491  1.00  0.00     0.001 A 
ATOM     16  C   UNL A   1      34.719  19.999  24.849  1.00  0.00     0.027 A 
ATOM     17  C   UNL A   1      33.791  22.069  24.191  1.00  0.00     0.158 A 
ATOM     18  C   UNL A   1      33.427  19.441  24.906  1.00  0.00     0.055 A 
ATOM     19  C   UNL A   1      32.505  21.553  24.255  1.00  0.00     0.111 A 
ATOM     20  O   UNL A   1      33.685  23.378  23.791  1.00  0.00    -0.436 OA
ATOM     21  C   UNL A   1      32.301  20.221  24.621  1.00  0.00     0.052 A 
ATOM     22  N   UNL A   1      31.594  22.513  23.930  1.00  0.00    -0.209 NA
BRANCH  15  23
ATOM     23  C   UNL A   1      36.360  21.905  24.466  1.00  0.00     0.017 C 
ATOM     24  C   UNL A   1      36.478  23.170  25.317  1.00  0.00     0.012 C 
ATOM     25  C   UNL A   1      37.385  20.854  24.893  1.00  0.00     0.012 C 
ENDBRANCH  15  23
BRANCH  18  26
ATOM     26  C   UNL A   1      33.251  18.064  25.243  1.00  0.00     0.099 C 
ATOM     27  N   UNL A   1      33.092  16.943  25.529  1.00  0.00    -0.192 NA
ENDBRANCH  18  26
ENDBRANCH   9  14
ENDBRANCH   5   8
ENDBRANCH   3   4
ENDBRANCH   2   3
ENDBRANCH   1   2
BRANCH   1  28
ATOM     28  C   UNL A   1      33.395  29.678  27.469  1.00  0.00     0.116 C 
BRANCH  28  29
ATOM     29  N   UNL A   1      33.860  31.047  27.553  1.00  0.00    -0.352 N 
ATOM     30  C   UNL A   1      35.070  31.643  27.777  1.00  0.00     0.251 C 
ATOM     31  H   UNL A   1      33.135  31.701  27.419  1.00  0.00     0.163 HD
ATOM     32  O   UNL A   1      35.127  32.844  27.492  1.00  0.00    -0.269 OA
BRANCH  30  33
ATOM     33  C   UNL A   1      36.253  30.997  28.408  1.00  0.00     0.039 A 
ATOM     34  C   UNL A   1      37.408  31.656  28.820  1.00  0.00     0.014 A 
ATOM     35  C   UNL A   1      36.222  29.588  28.468  1.00  0.00     0.014 A 
ATOM     36  C   UNL A   1      38.550  30.925  29.127  1.00  0.00     0.010 A 
ATOM     37  C   UNL A   1      37.354  28.853  28.798  1.00  0.00     0.010 A 
ATOM     38  C   UNL A   1      38.539  29.524  29.054  1.00  0.00    -0.014 A 
BRANCH  38  39
ATOM     39  C   UNL A   1      39.773  28.808  29.362  1.00  0.00     0.031 A 
ATOM     40  C   UNL A   1      40.154  28.892  30.798  1.00  0.00     0.074 A 
ATOM     41  C   UNL A   1      40.499  28.110  28.462  1.00  0.00     0.049 A 
ATOM     42  N   UNL A   1      41.120  29.587  31.304  1.00  0.00    -0.248 NA
ATOM     43  C   UNL A   1      39.260  28.295  31.800  1.00  0.00     0.031 C 
ATOM     44  C   UNL A   1      40.153  27.740  27.087  1.00  0.00     0.029 A 
ATOM     45  N   UNL A   1      41.705  27.496  28.634  1.00  0.00    -0.354 N 
ATOM     46  C   UNL A   1      41.095  29.332  32.672  1.00  0.00     0.074 A 
ATOM     47  C   UNL A   1      39.842  28.674  32.939  1.00  0.00     0.031 C 
ATOM     48  C   UNL A   1      40.998  26.772  26.653  1.00  0.00     0.029 A 
ATOM     49  C   UNL A   1      42.031  26.562  27.651  1.00  0.00     0.049 A 
ATOM     50  H   UNL A   1      42.299  27.698  29.393  1.00  0.00     0.167 HD
ATOM     51  C   UNL A   1      42.208  29.488  33.439  1.00  0.00     0.034 A 
ATOM     52  C   UNL A   1      43.051  25.662  27.696  1.00  0.00     0.034 A 
ATOM     53  C   UNL A   1      43.218  30.253  32.760  1.00  0.00     0.049 A 
ATOM     54  C   UNL A   1      44.048  26.209  28.645  1.00  0.00     0.074 A 
ATOM     55  C   UNL A   1      43.306  31.540  32.270  1.00  0.00     0.029 A 
ATOM     56  N   UNL A   1      44.218  29.542  32.144  1.00  0.00    -0.354 N 
ATOM     57  N   UNL A   1      44.718  27.304  28.426  1.00  0.00    -0.248 NA
ATOM     58  C   UNL A   1      43.960  25.782  30.032  1.00  0.00     0.031 C 
ATOM     59  C   UNL A   1      44.019  31.413  31.042  1.00  0.00     0.029 A 
ATOM     60  C   UNL A   1      44.385  30.075  30.895  1.00  0.00     0.049 A 
ATOM     61  H   UNL A   1      44.720  28.788  32.529  1.00  0.00     0.167 HD
ATOM     62  C   UNL A   1      44.729  27.942  29.657  1.00  0.00     0.074 A 
ATOM     63  C   UNL A   1      44.319  26.923  30.624  1.00  0.00     0.031 C 
ATOM     64  C   UNL A   1      44.780  29.301  29.741  1.00  0.00     0.034 A 
BRANCH  51  65
ATOM     65  C   UNL A   1      42.549  28.643  34.640  1.00  0.00     0.023 A 
ATOM     66  C   UNL A   1      42.970  29.311  35.812  1.00  0.00     0.012 A 
ATOM     67  C   UNL A   1      42.767  27.248  34.576  1.00  0.00     0.148 A 
ATOM     68  C   UNL A   1      43.615  28.631  36.850  1.00  0.00     0.002 A 
ATOM     69  C   UNL A   1      43.360  26.567  35.633  1.00  0.00     0.091 A 
ATOM     70  F   UNL A   1      42.521  26.590  33.441  1.00  0.00    -0.205 F 
ATOM     71  C   UNL A   1      43.807  27.259  36.762  1.00  0.00     0.022 A 
BRANCH  69  72
ATOM     72  S   UNL A   1      43.649  24.795  35.575  1.00  0.00     0.127 S 
ATOM     73  O   UNL A   1      44.618  24.695  34.488  1.00  0.00    -0.237 OA
ATOM     74  O   UNL A   1      44.186  24.539  36.912  1.00  0.00    -0.237 OA
ATOM     75  O   UNL A   1      42.345  24.192  35.327  1.00  0.00    -0.744 OA
ENDBRANCH  69  72
ENDBRANCH  51  65
BRANCH  52  76
ATOM     76  C   UNL A   1      43.107  24.231  27.279  1.00  0.00     0.023 A 
ATOM     77  C   UNL A   1      41.974  23.407  27.484  1.00  0.00     0.012 A 
ATOM     78  C   UNL A   1      44.103  23.761  26.396  1.00  0.00     0.148 A 
ATOM     79  C   UNL A   1      41.805  22.206  26.782  1.00  0.00     0.002 A 
ATOM     80  C   UNL A   1      43.933  22.562  25.704  1.00  0.00     0.091 A 
ATOM     81  F   UNL A   1      45.171  24.533  26.159  1.00  0.00    -0.205 F 
ATOM     82  C   UNL A   1      42.777  21.792  25.878  1.00  0.00     0.022 A 
BRANCH  80  83
ATOM     83  S   UNL A   1      45.141  21.970  24.509  1.00  0.00     0.127 S 
ATOM     84  O   UNL A   1      44.525  20.726  24.045  1.00  0.00    -0.237 OA
ATOM     85  O   UNL A   1      45.152  23.050  23.528  1.00  0.00    -0.237 OA
ATOM     86  O   UNL A   1      46.377  21.781  25.258  1.00  0.00    -0.744 OA
ENDBRANCH  80  83
ENDBRANCH  52  76
BRANCH  64  87
ATOM     87  C   UNL A   1      45.050  30.084  28.486  1.00  0.00     0.023 A 
ATOM     88  C   UNL A   1      44.016  30.559  27.649  1.00  0.00     0.012 A 
ATOM     89  C   UNL A   1      46.363  30.530  28.274  1.00  0.00     0.148 A 
ATOM     90  C   UNL A   1      44.295  31.472  26.625  1.00  0.00     0.002 A 
ATOM     91  C   UNL A   1      46.628  31.461  27.281  1.00  0.00     0.091 A 
ATOM     92  F   UNL A   1      47.321  30.070  29.092  1.00  0.00    -0.205 F 
ATOM     93  C   UNL A   1      45.598  31.935  26.452  1.00  0.00     0.022 A 
BRANCH  91  94
ATOM     94  S   UNL A   1      48.260  32.174  27.074  1.00  0.00     0.127 S 
ATOM     95  O   UNL A   1      48.040  33.128  25.987  1.00  0.00    -0.237 OA
ATOM     96  O   UNL A   1      48.499  32.782  28.384  1.00  0.00    -0.237 OA
ATOM     97  O   UNL A   1      49.152  31.067  26.754  1.00  0.00    -0.744 OA
ENDBRANCH  91  94
ENDBRANCH  64  87
ENDBRANCH  38  39
ENDBRANCH  30  33
ENDBRANCH  28  29
ENDBRANCH   1  28
TORSDOF 17
ENDMDL
MODEL 2
REMARK VINA RESULT:     -12.8      3.305      9.292
REMARK SMILES CC(C)c1cc(C#N)cc2nc(-c3ccc(C(=O)NCCCCNC(=O)c4ccc(-c5c6nc(c(-c7cccc(S(=O)(=O)[O-])c7F)c7ccc([nH]7)c(-c7cccc(S(=O)(=O)[O-])c7F)c7nc(c(-c8cccc(S(=O)(=O)[O-])c8F)c8ccc5[nH]8)C=C7)C=C6)cc4)cc3)oc12
REMARK SMILES IDX 22 1 21 2 20 3 19 4 17 5 18 6 16 8 13 9 14 10 91 11 15 12
REMARK SMILES IDX 90 13 12 14 4 15 5 16 93 17 6 18 10 19 92 20 9 21 11 22 2 23
REMARK SMILES IDX 1 24 3 25 7 26 8 27 23 28 24 29 25 30 26 32 27 33 28 34
REMARK SMILES IDX 89 35 29 36 88 37 30 38 31 39 32 40 82 41 33 42 87 43 81 44
REMARK SMILES IDX 83 45 34 46 86 47 80 48 79 49 35 51 67 52 47 53 66 54 48 55
REMARK SMILES IDX 51 56 65 57 84 58 49 59 50 60 64 62 85 63 52 64 36 65 37 66
REMARK SMILES IDX 45 67 38 68 40 69 46 70 39 71 41 72 42 73 43 74 44 75 68 76
REMARK SMILES IDX 69 77 77 78 70 79 72 80 78 81 71 82 73 83 74 84 75 85 76 86
REMARK SMILES IDX 53 87 54 88 62 89 55 90 57 91 63 92 56 93 58 94 59 95 60 96
REMARK SMILES IDX 61 97
REMARK H PARENT 19 7 24 31 83 50 51 61
REMARK Flexibility Score: inf
ROOT
ATOM      1  C   UNL A   1      37.436  21.503  24.530  1.00  0.00     0.023 C 
ENDROOT
BRANCH   1   2
ATOM      2  C   UNL A   1      35.914  21.625  24.564  1.00  0.00     0.023 C 
BRANCH   2   3
ATOM      3  C   UNL A   1      35.199  21.126  25.814  1.00  0.00     0.116 C 
BRANCH   3   4
ATOM      4  N   UNL A   1      34.128  20.170  25.575  1.00  0.00    -0.352 N 
ATOM      5  C   UNL A   1      32.834  20.346  25.130  1.00  0.00     0.251 C 
ATOM      6  O   UNL A   1      32.118  19.353  24.995  1.00  0.00    -0.269 OA
ATOM      7  H   UNL A   1      34.369  19.235  25.765  1.00  0.00     0.163 HD
BRANCH   5   8
ATOM      8  C   UNL A   1      32.250  21.691  24.856  1.00  0.00     0.039 A 
ATOM      9  C   UNL A   1      31.289  24.328  24.523  1.00  0.00     0.037 A 
ATOM     10  C   UNL A   1      31.008  23.623  25.697  1.00  0.00     0.014 A 
ATOM     11  C   UNL A   1      31.979  23.673  23.495  1.00  0.00     0.014 A 
ATOM     12  C   UNL A   1      31.490  22.313  25.862  1.00  0.00     0.014 A 
ATOM     13  C   UNL A   1      32.410  22.355  23.641  1.00  0.00     0.014 A 
BRANCH   9  14
ATOM     14  C   UNL A   1      30.868  25.700  24.280  1.00  0.00     0.227 A 
ATOM     15  C   UNL A   1      31.128  29.161  24.949  1.00  0.00     0.001 A 
ATOM     16  C   UNL A   1      30.465  30.138  24.168  1.00  0.00     0.027 A 
ATOM     17  C   UNL A   1      30.897  27.845  24.534  1.00  0.00     0.158 A 
ATOM     18  C   UNL A   1      29.655  29.807  23.065  1.00  0.00     0.055 A 
ATOM     19  C   UNL A   1      30.120  27.488  23.442  1.00  0.00     0.111 A 
ATOM     20  O   UNL A   1      31.372  26.684  25.091  1.00  0.00    -0.436 OA
ATOM     21  C   UNL A   1      29.485  28.472  22.682  1.00  0.00     0.052 A 
ATOM     22  N   UNL A   1      30.116  26.134  23.286  1.00  0.00    -0.209 NA
BRANCH  15  23
ATOM     23  C   UNL A   1      32.005  29.571  26.113  1.00  0.00     0.017 C 
ATOM     24  C   UNL A   1      33.487  29.353  25.802  1.00  0.00     0.012 C 
ATOM     25  C   UNL A   1      31.736  31.017  26.534  1.00  0.00     0.012 C 
ENDBRANCH  15  23
BRANCH  18  26
ATOM     26  C   UNL A   1      28.983  30.832  22.331  1.00  0.00     0.099 C 
ATOM     27  N   UNL A   1      28.421  31.657  21.725  1.00  0.00    -0.192 NA
ENDBRANCH  18  26
ENDBRANCH   9  14
ENDBRANCH   5   8
ENDBRANCH   3   4
ENDBRANCH   2   3
ENDBRANCH   1   2
BRANCH   1  28
ATOM     28  C   UNL A   1      38.168  21.823  25.836  1.00  0.00     0.116 C 
BRANCH  28  29
ATOM     29  N   UNL A   1      39.612  21.865  25.730  1.00  0.00    -0.352 N 
ATOM     30  C   UNL A   1      40.610  22.521  26.396  1.00  0.00     0.251 C 
ATOM     31  H   UNL A   1      39.955  21.286  25.011  1.00  0.00     0.163 HD
ATOM     32  O   UNL A   1      41.748  22.083  26.205  1.00  0.00    -0.269 OA
BRANCH  30  33
ATOM     33  C   UNL A   1      40.441  23.745  27.226  1.00  0.00     0.039 A 
ATOM     34  C   UNL A   1      39.339  24.596  27.193  1.00  0.00     0.014 A 
ATOM     35  C   UNL A   1      41.555  24.113  28.009  1.00  0.00     0.014 A 
ATOM     36  C   UNL A   1      39.414  25.849  27.792  1.00  0.00     0.010 A 
ATOM     37  C   UNL A   1      41.625  25.354  28.630  1.00  0.00     0.010 A 
ATOM     38  C   UNL A   1      40.582  26.251  28.456  1.00  0.00    -0.014 A 
BRANCH  38  39
ATOM     39  C   UNL A   1      40.616  27.586  29.044  1.00  0.00     0.031 A 
ATOM     40  C   UNL A   1      41.615  28.484  28.403  1.00  0.00     0.074 A 
ATOM     41  C   UNL A   1      39.814  28.001  30.050  1.00  0.00     0.049 A 
ATOM     42  N   UNL A   1      42.742  28.871  28.904  1.00  0.00    -0.248 NA
ATOM     43  C   UNL A   1      41.437  28.836  26.987  1.00  0.00     0.031 C 
ATOM     44  C   UNL A   1      38.644  27.335  30.629  1.00  0.00     0.029 A 
ATOM     45  N   UNL A   1      39.838  29.186  30.724  1.00  0.00    -0.354 N 
ATOM     46  C   UNL A   1      43.313  29.707  27.949  1.00  0.00     0.074 A 
ATOM     47  C   UNL A   1      42.558  29.516  26.738  1.00  0.00     0.031 C 
ATOM     48  C   UNL A   1      37.940  28.225  31.371  1.00  0.00     0.029 A 
ATOM     49  C   UNL A   1      38.681  29.471  31.448  1.00  0.00     0.049 A 
ATOM     50  H   UNL A   1      40.613  29.793  30.702  1.00  0.00     0.167 HD
ATOM     51  C   UNL A   1      44.227  30.654  28.296  1.00  0.00     0.034 A 
ATOM     52  C   UNL A   1      38.355  30.663  32.018  1.00  0.00     0.034 A 
ATOM     53  C   UNL A   1      44.752  30.426  29.615  1.00  0.00     0.049 A 
ATOM     54  C   UNL A   1      39.631  31.387  32.228  1.00  0.00     0.074 A 
ATOM     55  C   UNL A   1      45.480  29.420  30.218  1.00  0.00     0.029 A 
ATOM     56  N   UNL A   1      44.190  31.153  30.635  1.00  0.00    -0.354 N 
ATOM     57  N   UNL A   1      40.555  30.982  33.052  1.00  0.00    -0.248 NA
ATOM     58  C   UNL A   1      40.062  32.303  31.185  1.00  0.00     0.031 C 
ATOM     59  C   UNL A   1      44.922  29.302  31.525  1.00  0.00     0.029 A 
ATOM     60  C   UNL A   1      43.943  30.286  31.665  1.00  0.00     0.049 A 
ATOM     61  H   UNL A   1      44.000  32.119  30.627  1.00  0.00     0.167 HD
ATOM     62  C   UNL A   1      41.738  31.208  32.365  1.00  0.00     0.074 A 
ATOM     63  C   UNL A   1      41.379  32.095  31.258  1.00  0.00     0.031 C 
ATOM     64  C   UNL A   1      42.833  30.425  32.578  1.00  0.00     0.034 A 
BRANCH  51  65
ATOM     65  C   UNL A   1      44.377  31.993  27.621  1.00  0.00     0.023 A 
ATOM     66  C   UNL A   1      45.485  32.174  26.763  1.00  0.00     0.012 A 
ATOM     67  C   UNL A   1      43.672  33.151  28.020  1.00  0.00     0.148 A 
ATOM     68  C   UNL A   1      45.896  33.447  26.358  1.00  0.00     0.002 A 
ATOM     69  C   UNL A   1      44.052  34.410  27.572  1.00  0.00     0.091 A 
ATOM     70  F   UNL A   1      42.708  33.057  28.940  1.00  0.00    -0.205 F 
ATOM     71  C   UNL A   1      45.178  34.566  26.760  1.00  0.00     0.022 A 
BRANCH  69  72
ATOM     72  S   UNL A   1      43.172  35.897  28.066  1.00  0.00     0.127 S 
ATOM     73  O   UNL A   1      43.940  36.930  27.376  1.00  0.00    -0.237 OA
ATOM     74  O   UNL A   1      41.838  35.646  27.522  1.00  0.00    -0.237 OA
ATOM     75  O   UNL A   1      43.231  35.923  29.522  1.00  0.00    -0.744 OA
ENDBRANCH  69  72
ENDBRANCH  51  65
BRANCH  52  76
ATOM     76  C   UNL A   1      37.053  31.387  32.089  1.00  0.00     0.023 A 
ATOM     77  C   UNL A   1      36.629  31.925  33.328  1.00  0.00     0.012 A 
ATOM     78  C   UNL A   1      36.401  31.842  30.923  1.00  0.00     0.148 A 
ATOM     79  C   UNL A   1      35.653  32.929  33.395  1.00  0.00     0.002 A 
ATOM     80  C   UNL A   1      35.425  32.837  30.995  1.00  0.00     0.091 A 
ATOM     81  F   UNL A   1      36.801  31.374  29.734  1.00  0.00    -0.205 F 
ATOM     82  C   UNL A   1      35.064  33.397  32.226  1.00  0.00     0.022 A 
BRANCH  80  83
ATOM     83  S   UNL A   1      34.630  33.502  29.525  1.00  0.00     0.127 S 
ATOM     84  O   UNL A   1      35.728  34.233  28.890  1.00  0.00    -0.237 OA
ATOM     85  O   UNL A   1      34.218  32.289  28.827  1.00  0.00    -0.237 OA
ATOM     86  O   UNL A   1      33.549  34.351  30.011  1.00  0.00    -0.744 OA
ENDBRANCH  80  83
ENDBRANCH  52  76
BRANCH  64  87
ATOM     87  C   UNL A   1      42.805  29.458  33.729  1.00  0.00     0.023 A 
ATOM     88  C   UNL A   1      42.343  28.130  33.596  1.00  0.00     0.012 A 
ATOM     89  C   UNL A   1      43.462  29.840  34.908  1.00  0.00     0.148 A 
ATOM     90  C   UNL A   1      42.546  27.201  34.623  1.00  0.00     0.002 A 
ATOM     91  C   UNL A   1      43.693  28.906  35.908  1.00  0.00     0.091 A 
ATOM     92  F   UNL A   1      43.900  31.104  35.001  1.00  0.00    -0.205 F 
ATOM     93  C   UNL A   1      43.235  27.586  35.771  1.00  0.00     0.022 A 
BRANCH  91  94
ATOM     94  S   UNL A   1      44.662  29.308  37.362  1.00  0.00     0.127 S 
ATOM     95  O   UNL A   1      45.936  29.719  36.775  1.00  0.00    -0.237 OA
ATOM     96  O   UNL A   1      43.883  30.394  37.960  1.00  0.00    -0.237 OA
ATOM     97  O   UNL A   1      44.714  28.094  38.166  1.00  0.00    -0.744 OA
ENDBRANCH  91  94
ENDBRANCH  64  87
ENDBRANCH  38  39
ENDBRANCH  30  33
ENDBRANCH  28  29
ENDBRANCH   1  28
TORSDOF 17
ENDMDL
MODEL 3
REMARK VINA RESULT:     -12.6      1.097      1.787
REMARK SMILES CC(C)c1cc(C#N)cc2nc(-c3ccc(C(=O)NCCCCNC(=O)c4ccc(-c5c6nc(c(-c7cccc(S(=O)(=O)[O-])c7F)c7ccc([nH]7)c(-c7cccc(S(=O)(=O)[O-])c7F)c7nc(c(-c8cccc(S(=O)(=O)[O-])c8F)c8ccc5[nH]8)C=C7)C=C6)cc4)cc3)oc12
REMARK SMILES IDX 22 1 21 2 20 3 19 4 17 5 18 6 16 8 13 9 14 10 91 11 15 12
REMARK SMILES IDX 90 13 12 14 4 15 5 16 93 17 6 18 10 19 92 20 9 21 11 22 2 23
REMARK SMILES IDX 1 24 3 25 7 26 8 27 23 28 24 29 25 30 26 32 27 33 28 34
REMARK SMILES IDX 89 35 29 36 88 37 30 38 31 39 32 40 82 41 33 42 87 43 81 44
REMARK SMILES IDX 83 45 34 46 86 47 80 48 79 49 35 51 67 52 47 53 66 54 48 55
REMARK SMILES IDX 51 56 65 57 84 58 49 59 50 60 64 62 85 63 52 64 36 65 37 66
REMARK SMILES IDX 45 67 38 68 40 69 46 70 39 71 41 72 42 73 43 74 44 75 68 76
REMARK SMILES IDX 69 77 77 78 70 79 72 80 78 81 71 82 73 83 74 84 75 85 76 86
REMARK SMILES IDX 53 87 54 88 62 89 55 90 57 91 63 92 56 93 58 94 59 95 60 96
REMARK SMILES IDX 61 97
REMARK H PARENT 19 7 24 31 83 50 51 61
REMARK Flexibility Score: inf
ROOT
ATOM      1  C   UNL A   1      32.145  30.490  26.923  1.00  0.00     0.023 C 
ENDROOT
BRANCH   1   2
ATOM      2  C   UNL A   1      31.819  29.398  25.905  1.00  0.00     0.023 C 
BRANCH   2   3
ATOM      3  C   UNL A   1      32.285  29.617  24.471  1.00  0.00     0.116 C 
BRANCH   3   4
ATOM      4  N   UNL A   1      31.329  29.235  23.443  1.00  0.00    -0.352 N 
ATOM      5  C   UNL A   1      31.076  28.019  22.842  1.00  0.00     0.251 C 
ATOM      6  O   UNL A   1      30.186  27.955  21.994  1.00  0.00    -0.269 OA
ATOM      7  H   UNL A   1      30.764  29.973  23.120  1.00  0.00     0.163 HD
BRANCH   5   8
ATOM      8  C   UNL A   1      31.870  26.791  23.139  1.00  0.00     0.039 A 
ATOM      9  C   UNL A   1      33.579  24.614  23.713  1.00  0.00     0.037 A 
ATOM     10  C   UNL A   1      33.712  25.311  22.509  1.00  0.00     0.014 A 
ATOM     11  C   UNL A   1      32.535  24.965  24.580  1.00  0.00     0.014 A 
ATOM     12  C   UNL A   1      32.864  26.395  22.227  1.00  0.00     0.014 A 
ATOM     13  C   UNL A   1      31.663  26.007  24.273  1.00  0.00     0.014 A 
BRANCH   9  14
ATOM     14  C   UNL A   1      34.436  23.506  24.109  1.00  0.00     0.227 A 
ATOM     15  C   UNL A   1      34.947  20.047  24.623  1.00  0.00     0.001 A 
ATOM     16  C   UNL A   1      36.223  19.501  24.908  1.00  0.00     0.027 A 
ATOM     17  C   UNL A   1      34.945  21.436  24.459  1.00  0.00     0.158 A 
ATOM     18  C   UNL A   1      37.383  20.293  25.005  1.00  0.00     0.055 A 
ATOM     19  C   UNL A   1      36.072  22.240  24.531  1.00  0.00     0.111 A 
ATOM     20  O   UNL A   1      33.876  22.257  24.201  1.00  0.00    -0.436 OA
ATOM     21  C   UNL A   1      37.320  21.676  24.803  1.00  0.00     0.052 A 
ATOM     22  N   UNL A   1      35.741  23.541  24.299  1.00  0.00    -0.209 NA
BRANCH  15  23
ATOM     23  C   UNL A   1      33.734  19.148  24.509  1.00  0.00     0.017 C 
ATOM     24  C   UNL A   1      34.129  17.720  24.129  1.00  0.00     0.012 C 
ATOM     25  C   UNL A   1      32.900  19.168  25.790  1.00  0.00     0.012 C 
ENDBRANCH  15  23
BRANCH  18  26
ATOM     26  C   UNL A   1      38.639  19.693  25.327  1.00  0.00     0.099 C 
ATOM     27  N   UNL A   1      39.673  19.209  25.573  1.00  0.00    -0.192 NA
ENDBRANCH  18  26
ENDBRANCH   9  14
ENDBRANCH   5   8
ENDBRANCH   3   4
ENDBRANCH   2   3
ENDBRANCH   1   2
BRANCH   1  28
ATOM     28  C   UNL A   1      33.571  30.491  27.477  1.00  0.00     0.116 C 
BRANCH  28  29
ATOM     29  N   UNL A   1      34.155  31.805  27.651  1.00  0.00    -0.352 N 
ATOM     30  C   UNL A   1      35.409  32.275  27.932  1.00  0.00     0.251 C 
ATOM     31  H   UNL A   1      33.496  32.529  27.542  1.00  0.00     0.163 HD
ATOM     32  O   UNL A   1      35.581  33.479  27.720  1.00  0.00    -0.269 OA
BRANCH  30  33
ATOM     33  C   UNL A   1      36.513  31.488  28.546  1.00  0.00     0.039 A 
ATOM     34  C   UNL A   1      37.657  32.024  29.132  1.00  0.00     0.014 A 
ATOM     35  C   UNL A   1      36.424  30.088  28.397  1.00  0.00     0.014 A 
ATOM     36  C   UNL A   1      38.743  31.201  29.411  1.00  0.00     0.010 A 
ATOM     37  C   UNL A   1      37.498  29.258  28.696  1.00  0.00     0.010 A 
ATOM     38  C   UNL A   1      38.684  29.828  29.133  1.00  0.00    -0.014 A 
BRANCH  38  39
ATOM     39  C   UNL A   1      39.862  29.016  29.422  1.00  0.00     0.031 A 
ATOM     40  C   UNL A   1      40.260  29.052  30.855  1.00  0.00     0.074 A 
ATOM     41  C   UNL A   1      40.525  28.275  28.507  1.00  0.00     0.049 A 
ATOM     42  N   UNL A   1      41.280  29.665  31.360  1.00  0.00    -0.248 NA
ATOM     43  C   UNL A   1      39.330  28.513  31.857  1.00  0.00     0.031 C 
ATOM     44  C   UNL A   1      40.140  27.950  27.130  1.00  0.00     0.029 A 
ATOM     45  N   UNL A   1      41.682  27.569  28.661  1.00  0.00    -0.354 N 
ATOM     46  C   UNL A   1      41.247  29.395  32.725  1.00  0.00     0.074 A 
ATOM     47  C   UNL A   1      39.949  28.832  32.996  1.00  0.00     0.031 C 
ATOM     48  C   UNL A   1      40.905  26.926  26.678  1.00  0.00     0.029 A 
ATOM     49  C   UNL A   1      41.927  26.625  27.664  1.00  0.00     0.049 A 
ATOM     50  H   UNL A   1      42.296  27.715  29.416  1.00  0.00     0.167 HD
ATOM     51  C   UNL A   1      42.374  29.456  33.485  1.00  0.00     0.034 A 
ATOM     52  C   UNL A   1      42.875  25.648  27.689  1.00  0.00     0.034 A 
ATOM     53  C   UNL A   1      43.435  30.150  32.806  1.00  0.00     0.049 A 
ATOM     54  C   UNL A   1      43.919  26.106  28.636  1.00  0.00     0.074 A 
ATOM     55  C   UNL A   1      43.617  31.433  32.330  1.00  0.00     0.029 A 
ATOM     56  N   UNL A   1      44.372  29.372  32.172  1.00  0.00    -0.354 N 
ATOM     57  N   UNL A   1      44.670  27.149  28.423  1.00  0.00    -0.248 NA
ATOM     58  C   UNL A   1      43.810  25.669  30.018  1.00  0.00     0.031 C 
ATOM     59  C   UNL A   1      44.309  31.267  31.094  1.00  0.00     0.029 A 
ATOM     60  C   UNL A   1      44.570  29.907  30.927  1.00  0.00     0.049 A 
ATOM     61  H   UNL A   1      44.818  28.577  32.543  1.00  0.00     0.167 HD
ATOM     62  C   UNL A   1      44.739  27.769  29.661  1.00  0.00     0.074 A 
ATOM     63  C   UNL A   1      44.260  26.773  30.620  1.00  0.00     0.031 C 
ATOM     64  C   UNL A   1      44.895  29.119  29.761  1.00  0.00     0.034 A 
BRANCH  51  65
ATOM     65  C   UNL A   1      42.659  28.572  34.672  1.00  0.00     0.023 A 
ATOM     66  C   UNL A   1      43.080  29.198  35.868  1.00  0.00     0.012 A 
ATOM     67  C   UNL A   1      42.828  27.172  34.581  1.00  0.00     0.148 A 
ATOM     68  C   UNL A   1      43.678  28.471  36.902  1.00  0.00     0.002 A 
ATOM     69  C   UNL A   1      43.373  26.446  35.633  1.00  0.00     0.091 A 
ATOM     70  F   UNL A   1      42.582  26.549  33.425  1.00  0.00    -0.205 F 
ATOM     71  C   UNL A   1      43.822  27.095  36.787  1.00  0.00     0.022 A 
BRANCH  69  72
ATOM     72  S   UNL A   1      43.599  24.666  35.540  1.00  0.00     0.127 S 
ATOM     73  O   UNL A   1      44.084  24.365  36.884  1.00  0.00    -0.237 OA
ATOM     74  O   UNL A   1      42.238  24.211  35.254  1.00  0.00    -0.237 OA
ATOM     75  O   UNL A   1      44.546  24.446  34.455  1.00  0.00    -0.744 OA
ENDBRANCH  69  72
ENDBRANCH  51  65
BRANCH  52  76
ATOM     76  C   UNL A   1      42.818  24.223  27.254  1.00  0.00     0.023 A 
ATOM     77  C   UNL A   1      41.598  23.515  27.369  1.00  0.00     0.012 A 
ATOM     78  C   UNL A   1      43.821  23.664  26.433  1.00  0.00     0.148 A 
ATOM     79  C   UNL A   1      41.360  22.342  26.639  1.00  0.00     0.002 A 
ATOM     80  C   UNL A   1      43.582  22.494  25.713  1.00  0.00     0.091 A 
ATOM     81  F   UNL A   1      44.975  24.327  26.281  1.00  0.00    -0.205 F 
ATOM     82  C   UNL A   1      42.346  21.842  25.796  1.00  0.00     0.022 A 
BRANCH  80  83
ATOM     83  S   UNL A   1      44.805  21.795  24.594  1.00  0.00     0.127 S 
ATOM     84  O   UNL A   1      44.196  20.511  24.242  1.00  0.00    -0.237 OA
ATOM     85  O   UNL A   1      44.826  22.778  23.514  1.00  0.00    -0.237 OA
ATOM     86  O   UNL A   1      46.032  21.681  25.371  1.00  0.00    -0.744 OA
ENDBRANCH  80  83
ENDBRANCH  52  76
BRANCH  64  87
ATOM     87  C   UNL A   1      45.214  29.895  28.513  1.00  0.00     0.023 A 
ATOM     88  C   UNL A   1      44.212  30.400  27.655  1.00  0.00     0.012 A 
ATOM     89  C   UNL A   1      46.543  30.302  28.330  1.00  0.00     0.148 A 
ATOM     90  C   UNL A   1      44.539  31.305  26.639  1.00  0.00     0.002 A 
ATOM     91  C   UNL A   1      46.857  31.226  27.343  1.00  0.00     0.091 A 
ATOM     92  F   UNL A   1      47.471  29.813  29.167  1.00  0.00    -0.205 F 
ATOM     93  C   UNL A   1      45.858  31.730  26.494  1.00  0.00     0.022 A 
BRANCH  91  94
ATOM     94  S   UNL A   1      48.513  31.891  27.171  1.00  0.00     0.127 S 
ATOM     95  O   UNL A   1      48.325  32.911  26.140  1.00  0.00    -0.237 OA
ATOM     96  O   UNL A   1      48.774  32.415  28.513  1.00  0.00    -0.237 OA
ATOM     97  O   UNL A   1      49.364  30.772  26.787  1.00  0.00    -0.744 OA
ENDBRANCH  91  94
ENDBRANCH  64  87
ENDBRANCH  38  39
ENDBRANCH  30  33
ENDBRANCH  28  29
ENDBRANCH   1  28
TORSDOF 17
ENDMDL
