MODEL 1
REMARK VINA RESULT:     -14.1      0.000      0.000
REMARK SMILES Cc1ccc(NC(=O)c2ccccc2NC(=O)[C@H]2CCCC[C@H]2C(=O)NCCCCNC(=O)c2ccc(-c3c4nc(c(-c5cccc(S(=O)(=O)[O-])c5F)c5ccc([nH]5)c(-c5cccc(S(=O)(=O)[O-])c5F)c5nc(c(-c6cccc(S(=O)(=O)[O-])c6F)c6ccc3[nH]6)C=C5)C=C4)cc2)cc1
REMARK SMILES IDX 28 1 27 2 26 3 24 4 25 5 23 7 18 8 19 9 20 10 22 11 21 12
REMARK SMILES IDX 16 13 15 14 17 16 14 17 9 18 10 19 11 20 13 21 12 22 7 23
REMARK SMILES IDX 6 24 8 26 5 27 1 28 2 29 3 30 98 31 4 32 97 33 29 34 30 35
REMARK SMILES IDX 31 36 32 37 33 39 34 40 35 41 96 42 36 43 95 44 37 45 38 46
REMARK SMILES IDX 39 47 89 48 40 49 94 50 88 51 90 52 41 53 93 54 87 55 86 56
REMARK SMILES IDX 42 58 74 59 54 60 73 61 55 62 58 63 72 64 91 65 56 66 57 67
REMARK SMILES IDX 71 69 92 70 59 71 43 72 44 73 52 74 45 75 47 76 53 77 46 78
REMARK SMILES IDX 48 79 49 80 50 81 51 82 75 83 76 84 84 85 77 86 79 87 85 88
REMARK SMILES IDX 78 89 80 90 81 91 82 92 83 93 60 94 61 95 69 96 62 97 64 98
REMARK SMILES IDX 70 99 63 100 65 101 66 102 67 103 68 104
REMARK H PARENT 26 6 15 15 6 25 31 38 90 57 58 68
REMARK Flexibility Score: inf
ROOT
ATOM      1  C   UNL A   1      35.056  30.516  27.948  1.00  0.00     0.023 C 
ENDROOT
BRANCH   1   2
ATOM      2  C   UNL A   1      34.582  29.312  27.131  1.00  0.00     0.116 C 
BRANCH   2   3
ATOM      3  N   UNL A   1      33.382  28.736  27.723  1.00  0.00    -0.356 N 
ATOM      4  C   UNL A   1      32.304  28.105  27.202  1.00  0.00     0.223 C 
ATOM      5  O   UNL A   1      31.338  27.959  27.963  1.00  0.00    -0.275 OA
ATOM      6  H   UNL A   1      33.349  28.824  28.703  1.00  0.00     0.163 HD
BRANCH   4   7
ATOM      7  C   UNL A   1      32.177  27.593  25.764  1.00  0.00     0.091 C 
ATOM      8  C   UNL A   1      32.938  26.280  25.476  1.00  0.00     0.091 C 
ATOM      9  C   UNL A   1      32.952  25.983  23.961  1.00  0.00     0.014 C 
ATOM     10  C   UNL A   1      31.577  26.122  23.292  1.00  0.00     0.001 C 
ATOM     11  C   UNL A   1      30.811  27.731  25.092  1.00  0.00     0.014 C 
ATOM     12  C   UNL A   1      30.919  27.467  23.588  1.00  0.00     0.001 C 
BRANCH   8  13
ATOM     13  C   UNL A   1      32.351  25.071  26.166  1.00  0.00     0.228 C 
ATOM     14  N   UNL A   1      32.939  23.849  26.240  1.00  0.00    -0.325 N 
ATOM     15  H   UNL A   1      32.419  23.258  26.831  1.00  0.00     0.169 HD
ATOM     16  O   UNL A   1      31.266  25.173  26.750  1.00  0.00    -0.274 OA
BRANCH  14  17
ATOM     17  C   UNL A   1      34.059  23.166  25.734  1.00  0.00     0.054 A 
ATOM     18  C   UNL A   1      33.916  22.238  24.662  1.00  0.00     0.063 A 
ATOM     19  C   UNL A   1      35.049  21.496  24.252  1.00  0.00     0.016 A 
ATOM     20  C   UNL A   1      36.293  21.666  24.848  1.00  0.00     0.001 A 
ATOM     21  C   UNL A   1      35.340  23.374  26.261  1.00  0.00     0.027 A 
ATOM     22  C   UNL A   1      36.439  22.617  25.844  1.00  0.00     0.002 A 
BRANCH  18  23
ATOM     23  C   UNL A   1      32.659  21.765  23.990  1.00  0.00     0.257 C 
ATOM     24  N   UNL A   1      32.281  20.470  23.734  1.00  0.00    -0.322 N 
ATOM     25  H   UNL A   1      31.492  20.417  23.146  1.00  0.00     0.170 HD
ATOM     26  O   UNL A   1      31.889  22.639  23.569  1.00  0.00    -0.269 OA
BRANCH  24  27
ATOM     27  C   UNL A   1      32.752  19.211  24.110  1.00  0.00     0.041 A 
ATOM     28  C   UNL A   1      32.862  15.123  25.368  1.00  0.00     0.044 C 
ATOM     29  C   UNL A   1      32.985  16.563  24.967  1.00  0.00    -0.051 A 
ATOM     30  C   UNL A   1      33.252  16.904  23.634  1.00  0.00     0.005 A 
ATOM     31  C   UNL A   1      32.741  17.578  25.894  1.00  0.00     0.005 A 
ATOM     32  C   UNL A   1      33.152  18.231  23.207  1.00  0.00     0.026 A 
ATOM     33  C   UNL A   1      32.654  18.903  25.473  1.00  0.00     0.026 A 
ENDBRANCH  24  27
ENDBRANCH  18  23
ENDBRANCH  14  17
ENDBRANCH   8  13
ENDBRANCH   4   7
ENDBRANCH   2   3
ENDBRANCH   1   2
BRANCH   1  34
ATOM     34  C   UNL A   1      34.188  31.760  27.965  1.00  0.00     0.023 C 
BRANCH  34  35
ATOM     35  C   UNL A   1      34.842  32.943  28.635  1.00  0.00     0.116 C 
BRANCH  35  36
ATOM     36  N   UNL A   1      33.934  33.895  29.256  1.00  0.00    -0.352 N 
ATOM     37  C   UNL A   1      33.826  34.252  30.593  1.00  0.00     0.251 C 
ATOM     38  H   UNL A   1      33.310  34.349  28.644  1.00  0.00     0.163 HD
ATOM     39  O   UNL A   1      32.886  34.969  30.931  1.00  0.00    -0.269 OA
BRANCH  37  40
ATOM     40  C   UNL A   1      34.912  33.896  31.551  1.00  0.00     0.039 A 
ATOM     41  C   UNL A   1      36.051  34.708  31.597  1.00  0.00     0.014 A 
ATOM     42  C   UNL A   1      34.951  32.636  32.128  1.00  0.00     0.014 A 
ATOM     43  C   UNL A   1      37.286  34.142  31.913  1.00  0.00     0.010 A 
ATOM     44  C   UNL A   1      36.174  32.025  32.260  1.00  0.00     0.010 A 
ATOM     45  C   UNL A   1      37.347  32.766  32.098  1.00  0.00    -0.014 A 
BRANCH  45  46
ATOM     46  C   UNL A   1      38.552  31.952  32.063  1.00  0.00     0.031 A 
ATOM     47  C   UNL A   1      38.550  30.678  31.317  1.00  0.00     0.074 A 
ATOM     48  C   UNL A   1      39.717  32.523  32.445  1.00  0.00     0.049 A 
ATOM     49  N   UNL A   1      39.497  29.808  31.360  1.00  0.00    -0.248 NA
ATOM     50  C   UNL A   1      37.435  30.276  30.470  1.00  0.00     0.031 C 
ATOM     51  C   UNL A   1      41.065  32.122  32.059  1.00  0.00     0.029 A 
ATOM     52  N   UNL A   1      39.920  33.482  33.441  1.00  0.00    -0.354 N 
ATOM     53  C   UNL A   1      39.268  28.895  30.350  1.00  0.00     0.074 A 
ATOM     54  C   UNL A   1      37.931  29.178  29.897  1.00  0.00     0.031 C 
ATOM     55  C   UNL A   1      41.928  32.585  32.975  1.00  0.00     0.029 A 
ATOM     56  C   UNL A   1      41.138  33.146  34.056  1.00  0.00     0.049 A 
ATOM     57  H   UNL A   1      39.331  34.239  33.667  1.00  0.00     0.167 HD
ATOM     58  C   UNL A   1      40.302  28.106  29.936  1.00  0.00     0.034 A 
ATOM     59  C   UNL A   1      41.242  32.801  35.373  1.00  0.00     0.034 A 
ATOM     60  C   UNL A   1      41.467  28.282  30.822  1.00  0.00     0.049 A 
ATOM     61  C   UNL A   1      41.802  31.403  35.580  1.00  0.00     0.074 A 
ATOM     62  C   UNL A   1      42.647  28.999  30.711  1.00  0.00     0.029 A 
ATOM     63  N   UNL A   1      41.376  27.881  32.151  1.00  0.00    -0.354 N 
ATOM     64  N   UNL A   1      42.053  30.561  34.614  1.00  0.00    -0.248 NA
ATOM     65  C   UNL A   1      42.102  30.829  36.891  1.00  0.00     0.031 C 
ATOM     66  C   UNL A   1      43.211  29.115  32.012  1.00  0.00     0.029 A 
ATOM     67  C   UNL A   1      42.396  28.441  32.905  1.00  0.00     0.049 A 
ATOM     68  H   UNL A   1      40.682  27.280  32.507  1.00  0.00     0.167 HD
ATOM     69  C   UNL A   1      42.374  29.334  35.131  1.00  0.00     0.074 A 
ATOM     70  C   UNL A   1      42.480  29.582  36.559  1.00  0.00     0.031 C 
ATOM     71  C   UNL A   1      42.451  28.211  34.348  1.00  0.00     0.034 A 
BRANCH  58  72
ATOM     72  C   UNL A   1      40.399  27.361  28.608  1.00  0.00     0.023 A 
ATOM     73  C   UNL A   1      39.475  26.311  28.393  1.00  0.00     0.012 A 
ATOM     74  C   UNL A   1      41.361  27.535  27.585  1.00  0.00     0.148 A 
ATOM     75  C   UNL A   1      39.550  25.445  27.294  1.00  0.00     0.002 A 
ATOM     76  C   UNL A   1      41.460  26.655  26.501  1.00  0.00     0.091 A 
ATOM     77  F   UNL A   1      42.178  28.583  27.600  1.00  0.00    -0.205 F 
ATOM     78  C   UNL A   1      40.559  25.600  26.359  1.00  0.00     0.022 A 
BRANCH  76  79
ATOM     79  S   UNL A   1      42.768  26.785  25.263  1.00  0.00     0.127 S 
ATOM     80  O   UNL A   1      43.966  26.907  26.096  1.00  0.00    -0.237 OA
ATOM     81  O   UNL A   1      42.650  25.515  24.549  1.00  0.00    -0.237 OA
ATOM     82  O   UNL A   1      42.471  27.971  24.469  1.00  0.00    -0.744 OA
ENDBRANCH  76  79
ENDBRANCH  58  72
BRANCH  59  83
ATOM     83  C   UNL A   1      40.258  33.502  36.250  1.00  0.00     0.023 A 
ATOM     84  C   UNL A   1      39.111  32.757  36.620  1.00  0.00     0.012 A 
ATOM     85  C   UNL A   1      40.604  34.633  37.011  1.00  0.00     0.148 A 
ATOM     86  C   UNL A   1      38.407  33.049  37.788  1.00  0.00     0.002 A 
ATOM     87  C   UNL A   1      39.889  34.924  38.175  1.00  0.00     0.091 A 
ATOM     88  F   UNL A   1      41.676  35.347  36.644  1.00  0.00    -0.205 F 
ATOM     89  C   UNL A   1      38.817  34.112  38.583  1.00  0.00     0.022 A 
BRANCH  87  90
ATOM     90  S   UNL A   1      40.375  36.251  39.290  1.00  0.00     0.127 S 
ATOM     91  O   UNL A   1      39.794  37.416  38.628  1.00  0.00    -0.237 OA
ATOM     92  O   UNL A   1      39.723  35.863  40.539  1.00  0.00    -0.237 OA
ATOM     93  O   UNL A   1      41.829  36.191  39.332  1.00  0.00    -0.744 OA
ENDBRANCH  87  90
ENDBRANCH  59  83
BRANCH  71  94
ATOM     94  C   UNL A   1      42.540  26.782  34.859  1.00  0.00     0.023 A 
ATOM     95  C   UNL A   1      41.522  26.189  35.631  1.00  0.00     0.012 A 
ATOM     96  C   UNL A   1      43.585  25.922  34.427  1.00  0.00     0.148 A 
ATOM     97  C   UNL A   1      41.557  24.838  35.997  1.00  0.00     0.002 A 
ATOM     98  C   UNL A   1      43.555  24.555  34.695  1.00  0.00     0.091 A 
ATOM     99  F   UNL A   1      44.633  26.425  33.758  1.00  0.00    -0.205 F 
ATOM    100  C   UNL A   1      42.559  24.012  35.506  1.00  0.00     0.022 A 
BRANCH  98 101
ATOM    101  S   UNL A   1      44.691  23.440  33.854  1.00  0.00     0.127 S 
ATOM    102  O   UNL A   1      45.991  23.924  34.309  1.00  0.00    -0.237 OA
ATOM    103  O   UNL A   1      44.309  22.130  34.388  1.00  0.00    -0.237 OA
ATOM    104  O   UNL A   1      44.389  23.615  32.440  1.00  0.00    -0.744 OA
ENDBRANCH  98 101
ENDBRANCH  71  94
ENDBRANCH  45  46
ENDBRANCH  37  40
ENDBRANCH  35  36
ENDBRANCH  34  35
ENDBRANCH   1  34
TORSDOF 18
ENDMDL
MODEL 2
REMARK VINA RESULT:     -14.0      4.333      9.907
REMARK SMILES Cc1ccc(NC(=O)c2ccccc2NC(=O)[C@H]2CCCC[C@H]2C(=O)NCCCCNC(=O)c2ccc(-c3c4nc(c(-c5cccc(S(=O)(=O)[O-])c5F)c5ccc([nH]5)c(-c5cccc(S(=O)(=O)[O-])c5F)c5nc(c(-c6cccc(S(=O)(=O)[O-])c6F)c6ccc3[nH]6)C=C5)C=C4)cc2)cc1
REMARK SMILES IDX 28 1 27 2 26 3 24 4 25 5 23 7 18 8 19 9 20 10 22 11 21 12
REMARK SMILES IDX 16 13 15 14 17 16 14 17 9 18 10 19 11 20 13 21 12 22 7 23
REMARK SMILES IDX 6 24 8 26 5 27 1 28 2 29 3 30 98 31 4 32 97 33 29 34 30 35
REMARK SMILES IDX 31 36 32 37 33 39 34 40 35 41 96 42 36 43 95 44 37 45 38 46
REMARK SMILES IDX 39 47 89 48 40 49 94 50 88 51 90 52 41 53 93 54 87 55 86 56
REMARK SMILES IDX 42 58 74 59 54 60 73 61 55 62 58 63 72 64 91 65 56 66 57 67
REMARK SMILES IDX 71 69 92 70 59 71 43 72 44 73 52 74 45 75 47 76 53 77 46 78
REMARK SMILES IDX 48 79 49 80 50 81 51 82 75 83 76 84 84 85 77 86 79 87 85 88
REMARK SMILES IDX 78 89 80 90 81 91 82 92 83 93 60 94 61 95 69 96 62 97 64 98
REMARK SMILES IDX 70 99 63 100 65 101 66 102 67 103 68 104
REMARK H PARENT 26 6 15 15 6 25 31 38 90 57 58 68
REMARK Flexibility Score: inf
ROOT
ATOM      1  C   UNL A   1      37.924  22.082  26.182  1.00  0.00     0.023 C 
ENDROOT
BRANCH   1   2
ATOM      2  C   UNL A   1      37.676  23.510  25.691  1.00  0.00     0.116 C 
BRANCH   2   3
ATOM      3  N   UNL A   1      37.246  23.501  24.300  1.00  0.00    -0.356 N 
ATOM      4  C   UNL A   1      36.120  23.074  23.682  1.00  0.00     0.223 C 
ATOM      5  O   UNL A   1      36.177  22.985  22.447  1.00  0.00    -0.275 OA
ATOM      6  H   UNL A   1      37.910  23.886  23.683  1.00  0.00     0.163 HD
BRANCH   4   7
ATOM      7  C   UNL A   1      34.816  22.670  24.377  1.00  0.00     0.091 C 
ATOM      8  C   UNL A   1      34.043  23.838  25.027  1.00  0.00     0.091 C 
ATOM      9  C   UNL A   1      32.889  23.304  25.902  1.00  0.00     0.014 C 
ATOM     10  C   UNL A   1      32.031  22.234  25.209  1.00  0.00     0.001 C 
ATOM     11  C   UNL A   1      33.960  21.604  23.693  1.00  0.00     0.014 C 
ATOM     12  C   UNL A   1      32.872  21.094  24.640  1.00  0.00     0.001 C 
BRANCH   8  13
ATOM     13  C   UNL A   1      33.441  24.801  24.030  1.00  0.00     0.228 C 
ATOM     14  N   UNL A   1      32.911  26.014  24.334  1.00  0.00    -0.325 N 
ATOM     15  H   UNL A   1      32.685  26.501  23.509  1.00  0.00     0.169 HD
ATOM     16  O   UNL A   1      33.444  24.511  22.828  1.00  0.00    -0.274 OA
BRANCH  14  17
ATOM     17  C   UNL A   1      32.585  26.789  25.461  1.00  0.00     0.054 A 
ATOM     18  C   UNL A   1      31.312  26.655  26.086  1.00  0.00     0.063 A 
ATOM     19  C   UNL A   1      30.984  27.527  27.152  1.00  0.00     0.016 A 
ATOM     20  C   UNL A   1      31.877  28.486  27.616  1.00  0.00     0.001 A 
ATOM     21  C   UNL A   1      33.493  27.709  26.001  1.00  0.00     0.027 A 
ATOM     22  C   UNL A   1      33.137  28.565  27.048  1.00  0.00     0.002 A 
BRANCH  18  23
ATOM     23  C   UNL A   1      30.137  25.825  25.656  1.00  0.00     0.257 C 
ATOM     24  N   UNL A   1      29.217  26.115  24.677  1.00  0.00    -0.322 N 
ATOM     25  H   UNL A   1      28.451  25.496  24.684  1.00  0.00     0.170 HD
ATOM     26  O   UNL A   1      29.933  24.778  26.284  1.00  0.00    -0.269 OA
BRANCH  24  27
ATOM     27  C   UNL A   1      29.114  27.082  23.675  1.00  0.00     0.041 A 
ATOM     28  C   UNL A   1      29.048  30.857  21.663  1.00  0.00     0.044 C 
ATOM     29  C   UNL A   1      28.998  29.470  22.233  1.00  0.00    -0.051 A 
ATOM     30  C   UNL A   1      30.094  28.609  22.093  1.00  0.00     0.005 A 
ATOM     31  C   UNL A   1      27.899  29.057  22.989  1.00  0.00     0.005 A 
ATOM     32  C   UNL A   1      30.147  27.405  22.802  1.00  0.00     0.026 A 
ATOM     33  C   UNL A   1      27.944  27.851  23.685  1.00  0.00     0.026 A 
ENDBRANCH  24  27
ENDBRANCH  18  23
ENDBRANCH  14  17
ENDBRANCH   8  13
ENDBRANCH   4   7
ENDBRANCH   2   3
ENDBRANCH   1   2
BRANCH   1  34
ATOM     34  C   UNL A   1      39.288  21.465  25.939  1.00  0.00     0.023 C 
BRANCH  34  35
ATOM     35  C   UNL A   1      40.305  21.813  26.997  1.00  0.00     0.116 C 
BRANCH  35  36
ATOM     36  N   UNL A   1      41.588  22.290  26.504  1.00  0.00    -0.352 N 
ATOM     37  C   UNL A   1      41.958  23.579  26.143  1.00  0.00     0.251 C 
ATOM     38  H   UNL A   1      42.289  21.606  26.413  1.00  0.00     0.163 HD
ATOM     39  O   UNL A   1      43.052  23.741  25.606  1.00  0.00    -0.269 OA
BRANCH  37  40
ATOM     40  C   UNL A   1      41.112  24.739  26.543  1.00  0.00     0.039 A 
ATOM     41  C   UNL A   1      41.279  25.951  25.863  1.00  0.00     0.014 A 
ATOM     42  C   UNL A   1      40.430  24.725  27.751  1.00  0.00     0.014 A 
ATOM     43  C   UNL A   1      41.065  27.153  26.539  1.00  0.00     0.010 A 
ATOM     44  C   UNL A   1      40.393  25.886  28.484  1.00  0.00     0.010 A 
ATOM     45  C   UNL A   1      40.764  27.097  27.894  1.00  0.00    -0.014 A 
BRANCH  45  46
ATOM     46  C   UNL A   1      40.871  28.198  28.838  1.00  0.00     0.031 A 
ATOM     47  C   UNL A   1      39.889  29.299  28.788  1.00  0.00     0.074 A 
ATOM     48  C   UNL A   1      41.663  28.033  29.921  1.00  0.00     0.049 A 
ATOM     49  N   UNL A   1      39.987  30.394  29.457  1.00  0.00    -0.248 NA
ATOM     50  C   UNL A   1      38.710  29.249  27.934  1.00  0.00     0.031 C 
ATOM     51  C   UNL A   1      41.569  28.731  31.199  1.00  0.00     0.029 A 
ATOM     52  N   UNL A   1      42.864  27.323  30.010  1.00  0.00    -0.354 N 
ATOM     53  C   UNL A   1      38.777  31.051  29.360  1.00  0.00     0.074 A 
ATOM     54  C   UNL A   1      38.061  30.347  28.328  1.00  0.00     0.031 C 
ATOM     55  C   UNL A   1      42.759  28.662  31.813  1.00  0.00     0.029 A 
ATOM     56  C   UNL A   1      43.689  28.069  30.869  1.00  0.00     0.049 A 
ATOM     57  H   UNL A   1      43.087  26.475  29.563  1.00  0.00     0.167 HD
ATOM     58  C   UNL A   1      38.488  32.026  30.269  1.00  0.00     0.034 A 
ATOM     59  C   UNL A   1      44.877  28.617  30.478  1.00  0.00     0.034 A 
ATOM     60  C   UNL A   1      39.667  32.310  31.108  1.00  0.00     0.049 A 
ATOM     61  C   UNL A   1      44.911  30.130  30.622  1.00  0.00     0.074 A 
ATOM     62  C   UNL A   1      40.033  31.939  32.391  1.00  0.00     0.029 A 
ATOM     63  N   UNL A   1      40.801  32.859  30.520  1.00  0.00    -0.354 N 
ATOM     64  N   UNL A   1      43.885  30.858  30.969  1.00  0.00    -0.248 NA
ATOM     65  C   UNL A   1      46.094  30.948  30.363  1.00  0.00     0.031 C 
ATOM     66  C   UNL A   1      41.429  32.174  32.532  1.00  0.00     0.029 A 
ATOM     67  C   UNL A   1      41.903  32.719  31.351  1.00  0.00     0.049 A 
ATOM     68  H   UNL A   1      40.820  33.289  29.635  1.00  0.00     0.167 HD
ATOM     69  C   UNL A   1      44.184  32.188  30.833  1.00  0.00     0.074 A 
ATOM     70  C   UNL A   1      45.608  32.190  30.540  1.00  0.00     0.031 C 
ATOM     71  C   UNL A   1      43.222  33.162  30.901  1.00  0.00     0.034 A 
BRANCH  58  72
ATOM     72  C   UNL A   1      37.102  32.567  30.609  1.00  0.00     0.023 A 
ATOM     73  C   UNL A   1      36.562  32.202  31.865  1.00  0.00     0.012 A 
ATOM     74  C   UNL A   1      36.242  33.330  29.783  1.00  0.00     0.148 A 
ATOM     75  C   UNL A   1      35.244  32.495  32.240  1.00  0.00     0.002 A 
ATOM     76  C   UNL A   1      34.916  33.598  30.138  1.00  0.00     0.091 A 
ATOM     77  F   UNL A   1      36.694  33.861  28.651  1.00  0.00    -0.205 F 
ATOM     78  C   UNL A   1      34.410  33.172  31.366  1.00  0.00     0.022 A 
BRANCH  76  79
ATOM     79  S   UNL A   1      33.770  34.450  29.034  1.00  0.00     0.127 S 
ATOM     80  O   UNL A   1      34.509  35.673  28.711  1.00  0.00    -0.237 OA
ATOM     81  O   UNL A   1      33.643  33.505  27.926  1.00  0.00    -0.237 OA
ATOM     82  O   UNL A   1      32.548  34.676  29.798  1.00  0.00    -0.744 OA
ENDBRANCH  76  79
ENDBRANCH  58  72
BRANCH  59  83
ATOM     83  C   UNL A   1      45.595  27.807  29.450  1.00  0.00     0.023 A 
ATOM     84  C   UNL A   1      46.046  26.530  29.865  1.00  0.00     0.012 A 
ATOM     85  C   UNL A   1      45.475  28.067  28.073  1.00  0.00     0.148 A 
ATOM     86  C   UNL A   1      46.245  25.501  28.945  1.00  0.00     0.002 A 
ATOM     87  C   UNL A   1      45.684  27.033  27.157  1.00  0.00     0.091 A 
ATOM     88  F   UNL A   1      45.070  29.283  27.685  1.00  0.00    -0.205 F 
ATOM     89  C   UNL A   1      46.030  25.744  27.594  1.00  0.00     0.022 A 
BRANCH  87  90
ATOM     90  S   UNL A   1      45.386  27.243  25.394  1.00  0.00     0.127 S 
ATOM     91  O   UNL A   1      44.146  28.013  25.396  1.00  0.00    -0.237 OA
ATOM     92  O   UNL A   1      46.571  27.982  24.963  1.00  0.00    -0.237 OA
ATOM     93  O   UNL A   1      45.303  25.889  24.865  1.00  0.00    -0.744 OA
ENDBRANCH  87  90
ENDBRANCH  59  83
BRANCH  71  94
ATOM     94  C   UNL A   1      43.408  34.619  30.507  1.00  0.00     0.023 A 
ATOM     95  C   UNL A   1      43.790  35.610  31.433  1.00  0.00     0.012 A 
ATOM     96  C   UNL A   1      43.373  35.011  29.142  1.00  0.00     0.148 A 
ATOM     97  C   UNL A   1      44.074  36.924  31.041  1.00  0.00     0.002 A 
ATOM     98  C   UNL A   1      43.769  36.286  28.746  1.00  0.00     0.091 A 
ATOM     99  F   UNL A   1      42.941  34.150  28.209  1.00  0.00    -0.205 F 
ATOM    100  C   UNL A   1      44.091  37.257  29.693  1.00  0.00     0.022 A 
BRANCH  98 101
ATOM    101  S   UNL A   1      44.048  36.649  27.005  1.00  0.00     0.127 S 
ATOM    102  O   UNL A   1      42.688  36.820  26.503  1.00  0.00    -0.237 OA
ATOM    103  O   UNL A   1      44.837  37.883  27.056  1.00  0.00    -0.237 OA
ATOM    104  O   UNL A   1      44.785  35.495  26.508  1.00  0.00    -0.744 OA
ENDBRANCH  98 101
ENDBRANCH  71  94
ENDBRANCH  45  46
ENDBRANCH  37  40
ENDBRANCH  35  36
ENDBRANCH  34  35
ENDBRANCH   1  34
TORSDOF 18
ENDMDL
MODEL 3
REMARK VINA RESULT:     -13.7      2.990      4.134
REMARK SMILES Cc1ccc(NC(=O)c2ccccc2NC(=O)[C@H]2CCCC[C@H]2C(=O)NCCCCNC(=O)c2ccc(-c3c4nc(c(-c5cccc(S(=O)(=O)[O-])c5F)c5ccc([nH]5)c(-c5cccc(S(=O)(=O)[O-])c5F)c5nc(c(-c6cccc(S(=O)(=O)[O-])c6F)c6ccc3[nH]6)C=C5)C=C4)cc2)cc1
REMARK SMILES IDX 28 1 27 2 26 3 24 4 25 5 23 7 18 8 19 9 20 10 22 11 21 12
REMARK SMILES IDX 16 13 15 14 17 16 14 17 9 18 10 19 11 20 13 21 12 22 7 23
REMARK SMILES IDX 6 24 8 26 5 27 1 28 2 29 3 30 98 31 4 32 97 33 29 34 30 35
REMARK SMILES IDX 31 36 32 37 33 39 34 40 35 41 96 42 36 43 95 44 37 45 38 46
REMARK SMILES IDX 39 47 89 48 40 49 94 50 88 51 90 52 41 53 93 54 87 55 86 56
REMARK SMILES IDX 42 58 74 59 54 60 73 61 55 62 58 63 72 64 91 65 56 66 57 67
REMARK SMILES IDX 71 69 92 70 59 71 43 72 44 73 52 74 45 75 47 76 53 77 46 78
REMARK SMILES IDX 48 79 49 80 50 81 51 82 75 83 76 84 84 85 77 86 79 87 85 88
REMARK SMILES IDX 78 89 80 90 81 91 82 92 83 93 60 94 61 95 69 96 62 97 64 98
REMARK SMILES IDX 70 99 63 100 65 101 66 102 67 103 68 104
REMARK H PARENT 26 6 15 15 6 25 31 38 90 57 58 68
REMARK Flexibility Score: inf
ROOT
ATOM      1  C   UNL A   1      32.226  30.062  25.462  1.00  0.00     0.023 C 
ENDROOT
BRANCH   1   2
ATOM      2  C   UNL A   1      33.376  29.060  25.333  1.00  0.00     0.116 C 
BRANCH   2   3
ATOM      3  N   UNL A   1      33.682  28.816  23.930  1.00  0.00    -0.356 N 
ATOM      4  C   UNL A   1      33.409  27.792  23.087  1.00  0.00     0.223 C 
ATOM      5  O   UNL A   1      34.034  27.787  22.017  1.00  0.00    -0.275 OA
ATOM      6  H   UNL A   1      34.192  29.545  23.509  1.00  0.00     0.163 HD
BRANCH   4   7
ATOM      7  C   UNL A   1      32.430  26.647  23.360  1.00  0.00     0.091 C 
ATOM      8  C   UNL A   1      33.087  25.343  23.863  1.00  0.00     0.091 C 
ATOM      9  C   UNL A   1      32.062  24.188  23.872  1.00  0.00     0.014 C 
ATOM     10  C   UNL A   1      30.720  24.558  24.521  1.00  0.00     0.001 C 
ATOM     11  C   UNL A   1      31.092  27.009  24.003  1.00  0.00     0.014 C 
ATOM     12  C   UNL A   1      30.119  25.830  23.929  1.00  0.00     0.001 C 
BRANCH   8  13
ATOM     13  C   UNL A   1      33.658  25.446  25.258  1.00  0.00     0.228 C 
ATOM     14  N   UNL A   1      34.667  24.682  25.750  1.00  0.00    -0.325 N 
ATOM     15  H   UNL A   1      34.936  25.009  26.640  1.00  0.00     0.169 HD
ATOM     16  O   UNL A   1      33.219  26.306  26.031  1.00  0.00    -0.274 OA
BRANCH  14  17
ATOM     17  C   UNL A   1      35.446  23.571  25.385  1.00  0.00     0.054 A 
ATOM     18  C   UNL A   1      35.128  22.272  25.876  1.00  0.00     0.063 A 
ATOM     19  C   UNL A   1      35.997  21.198  25.569  1.00  0.00     0.016 A 
ATOM     20  C   UNL A   1      37.132  21.374  24.786  1.00  0.00     0.001 A 
ATOM     21  C   UNL A   1      36.551  23.703  24.532  1.00  0.00     0.027 A 
ATOM     22  C   UNL A   1      37.399  22.626  24.256  1.00  0.00     0.002 A 
BRANCH  18  23
ATOM     23  C   UNL A   1      34.071  21.876  26.867  1.00  0.00     0.257 C 
ATOM     24  N   UNL A   1      32.991  21.053  26.659  1.00  0.00    -0.322 N 
ATOM     25  H   UNL A   1      32.355  21.067  27.411  1.00  0.00     0.170 HD
ATOM     26  O   UNL A   1      34.144  22.384  27.994  1.00  0.00    -0.269 OA
BRANCH  24  27
ATOM     27  C   UNL A   1      32.583  20.200  25.630  1.00  0.00     0.041 A 
ATOM     28  C   UNL A   1      32.555  17.937  22.001  1.00  0.00     0.044 C 
ATOM     29  C   UNL A   1      32.400  18.704  23.280  1.00  0.00    -0.051 A 
ATOM     30  C   UNL A   1      32.597  18.068  24.513  1.00  0.00     0.005 A 
ATOM     31  C   UNL A   1      32.154  20.078  23.254  1.00  0.00     0.005 A 
ATOM     32  C   UNL A   1      32.673  18.814  25.693  1.00  0.00     0.026 A 
ATOM     33  C   UNL A   1      32.215  20.821  24.431  1.00  0.00     0.026 A 
ENDBRANCH  24  27
ENDBRANCH  18  23
ENDBRANCH  14  17
ENDBRANCH   8  13
ENDBRANCH   4   7
ENDBRANCH   2   3
ENDBRANCH   1   2
BRANCH   1  34
ATOM     34  C   UNL A   1      32.237  31.019  26.639  1.00  0.00     0.023 C 
BRANCH  34  35
ATOM     35  C   UNL A   1      33.340  30.744  27.630  1.00  0.00     0.116 C 
BRANCH  35  36
ATOM     36  N   UNL A   1      34.335  31.797  27.771  1.00  0.00    -0.352 N 
ATOM     37  C   UNL A   1      35.652  31.700  28.200  1.00  0.00     0.251 C 
ATOM     38  H   UNL A   1      34.033  32.702  27.529  1.00  0.00     0.163 HD
ATOM     39  O   UNL A   1      36.280  32.739  28.391  1.00  0.00    -0.269 OA
BRANCH  37  40
ATOM     40  C   UNL A   1      36.317  30.367  28.273  1.00  0.00     0.039 A 
ATOM     41  C   UNL A   1      36.361  29.712  29.509  1.00  0.00     0.014 A 
ATOM     42  C   UNL A   1      37.151  29.944  27.249  1.00  0.00     0.014 A 
ATOM     43  C   UNL A   1      37.442  28.883  29.809  1.00  0.00     0.010 A 
ATOM     44  C   UNL A   1      38.307  29.286  27.589  1.00  0.00     0.010 A 
ATOM     45  C   UNL A   1      38.479  28.801  28.888  1.00  0.00    -0.014 A 
BRANCH  45  46
ATOM     46  C   UNL A   1      39.822  28.312  29.156  1.00  0.00     0.031 A 
ATOM     47  C   UNL A   1      40.176  26.922  28.807  1.00  0.00     0.074 A 
ATOM     48  C   UNL A   1      40.788  29.219  29.425  1.00  0.00     0.049 A 
ATOM     49  N   UNL A   1      41.271  26.340  29.150  1.00  0.00    -0.248 NA
ATOM     50  C   UNL A   1      39.278  26.061  28.047  1.00  0.00     0.031 C 
ATOM     51  C   UNL A   1      42.227  29.057  29.247  1.00  0.00     0.029 A 
ATOM     52  N   UNL A   1      40.666  30.429  30.116  1.00  0.00    -0.354 N 
ATOM     53  C   UNL A   1      41.360  25.165  28.431  1.00  0.00     0.074 A 
ATOM     54  C   UNL A   1      40.057  24.997  27.842  1.00  0.00     0.031 C 
ATOM     55  C   UNL A   1      42.858  29.935  30.040  1.00  0.00     0.029 A 
ATOM     56  C   UNL A   1      41.845  30.562  30.869  1.00  0.00     0.049 A 
ATOM     57  H   UNL A   1      39.910  31.059  30.081  1.00  0.00     0.167 HD
ATOM     58  C   UNL A   1      42.577  24.559  28.320  1.00  0.00     0.034 A 
ATOM     59  C   UNL A   1      41.860  30.613  32.233  1.00  0.00     0.034 A 
ATOM     60  C   UNL A   1      43.565  25.230  29.184  1.00  0.00     0.049 A 
ATOM     61  C   UNL A   1      42.670  29.491  32.862  1.00  0.00     0.074 A 
ATOM     62  C   UNL A   1      44.575  26.147  28.940  1.00  0.00     0.029 A 
ATOM     63  N   UNL A   1      43.401  25.186  30.564  1.00  0.00    -0.354 N 
ATOM     64  N   UNL A   1      43.204  28.506  32.193  1.00  0.00    -0.248 NA
ATOM     65  C   UNL A   1      42.923  29.373  34.297  1.00  0.00     0.031 C 
ATOM     66  C   UNL A   1      44.942  26.733  30.183  1.00  0.00     0.029 A 
ATOM     67  C   UNL A   1      44.184  26.149  31.184  1.00  0.00     0.049 A 
ATOM     68  H   UNL A   1      42.810  24.558  31.037  1.00  0.00     0.167 HD
ATOM     69  C   UNL A   1      43.710  27.570  33.057  1.00  0.00     0.074 A 
ATOM     70  C   UNL A   1      43.590  28.206  34.358  1.00  0.00     0.031 C 
ATOM     71  C   UNL A   1      44.112  26.330  32.633  1.00  0.00     0.034 A 
BRANCH  58  72
ATOM     72  C   UNL A   1      42.986  23.531  27.268  1.00  0.00     0.023 A 
ATOM     73  C   UNL A   1      43.712  24.012  26.152  1.00  0.00     0.012 A 
ATOM     74  C   UNL A   1      42.655  22.156  27.224  1.00  0.00     0.148 A 
ATOM     75  C   UNL A   1      44.013  23.214  25.040  1.00  0.00     0.002 A 
ATOM     76  C   UNL A   1      42.925  21.363  26.104  1.00  0.00     0.091 A 
ATOM     77  F   UNL A   1      42.113  21.560  28.282  1.00  0.00    -0.205 F 
ATOM     78  C   UNL A   1      43.597  21.894  25.003  1.00  0.00     0.022 A 
BRANCH  76  79
ATOM     79  S   UNL A   1      42.386  19.644  25.980  1.00  0.00     0.127 S 
ATOM     80  O   UNL A   1      40.931  19.785  25.903  1.00  0.00    -0.237 OA
ATOM     81  O   UNL A   1      43.021  19.206  24.739  1.00  0.00    -0.237 OA
ATOM     82  O   UNL A   1      42.857  18.974  27.187  1.00  0.00    -0.744 OA
ENDBRANCH  76  79
ENDBRANCH  58  72
BRANCH  59  83
ATOM     83  C   UNL A   1      40.654  31.272  32.816  1.00  0.00     0.023 A 
ATOM     84  C   UNL A   1      39.638  30.406  33.291  1.00  0.00     0.012 A 
ATOM     85  C   UNL A   1      40.670  32.604  33.265  1.00  0.00     0.148 A 
ATOM     86  C   UNL A   1      38.748  30.814  34.284  1.00  0.00     0.002 A 
ATOM     87  C   UNL A   1      39.769  33.008  34.253  1.00  0.00     0.091 A 
ATOM     88  F   UNL A   1      41.617  33.426  32.795  1.00  0.00    -0.205 F 
ATOM     89  C   UNL A   1      38.836  32.105  34.788  1.00  0.00     0.022 A 
BRANCH  87  90
ATOM     90  S   UNL A   1      39.838  34.646  34.999  1.00  0.00     0.127 S 
ATOM     91  O   UNL A   1      38.690  35.298  34.377  1.00  0.00    -0.237 OA
ATOM     92  O   UNL A   1      39.681  34.347  36.421  1.00  0.00    -0.237 OA
ATOM     93  O   UNL A   1      41.149  35.166  34.639  1.00  0.00    -0.744 OA
ENDBRANCH  87  90
ENDBRANCH  59  83
BRANCH  71  94
ATOM     94  C   UNL A   1      44.435  25.149  33.535  1.00  0.00     0.023 A 
ATOM     95  C   UNL A   1      43.568  24.048  33.679  1.00  0.00     0.012 A 
ATOM     96  C   UNL A   1      45.714  25.028  34.140  1.00  0.00     0.148 A 
ATOM     97  C   UNL A   1      43.925  22.913  34.418  1.00  0.00     0.002 A 
ATOM     98  C   UNL A   1      46.106  23.851  34.774  1.00  0.00     0.091 A 
ATOM     99  F   UNL A   1      46.566  26.064  34.118  1.00  0.00    -0.205 F 
ATOM    100  C   UNL A   1      45.205  22.801  34.943  1.00  0.00     0.022 A 
BRANCH  98 101
ATOM    101  S   UNL A   1      47.830  23.593  35.223  1.00  0.00     0.127 S 
ATOM    102  O   UNL A   1      48.026  24.583  36.278  1.00  0.00    -0.237 OA
ATOM    103  O   UNL A   1      47.837  22.203  35.685  1.00  0.00    -0.237 OA
ATOM    104  O   UNL A   1      48.563  23.809  33.983  1.00  0.00    -0.744 OA
ENDBRANCH  98 101
ENDBRANCH  71  94
ENDBRANCH  45  46
ENDBRANCH  37  40
ENDBRANCH  35  36
ENDBRANCH  34  35
ENDBRANCH   1  34
TORSDOF 18
ENDMDL
