MODEL 1
REMARK VINA RESULT:     -13.4      0.000      0.000
REMARK SMILES O=C(Cn1c(-c2nc(-c3ccc(C(F)(F)F)cc3)no2)cc2ccccc21)NCCCCNC(=O)c1ccc(-c2c3nc(c(-c4cccc(S(=O)(=O)[O-])c4F)c4ccc([nH]4)c(-c4cccc(S(=O)(=O)[O-])c4F)c4nc(c(-c5cccc(S(=O)(=O)[O-])c5F)c5ccc2[nH]5)C=C4)C=C3)cc1
REMARK SMILES IDX 30 1 29 2 28 3 1 4 2 5 3 7 4 8 5 9 27 10 21 11 22 12 26 13
REMARK SMILES IDX 23 14 25 15 24 16 6 17 7 18 20 19 8 20 19 21 9 22 10 23
REMARK SMILES IDX 18 24 11 25 17 26 12 27 13 28 14 29 15 30 16 31 31 32 32 33
REMARK SMILES IDX 33 34 34 35 35 37 36 38 37 39 98 40 38 41 97 42 39 43 40 44
REMARK SMILES IDX 41 45 91 46 42 47 96 48 90 49 92 50 43 51 95 52 89 53 88 54
REMARK SMILES IDX 44 56 76 57 56 58 75 59 57 60 60 61 74 62 93 63 58 64 59 65
REMARK SMILES IDX 73 67 94 68 61 69 45 70 46 71 54 72 47 73 49 74 55 75 48 76
REMARK SMILES IDX 50 77 51 78 52 79 53 80 77 81 78 82 86 83 79 84 81 85 87 86
REMARK SMILES IDX 80 87 82 88 83 89 84 90 85 91 62 92 63 93 71 94 64 95 66 96
REMARK SMILES IDX 72 97 65 98 67 99 68 100 69 101 70 102
REMARK H PARENT 28 6 33 36 92 55 60 66
REMARK Flexibility Score: inf
ROOT
ATOM      1  C   UNL A   1      32.585  28.421  26.369  1.00  0.00     0.023 C 
ENDROOT
BRANCH   1   2
ATOM      2  C   UNL A   1      33.507  27.443  25.649  1.00  0.00     0.116 C 
BRANCH   2   3
ATOM      3  N   UNL A   1      33.412  26.078  26.137  1.00  0.00    -0.355 N 
ATOM      4  O   UNL A   1      34.668  25.203  24.422  1.00  0.00    -0.273 OA
ATOM      5  C   UNL A   1      34.068  25.046  25.484  1.00  0.00     0.239 C 
ATOM      6  H   UNL A   1      32.878  25.883  26.940  1.00  0.00     0.163 HD
BRANCH   5   7
ATOM      7  C   UNL A   1      34.022  23.707  26.181  1.00  0.00     0.222 C 
BRANCH   7   8
ATOM      8  N   UNL A   1      33.285  22.627  25.507  1.00  0.00    -0.327 N 
ATOM      9  C   UNL A   1      31.913  22.690  25.267  1.00  0.00     0.109 A 
ATOM     10  C   UNL A   1      33.742  21.348  25.201  1.00  0.00     0.049 A 
ATOM     11  C   UNL A   1      31.480  21.407  25.003  1.00  0.00     0.042 A 
ATOM     12  C   UNL A   1      32.613  20.560  24.942  1.00  0.00     0.000 A 
ATOM     13  C   UNL A   1      35.029  20.784  25.123  1.00  0.00     0.027 A 
ATOM     14  C   UNL A   1      32.776  19.187  24.656  1.00  0.00     0.010 A 
ATOM     15  C   UNL A   1      35.168  19.420  24.854  1.00  0.00     0.002 A 
ATOM     16  C   UNL A   1      34.055  18.626  24.630  1.00  0.00     0.001 A 
BRANCH   9  17
ATOM     17  C   UNL A   1      31.128  23.889  25.259  1.00  0.00     0.274 A 
ATOM     18  N   UNL A   1      30.871  24.624  24.193  1.00  0.00    -0.185 NA
ATOM     19  O   UNL A   1      30.640  24.454  26.407  1.00  0.00    -0.332 OA
ATOM     20  C   UNL A   1      30.203  25.705  24.723  1.00  0.00     0.202 A 
ATOM     21  N   UNL A   1      30.041  25.653  26.053  1.00  0.00    -0.057 NA
BRANCH  20  22
ATOM     22  C   UNL A   1      29.688  26.818  23.943  1.00  0.00     0.023 A 
ATOM     23  C   UNL A   1      30.580  27.766  23.418  1.00  0.00     0.013 A 
ATOM     24  C   UNL A   1      28.313  27.034  23.818  1.00  0.00     0.013 A 
ATOM     25  C   UNL A   1      30.103  28.940  22.830  1.00  0.00     0.014 A 
ATOM     26  C   UNL A   1      27.834  28.218  23.241  1.00  0.00     0.014 A 
ATOM     27  C   UNL A   1      28.725  29.194  22.764  1.00  0.00     0.056 A 
BRANCH  27  28
ATOM     28  C   UNL A   1      28.236  30.523  22.237  1.00  0.00     0.416 C 
ATOM     29  F   UNL A   1      27.652  30.407  21.010  1.00  0.00    -0.166 F 
ATOM     30  F   UNL A   1      27.294  31.092  23.039  1.00  0.00    -0.166 F 
ATOM     31  F   UNL A   1      29.218  31.455  22.094  1.00  0.00    -0.166 F 
ENDBRANCH  27  28
ENDBRANCH  20  22
ENDBRANCH   9  17
ENDBRANCH   7   8
ENDBRANCH   5   7
ENDBRANCH   2   3
ENDBRANCH   1   2
BRANCH   1  32
ATOM     32  C   UNL A   1      33.196  29.171  27.559  1.00  0.00     0.023 C 
BRANCH  32  33
ATOM     33  C   UNL A   1      34.029  30.409  27.215  1.00  0.00     0.116 C 
BRANCH  33  34
ATOM     34  N   UNL A   1      34.021  31.442  28.230  1.00  0.00    -0.352 N 
ATOM     35  C   UNL A   1      34.958  31.942  29.097  1.00  0.00     0.251 C 
ATOM     36  H   UNL A   1      33.147  31.884  28.317  1.00  0.00     0.163 HD
ATOM     37  O   UNL A   1      34.651  32.996  29.663  1.00  0.00    -0.269 OA
BRANCH  35  38
ATOM     38  C   UNL A   1      36.252  31.287  29.446  1.00  0.00     0.039 A 
ATOM     39  C   UNL A   1      37.506  31.890  29.373  1.00  0.00     0.014 A 
ATOM     40  C   UNL A   1      36.188  29.922  29.788  1.00  0.00     0.014 A 
ATOM     41  C   UNL A   1      38.665  31.130  29.508  1.00  0.00     0.010 A 
ATOM     42  C   UNL A   1      37.344  29.161  29.950  1.00  0.00     0.010 A 
ATOM     43  C   UNL A   1      38.585  29.756  29.747  1.00  0.00    -0.014 A 
BRANCH  43  44
ATOM     44  C   UNL A   1      39.836  29.005  29.760  1.00  0.00     0.031 A 
ATOM     45  C   UNL A   1      40.500  28.829  31.082  1.00  0.00     0.074 A 
ATOM     46  C   UNL A   1      40.385  28.452  28.660  1.00  0.00     0.049 A 
ATOM     47  N   UNL A   1      41.619  29.343  31.486  1.00  0.00    -0.248 NA
ATOM     48  C   UNL A   1      39.797  28.039  32.099  1.00  0.00     0.031 C 
ATOM     49  C   UNL A   1      39.791  28.268  27.335  1.00  0.00     0.029 A 
ATOM     50  N   UNL A   1      41.592  27.827  28.549  1.00  0.00    -0.354 N 
ATOM     51  C   UNL A   1      41.858  28.794  32.744  1.00  0.00     0.074 A 
ATOM     52  C   UNL A   1      40.655  28.092  33.119  1.00  0.00     0.031 C 
ATOM     53  C   UNL A   1      40.529  27.372  26.641  1.00  0.00     0.029 A 
ATOM     54  C   UNL A   1      41.714  27.040  27.412  1.00  0.00     0.049 A 
ATOM     55  H   UNL A   1      42.311  27.925  29.214  1.00  0.00     0.167 HD
ATOM     56  C   UNL A   1      43.086  28.798  33.335  1.00  0.00     0.034 A 
ATOM     57  C   UNL A   1      42.686  26.129  27.173  1.00  0.00     0.034 A 
ATOM     58  C   UNL A   1      44.017  29.679  32.692  1.00  0.00     0.049 A 
ATOM     59  C   UNL A   1      43.849  26.498  28.016  1.00  0.00     0.074 A 
ATOM     60  C   UNL A   1      44.076  31.035  32.441  1.00  0.00     0.029 A 
ATOM     61  N   UNL A   1      44.975  29.108  31.890  1.00  0.00    -0.354 N 
ATOM     62  N   UNL A   1      44.565  27.574  27.838  1.00  0.00    -0.248 NA
ATOM     63  C   UNL A   1      44.006  25.849  29.307  1.00  0.00     0.031 C 
ATOM     64  C   UNL A   1      44.703  31.143  31.167  1.00  0.00     0.029 A 
ATOM     65  C   UNL A   1      45.002  29.848  30.738  1.00  0.00     0.049 A 
ATOM     66  H   UNL A   1      45.532  28.324  32.102  1.00  0.00     0.167 HD
ATOM     67  C   UNL A   1      44.932  27.968  29.117  1.00  0.00     0.074 A 
ATOM     68  C   UNL A   1      44.660  26.810  29.963  1.00  0.00     0.031 C 
ATOM     69  C   UNL A   1      45.156  29.281  29.417  1.00  0.00     0.034 A 
BRANCH  56  70
ATOM     70  C   UNL A   1      43.549  27.782  34.341  1.00  0.00     0.023 A 
ATOM     71  C   UNL A   1      44.058  28.238  35.576  1.00  0.00     0.012 A 
ATOM     72  C   UNL A   1      43.743  26.421  34.018  1.00  0.00     0.148 A 
ATOM     73  C   UNL A   1      44.731  27.376  36.450  1.00  0.00     0.002 A 
ATOM     74  C   UNL A   1      44.348  25.555  34.921  1.00  0.00     0.091 A 
ATOM     75  F   UNL A   1      43.456  25.990  32.784  1.00  0.00    -0.205 F 
ATOM     76  C   UNL A   1      44.863  26.029  36.129  1.00  0.00     0.022 A 
BRANCH  74  77
ATOM     77  S   UNL A   1      44.488  23.802  34.561  1.00  0.00     0.127 S 
ATOM     78  O   UNL A   1      43.095  23.450  34.280  1.00  0.00    -0.237 OA
ATOM     79  O   UNL A   1      45.371  23.801  33.390  1.00  0.00    -0.237 OA
ATOM     80  O   UNL A   1      45.078  23.218  35.750  1.00  0.00    -0.744 OA
ENDBRANCH  74  77
ENDBRANCH  56  70
BRANCH  57  81
ATOM     81  C   UNL A   1      42.618  24.839  26.446  1.00  0.00     0.023 A 
ATOM     82  C   UNL A   1      43.678  24.473  25.591  1.00  0.00     0.012 A 
ATOM     83  C   UNL A   1      41.671  23.848  26.788  1.00  0.00     0.148 A 
ATOM     84  C   UNL A   1      43.815  23.158  25.129  1.00  0.00     0.002 A 
ATOM     85  C   UNL A   1      41.802  22.545  26.312  1.00  0.00     0.091 A 
ATOM     86  F   UNL A   1      40.697  24.148  27.657  1.00  0.00    -0.205 F 
ATOM     87  C   UNL A   1      42.883  22.193  25.496  1.00  0.00     0.022 A 
BRANCH  85  88
ATOM     88  S   UNL A   1      40.631  21.254  26.753  1.00  0.00     0.127 S 
ATOM     89  O   UNL A   1      40.748  21.215  28.212  1.00  0.00    -0.237 OA
ATOM     90  O   UNL A   1      39.373  21.800  26.255  1.00  0.00    -0.237 OA
ATOM     91  O   UNL A   1      41.110  20.047  26.089  1.00  0.00    -0.744 OA
ENDBRANCH  85  88
ENDBRANCH  57  81
BRANCH  69  92
ATOM     92  C   UNL A   1      45.234  30.272  28.285  1.00  0.00     0.023 A 
ATOM     93  C   UNL A   1      44.066  30.768  27.666  1.00  0.00     0.012 A 
ATOM     94  C   UNL A   1      46.469  30.875  27.997  1.00  0.00     0.148 A 
ATOM     95  C   UNL A   1      44.132  31.835  26.769  1.00  0.00     0.002 A 
ATOM     96  C   UNL A   1      46.525  31.965  27.135  1.00  0.00     0.091 A 
ATOM     97  F   UNL A   1      47.564  30.402  28.612  1.00  0.00    -0.205 F 
ATOM     98  C   UNL A   1      45.360  32.443  26.514  1.00  0.00     0.022 A 
BRANCH  96  99
ATOM     99  S   UNL A   1      48.042  32.883  26.857  1.00  0.00     0.127 S 
ATOM    100  O   UNL A   1      47.644  33.824  25.812  1.00  0.00    -0.237 OA
ATOM    101  O   UNL A   1      48.282  33.489  28.168  1.00  0.00    -0.237 OA
ATOM    102  O   UNL A   1      49.044  31.900  26.462  1.00  0.00    -0.744 OA
ENDBRANCH  96  99
ENDBRANCH  69  92
ENDBRANCH  43  44
ENDBRANCH  35  38
ENDBRANCH  33  34
ENDBRANCH  32  33
ENDBRANCH   1  32
TORSDOF 18
ENDMDL
MODEL 2
REMARK VINA RESULT:     -13.0      3.576      9.098
REMARK SMILES O=C(Cn1c(-c2nc(-c3ccc(C(F)(F)F)cc3)no2)cc2ccccc21)NCCCCNC(=O)c1ccc(-c2c3nc(c(-c4cccc(S(=O)(=O)[O-])c4F)c4ccc([nH]4)c(-c4cccc(S(=O)(=O)[O-])c4F)c4nc(c(-c5cccc(S(=O)(=O)[O-])c5F)c5ccc2[nH]5)C=C4)C=C3)cc1
REMARK SMILES IDX 30 1 29 2 28 3 1 4 2 5 3 7 4 8 5 9 27 10 21 11 22 12 26 13
REMARK SMILES IDX 23 14 25 15 24 16 6 17 7 18 20 19 8 20 19 21 9 22 10 23
REMARK SMILES IDX 18 24 11 25 17 26 12 27 13 28 14 29 15 30 16 31 31 32 32 33
REMARK SMILES IDX 33 34 34 35 35 37 36 38 37 39 98 40 38 41 97 42 39 43 40 44
REMARK SMILES IDX 41 45 91 46 42 47 96 48 90 49 92 50 43 51 95 52 89 53 88 54
REMARK SMILES IDX 44 56 76 57 56 58 75 59 57 60 60 61 74 62 93 63 58 64 59 65
REMARK SMILES IDX 73 67 94 68 61 69 45 70 46 71 54 72 47 73 49 74 55 75 48 76
REMARK SMILES IDX 50 77 51 78 52 79 53 80 77 81 78 82 86 83 79 84 81 85 87 86
REMARK SMILES IDX 80 87 82 88 83 89 84 90 85 91 62 92 63 93 71 94 64 95 66 96
REMARK SMILES IDX 72 97 65 98 67 99 68 100 69 101 70 102
REMARK H PARENT 28 6 33 36 92 55 60 66
REMARK Flexibility Score: inf
ROOT
ATOM      1  C   UNL A   1      35.493  22.308  24.340  1.00  0.00     0.023 C 
ENDROOT
BRANCH   1   2
ATOM      2  C   UNL A   1      35.133  23.491  23.448  1.00  0.00     0.116 C 
BRANCH   2   3
ATOM      3  N   UNL A   1      34.512  24.596  24.158  1.00  0.00    -0.355 N 
ATOM      4  O   UNL A   1      33.795  25.642  22.242  1.00  0.00    -0.273 OA
ATOM      5  C   UNL A   1      33.828  25.585  23.469  1.00  0.00     0.239 C 
ATOM      6  H   UNL A   1      34.577  24.643  25.139  1.00  0.00     0.163 HD
BRANCH   5   7
ATOM      7  C   UNL A   1      33.095  26.585  24.332  1.00  0.00     0.222 C 
BRANCH   7   8
ATOM      8  N   UNL A   1      31.628  26.600  24.240  1.00  0.00    -0.327 N 
ATOM      9  C   UNL A   1      30.860  25.438  24.280  1.00  0.00     0.109 A 
ATOM     10  C   UNL A   1      30.808  27.675  23.904  1.00  0.00     0.049 A 
ATOM     11  C   UNL A   1      29.612  25.748  23.781  1.00  0.00     0.042 A 
ATOM     12  C   UNL A   1      29.559  27.146  23.557  1.00  0.00     0.000 A 
ATOM     13  C   UNL A   1      31.021  29.066  23.863  1.00  0.00     0.027 A 
ATOM     14  C   UNL A   1      28.537  28.012  23.114  1.00  0.00     0.010 A 
ATOM     15  C   UNL A   1      30.001  29.905  23.406  1.00  0.00     0.002 A 
ATOM     16  C   UNL A   1      28.774  29.386  23.028  1.00  0.00     0.001 A 
BRANCH   9  17
ATOM     17  C   UNL A   1      31.298  24.173  24.794  1.00  0.00     0.274 A 
ATOM     18  N   UNL A   1      31.602  23.118  24.063  1.00  0.00    -0.185 NA
ATOM     19  O   UNL A   1      31.347  23.905  26.137  1.00  0.00    -0.332 OA
ATOM     20  C   UNL A   1      31.835  22.147  25.012  1.00  0.00     0.202 A 
ATOM     21  N   UNL A   1      31.690  22.569  26.276  1.00  0.00    -0.057 NA
BRANCH  20  22
ATOM     22  C   UNL A   1      32.219  20.778  24.711  1.00  0.00     0.023 A 
ATOM     23  C   UNL A   1      32.836  20.000  25.702  1.00  0.00     0.013 A 
ATOM     24  C   UNL A   1      32.105  20.267  23.415  1.00  0.00     0.013 A 
ATOM     25  C   UNL A   1      33.383  18.753  25.387  1.00  0.00     0.014 A 
ATOM     26  C   UNL A   1      32.666  19.023  23.096  1.00  0.00     0.014 A 
ATOM     27  C   UNL A   1      33.333  18.266  24.072  1.00  0.00     0.056 A 
BRANCH  27  28
ATOM     28  C   UNL A   1      34.039  16.975  23.729  1.00  0.00     0.416 C 
ATOM     29  F   UNL A   1      35.170  16.793  24.469  1.00  0.00    -0.166 F 
ATOM     30  F   UNL A   1      33.268  15.876  23.961  1.00  0.00    -0.166 F 
ATOM     31  F   UNL A   1      34.430  16.888  22.428  1.00  0.00    -0.166 F 
ENDBRANCH  27  28
ENDBRANCH  20  22
ENDBRANCH   9  17
ENDBRANCH   7   8
ENDBRANCH   5   7
ENDBRANCH   2   3
ENDBRANCH   1   2
BRANCH   1  32
ATOM     32  C   UNL A   1      36.989  22.003  24.484  1.00  0.00     0.023 C 
BRANCH  32  33
ATOM     33  C   UNL A   1      37.650  22.481  25.779  1.00  0.00     0.116 C 
BRANCH  33  34
ATOM     34  N   UNL A   1      38.888  21.806  26.110  1.00  0.00    -0.352 N 
ATOM     35  C   UNL A   1      40.017  22.157  26.802  1.00  0.00     0.251 C 
ATOM     36  H   UNL A   1      38.926  20.887  25.758  1.00  0.00     0.163 HD
ATOM     37  O   UNL A   1      40.780  21.228  27.082  1.00  0.00    -0.269 OA
BRANCH  35  38
ATOM     38  C   UNL A   1      40.411  23.549  27.168  1.00  0.00     0.039 A 
ATOM     39  C   UNL A   1      41.400  23.892  28.086  1.00  0.00     0.014 A 
ATOM     40  C   UNL A   1      39.645  24.585  26.596  1.00  0.00     0.014 A 
ATOM     41  C   UNL A   1      41.539  25.208  28.518  1.00  0.00     0.010 A 
ATOM     42  C   UNL A   1      39.797  25.908  27.006  1.00  0.00     0.010 A 
ATOM     43  C   UNL A   1      40.705  26.209  28.016  1.00  0.00    -0.014 A 
BRANCH  43  44
ATOM     44  C   UNL A   1      40.828  27.540  28.600  1.00  0.00     0.031 A 
ATOM     45  C   UNL A   1      41.947  28.390  28.103  1.00  0.00     0.074 A 
ATOM     46  C   UNL A   1      39.978  28.032  29.522  1.00  0.00     0.049 A 
ATOM     47  N   UNL A   1      43.003  28.774  28.749  1.00  0.00    -0.248 NA
ATOM     48  C   UNL A   1      41.916  28.805  26.696  1.00  0.00     0.031 C 
ATOM     49  C   UNL A   1      38.684  27.496  29.951  1.00  0.00     0.029 A 
ATOM     50  N   UNL A   1      40.066  29.210  30.201  1.00  0.00    -0.354 N 
ATOM     51  C   UNL A   1      43.683  29.634  27.890  1.00  0.00     0.074 A 
ATOM     52  C   UNL A   1      43.034  29.527  26.606  1.00  0.00     0.031 C 
ATOM     53  C   UNL A   1      38.007  28.459  30.618  1.00  0.00     0.029 A 
ATOM     54  C   UNL A   1      38.873  29.612  30.787  1.00  0.00     0.049 A 
ATOM     55  H   UNL A   1      40.900  29.730  30.270  1.00  0.00     0.167 HD
ATOM     56  C   UNL A   1      44.630  30.516  28.318  1.00  0.00     0.034 A 
ATOM     57  C   UNL A   1      38.610  30.836  31.301  1.00  0.00     0.034 A 
ATOM     58  C   UNL A   1      45.074  30.258  29.657  1.00  0.00     0.049 A 
ATOM     59  C   UNL A   1      39.913  31.460  31.636  1.00  0.00     0.074 A 
ATOM     60  C   UNL A   1      45.687  29.204  30.304  1.00  0.00     0.029 A 
ATOM     61  N   UNL A   1      44.599  31.081  30.648  1.00  0.00    -0.354 N 
ATOM     62  N   UNL A   1      40.701  31.035  32.584  1.00  0.00    -0.248 NA
ATOM     63  C   UNL A   1      40.523  32.355  30.667  1.00  0.00     0.031 C 
ATOM     64  C   UNL A   1      45.120  29.199  31.611  1.00  0.00     0.029 A 
ATOM     65  C   UNL A   1      44.216  30.262  31.677  1.00  0.00     0.049 A 
ATOM     66  H   UNL A   1      44.546  32.064  30.625  1.00  0.00     0.167 HD
ATOM     67  C   UNL A   1      41.983  31.263  32.103  1.00  0.00     0.074 A 
ATOM     68  C   UNL A   1      41.809  32.177  30.979  1.00  0.00     0.031 C 
ATOM     69  C   UNL A   1      43.032  30.473  32.478  1.00  0.00     0.034 A 
BRANCH  56  70
ATOM     70  C   UNL A   1      44.965  31.806  27.626  1.00  0.00     0.023 A 
ATOM     71  C   UNL A   1      46.221  31.926  26.991  1.00  0.00     0.012 A 
ATOM     72  C   UNL A   1      44.206  32.984  27.797  1.00  0.00     0.148 A 
ATOM     73  C   UNL A   1      46.698  33.165  26.548  1.00  0.00     0.002 A 
ATOM     74  C   UNL A   1      44.654  34.199  27.291  1.00  0.00     0.091 A 
ATOM     75  F   UNL A   1      43.108  32.955  28.562  1.00  0.00    -0.205 F 
ATOM     76  C   UNL A   1      45.907  34.301  26.684  1.00  0.00     0.022 A 
BRANCH  74  77
ATOM     77  S   UNL A   1      43.636  35.674  27.403  1.00  0.00     0.127 S 
ATOM     78  O   UNL A   1      43.463  35.798  28.852  1.00  0.00    -0.237 OA
ATOM     79  O   UNL A   1      44.504  36.689  26.798  1.00  0.00    -0.237 OA
ATOM     80  O   UNL A   1      42.447  35.371  26.631  1.00  0.00    -0.744 OA
ENDBRANCH  74  77
ENDBRANCH  56  70
BRANCH  57  81
ATOM     81  C   UNL A   1      37.340  31.601  31.323  1.00  0.00     0.023 A 
ATOM     82  C   UNL A   1      37.011  32.359  32.465  1.00  0.00     0.012 A 
ATOM     83  C   UNL A   1      36.590  31.819  30.146  1.00  0.00     0.148 A 
ATOM     84  C   UNL A   1      36.002  33.329  32.426  1.00  0.00     0.002 A 
ATOM     85  C   UNL A   1      35.575  32.773  30.116  1.00  0.00     0.091 A 
ATOM     86  F   UNL A   1      36.929  31.167  29.026  1.00  0.00    -0.205 F 
ATOM     87  C   UNL A   1      35.290  33.542  31.250  1.00  0.00     0.022 A 
BRANCH  85  88
ATOM     88  S   UNL A   1      34.621  33.095  28.625  1.00  0.00     0.127 S 
ATOM     89  O   UNL A   1      34.018  31.789  28.357  1.00  0.00    -0.237 OA
ATOM     90  O   UNL A   1      33.686  34.120  29.077  1.00  0.00    -0.237 OA
ATOM     91  O   UNL A   1      35.594  33.516  27.623  1.00  0.00    -0.744 OA
ENDBRANCH  85  88
ENDBRANCH  57  81
BRANCH  69  92
ATOM     92  C   UNL A   1      42.826  29.498  33.609  1.00  0.00     0.023 A 
ATOM     93  C   UNL A   1      42.161  28.270  33.404  1.00  0.00     0.012 A 
ATOM     94  C   UNL A   1      43.500  29.717  34.822  1.00  0.00     0.148 A 
ATOM     95  C   UNL A   1      42.158  27.285  34.394  1.00  0.00     0.002 A 
ATOM     96  C   UNL A   1      43.529  28.718  35.789  1.00  0.00     0.091 A 
ATOM     97  F   UNL A   1      44.142  30.883  34.989  1.00  0.00    -0.205 F 
ATOM     98  C   UNL A   1      42.855  27.504  35.581  1.00  0.00     0.022 A 
BRANCH  96  99
ATOM     99  S   UNL A   1      44.510  28.869  37.284  1.00  0.00     0.127 S 
ATOM    100  O   UNL A   1      43.927  30.052  37.915  1.00  0.00    -0.237 OA
ATOM    101  O   UNL A   1      44.226  27.608  37.971  1.00  0.00    -0.237 OA
ATOM    102  O   UNL A   1      45.894  29.013  36.849  1.00  0.00    -0.744 OA
ENDBRANCH  96  99
ENDBRANCH  69  92
ENDBRANCH  43  44
ENDBRANCH  35  38
ENDBRANCH  33  34
ENDBRANCH  32  33
ENDBRANCH   1  32
TORSDOF 18
ENDMDL
MODEL 3
REMARK VINA RESULT:     -13.0      3.128      7.422
REMARK SMILES O=C(Cn1c(-c2nc(-c3ccc(C(F)(F)F)cc3)no2)cc2ccccc21)NCCCCNC(=O)c1ccc(-c2c3nc(c(-c4cccc(S(=O)(=O)[O-])c4F)c4ccc([nH]4)c(-c4cccc(S(=O)(=O)[O-])c4F)c4nc(c(-c5cccc(S(=O)(=O)[O-])c5F)c5ccc2[nH]5)C=C4)C=C3)cc1
REMARK SMILES IDX 30 1 29 2 28 3 1 4 2 5 3 7 4 8 5 9 27 10 21 11 22 12 26 13
REMARK SMILES IDX 23 14 25 15 24 16 6 17 7 18 20 19 8 20 19 21 9 22 10 23
REMARK SMILES IDX 18 24 11 25 17 26 12 27 13 28 14 29 15 30 16 31 31 32 32 33
REMARK SMILES IDX 33 34 34 35 35 37 36 38 37 39 98 40 38 41 97 42 39 43 40 44
REMARK SMILES IDX 41 45 91 46 42 47 96 48 90 49 92 50 43 51 95 52 89 53 88 54
REMARK SMILES IDX 44 56 76 57 56 58 75 59 57 60 60 61 74 62 93 63 58 64 59 65
REMARK SMILES IDX 73 67 94 68 61 69 45 70 46 71 54 72 47 73 49 74 55 75 48 76
REMARK SMILES IDX 50 77 51 78 52 79 53 80 77 81 78 82 86 83 79 84 81 85 87 86
REMARK SMILES IDX 80 87 82 88 83 89 84 90 85 91 62 92 63 93 71 94 64 95 66 96
REMARK SMILES IDX 72 97 65 98 67 99 68 100 69 101 70 102
REMARK H PARENT 28 6 33 36 92 55 60 66
REMARK Flexibility Score: inf
ROOT
ATOM      1  C   UNL A   1      33.612  28.510  26.988  1.00  0.00     0.023 C 
ENDROOT
BRANCH   1   2
ATOM      2  C   UNL A   1      33.742  27.494  25.859  1.00  0.00     0.116 C 
BRANCH   2   3
ATOM      3  N   UNL A   1      33.675  26.111  26.302  1.00  0.00    -0.355 N 
ATOM      4  O   UNL A   1      34.601  25.276  24.372  1.00  0.00    -0.273 OA
ATOM      5  C   UNL A   1      34.176  25.090  25.510  1.00  0.00     0.239 C 
ATOM      6  H   UNL A   1      33.271  25.898  27.173  1.00  0.00     0.163 HD
BRANCH   5   7
ATOM      7  C   UNL A   1      34.191  23.723  26.152  1.00  0.00     0.222 C 
BRANCH   7   8
ATOM      8  N   UNL A   1      33.387  22.672  25.510  1.00  0.00    -0.327 N 
ATOM      9  C   UNL A   1      32.010  22.787  25.325  1.00  0.00     0.109 A 
ATOM     10  C   UNL A   1      33.783  21.377  25.185  1.00  0.00     0.049 A 
ATOM     11  C   UNL A   1      31.519  21.521  25.079  1.00  0.00     0.042 A 
ATOM     12  C   UNL A   1      32.616  20.633  24.972  1.00  0.00     0.000 A 
ATOM     13  C   UNL A   1      35.044  20.765  25.055  1.00  0.00     0.027 A 
ATOM     14  C   UNL A   1      32.715  19.255  24.681  1.00  0.00     0.010 A 
ATOM     15  C   UNL A   1      35.120  19.397  24.781  1.00  0.00     0.002 A 
ATOM     16  C   UNL A   1      33.970  18.646  24.603  1.00  0.00     0.001 A 
BRANCH   9  17
ATOM     17  C   UNL A   1      31.271  24.015  25.349  1.00  0.00     0.274 A 
ATOM     18  N   UNL A   1      30.966  24.740  24.289  1.00  0.00    -0.185 NA
ATOM     19  O   UNL A   1      30.888  24.618  26.517  1.00  0.00    -0.332 OA
ATOM     20  C   UNL A   1      30.377  25.855  24.844  1.00  0.00     0.202 A 
ATOM     21  N   UNL A   1      30.309  25.832  26.183  1.00  0.00    -0.057 NA
BRANCH  20  22
ATOM     22  C   UNL A   1      29.849  26.973  24.080  1.00  0.00     0.023 A 
ATOM     23  C   UNL A   1      30.672  28.078  23.813  1.00  0.00     0.013 A 
ATOM     24  C   UNL A   1      28.499  27.026  23.721  1.00  0.00     0.013 A 
ATOM     25  C   UNL A   1      30.139  29.240  23.248  1.00  0.00     0.014 A 
ATOM     26  C   UNL A   1      27.961  28.196  23.168  1.00  0.00     0.014 A 
ATOM     27  C   UNL A   1      28.770  29.323  22.951  1.00  0.00     0.056 A 
BRANCH  27  28
ATOM     28  C   UNL A   1      28.193  30.629  22.458  1.00  0.00     0.416 C 
ATOM     29  F   UNL A   1      27.669  30.519  21.202  1.00  0.00    -0.166 F 
ATOM     30  F   UNL A   1      27.176  31.084  23.241  1.00  0.00    -0.166 F 
ATOM     31  F   UNL A   1      29.098  31.644  22.393  1.00  0.00    -0.166 F 
ENDBRANCH  27  28
ENDBRANCH  20  22
ENDBRANCH   9  17
ENDBRANCH   7   8
ENDBRANCH   5   7
ENDBRANCH   2   3
ENDBRANCH   1   2
BRANCH   1  32
ATOM     32  C   UNL A   1      32.342  29.369  26.979  1.00  0.00     0.023 C 
BRANCH  32  33
ATOM     33  C   UNL A   1      32.308  30.508  25.956  1.00  0.00     0.116 C 
BRANCH  33  34
ATOM     34  N   UNL A   1      31.818  31.769  26.473  1.00  0.00    -0.352 N 
ATOM     35  C   UNL A   1      32.389  32.816  27.147  1.00  0.00     0.251 C 
ATOM     36  H   UNL A   1      30.858  31.903  26.301  1.00  0.00     0.163 HD
ATOM     37  O   UNL A   1      31.703  33.840  27.219  1.00  0.00    -0.269 OA
BRANCH  35  38
ATOM     38  C   UNL A   1      33.711  32.784  27.838  1.00  0.00     0.039 A 
ATOM     39  C   UNL A   1      34.777  33.643  27.580  1.00  0.00     0.014 A 
ATOM     40  C   UNL A   1      33.909  31.734  28.757  1.00  0.00     0.014 A 
ATOM     41  C   UNL A   1      36.035  33.392  28.119  1.00  0.00     0.010 A 
ATOM     42  C   UNL A   1      35.161  31.493  29.320  1.00  0.00     0.010 A 
ATOM     43  C   UNL A   1      36.240  32.288  28.950  1.00  0.00    -0.014 A 
BRANCH  43  44
ATOM     44  C   UNL A   1      37.608  32.020  29.382  1.00  0.00     0.031 A 
ATOM     45  C   UNL A   1      38.139  30.652  29.119  1.00  0.00     0.074 A 
ATOM     46  C   UNL A   1      38.401  32.941  29.964  1.00  0.00     0.049 A 
ATOM     47  N   UNL A   1      38.430  29.732  29.984  1.00  0.00    -0.248 NA
ATOM     48  C   UNL A   1      38.299  30.239  27.720  1.00  0.00     0.031 C 
ATOM     49  C   UNL A   1      38.194  34.386  30.074  1.00  0.00     0.029 A 
ATOM     50  N   UNL A   1      39.644  32.764  30.494  1.00  0.00    -0.354 N 
ATOM     51  C   UNL A   1      38.988  28.685  29.252  1.00  0.00     0.074 A 
ATOM     52  C   UNL A   1      38.778  29.002  27.860  1.00  0.00     0.031 C 
ATOM     53  C   UNL A   1      39.366  34.975  30.405  1.00  0.00     0.029 A 
ATOM     54  C   UNL A   1      40.353  33.944  30.670  1.00  0.00     0.049 A 
ATOM     55  H   UNL A   1      40.007  31.879  30.730  1.00  0.00     0.167 HD
ATOM     56  C   UNL A   1      39.743  27.703  29.818  1.00  0.00     0.034 A 
ATOM     57  C   UNL A   1      41.675  34.047  30.940  1.00  0.00     0.034 A 
ATOM     58  C   UNL A   1      39.647  27.674  31.249  1.00  0.00     0.049 A 
ATOM     59  C   UNL A   1      42.100  32.763  31.548  1.00  0.00     0.074 A 
ATOM     60  C   UNL A   1      38.630  27.492  32.163  1.00  0.00     0.029 A 
ATOM     61  N   UNL A   1      40.704  28.184  31.962  1.00  0.00    -0.354 N 
ATOM     62  N   UNL A   1      41.711  32.350  32.722  1.00  0.00    -0.248 NA
ATOM     63  C   UNL A   1      42.684  31.747  30.688  1.00  0.00     0.031 C 
ATOM     64  C   UNL A   1      38.957  28.352  33.250  1.00  0.00     0.029 A 
ATOM     65  C   UNL A   1      40.162  28.984  32.933  1.00  0.00     0.049 A 
ATOM     66  H   UNL A   1      41.660  28.010  31.807  1.00  0.00     0.167 HD
ATOM     67  C   UNL A   1      41.613  30.972  32.595  1.00  0.00     0.074 A 
ATOM     68  C   UNL A   1      42.332  30.652  31.366  1.00  0.00     0.031 C 
ATOM     69  C   UNL A   1      40.723  30.253  33.340  1.00  0.00     0.034 A 
BRANCH  56  70
ATOM     70  C   UNL A   1      40.809  26.927  29.098  1.00  0.00     0.023 A 
ATOM     71  C   UNL A   1      42.018  27.579  28.774  1.00  0.00     0.012 A 
ATOM     72  C   UNL A   1      40.567  25.669  28.504  1.00  0.00     0.148 A 
ATOM     73  C   UNL A   1      42.944  27.004  27.896  1.00  0.00     0.002 A 
ATOM     74  C   UNL A   1      41.523  25.071  27.690  1.00  0.00     0.091 A 
ATOM     75  F   UNL A   1      39.359  25.106  28.623  1.00  0.00    -0.205 F 
ATOM     76  C   UNL A   1      42.704  25.742  27.365  1.00  0.00     0.022 A 
BRANCH  74  77
ATOM     77  S   UNL A   1      41.267  23.421  27.030  1.00  0.00     0.127 S 
ATOM     78  O   UNL A   1      41.318  22.610  28.247  1.00  0.00    -0.237 OA
ATOM     79  O   UNL A   1      39.935  23.540  26.425  1.00  0.00    -0.237 OA
ATOM     80  O   UNL A   1      42.339  23.227  26.074  1.00  0.00    -0.744 OA
ENDBRANCH  74  77
ENDBRANCH  56  70
BRANCH  57  81
ATOM     81  C   UNL A   1      42.651  35.079  30.514  1.00  0.00     0.023 A 
ATOM     82  C   UNL A   1      43.645  35.504  31.419  1.00  0.00     0.012 A 
ATOM     83  C   UNL A   1      42.792  35.445  29.157  1.00  0.00     0.148 A 
ATOM     84  C   UNL A   1      44.760  36.229  30.983  1.00  0.00     0.002 A 
ATOM     85  C   UNL A   1      43.896  36.181  28.730  1.00  0.00     0.091 A 
ATOM     86  F   UNL A   1      41.904  34.993  28.262  1.00  0.00    -0.205 F 
ATOM     87  C   UNL A   1      44.890  36.561  29.639  1.00  0.00     0.022 A 
BRANCH  85  88
ATOM     88  S   UNL A   1      44.120  36.638  27.005  1.00  0.00     0.127 S 
ATOM     89  O   UNL A   1      42.982  37.528  26.771  1.00  0.00    -0.237 OA
ATOM     90  O   UNL A   1      45.420  37.301  27.031  1.00  0.00    -0.237 OA
ATOM     91  O   UNL A   1      44.056  35.387  26.258  1.00  0.00    -0.744 OA
ENDBRANCH  85  88
ENDBRANCH  57  81
BRANCH  69  92
ATOM     92  C   UNL A   1      40.016  30.944  34.477  1.00  0.00     0.023 A 
ATOM     93  C   UNL A   1      40.639  31.108  35.733  1.00  0.00     0.012 A 
ATOM     94  C   UNL A   1      38.818  31.629  34.214  1.00  0.00     0.148 A 
ATOM     95  C   UNL A   1      40.071  31.928  36.711  1.00  0.00     0.002 A 
ATOM     96  C   UNL A   1      38.277  32.476  35.175  1.00  0.00     0.091 A 
ATOM     97  F   UNL A   1      38.253  31.475  33.007  1.00  0.00    -0.205 F 
ATOM     98  C   UNL A   1      38.898  32.623  36.426  1.00  0.00     0.022 A 
BRANCH  96  99
ATOM     99  S   UNL A   1      36.846  33.505  34.839  1.00  0.00     0.127 S 
ATOM    100  O   UNL A   1      37.440  34.634  34.127  1.00  0.00    -0.237 OA
ATOM    101  O   UNL A   1      36.018  32.626  34.011  1.00  0.00    -0.237 OA
ATOM    102  O   UNL A   1      36.263  33.824  36.138  1.00  0.00    -0.744 OA
ENDBRANCH  96  99
ENDBRANCH  69  92
ENDBRANCH  43  44
ENDBRANCH  35  38
ENDBRANCH  33  34
ENDBRANCH  32  33
ENDBRANCH   1  32
TORSDOF 18
ENDMDL
