MODEL 1
REMARK VINA RESULT:     -12.7      0.000      0.000
REMARK SMILES Cc1c(Cl)cc2c(c1C)O[C@H](C(F)(F)F)C(C(=O)NCCCCNC(=O)c1ccc(-c3c4nc(c(-c5cccc(S(=O)(=O)[O-])c5F)c5ccc([nH]5)c(-c5cccc(S(=O)(=O)[O-])c5F)c5nc(c(-c6cccc(S(=O)(=O)[O-])c6F)c6ccc3[nH]6)C=C5)C=C4)cc1)=C2
REMARK SMILES IDX 22 1 21 2 20 3 19 4 17 5 18 6 16 8 1 9 2 10 3 11 8 12 4 13
REMARK SMILES IDX 5 14 7 15 9 16 6 17 10 18 90 19 11 20 12 21 13 22 14 23
REMARK SMILES IDX 15 24 23 25 24 26 25 27 26 29 27 30 28 31 89 32 29 33 88 34
REMARK SMILES IDX 30 35 31 36 32 37 82 38 33 39 87 40 81 41 83 42 34 43 86 44
REMARK SMILES IDX 80 45 79 46 35 48 67 49 47 50 66 51 48 52 51 53 65 54 84 55
REMARK SMILES IDX 49 56 50 57 64 59 85 60 52 61 36 62 37 63 45 64 38 65 40 66
REMARK SMILES IDX 46 67 39 68 41 69 42 70 43 71 44 72 68 73 69 74 77 75 70 76
REMARK SMILES IDX 72 77 78 78 71 79 73 80 74 81 75 82 76 83 53 84 54 85 62 86
REMARK SMILES IDX 55 87 57 88 63 89 56 90 58 91 59 92 60 93 61 94
REMARK H PARENT 19 7 24 28 83 47 51 58
REMARK Flexibility Score: inf
ROOT
ATOM      1  C   UNL A   1      32.152  28.438  25.576  1.00  0.00     0.023 C 
ENDROOT
BRANCH   1   2
ATOM      2  C   UNL A   1      31.255  28.445  24.337  1.00  0.00     0.023 C 
BRANCH   2   3
ATOM      3  C   UNL A   1      30.706  27.072  23.959  1.00  0.00     0.116 C 
BRANCH   3   4
ATOM      4  N   UNL A   1      30.129  26.383  25.099  1.00  0.00    -0.352 N 
ATOM      5  C   UNL A   1      30.392  25.265  25.813  1.00  0.00     0.251 C 
ATOM      6  O   UNL A   1      29.618  25.036  26.747  1.00  0.00    -0.270 OA
ATOM      7  H   UNL A   1      29.335  26.855  25.443  1.00  0.00     0.163 HD
BRANCH   5   8
ATOM      8  C   UNL A   1      31.523  24.323  25.553  1.00  0.00     0.067 C 
ATOM      9  C   UNL A   1      37.293  21.251  25.191  1.00  0.00     0.046 C 
ATOM     10  C   UNL A   1      36.115  22.174  25.372  1.00  0.00    -0.026 A 
ATOM     11  C   UNL A   1      36.282  23.511  25.789  1.00  0.00     0.045 A 
ATOM     12  C   UNL A   1      34.804  21.712  25.092  1.00  0.00    -0.004 A 
ATOM     13  Cl  UNL A   1      37.843  24.196  26.092  1.00  0.00    -0.084 Cl
ATOM     14  C   UNL A   1      35.181  24.354  25.977  1.00  0.00     0.032 A 
ATOM     15  C   UNL A   1      33.711  22.578  25.299  1.00  0.00     0.131 A 
ATOM     16  C   UNL A   1      34.521  20.315  24.598  1.00  0.00     0.049 C 
ATOM     17  C   UNL A   1      33.891  23.887  25.743  1.00  0.00     0.019 A 
ATOM     18  O   UNL A   1      32.459  22.062  25.096  1.00  0.00    -0.475 OA
ATOM     19  C   UNL A   1      32.729  24.733  25.985  1.00  0.00     0.025 C 
ATOM     20  C   UNL A   1      31.395  23.017  24.826  1.00  0.00     0.314 C 
BRANCH  20  21
ATOM     21  C   UNL A   1      31.250  23.192  23.304  1.00  0.00     0.429 C 
ATOM     22  F   UNL A   1      30.004  23.632  22.995  1.00  0.00    -0.167 F 
ATOM     23  F   UNL A   1      32.115  24.101  22.797  1.00  0.00    -0.167 F 
ATOM     24  F   UNL A   1      31.448  22.039  22.625  1.00  0.00    -0.167 F 
ENDBRANCH  20  21
ENDBRANCH   5   8
ENDBRANCH   3   4
ENDBRANCH   2   3
ENDBRANCH   1   2
BRANCH   1  25
ATOM     25  C   UNL A   1      33.227  29.525  25.615  1.00  0.00     0.116 C 
BRANCH  25  26
ATOM     26  N   UNL A   1      32.781  30.771  26.226  1.00  0.00    -0.352 N 
ATOM     27  C   UNL A   1      33.410  31.501  27.205  1.00  0.00     0.251 C 
ATOM     28  H   UNL A   1      31.927  31.133  25.896  1.00  0.00     0.163 HD
ATOM     29  O   UNL A   1      32.879  32.501  27.681  1.00  0.00    -0.269 OA
BRANCH  27  30
ATOM     30  C   UNL A   1      34.717  31.034  27.703  1.00  0.00     0.039 A 
ATOM     31  C   UNL A   1      35.759  31.954  27.823  1.00  0.00     0.014 A 
ATOM     32  C   UNL A   1      34.872  29.712  28.127  1.00  0.00     0.014 A 
ATOM     33  C   UNL A   1      36.948  31.560  28.437  1.00  0.00     0.010 A 
ATOM     34  C   UNL A   1      36.032  29.341  28.796  1.00  0.00     0.010 A 
ATOM     35  C   UNL A   1      37.079  30.261  28.956  1.00  0.00    -0.014 A 
BRANCH  35  36
ATOM     36  C   UNL A   1      38.309  29.851  29.673  1.00  0.00     0.031 A 
ATOM     37  C   UNL A   1      38.597  30.397  31.042  1.00  0.00     0.074 A 
ATOM     38  C   UNL A   1      39.191  29.034  29.066  1.00  0.00     0.049 A 
ATOM     39  N   UNL A   1      39.608  30.144  31.830  1.00  0.00    -0.248 NA
ATOM     40  C   UNL A   1      37.636  31.370  31.589  1.00  0.00     0.031 C 
ATOM     41  C   UNL A   1      39.058  28.508  27.705  1.00  0.00     0.029 A 
ATOM     42  N   UNL A   1      40.380  28.511  29.510  1.00  0.00    -0.354 N 
ATOM     43  C   UNL A   1      39.416  30.937  32.954  1.00  0.00     0.074 A 
ATOM     44  C   UNL A   1      38.221  31.718  32.726  1.00  0.00     0.031 C 
ATOM     45  C   UNL A   1      40.110  27.717  27.436  1.00  0.00     0.029 A 
ATOM     46  C   UNL A   1      40.997  27.690  28.595  1.00  0.00     0.049 A 
ATOM     47  H   UNL A   1      40.756  28.706  30.398  1.00  0.00     0.167 HD
ATOM     48  C   UNL A   1      40.141  30.974  34.096  1.00  0.00     0.034 A 
ATOM     49  C   UNL A   1      42.140  26.980  28.690  1.00  0.00     0.034 A 
ATOM     50  C   UNL A   1      41.293  30.153  34.339  1.00  0.00     0.049 A 
ATOM     51  C   UNL A   1      42.914  27.017  29.980  1.00  0.00     0.074 A 
ATOM     52  C   UNL A   1      42.042  30.046  35.496  1.00  0.00     0.029 A 
ATOM     53  N   UNL A   1      41.863  29.297  33.409  1.00  0.00    -0.354 N 
ATOM     54  N   UNL A   1      42.626  27.644  31.096  1.00  0.00    -0.248 NA
ATOM     55  C   UNL A   1      44.154  26.228  30.037  1.00  0.00     0.031 C 
ATOM     56  C   UNL A   1      43.069  29.126  35.264  1.00  0.00     0.029 A 
ATOM     57  C   UNL A   1      42.959  28.661  33.963  1.00  0.00     0.049 A 
ATOM     58  H   UNL A   1      41.534  29.162  32.491  1.00  0.00     0.167 HD
ATOM     59  C   UNL A   1      43.633  27.308  31.993  1.00  0.00     0.074 A 
ATOM     60  C   UNL A   1      44.528  26.405  31.299  1.00  0.00     0.031 C 
ATOM     61  C   UNL A   1      43.811  27.727  33.270  1.00  0.00     0.034 A 
BRANCH  48  62
ATOM     62  C   UNL A   1      39.645  31.864  35.201  1.00  0.00     0.023 A 
ATOM     63  C   UNL A   1      39.984  33.233  35.178  1.00  0.00     0.012 A 
ATOM     64  C   UNL A   1      38.818  31.372  36.229  1.00  0.00     0.148 A 
ATOM     65  C   UNL A   1      39.534  34.094  36.176  1.00  0.00     0.002 A 
ATOM     66  C   UNL A   1      38.343  32.246  37.201  1.00  0.00     0.091 A 
ATOM     67  F   UNL A   1      38.529  30.064  36.250  1.00  0.00    -0.205 F 
ATOM     68  C   UNL A   1      38.707  33.603  37.182  1.00  0.00     0.022 A 
BRANCH  66  69
ATOM     69  S   UNL A   1      37.219  31.722  38.502  1.00  0.00     0.127 S 
ATOM     70  O   UNL A   1      36.922  30.349  38.098  1.00  0.00    -0.237 OA
ATOM     71  O   UNL A   1      38.053  31.838  39.699  1.00  0.00    -0.237 OA
ATOM     72  O   UNL A   1      36.098  32.649  38.455  1.00  0.00    -0.744 OA
ENDBRANCH  66  69
ENDBRANCH  48  62
BRANCH  49  73
ATOM     73  C   UNL A   1      42.548  26.088  27.568  1.00  0.00     0.023 A 
ATOM     74  C   UNL A   1      43.468  26.570  26.617  1.00  0.00     0.012 A 
ATOM     75  C   UNL A   1      42.094  24.758  27.473  1.00  0.00     0.148 A 
ATOM     76  C   UNL A   1      43.918  25.750  25.583  1.00  0.00     0.002 A 
ATOM     77  C   UNL A   1      42.584  23.931  26.467  1.00  0.00     0.091 A 
ATOM     78  F   UNL A   1      41.209  24.322  28.381  1.00  0.00    -0.205 F 
ATOM     79  C   UNL A   1      43.487  24.429  25.514  1.00  0.00     0.022 A 
BRANCH  77  80
ATOM     80  S   UNL A   1      42.187  22.180  26.377  1.00  0.00     0.127 S 
ATOM     81  O   UNL A   1      42.992  21.749  25.238  1.00  0.00    -0.237 OA
ATOM     82  O   UNL A   1      42.650  21.697  27.678  1.00  0.00    -0.237 OA
ATOM     83  O   UNL A   1      40.744  22.116  26.193  1.00  0.00    -0.744 OA
ENDBRANCH  77  80
ENDBRANCH  49  73
BRANCH  61  84
ATOM     84  C   UNL A   1      45.022  27.232  34.014  1.00  0.00     0.023 A 
ATOM     85  C   UNL A   1      46.189  28.020  34.022  1.00  0.00     0.012 A 
ATOM     86  C   UNL A   1      44.962  26.070  34.808  1.00  0.00     0.148 A 
ATOM     87  C   UNL A   1      47.284  27.656  34.805  1.00  0.00     0.002 A 
ATOM     88  C   UNL A   1      46.041  25.736  35.618  1.00  0.00     0.091 A 
ATOM     89  F   UNL A   1      43.847  25.326  34.771  1.00  0.00    -0.205 F 
ATOM     90  C   UNL A   1      47.204  26.524  35.612  1.00  0.00     0.022 A 
BRANCH  88  91
ATOM     91  S   UNL A   1      45.995  24.354  36.765  1.00  0.00     0.127 S 
ATOM     92  O   UNL A   1      47.370  24.333  37.263  1.00  0.00    -0.237 OA
ATOM     93  O   UNL A   1      44.999  24.793  37.743  1.00  0.00    -0.237 OA
ATOM     94  O   UNL A   1      45.598  23.193  35.979  1.00  0.00    -0.744 OA
ENDBRANCH  88  91
ENDBRANCH  61  84
ENDBRANCH  35  36
ENDBRANCH  27  30
ENDBRANCH  25  26
ENDBRANCH   1  25
TORSDOF 15
ENDMDL
MODEL 2
REMARK VINA RESULT:     -12.7      5.194     10.111
REMARK SMILES Cc1c(Cl)cc2c(c1C)O[C@H](C(F)(F)F)C(C(=O)NCCCCNC(=O)c1ccc(-c3c4nc(c(-c5cccc(S(=O)(=O)[O-])c5F)c5ccc([nH]5)c(-c5cccc(S(=O)(=O)[O-])c5F)c5nc(c(-c6cccc(S(=O)(=O)[O-])c6F)c6ccc3[nH]6)C=C5)C=C4)cc1)=C2
REMARK SMILES IDX 22 1 21 2 20 3 19 4 17 5 18 6 16 8 1 9 2 10 3 11 8 12 4 13
REMARK SMILES IDX 5 14 7 15 9 16 6 17 10 18 90 19 11 20 12 21 13 22 14 23
REMARK SMILES IDX 15 24 23 25 24 26 25 27 26 29 27 30 28 31 89 32 29 33 88 34
REMARK SMILES IDX 30 35 31 36 32 37 82 38 33 39 87 40 81 41 83 42 34 43 86 44
REMARK SMILES IDX 80 45 79 46 35 48 67 49 47 50 66 51 48 52 51 53 65 54 84 55
REMARK SMILES IDX 49 56 50 57 64 59 85 60 52 61 36 62 37 63 45 64 38 65 40 66
REMARK SMILES IDX 46 67 39 68 41 69 42 70 43 71 44 72 68 73 69 74 77 75 70 76
REMARK SMILES IDX 72 77 78 78 71 79 73 80 74 81 75 82 76 83 53 84 54 85 62 86
REMARK SMILES IDX 55 87 57 88 63 89 56 90 58 91 59 92 60 93 61 94
REMARK H PARENT 19 7 24 28 83 47 51 58
REMARK Flexibility Score: inf
ROOT
ATOM      1  C   UNL A   1      35.646  21.593  24.768  1.00  0.00     0.023 C 
ENDROOT
BRANCH   1   2
ATOM      2  C   UNL A   1      34.339  21.998  25.453  1.00  0.00     0.023 C 
BRANCH   2   3
ATOM      3  C   UNL A   1      33.110  21.904  24.554  1.00  0.00     0.116 C 
BRANCH   3   4
ATOM      4  N   UNL A   1      33.384  22.363  23.205  1.00  0.00    -0.352 N 
ATOM      5  C   UNL A   1      33.311  23.530  22.525  1.00  0.00     0.251 C 
ATOM      6  O   UNL A   1      33.657  23.479  21.341  1.00  0.00    -0.270 OA
ATOM      7  H   UNL A   1      33.710  21.630  22.632  1.00  0.00     0.163 HD
BRANCH   5   8
ATOM      8  C   UNL A   1      32.855  24.833  23.097  1.00  0.00     0.067 C 
ATOM      9  C   UNL A   1      32.246  30.524  26.277  1.00  0.00     0.046 C 
ATOM     10  C   UNL A   1      32.617  29.181  25.700  1.00  0.00    -0.026 A 
ATOM     11  C   UNL A   1      33.717  28.447  26.189  1.00  0.00     0.045 A 
ATOM     12  C   UNL A   1      31.835  28.615  24.663  1.00  0.00    -0.004 A 
ATOM     13  Cl  UNL A   1      34.698  29.014  27.499  1.00  0.00    -0.084 Cl
ATOM     14  C   UNL A   1      34.069  27.212  25.633  1.00  0.00     0.032 A 
ATOM     15  C   UNL A   1      32.215  27.375  24.113  1.00  0.00     0.131 A 
ATOM     16  C   UNL A   1      30.612  29.298  24.100  1.00  0.00     0.049 C 
ATOM     17  C   UNL A   1      33.326  26.677  24.586  1.00  0.00     0.019 A 
ATOM     18  O   UNL A   1      31.479  26.908  23.056  1.00  0.00    -0.475 OA
ATOM     19  C   UNL A   1      33.708  25.418  23.958  1.00  0.00     0.025 C 
ATOM     20  C   UNL A   1      31.530  25.475  22.808  1.00  0.00     0.314 C 
BRANCH  20  21
ATOM     21  C   UNL A   1      30.362  24.794  23.544  1.00  0.00     0.429 C 
ATOM     22  F   UNL A   1      30.743  24.424  24.793  1.00  0.00    -0.167 F 
ATOM     23  F   UNL A   1      29.293  25.609  23.693  1.00  0.00    -0.167 F 
ATOM     24  F   UNL A   1      29.925  23.682  22.912  1.00  0.00    -0.167 F 
ENDBRANCH  20  21
ENDBRANCH   5   8
ENDBRANCH   3   4
ENDBRANCH   2   3
ENDBRANCH   1   2
BRANCH   1  25
ATOM     25  C   UNL A   1      36.925  22.046  25.472  1.00  0.00     0.116 C 
BRANCH  25  26
ATOM     26  N   UNL A   1      37.932  20.998  25.591  1.00  0.00    -0.352 N 
ATOM     27  C   UNL A   1      39.203  21.106  26.102  1.00  0.00     0.251 C 
ATOM     28  H   UNL A   1      37.670  20.107  25.266  1.00  0.00     0.163 HD
ATOM     29  O   UNL A   1      39.974  20.151  26.072  1.00  0.00    -0.269 OA
BRANCH  27  30
ATOM     30  C   UNL A   1      39.634  22.406  26.648  1.00  0.00     0.039 A 
ATOM     31  C   UNL A   1      40.640  22.429  27.615  1.00  0.00     0.014 A 
ATOM     32  C   UNL A   1      39.102  23.592  26.135  1.00  0.00     0.014 A 
ATOM     33  C   UNL A   1      41.164  23.655  28.024  1.00  0.00     0.010 A 
ATOM     34  C   UNL A   1      39.671  24.808  26.496  1.00  0.00     0.010 A 
ATOM     35  C   UNL A   1      40.705  24.849  27.442  1.00  0.00    -0.014 A 
BRANCH  35  36
ATOM     36  C   UNL A   1      41.302  26.153  27.816  1.00  0.00     0.031 A 
ATOM     37  C   UNL A   1      42.718  26.468  27.429  1.00  0.00     0.074 A 
ATOM     38  C   UNL A   1      40.587  27.025  28.552  1.00  0.00     0.049 A 
ATOM     39  N   UNL A   1      43.406  27.556  27.650  1.00  0.00    -0.248 NA
ATOM     40  C   UNL A   1      43.467  25.416  26.721  1.00  0.00     0.031 C 
ATOM     41  C   UNL A   1      39.232  26.793  29.056  1.00  0.00     0.029 A 
ATOM     42  N   UNL A   1      40.903  28.278  29.013  1.00  0.00    -0.354 N 
ATOM     43  C   UNL A   1      44.670  27.315  27.126  1.00  0.00     0.074 A 
ATOM     44  C   UNL A   1      44.672  25.960  26.622  1.00  0.00     0.031 C 
ATOM     45  C   UNL A   1      38.824  27.878  29.734  1.00  0.00     0.029 A 
ATOM     46  C   UNL A   1      39.889  28.876  29.725  1.00  0.00     0.049 A 
ATOM     47  H   UNL A   1      41.773  28.709  28.850  1.00  0.00     0.167 HD
ATOM     48  C   UNL A   1      45.719  28.164  27.027  1.00  0.00     0.034 A 
ATOM     49  C   UNL A   1      39.822  30.099  30.290  1.00  0.00     0.034 A 
ATOM     50  C   UNL A   1      45.692  29.527  27.476  1.00  0.00     0.049 A 
ATOM     51  C   UNL A   1      40.993  31.034  30.142  1.00  0.00     0.074 A 
ATOM     52  C   UNL A   1      46.668  30.496  27.337  1.00  0.00     0.029 A 
ATOM     53  N   UNL A   1      44.632  30.114  28.150  1.00  0.00    -0.354 N 
ATOM     54  N   UNL A   1      42.119  30.848  29.496  1.00  0.00    -0.248 NA
ATOM     55  C   UNL A   1      40.874  32.357  30.774  1.00  0.00     0.031 C 
ATOM     56  C   UNL A   1      46.199  31.671  27.933  1.00  0.00     0.029 A 
ATOM     57  C   UNL A   1      44.931  31.432  28.441  1.00  0.00     0.049 A 
ATOM     58  H   UNL A   1      43.792  29.660  28.385  1.00  0.00     0.167 HD
ATOM     59  C   UNL A   1      42.833  32.034  29.623  1.00  0.00     0.074 A 
ATOM     60  C   UNL A   1      42.003  32.941  30.390  1.00  0.00     0.031 C 
ATOM     61  C   UNL A   1      44.072  32.336  29.164  1.00  0.00     0.034 A 
BRANCH  48  62
ATOM     62  C   UNL A   1      46.948  27.663  26.319  1.00  0.00     0.023 A 
ATOM     63  C   UNL A   1      47.889  26.903  27.042  1.00  0.00     0.012 A 
ATOM     64  C   UNL A   1      47.156  27.901  24.947  1.00  0.00     0.148 A 
ATOM     65  C   UNL A   1      49.034  26.409  26.421  1.00  0.00     0.002 A 
ATOM     66  C   UNL A   1      48.283  27.374  24.325  1.00  0.00     0.091 A 
ATOM     67  F   UNL A   1      46.265  28.650  24.282  1.00  0.00    -0.205 F 
ATOM     68  C   UNL A   1      49.227  26.637  25.061  1.00  0.00     0.022 A 
BRANCH  66  69
ATOM     69  S   UNL A   1      48.587  27.559  22.564  1.00  0.00     0.127 S 
ATOM     70  O   UNL A   1      48.654  26.164  22.129  1.00  0.00    -0.237 OA
ATOM     71  O   UNL A   1      47.395  28.280  22.117  1.00  0.00    -0.237 OA
ATOM     72  O   UNL A   1      49.827  28.313  22.452  1.00  0.00    -0.744 OA
ENDBRANCH  66  69
ENDBRANCH  48  62
BRANCH  49  73
ATOM     73  C   UNL A   1      38.556  30.541  30.940  1.00  0.00     0.023 A 
ATOM     74  C   UNL A   1      38.385  30.310  32.319  1.00  0.00     0.012 A 
ATOM     75  C   UNL A   1      37.562  31.243  30.232  1.00  0.00     0.148 A 
ATOM     76  C   UNL A   1      37.239  30.756  32.978  1.00  0.00     0.002 A 
ATOM     77  C   UNL A   1      36.445  31.727  30.906  1.00  0.00     0.091 A 
ATOM     78  F   UNL A   1      37.739  31.442  28.918  1.00  0.00    -0.205 F 
ATOM     79  C   UNL A   1      36.276  31.473  32.276  1.00  0.00     0.022 A 
BRANCH  77  80
ATOM     80  S   UNL A   1      35.217  32.773  30.113  1.00  0.00     0.127 S 
ATOM     81  O   UNL A   1      34.697  31.889  29.074  1.00  0.00    -0.237 OA
ATOM     82  O   UNL A   1      34.291  33.043  31.215  1.00  0.00    -0.237 OA
ATOM     83  O   UNL A   1      35.945  33.944  29.643  1.00  0.00    -0.744 OA
ENDBRANCH  77  80
ENDBRANCH  49  73
BRANCH  61  84
ATOM     84  C   UNL A   1      44.629  33.698  29.479  1.00  0.00     0.023 A 
ATOM     85  C   UNL A   1      45.427  33.861  30.628  1.00  0.00     0.012 A 
ATOM     86  C   UNL A   1      44.481  34.770  28.578  1.00  0.00     0.148 A 
ATOM     87  C   UNL A   1      46.064  35.076  30.881  1.00  0.00     0.002 A 
ATOM     88  C   UNL A   1      45.153  35.964  28.814  1.00  0.00     0.091 A 
ATOM     89  F   UNL A   1      43.703  34.596  27.499  1.00  0.00    -0.205 F 
ATOM     90  C   UNL A   1      45.939  36.120  29.968  1.00  0.00     0.022 A 
BRANCH  88  91
ATOM     91  S   UNL A   1      45.133  37.330  27.647  1.00  0.00     0.127 S 
ATOM     92  O   UNL A   1      46.047  36.851  26.611  1.00  0.00    -0.237 OA
ATOM     93  O   UNL A   1      43.727  37.378  27.247  1.00  0.00    -0.237 OA
ATOM     94  O   UNL A   1      45.589  38.498  28.389  1.00  0.00    -0.744 OA
ENDBRANCH  88  91
ENDBRANCH  61  84
ENDBRANCH  35  36
ENDBRANCH  27  30
ENDBRANCH  25  26
ENDBRANCH   1  25
TORSDOF 15
ENDMDL
MODEL 3
REMARK VINA RESULT:     -12.4      5.145      9.672
REMARK SMILES Cc1c(Cl)cc2c(c1C)O[C@H](C(F)(F)F)C(C(=O)NCCCCNC(=O)c1ccc(-c3c4nc(c(-c5cccc(S(=O)(=O)[O-])c5F)c5ccc([nH]5)c(-c5cccc(S(=O)(=O)[O-])c5F)c5nc(c(-c6cccc(S(=O)(=O)[O-])c6F)c6ccc3[nH]6)C=C5)C=C4)cc1)=C2
REMARK SMILES IDX 22 1 21 2 20 3 19 4 17 5 18 6 16 8 1 9 2 10 3 11 8 12 4 13
REMARK SMILES IDX 5 14 7 15 9 16 6 17 10 18 90 19 11 20 12 21 13 22 14 23
REMARK SMILES IDX 15 24 23 25 24 26 25 27 26 29 27 30 28 31 89 32 29 33 88 34
REMARK SMILES IDX 30 35 31 36 32 37 82 38 33 39 87 40 81 41 83 42 34 43 86 44
REMARK SMILES IDX 80 45 79 46 35 48 67 49 47 50 66 51 48 52 51 53 65 54 84 55
REMARK SMILES IDX 49 56 50 57 64 59 85 60 52 61 36 62 37 63 45 64 38 65 40 66
REMARK SMILES IDX 46 67 39 68 41 69 42 70 43 71 44 72 68 73 69 74 77 75 70 76
REMARK SMILES IDX 72 77 78 78 71 79 73 80 74 81 75 82 76 83 53 84 54 85 62 86
REMARK SMILES IDX 55 87 57 88 63 89 56 90 58 91 59 92 60 93 61 94
REMARK H PARENT 19 7 24 28 83 47 51 58
REMARK Flexibility Score: inf
ROOT
ATOM      1  C   UNL A   1      35.573  22.574  26.129  1.00  0.00     0.023 C 
ENDROOT
BRANCH   1   2
ATOM      2  C   UNL A   1      34.895  21.696  25.075  1.00  0.00     0.023 C 
BRANCH   2   3
ATOM      3  C   UNL A   1      33.564  22.246  24.570  1.00  0.00     0.116 C 
BRANCH   3   4
ATOM      4  N   UNL A   1      33.637  22.661  23.182  1.00  0.00    -0.352 N 
ATOM      5  C   UNL A   1      33.365  23.780  22.471  1.00  0.00     0.251 C 
ATOM      6  O   UNL A   1      33.582  23.704  21.257  1.00  0.00    -0.270 OA
ATOM      7  H   UNL A   1      33.974  21.938  22.604  1.00  0.00     0.163 HD
BRANCH   5   8
ATOM      8  C   UNL A   1      32.838  25.056  23.041  1.00  0.00     0.067 C 
ATOM      9  C   UNL A   1      31.926  30.721  26.195  1.00  0.00     0.046 C 
ATOM     10  C   UNL A   1      32.370  29.399  25.621  1.00  0.00    -0.026 A 
ATOM     11  C   UNL A   1      33.518  28.736  26.101  1.00  0.00     0.045 A 
ATOM     12  C   UNL A   1      31.610  28.780  24.597  1.00  0.00    -0.004 A 
ATOM     13  Cl  UNL A   1      34.479  29.370  27.394  1.00  0.00    -0.084 Cl
ATOM     14  C   UNL A   1      33.938  27.521  25.548  1.00  0.00     0.032 A 
ATOM     15  C   UNL A   1      32.058  27.561  24.049  1.00  0.00     0.131 A 
ATOM     16  C   UNL A   1      30.342  29.384  24.046  1.00  0.00     0.049 C 
ATOM     17  C   UNL A   1      33.215  26.935  24.512  1.00  0.00     0.019 A 
ATOM     18  O   UNL A   1      31.339  27.044  23.005  1.00  0.00    -0.475 OA
ATOM     19  C   UNL A   1      33.665  25.697  23.887  1.00  0.00     0.025 C 
ATOM     20  C   UNL A   1      31.474  25.616  22.764  1.00  0.00     0.314 C 
BRANCH  20  21
ATOM     21  C   UNL A   1      30.358  24.870  23.519  1.00  0.00     0.429 C 
ATOM     22  F   UNL A   1      30.721  24.658  24.810  1.00  0.00    -0.167 F 
ATOM     23  F   UNL A   1      29.198  25.564  23.556  1.00  0.00    -0.167 F 
ATOM     24  F   UNL A   1      30.078  23.663  22.977  1.00  0.00    -0.167 F 
ENDBRANCH  20  21
ENDBRANCH   5   8
ENDBRANCH   3   4
ENDBRANCH   2   3
ENDBRANCH   1   2
BRANCH   1  25
ATOM     25  C   UNL A   1      36.913  23.182  25.715  1.00  0.00     0.116 C 
BRANCH  25  26
ATOM     26  N   UNL A   1      38.054  22.307  25.957  1.00  0.00    -0.352 N 
ATOM     27  C   UNL A   1      39.274  22.644  26.492  1.00  0.00     0.251 C 
ATOM     28  H   UNL A   1      37.936  21.362  25.708  1.00  0.00     0.163 HD
ATOM     29  O   UNL A   1      40.175  21.813  26.571  1.00  0.00    -0.269 OA
BRANCH  27  30
ATOM     30  C   UNL A   1      39.492  24.035  26.929  1.00  0.00     0.039 A 
ATOM     31  C   UNL A   1      39.233  24.372  28.258  1.00  0.00     0.014 A 
ATOM     32  C   UNL A   1      40.034  24.970  26.043  1.00  0.00     0.014 A 
ATOM     33  C   UNL A   1      39.583  25.640  28.720  1.00  0.00     0.010 A 
ATOM     34  C   UNL A   1      40.440  26.210  26.522  1.00  0.00     0.010 A 
ATOM     35  C   UNL A   1      40.218  26.555  27.864  1.00  0.00    -0.014 A 
BRANCH  35  36
ATOM     36  C   UNL A   1      40.658  27.879  28.360  1.00  0.00     0.031 A 
ATOM     37  C   UNL A   1      42.117  28.233  28.360  1.00  0.00     0.074 A 
ATOM     38  C   UNL A   1      39.749  28.736  28.863  1.00  0.00     0.049 A 
ATOM     39  N   UNL A   1      42.692  29.344  28.738  1.00  0.00    -0.248 NA
ATOM     40  C   UNL A   1      43.056  27.197  27.897  1.00  0.00     0.031 C 
ATOM     41  C   UNL A   1      38.315  28.468  28.991  1.00  0.00     0.029 A 
ATOM     42  N   UNL A   1      39.897  30.003  29.369  1.00  0.00    -0.354 N 
ATOM     43  C   UNL A   1      44.055  29.136  28.575  1.00  0.00     0.074 A 
ATOM     44  C   UNL A   1      44.228  27.777  28.114  1.00  0.00     0.031 C 
ATOM     45  C   UNL A   1      37.712  29.547  29.516  1.00  0.00     0.029 A 
ATOM     46  C   UNL A   1      38.714  30.577  29.774  1.00  0.00     0.049 A 
ATOM     47  H   UNL A   1      40.767  30.459  29.437  1.00  0.00     0.167 HD
ATOM     48  C   UNL A   1      45.070  30.015  28.745  1.00  0.00     0.034 A 
ATOM     49  C   UNL A   1      38.466  31.802  30.279  1.00  0.00     0.034 A 
ATOM     50  C   UNL A   1      44.887  31.380  29.147  1.00  0.00     0.049 A 
ATOM     51  C   UNL A   1      39.608  32.771  30.433  1.00  0.00     0.074 A 
ATOM     52  C   UNL A   1      45.839  32.377  29.257  1.00  0.00     0.029 A 
ATOM     53  N   UNL A   1      43.671  31.943  29.502  1.00  0.00    -0.354 N 
ATOM     54  N   UNL A   1      40.870  32.613  30.115  1.00  0.00    -0.248 NA
ATOM     55  C   UNL A   1      39.290  34.096  30.987  1.00  0.00     0.031 C 
ATOM     56  C   UNL A   1      45.197  33.544  29.685  1.00  0.00     0.029 A 
ATOM     57  C   UNL A   1      43.846  33.272  29.840  1.00  0.00     0.049 A 
ATOM     58  H   UNL A   1      42.810  31.465  29.512  1.00  0.00     0.167 HD
ATOM     59  C   UNL A   1      41.493  33.821  30.408  1.00  0.00     0.074 A 
ATOM     60  C   UNL A   1      40.464  34.710  30.908  1.00  0.00     0.031 C 
ATOM     61  C   UNL A   1      42.801  34.156  30.292  1.00  0.00     0.034 A 
BRANCH  48  62
ATOM     62  C   UNL A   1      46.457  29.545  28.400  1.00  0.00     0.023 A 
ATOM     63  C   UNL A   1      46.915  29.690  27.075  1.00  0.00     0.012 A 
ATOM     64  C   UNL A   1      47.317  29.007  29.377  1.00  0.00     0.148 A 
ATOM     65  C   UNL A   1      48.197  29.280  26.717  1.00  0.00     0.002 A 
ATOM     66  C   UNL A   1      48.608  28.633  29.019  1.00  0.00     0.091 A 
ATOM     67  F   UNL A   1      46.854  28.851  30.625  1.00  0.00    -0.205 F 
ATOM     68  C   UNL A   1      49.046  28.760  27.690  1.00  0.00     0.022 A 
BRANCH  66  69
ATOM     69  S   UNL A   1      49.798  28.014  30.214  1.00  0.00     0.127 S 
ATOM     70  O   UNL A   1      50.972  27.794  29.373  1.00  0.00    -0.237 OA
ATOM     71  O   UNL A   1      49.917  29.138  31.145  1.00  0.00    -0.237 OA
ATOM     72  O   UNL A   1      49.199  26.817  30.787  1.00  0.00    -0.744 OA
ENDBRANCH  66  69
ENDBRANCH  48  62
BRANCH  49  73
ATOM     73  C   UNL A   1      37.061  32.213  30.559  1.00  0.00     0.023 A 
ATOM     74  C   UNL A   1      36.552  32.045  31.862  1.00  0.00     0.012 A 
ATOM     75  C   UNL A   1      36.255  32.825  29.581  1.00  0.00     0.148 A 
ATOM     76  C   UNL A   1      35.261  32.465  32.182  1.00  0.00     0.002 A 
ATOM     77  C   UNL A   1      34.986  33.286  29.919  1.00  0.00     0.091 A 
ATOM     78  F   UNL A   1      36.754  32.965  28.344  1.00  0.00    -0.205 F 
ATOM     79  C   UNL A   1      34.483  33.095  31.215  1.00  0.00     0.022 A 
BRANCH  77  80
ATOM     80  S   UNL A   1      33.964  34.226  28.778  1.00  0.00     0.127 S 
ATOM     81  O   UNL A   1      34.867  35.304  28.386  1.00  0.00    -0.237 OA
ATOM     82  O   UNL A   1      33.691  33.239  27.732  1.00  0.00    -0.237 OA
ATOM     83  O   UNL A   1      32.792  34.628  29.543  1.00  0.00    -0.744 OA
ENDBRANCH  77  80
ENDBRANCH  49  73
BRANCH  61  84
ATOM     84  C   UNL A   1      43.217  35.537  30.720  1.00  0.00     0.023 A 
ATOM     85  C   UNL A   1      43.706  35.729  32.026  1.00  0.00     0.012 A 
ATOM     86  C   UNL A   1      43.255  36.603  29.800  1.00  0.00     0.148 A 
ATOM     87  C   UNL A   1      44.220  36.966  32.415  1.00  0.00     0.002 A 
ATOM     88  C   UNL A   1      43.807  37.820  30.182  1.00  0.00     0.091 A 
ATOM     89  F   UNL A   1      42.769  36.401  28.566  1.00  0.00    -0.205 F 
ATOM     90  C   UNL A   1      44.284  38.004  31.490  1.00  0.00     0.022 A 
BRANCH  88  91
ATOM     91  S   UNL A   1      44.024  39.185  29.033  1.00  0.00     0.127 S 
ATOM     92  O   UNL A   1      42.658  39.390  28.553  1.00  0.00    -0.237 OA
ATOM     93  O   UNL A   1      44.532  40.247  29.902  1.00  0.00    -0.237 OA
ATOM     94  O   UNL A   1      44.974  38.719  28.031  1.00  0.00    -0.744 OA
ENDBRANCH  88  91
ENDBRANCH  61  84
ENDBRANCH  35  36
ENDBRANCH  27  30
ENDBRANCH  25  26
ENDBRANCH   1  25
TORSDOF 15
ENDMDL
