MODEL 1
REMARK VINA RESULT:     -12.1      0.000      0.000
REMARK SMILES O=C(C[C@H]1C[C@H]2CC[C@@H](C1)N2C(=O)c1c[nH]c(=O)[nH]1)NCCCCNC(=O)c1ccc(-c2c3nc(c(-c4cccc(S(=O)(=O)[O-])c4F)c4ccc([nH]4)c(-c4cccc(S(=O)(=O)[O-])c4F)c4nc(c(-c5cccc(S(=O)(=O)[O-])c5F)c5ccc2[nH]5)C=C4)C=C3)cc1
REMARK SMILES IDX 22 1 21 2 20 3 1 4 2 5 3 7 4 8 5 9 10 10 6 11 9 12 7 13
REMARK SMILES IDX 11 14 8 15 12 16 13 17 14 18 15 19 19 20 16 21 17 22 18 25
REMARK SMILES IDX 23 26 24 27 25 28 26 29 27 31 28 32 29 33 90 34 30 35 89 36
REMARK SMILES IDX 31 37 32 38 33 39 83 40 34 41 88 42 82 43 84 44 35 45 87 46
REMARK SMILES IDX 81 47 80 48 36 50 68 51 48 52 67 53 49 54 52 55 66 56 85 57
REMARK SMILES IDX 50 58 51 59 65 61 86 62 53 63 37 64 38 65 46 66 39 67 41 68
REMARK SMILES IDX 47 69 40 70 42 71 43 72 44 73 45 74 69 75 70 76 78 77 71 78
REMARK SMILES IDX 73 79 79 80 72 81 74 82 75 83 76 84 77 85 54 86 55 87 63 88
REMARK SMILES IDX 56 89 58 90 64 91 57 92 59 93 60 94 61 95 62 96
REMARK H PARENT 20 6 19 23 16 24 25 30 84 49 52 60
REMARK Flexibility Score: inf
ROOT
ATOM      1  C   UNL A   1      31.821  30.532  26.865  1.00  0.00     0.023 C 
ENDROOT
BRANCH   1   2
ATOM      2  C   UNL A   1      32.519  29.791  25.726  1.00  0.00     0.116 C 
BRANCH   2   3
ATOM      3  N   UNL A   1      31.670  28.761  25.161  1.00  0.00    -0.356 N 
ATOM      4  O   UNL A   1      31.474  27.516  27.083  1.00  0.00    -0.275 OA
ATOM      5  C   UNL A   1      31.252  27.673  25.886  1.00  0.00     0.220 C 
ATOM      6  H   UNL A   1      31.384  28.845  24.223  1.00  0.00     0.163 HD
BRANCH   5   7
ATOM      7  C   UNL A   1      30.485  26.647  25.080  1.00  0.00     0.103 C 
BRANCH   7   8
ATOM      8  C   UNL A   1      31.345  25.805  24.116  1.00  0.00     0.002 C 
ATOM      9  C   UNL A   1      32.755  25.556  24.719  1.00  0.00     0.029 C 
ATOM     10  C   UNL A   1      30.686  24.489  23.627  1.00  0.00     0.029 C 
ATOM     11  C   UNL A   1      32.914  24.207  25.448  1.00  0.00     0.086 C 
ATOM     12  C   UNL A   1      31.039  23.251  24.467  1.00  0.00     0.086 C 
ATOM     13  C   UNL A   1      31.925  24.014  26.604  1.00  0.00     0.027 C 
ATOM     14  N   UNL A   1      32.490  23.162  24.539  1.00  0.00    -0.331 N 
ATOM     15  C   UNL A   1      30.665  23.419  25.946  1.00  0.00     0.027 C 
BRANCH  14  16
ATOM     16  C   UNL A   1      33.315  22.127  24.173  1.00  0.00     0.272 C 
ATOM     17  O   UNL A   1      34.220  22.242  23.349  1.00  0.00    -0.267 OA
BRANCH  16  18
ATOM     18  C   UNL A   1      33.149  20.841  24.884  1.00  0.00     0.125 A 
ATOM     19  C   UNL A   1      33.462  20.525  26.149  1.00  0.00     0.119 A 
ATOM     20  N   UNL A   1      32.547  19.753  24.295  1.00  0.00    -0.302 N 
ATOM     21  N   UNL A   1      33.092  19.221  26.373  1.00  0.00    -0.312 N 
ATOM     22  C   UNL A   1      32.504  18.699  25.209  1.00  0.00     0.323 A 
ATOM     23  H   UNL A   1      32.200  19.723  23.374  1.00  0.00     0.172 HD
ATOM     24  H   UNL A   1      33.219  18.730  27.216  1.00  0.00     0.171 HD
ATOM     25  O   UNL A   1      32.063  17.580  25.038  1.00  0.00    -0.248 OA
ENDBRANCH  16  18
ENDBRANCH  14  16
ENDBRANCH   7   8
ENDBRANCH   5   7
ENDBRANCH   2   3
ENDBRANCH   1   2
BRANCH   1  26
ATOM     26  C   UNL A   1      31.770  32.055  26.708  1.00  0.00     0.023 C 
BRANCH  26  27
ATOM     27  C   UNL A   1      32.953  32.818  27.298  1.00  0.00     0.116 C 
BRANCH  27  28
ATOM     28  N   UNL A   1      32.605  34.164  27.719  1.00  0.00    -0.352 N 
ATOM     29  C   UNL A   1      33.124  34.911  28.750  1.00  0.00     0.251 C 
ATOM     30  H   UNL A   1      31.898  34.603  27.193  1.00  0.00     0.163 HD
ATOM     31  O   UNL A   1      32.609  35.988  29.042  1.00  0.00    -0.269 OA
BRANCH  29  32
ATOM     32  C   UNL A   1      34.281  34.409  29.524  1.00  0.00     0.039 A 
ATOM     33  C   UNL A   1      34.043  33.669  30.687  1.00  0.00     0.014 A 
ATOM     34  C   UNL A   1      35.592  34.661  29.111  1.00  0.00     0.014 A 
ATOM     35  C   UNL A   1      35.119  33.128  31.399  1.00  0.00     0.010 A 
ATOM     36  C   UNL A   1      36.658  34.066  29.785  1.00  0.00     0.010 A 
ATOM     37  C   UNL A   1      36.434  33.293  30.935  1.00  0.00    -0.014 A 
BRANCH  37  38
ATOM     38  C   UNL A   1      37.583  32.649  31.623  1.00  0.00     0.031 A 
ATOM     39  C   UNL A   1      38.299  31.488  30.989  1.00  0.00     0.074 A 
ATOM     40  C   UNL A   1      37.922  33.048  32.866  1.00  0.00     0.049 A 
ATOM     41  N   UNL A   1      39.278  30.763  31.467  1.00  0.00    -0.248 NA
ATOM     42  C   UNL A   1      37.841  31.068  29.655  1.00  0.00     0.031 C 
ATOM     43  C   UNL A   1      37.257  34.109  33.625  1.00  0.00     0.029 A 
ATOM     44  N   UNL A   1      38.893  32.589  33.721  1.00  0.00    -0.354 N 
ATOM     45  C   UNL A   1      39.524  29.780  30.516  1.00  0.00     0.074 A 
ATOM     46  C   UNL A   1      38.574  29.985  29.443  1.00  0.00     0.031 C 
ATOM     47  C   UNL A   1      37.839  34.222  34.829  1.00  0.00     0.029 A 
ATOM     48  C   UNL A   1      38.900  33.226  34.941  1.00  0.00     0.049 A 
ATOM     49  H   UNL A   1      39.524  31.872  33.484  1.00  0.00     0.167 HD
ATOM     50  C   UNL A   1      40.472  28.812  30.519  1.00  0.00     0.034 A 
ATOM     51  C   UNL A   1      39.670  33.028  36.029  1.00  0.00     0.034 A 
ATOM     52  C   UNL A   1      41.452  28.645  31.558  1.00  0.00     0.049 A 
ATOM     53  C   UNL A   1      40.749  31.979  35.986  1.00  0.00     0.074 A 
ATOM     54  C   UNL A   1      42.516  27.761  31.602  1.00  0.00     0.029 A 
ATOM     55  N   UNL A   1      41.487  29.371  32.739  1.00  0.00    -0.354 N 
ATOM     56  N   UNL A   1      41.076  31.173  35.005  1.00  0.00    -0.248 NA
ATOM     57  C   UNL A   1      41.590  31.839  37.183  1.00  0.00     0.031 C 
ATOM     58  C   UNL A   1      43.185  27.942  32.817  1.00  0.00     0.029 A 
ATOM     59  C   UNL A   1      42.549  28.950  33.522  1.00  0.00     0.049 A 
ATOM     60  H   UNL A   1      40.851  30.081  32.984  1.00  0.00     0.167 HD
ATOM     61  C   UNL A   1      42.180  30.457  35.453  1.00  0.00     0.074 A 
ATOM     62  C   UNL A   1      42.479  30.938  36.785  1.00  0.00     0.031 C 
ATOM     63  C   UNL A   1      42.873  29.477  34.822  1.00  0.00     0.034 A 
BRANCH  50  64
ATOM     64  C   UNL A   1      40.537  27.891  29.329  1.00  0.00     0.023 A 
ATOM     65  C   UNL A   1      39.626  26.819  29.231  1.00  0.00     0.012 A 
ATOM     66  C   UNL A   1      41.450  28.120  28.282  1.00  0.00     0.148 A 
ATOM     67  C   UNL A   1      39.644  25.970  28.127  1.00  0.00     0.002 A 
ATOM     68  C   UNL A   1      41.434  27.294  27.163  1.00  0.00     0.091 A 
ATOM     69  F   UNL A   1      42.324  29.129  28.402  1.00  0.00    -0.205 F 
ATOM     70  C   UNL A   1      40.539  26.214  27.089  1.00  0.00     0.022 A 
BRANCH  68  71
ATOM     71  S   UNL A   1      42.497  27.571  25.741  1.00  0.00     0.127 S 
ATOM     72  O   UNL A   1      42.017  26.550  24.811  1.00  0.00    -0.237 OA
ATOM     73  O   UNL A   1      42.160  28.945  25.366  1.00  0.00    -0.237 OA
ATOM     74  O   UNL A   1      43.860  27.391  26.222  1.00  0.00    -0.744 OA
ENDBRANCH  68  71
ENDBRANCH  50  64
BRANCH  51  75
ATOM     75  C   UNL A   1      39.499  33.897  37.228  1.00  0.00     0.023 A 
ATOM     76  C   UNL A   1      39.954  35.230  37.182  1.00  0.00     0.012 A 
ATOM     77  C   UNL A   1      38.868  33.427  38.395  1.00  0.00     0.148 A 
ATOM     78  C   UNL A   1      39.809  36.069  38.286  1.00  0.00     0.002 A 
ATOM     79  C   UNL A   1      38.679  34.286  39.472  1.00  0.00     0.091 A 
ATOM     80  F   UNL A   1      38.456  32.152  38.426  1.00  0.00    -0.205 F 
ATOM     81  C   UNL A   1      39.162  35.602  39.427  1.00  0.00     0.022 A 
BRANCH  79  82
ATOM     82  S   UNL A   1      37.739  33.807  40.928  1.00  0.00     0.127 S 
ATOM     83  O   UNL A   1      38.649  32.866  41.576  1.00  0.00    -0.237 OA
ATOM     84  O   UNL A   1      37.577  35.086  41.620  1.00  0.00    -0.237 OA
ATOM     85  O   UNL A   1      36.495  33.242  40.420  1.00  0.00    -0.744 OA
ENDBRANCH  79  82
ENDBRANCH  51  75
BRANCH  63  86
ATOM     86  C   UNL A   1      44.048  28.874  35.545  1.00  0.00     0.023 A 
ATOM     87  C   UNL A   1      45.328  29.442  35.395  1.00  0.00     0.012 A 
ATOM     88  C   UNL A   1      43.871  27.793  36.432  1.00  0.00     0.148 A 
ATOM     89  C   UNL A   1      46.419  28.928  36.096  1.00  0.00     0.002 A 
ATOM     90  C   UNL A   1      44.954  27.315  37.162  1.00  0.00     0.091 A 
ATOM     91  F   UNL A   1      42.650  27.251  36.546  1.00  0.00    -0.205 F 
ATOM     92  C   UNL A   1      46.230  27.874  36.986  1.00  0.00     0.022 A 
BRANCH  90  93
ATOM     93  S   UNL A   1      44.782  26.024  38.400  1.00  0.00     0.127 S 
ATOM     94  O   UNL A   1      46.157  25.884  38.876  1.00  0.00    -0.237 OA
ATOM     95  O   UNL A   1      43.862  26.634  39.361  1.00  0.00    -0.237 OA
ATOM     96  O   UNL A   1      44.240  24.868  37.698  1.00  0.00    -0.744 OA
ENDBRANCH  90  93
ENDBRANCH  63  86
ENDBRANCH  37  38
ENDBRANCH  29  32
ENDBRANCH  27  28
ENDBRANCH  26  27
ENDBRANCH   1  26
TORSDOF 17
ENDMDL
MODEL 2
REMARK VINA RESULT:     -12.0      1.606      2.030
REMARK SMILES O=C(C[C@H]1C[C@H]2CC[C@@H](C1)N2C(=O)c1c[nH]c(=O)[nH]1)NCCCCNC(=O)c1ccc(-c2c3nc(c(-c4cccc(S(=O)(=O)[O-])c4F)c4ccc([nH]4)c(-c4cccc(S(=O)(=O)[O-])c4F)c4nc(c(-c5cccc(S(=O)(=O)[O-])c5F)c5ccc2[nH]5)C=C4)C=C3)cc1
REMARK SMILES IDX 22 1 21 2 20 3 1 4 2 5 3 7 4 8 5 9 10 10 6 11 9 12 7 13
REMARK SMILES IDX 11 14 8 15 12 16 13 17 14 18 15 19 19 20 16 21 17 22 18 25
REMARK SMILES IDX 23 26 24 27 25 28 26 29 27 31 28 32 29 33 90 34 30 35 89 36
REMARK SMILES IDX 31 37 32 38 33 39 83 40 34 41 88 42 82 43 84 44 35 45 87 46
REMARK SMILES IDX 81 47 80 48 36 50 68 51 48 52 67 53 49 54 52 55 66 56 85 57
REMARK SMILES IDX 50 58 51 59 65 61 86 62 53 63 37 64 38 65 46 66 39 67 41 68
REMARK SMILES IDX 47 69 40 70 42 71 43 72 44 73 45 74 69 75 70 76 78 77 71 78
REMARK SMILES IDX 73 79 79 80 72 81 74 82 75 83 76 84 77 85 54 86 55 87 63 88
REMARK SMILES IDX 56 89 58 90 64 91 57 92 59 93 60 94 61 95 62 96
REMARK H PARENT 20 6 19 23 16 24 25 30 84 49 52 60
REMARK Flexibility Score: inf
ROOT
ATOM      1  C   UNL A   1      31.852  29.969  26.065  1.00  0.00     0.023 C 
ENDROOT
BRANCH   1   2
ATOM      2  C   UNL A   1      33.325  29.578  25.949  1.00  0.00     0.116 C 
BRANCH   2   3
ATOM      3  N   UNL A   1      33.480  28.188  25.571  1.00  0.00    -0.356 N 
ATOM      4  O   UNL A   1      33.908  28.580  23.347  1.00  0.00    -0.275 OA
ATOM      5  C   UNL A   1      33.716  27.800  24.275  1.00  0.00     0.220 C 
ATOM      6  H   UNL A   1      33.412  27.497  26.268  1.00  0.00     0.163 HD
BRANCH   5   7
ATOM      7  C   UNL A   1      33.714  26.301  24.065  1.00  0.00     0.103 C 
BRANCH   7   8
ATOM      8  C   UNL A   1      33.918  25.467  25.346  1.00  0.00     0.002 C 
ATOM      9  C   UNL A   1      32.604  24.731  25.731  1.00  0.00     0.029 C 
ATOM     10  C   UNL A   1      35.131  24.502  25.315  1.00  0.00     0.029 C 
ATOM     11  C   UNL A   1      32.515  23.273  25.239  1.00  0.00     0.086 C 
ATOM     12  C   UNL A   1      34.797  23.073  24.856  1.00  0.00     0.086 C 
ATOM     13  C   UNL A   1      32.644  23.129  23.719  1.00  0.00     0.027 C 
ATOM     14  N   UNL A   1      33.708  22.583  25.688  1.00  0.00    -0.331 N 
ATOM     15  C   UNL A   1      34.161  23.040  23.460  1.00  0.00     0.027 C 
BRANCH  14  16
ATOM     16  C   UNL A   1      33.654  21.458  26.472  1.00  0.00     0.272 C 
ATOM     17  O   UNL A   1      33.735  21.483  27.698  1.00  0.00    -0.267 OA
BRANCH  16  18
ATOM     18  C   UNL A   1      33.395  20.168  25.795  1.00  0.00     0.125 A 
ATOM     19  C   UNL A   1      33.618  19.822  24.519  1.00  0.00     0.119 A 
ATOM     20  N   UNL A   1      32.915  19.071  26.472  1.00  0.00    -0.302 N 
ATOM     21  N   UNL A   1      33.253  18.507  24.359  1.00  0.00    -0.312 N 
ATOM     22  C   UNL A   1      32.799  17.999  25.587  1.00  0.00     0.323 A 
ATOM     23  H   UNL A   1      32.688  19.046  27.430  1.00  0.00     0.172 HD
ATOM     24  H   UNL A   1      33.301  18.002  23.516  1.00  0.00     0.171 HD
ATOM     25  O   UNL A   1      32.394  16.877  25.821  1.00  0.00    -0.248 OA
ENDBRANCH  16  18
ENDBRANCH  14  16
ENDBRANCH   7   8
ENDBRANCH   5   7
ENDBRANCH   2   3
ENDBRANCH   1   2
BRANCH   1  26
ATOM     26  C   UNL A   1      31.602  31.408  26.528  1.00  0.00     0.023 C 
BRANCH  26  27
ATOM     27  C   UNL A   1      32.782  32.094  27.210  1.00  0.00     0.116 C 
BRANCH  27  28
ATOM     28  N   UNL A   1      32.540  33.501  27.480  1.00  0.00    -0.352 N 
ATOM     29  C   UNL A   1      33.143  34.323  28.402  1.00  0.00     0.251 C 
ATOM     30  H   UNL A   1      31.846  33.925  26.926  1.00  0.00     0.163 HD
ATOM     31  O   UNL A   1      32.711  35.459  28.581  1.00  0.00    -0.269 OA
BRANCH  29  32
ATOM     32  C   UNL A   1      34.291  33.833  29.198  1.00  0.00     0.039 A 
ATOM     33  C   UNL A   1      34.054  32.913  30.225  1.00  0.00     0.014 A 
ATOM     34  C   UNL A   1      35.592  34.271  28.939  1.00  0.00     0.014 A 
ATOM     35  C   UNL A   1      35.128  32.386  30.948  1.00  0.00     0.010 A 
ATOM     36  C   UNL A   1      36.666  33.695  29.615  1.00  0.00     0.010 A 
ATOM     37  C   UNL A   1      36.447  32.747  30.626  1.00  0.00    -0.014 A 
BRANCH  37  38
ATOM     38  C   UNL A   1      37.609  32.128  31.318  1.00  0.00     0.031 A 
ATOM     39  C   UNL A   1      38.379  31.012  30.667  1.00  0.00     0.074 A 
ATOM     40  C   UNL A   1      37.911  32.507  32.576  1.00  0.00     0.049 A 
ATOM     41  N   UNL A   1      39.376  30.312  31.143  1.00  0.00    -0.248 NA
ATOM     42  C   UNL A   1      37.958  30.610  29.315  1.00  0.00     0.031 C 
ATOM     43  C   UNL A   1      37.193  33.522  33.350  1.00  0.00     0.029 A 
ATOM     44  N   UNL A   1      38.885  32.063  33.437  1.00  0.00    -0.354 N 
ATOM     45  C   UNL A   1      39.675  29.364  30.172  1.00  0.00     0.074 A 
ATOM     46  C   UNL A   1      38.736  29.562  29.088  1.00  0.00     0.031 C 
ATOM     47  C   UNL A   1      37.751  33.625  34.568  1.00  0.00     0.029 A 
ATOM     48  C   UNL A   1      38.847  32.667  34.673  1.00  0.00     0.049 A 
ATOM     49  H   UNL A   1      39.547  31.376  33.192  1.00  0.00     0.167 HD
ATOM     50  C   UNL A   1      40.660  28.433  30.167  1.00  0.00     0.034 A 
ATOM     51  C   UNL A   1      39.606  32.470  35.769  1.00  0.00     0.034 A 
ATOM     52  C   UNL A   1      41.627  28.275  31.219  1.00  0.00     0.049 A 
ATOM     53  C   UNL A   1      40.725  31.464  35.717  1.00  0.00     0.074 A 
ATOM     54  C   UNL A   1      42.723  27.431  31.258  1.00  0.00     0.029 A 
ATOM     55  N   UNL A   1      41.615  28.971  32.418  1.00  0.00    -0.354 N 
ATOM     56  N   UNL A   1      41.098  30.696  34.722  1.00  0.00    -0.248 NA
ATOM     57  C   UNL A   1      41.551  31.324  36.925  1.00  0.00     0.031 C 
ATOM     58  C   UNL A   1      43.365  27.605  32.489  1.00  0.00     0.029 A 
ATOM     59  C   UNL A   1      42.679  28.570  33.208  1.00  0.00     0.049 A 
ATOM     60  H   UNL A   1      40.949  29.650  32.670  1.00  0.00     0.167 HD
ATOM     61  C   UNL A   1      42.221  30.011  35.171  1.00  0.00     0.074 A 
ATOM     62  C   UNL A   1      42.479  30.468  36.520  1.00  0.00     0.031 C 
ATOM     63  C   UNL A   1      42.961  29.074  34.528  1.00  0.00     0.034 A 
BRANCH  50  64
ATOM     64  C   UNL A   1      40.779  27.547  28.955  1.00  0.00     0.023 A 
ATOM     65  C   UNL A   1      39.902  26.452  28.807  1.00  0.00     0.012 A 
ATOM     66  C   UNL A   1      41.709  27.830  27.937  1.00  0.00     0.148 A 
ATOM     67  C   UNL A   1      39.971  25.634  27.681  1.00  0.00     0.002 A 
ATOM     68  C   UNL A   1      41.744  27.034  26.797  1.00  0.00     0.091 A 
ATOM     69  F   UNL A   1      42.551  28.860  28.105  1.00  0.00    -0.205 F 
ATOM     70  C   UNL A   1      40.883  25.931  26.672  1.00  0.00     0.022 A 
BRANCH  68  71
ATOM     71  S   UNL A   1      42.831  27.379  25.409  1.00  0.00     0.127 S 
ATOM     72  O   UNL A   1      44.096  27.656  26.087  1.00  0.00    -0.237 OA
ATOM     73  O   UNL A   1      42.799  26.117  24.669  1.00  0.00    -0.237 OA
ATOM     74  O   UNL A   1      42.235  28.508  24.707  1.00  0.00    -0.744 OA
ENDBRANCH  68  71
ENDBRANCH  50  64
BRANCH  51  75
ATOM     75  C   UNL A   1      39.383  33.300  36.986  1.00  0.00     0.023 A 
ATOM     76  C   UNL A   1      38.498  32.839  37.981  1.00  0.00     0.012 A 
ATOM     77  C   UNL A   1      40.058  34.520  37.179  1.00  0.00     0.148 A 
ATOM     78  C   UNL A   1      38.267  33.591  39.132  1.00  0.00     0.002 A 
ATOM     79  C   UNL A   1      39.864  35.239  38.354  1.00  0.00     0.091 A 
ATOM     80  F   UNL A   1      40.884  34.949  36.216  1.00  0.00    -0.205 F 
ATOM     81  C   UNL A   1      38.958  34.785  39.324  1.00  0.00     0.022 A 
BRANCH  79  82
ATOM     82  S   UNL A   1      40.811  36.715  38.743  1.00  0.00     0.127 S 
ATOM     83  O   UNL A   1      41.683  36.828  37.577  1.00  0.00    -0.237 OA
ATOM     84  O   UNL A   1      39.765  37.734  38.832  1.00  0.00    -0.237 OA
ATOM     85  O   UNL A   1      41.475  36.431  40.009  1.00  0.00    -0.744 OA
ENDBRANCH  79  82
ENDBRANCH  51  75
BRANCH  63  86
ATOM     86  C   UNL A   1      44.146  28.497  35.255  1.00  0.00     0.023 A 
ATOM     87  C   UNL A   1      45.429  29.042  35.046  1.00  0.00     0.012 A 
ATOM     88  C   UNL A   1      43.979  27.468  36.203  1.00  0.00     0.148 A 
ATOM     89  C   UNL A   1      46.530  28.553  35.748  1.00  0.00     0.002 A 
ATOM     90  C   UNL A   1      45.072  27.017  36.933  1.00  0.00     0.091 A 
ATOM     91  F   UNL A   1      42.754  26.948  36.374  1.00  0.00    -0.205 F 
ATOM     92  C   UNL A   1      46.350  27.551  36.699  1.00  0.00     0.022 A 
BRANCH  90  93
ATOM     93  S   UNL A   1      44.916  25.798  38.243  1.00  0.00     0.127 S 
ATOM     94  O   UNL A   1      46.304  25.646  38.677  1.00  0.00    -0.237 OA
ATOM     95  O   UNL A   1      44.047  26.479  39.203  1.00  0.00    -0.237 OA
ATOM     96  O   UNL A   1      44.321  24.621  37.623  1.00  0.00    -0.744 OA
ENDBRANCH  90  93
ENDBRANCH  63  86
ENDBRANCH  37  38
ENDBRANCH  29  32
ENDBRANCH  27  28
ENDBRANCH  26  27
ENDBRANCH   1  26
TORSDOF 17
ENDMDL
MODEL 3
REMARK VINA RESULT:     -11.9      3.675      8.850
REMARK SMILES O=C(C[C@H]1C[C@H]2CC[C@@H](C1)N2C(=O)c1c[nH]c(=O)[nH]1)NCCCCNC(=O)c1ccc(-c2c3nc(c(-c4cccc(S(=O)(=O)[O-])c4F)c4ccc([nH]4)c(-c4cccc(S(=O)(=O)[O-])c4F)c4nc(c(-c5cccc(S(=O)(=O)[O-])c5F)c5ccc2[nH]5)C=C4)C=C3)cc1
REMARK SMILES IDX 22 1 21 2 20 3 1 4 2 5 3 7 4 8 5 9 10 10 6 11 9 12 7 13
REMARK SMILES IDX 11 14 8 15 12 16 13 17 14 18 15 19 19 20 16 21 17 22 18 25
REMARK SMILES IDX 23 26 24 27 25 28 26 29 27 31 28 32 29 33 90 34 30 35 89 36
REMARK SMILES IDX 31 37 32 38 33 39 83 40 34 41 88 42 82 43 84 44 35 45 87 46
REMARK SMILES IDX 81 47 80 48 36 50 68 51 48 52 67 53 49 54 52 55 66 56 85 57
REMARK SMILES IDX 50 58 51 59 65 61 86 62 53 63 37 64 38 65 46 66 39 67 41 68
REMARK SMILES IDX 47 69 40 70 42 71 43 72 44 73 45 74 69 75 70 76 78 77 71 78
REMARK SMILES IDX 73 79 79 80 72 81 74 82 75 83 76 84 77 85 54 86 55 87 63 88
REMARK SMILES IDX 56 89 58 90 64 91 57 92 59 93 60 94 61 95 62 96
REMARK H PARENT 20 6 19 23 16 24 25 30 84 49 52 60
REMARK Flexibility Score: inf
ROOT
ATOM      1  C   UNL A   1      31.764  29.466  25.555  1.00  0.00     0.023 C 
ENDROOT
BRANCH   1   2
ATOM      2  C   UNL A   1      31.054  28.876  24.338  1.00  0.00     0.116 C 
BRANCH   2   3
ATOM      3  N   UNL A   1      31.357  27.468  24.173  1.00  0.00    -0.356 N 
ATOM      4  O   UNL A   1      30.878  27.370  21.928  1.00  0.00    -0.275 OA
ATOM      5  C   UNL A   1      31.197  26.817  22.976  1.00  0.00     0.220 C 
ATOM      6  H   UNL A   1      31.688  26.961  24.949  1.00  0.00     0.163 HD
BRANCH   5   7
ATOM      7  C   UNL A   1      31.440  25.325  23.043  1.00  0.00     0.103 C 
BRANCH   7   8
ATOM      8  C   UNL A   1      32.806  24.917  23.631  1.00  0.00     0.002 C 
ATOM      9  C   UNL A   1      32.630  24.320  25.056  1.00  0.00     0.029 C 
ATOM     10  C   UNL A   1      33.664  23.997  22.723  1.00  0.00     0.029 C 
ATOM     11  C   UNL A   1      32.566  22.780  25.105  1.00  0.00     0.086 C 
ATOM     12  C   UNL A   1      33.491  22.494  22.994  1.00  0.00     0.086 C 
ATOM     13  C   UNL A   1      31.432  22.187  24.260  1.00  0.00     0.027 C 
ATOM     14  N   UNL A   1      33.730  22.268  24.411  1.00  0.00    -0.331 N 
ATOM     15  C   UNL A   1      32.033  22.036  22.849  1.00  0.00     0.027 C 
BRANCH  14  16
ATOM     16  C   UNL A   1      34.635  21.431  25.016  1.00  0.00     0.272 C 
ATOM     17  O   UNL A   1      34.375  20.274  25.339  1.00  0.00    -0.267 OA
BRANCH  16  18
ATOM     18  C   UNL A   1      36.013  21.937  25.200  1.00  0.00     0.125 A 
ATOM     19  C   UNL A   1      37.147  21.538  24.607  1.00  0.00     0.119 A 
ATOM     20  N   UNL A   1      36.296  23.003  26.021  1.00  0.00    -0.302 N 
ATOM     21  N   UNL A   1      38.175  22.326  25.068  1.00  0.00    -0.312 N 
ATOM     22  C   UNL A   1      37.665  23.271  25.972  1.00  0.00     0.323 A 
ATOM     23  H   UNL A   1      35.637  23.500  26.559  1.00  0.00     0.172 HD
ATOM     24  H   UNL A   1      39.119  22.240  24.805  1.00  0.00     0.171 HD
ATOM     25  O   UNL A   1      38.281  24.126  26.577  1.00  0.00    -0.248 OA
ENDBRANCH  16  18
ENDBRANCH  14  16
ENDBRANCH   7   8
ENDBRANCH   5   7
ENDBRANCH   2   3
ENDBRANCH   1   2
BRANCH   1  26
ATOM     26  C   UNL A   1      32.307  28.432  26.548  1.00  0.00     0.023 C 
BRANCH  26  27
ATOM     27  C   UNL A   1      33.564  28.847  27.308  1.00  0.00     0.116 C 
BRANCH  27  28
ATOM     28  N   UNL A   1      33.614  30.274  27.583  1.00  0.00    -0.352 N 
ATOM     29  C   UNL A   1      34.603  31.003  28.198  1.00  0.00     0.251 C 
ATOM     30  H   UNL A   1      32.829  30.789  27.288  1.00  0.00     0.163 HD
ATOM     31  O   UNL A   1      34.410  32.187  28.466  1.00  0.00    -0.269 OA
BRANCH  29  32
ATOM     32  C   UNL A   1      35.885  30.360  28.565  1.00  0.00     0.039 A 
ATOM     33  C   UNL A   1      36.952  30.424  27.663  1.00  0.00     0.014 A 
ATOM     34  C   UNL A   1      36.039  29.698  29.785  1.00  0.00     0.014 A 
ATOM     35  C   UNL A   1      38.192  29.881  28.014  1.00  0.00     0.010 A 
ATOM     36  C   UNL A   1      37.293  29.216  30.160  1.00  0.00     0.010 A 
ATOM     37  C   UNL A   1      38.382  29.302  29.279  1.00  0.00    -0.014 A 
BRANCH  37  38
ATOM     38  C   UNL A   1      39.716  28.803  29.709  1.00  0.00     0.031 A 
ATOM     39  C   UNL A   1      40.478  29.504  30.799  1.00  0.00     0.074 A 
ATOM     40  C   UNL A   1      40.283  27.774  29.048  1.00  0.00     0.049 A 
ATOM     41  N   UNL A   1      41.676  29.252  31.261  1.00  0.00    -0.248 NA
ATOM     42  C   UNL A   1      39.821  30.656  31.439  1.00  0.00     0.031 C 
ATOM     43  C   UNL A   1      39.684  27.057  27.920  1.00  0.00     0.029 A 
ATOM     44  N   UNL A   1      41.505  27.168  29.212  1.00  0.00    -0.354 N 
ATOM     45  C   UNL A   1      41.933  30.233  32.211  1.00  0.00     0.074 A 
ATOM     46  C   UNL A   1      40.776  31.102  32.243  1.00  0.00     0.031 C 
ATOM     47  C   UNL A   1      40.536  26.110  27.496  1.00  0.00     0.029 A 
ATOM     48  C   UNL A   1      41.752  26.167  28.301  1.00  0.00     0.049 A 
ATOM     49  H   UNL A   1      42.144  27.427  29.916  1.00  0.00     0.167 HD
ATOM     50  C   UNL A   1      43.020  30.381  33.007  1.00  0.00     0.034 A 
ATOM     51  C   UNL A   1      42.836  25.385  28.129  1.00  0.00     0.034 A 
ATOM     52  C   UNL A   1      44.143  29.485  33.014  1.00  0.00     0.049 A 
ATOM     53  C   UNL A   1      44.009  25.540  29.061  1.00  0.00     0.074 A 
ATOM     54  C   UNL A   1      45.243  29.493  33.855  1.00  0.00     0.029 A 
ATOM     55  N   UNL A   1      44.317  28.423  32.140  1.00  0.00    -0.354 N 
ATOM     56  N   UNL A   1      44.159  26.366  30.067  1.00  0.00    -0.248 NA
ATOM     57  C   UNL A   1      45.145  24.629  28.858  1.00  0.00     0.031 C 
ATOM     58  C   UNL A   1      46.090  28.445  33.478  1.00  0.00     0.029 A 
ATOM     59  C   UNL A   1      45.509  27.774  32.414  1.00  0.00     0.049 A 
ATOM     60  H   UNL A   1      43.686  28.169  31.429  1.00  0.00     0.167 HD
ATOM     61  C   UNL A   1      45.387  26.051  30.638  1.00  0.00     0.074 A 
ATOM     62  C   UNL A   1      45.931  24.945  29.878  1.00  0.00     0.031 C 
ATOM     63  C   UNL A   1      46.014  26.637  31.688  1.00  0.00     0.034 A 
BRANCH  50  64
ATOM     64  C   UNL A   1      43.021  31.527  33.983  1.00  0.00     0.023 A 
ATOM     65  C   UNL A   1      43.565  32.769  33.595  1.00  0.00     0.012 A 
ATOM     66  C   UNL A   1      42.431  31.400  35.256  1.00  0.00     0.148 A 
ATOM     67  C   UNL A   1      43.552  33.856  34.468  1.00  0.00     0.002 A 
ATOM     68  C   UNL A   1      42.383  32.499  36.105  1.00  0.00     0.091 A 
ATOM     69  F   UNL A   1      41.940  30.205  35.617  1.00  0.00    -0.205 F 
ATOM     70  C   UNL A   1      42.951  33.724  35.717  1.00  0.00     0.022 A 
BRANCH  68  71
ATOM     71  S   UNL A   1      41.567  32.451  37.705  1.00  0.00     0.127 S 
ATOM     72  O   UNL A   1      42.364  31.451  38.413  1.00  0.00    -0.237 OA
ATOM     73  O   UNL A   1      41.742  33.822  38.184  1.00  0.00    -0.237 OA
ATOM     74  O   UNL A   1      40.185  32.075  37.435  1.00  0.00    -0.744 OA
ENDBRANCH  68  71
ENDBRANCH  50  64
BRANCH  51  75
ATOM     75  C   UNL A   1      42.832  24.330  27.077  1.00  0.00     0.023 A 
ATOM     76  C   UNL A   1      43.538  24.550  25.879  1.00  0.00     0.012 A 
ATOM     77  C   UNL A   1      42.164  23.105  27.266  1.00  0.00     0.148 A 
ATOM     78  C   UNL A   1      43.554  23.583  24.874  1.00  0.00     0.002 A 
ATOM     79  C   UNL A   1      42.230  22.123  26.283  1.00  0.00     0.091 A 
ATOM     80  F   UNL A   1      41.486  22.919  28.407  1.00  0.00    -0.205 F 
ATOM     81  C   UNL A   1      42.910  22.365  25.080  1.00  0.00     0.022 A 
BRANCH  79  82
ATOM     82  S   UNL A   1      41.543  20.480  26.520  1.00  0.00     0.127 S 
ATOM     83  O   UNL A   1      40.108  20.753  26.528  1.00  0.00    -0.237 OA
ATOM     84  O   UNL A   1      42.030  19.772  25.336  1.00  0.00    -0.237 OA
ATOM     85  O   UNL A   1      42.106  19.999  27.776  1.00  0.00    -0.744 OA
ENDBRANCH  79  82
ENDBRANCH  51  75
BRANCH  63  86
ATOM     86  C   UNL A   1      47.348  26.079  32.107  1.00  0.00     0.023 A 
ATOM     87  C   UNL A   1      48.526  26.549  31.493  1.00  0.00     0.012 A 
ATOM     88  C   UNL A   1      47.442  25.148  33.161  1.00  0.00     0.148 A 
ATOM     89  C   UNL A   1      49.774  26.081  31.903  1.00  0.00     0.002 A 
ATOM     90  C   UNL A   1      48.691  24.721  33.595  1.00  0.00     0.091 A 
ATOM     91  F   UNL A   1      46.309  24.697  33.718  1.00  0.00    -0.205 F 
ATOM     92  C   UNL A   1      49.857  25.177  32.960  1.00  0.00     0.022 A 
BRANCH  90  93
ATOM     93  S   UNL A   1      48.895  23.632  35.009  1.00  0.00     0.127 S 
ATOM     94  O   UNL A   1      50.350  23.502  35.078  1.00  0.00    -0.237 OA
ATOM     95  O   UNL A   1      48.300  24.414  36.094  1.00  0.00    -0.237 OA
ATOM     96  O   UNL A   1      48.170  22.411  34.681  1.00  0.00    -0.744 OA
ENDBRANCH  90  93
ENDBRANCH  63  86
ENDBRANCH  37  38
ENDBRANCH  29  32
ENDBRANCH  27  28
ENDBRANCH  26  27
ENDBRANCH   1  26
TORSDOF 17
ENDMDL
