MODEL 1
REMARK VINA RESULT:     -10.2      0.000      0.000
REMARK SMILES CC1=C(CC(=O)NCCCCNC(=O)c2ccc(-c3c4nc(c(-c5cccc(S(=O)(=O)[O-])c5F)c5ccc([nH]5)c(-c5cccc(S(=O)(=O)[O-])c5F)c5nc(c(-c6cccc(S(=O)(=O)[O-])c6F)c6ccc3[nH]6)C=C5)C=C4)cc2)c2cc(F)ccc2/C1=C\c1cccc(OCc2ccccc2)c1
REMARK SMILES IDX 8 1 7 2 5 3 6 4 4 6 3 7 1 8 2 9 85 10 78 11 84 12 86 13
REMARK SMILES IDX 79 14 83 15 80 16 82 17 81 18 87 19 88 20 100 21 89 22 91 23
REMARK SMILES IDX 90 24 92 25 93 26 94 27 95 28 99 29 96 30 98 31 97 32 9 33
REMARK SMILES IDX 10 34 11 35 12 36 13 37 14 39 15 40 16 41 77 42 17 43 76 44
REMARK SMILES IDX 18 45 19 46 20 47 70 48 21 49 75 50 69 51 71 52 22 53 74 54
REMARK SMILES IDX 68 55 67 56 23 58 55 59 35 60 54 61 36 62 39 63 53 64 72 65
REMARK SMILES IDX 37 66 38 67 52 69 73 70 40 71 24 72 25 73 33 74 26 75 28 76
REMARK SMILES IDX 34 77 27 78 29 79 30 80 31 81 32 82 56 83 57 84 65 85 58 86
REMARK SMILES IDX 60 87 66 88 59 89 61 90 62 91 63 92 64 93 41 94 42 95 50 96
REMARK SMILES IDX 43 97 45 98 51 99 44 100 46 101 47 102 48 103 49 104
REMARK H PARENT 7 5 12 38 71 57 39 68
REMARK Flexibility Score: inf
ROOT
ATOM      1  C   UNL A   1      44.680  21.340  25.668  1.00  0.00     0.116 C 
ENDROOT
BRANCH   1   2
ATOM      2  N   UNL A   1      43.544  20.544  25.252  1.00  0.00    -0.356 N 
ATOM      3  C   UNL A   1      42.424  20.208  25.957  1.00  0.00     0.224 C 
ATOM      4  O   UNL A   1      41.572  19.506  25.409  1.00  0.00    -0.275 OA
ATOM      5  H   UNL A   1      43.584  20.195  24.332  1.00  0.00     0.163 HD
BRANCH   3   6
ATOM      6  C   UNL A   1      42.216  20.728  27.378  1.00  0.00     0.136 C 
BRANCH   6   7
ATOM      7  C   UNL A   1      41.781  22.156  27.425  1.00  0.00    -0.027 C 
ATOM      8  C   UNL A   1      43.846  23.307  28.414  1.00  0.00     0.045 C 
ATOM      9  C   UNL A   1      42.451  23.240  27.884  1.00  0.00    -0.039 C 
ATOM     10  C   UNL A   1      41.574  24.419  27.822  1.00  0.00    -0.014 C 
ATOM     11  C   UNL A   1      40.459  22.611  26.953  1.00  0.00    -0.011 A 
ATOM     12  C   UNL A   1      40.325  23.996  27.168  1.00  0.00    -0.010 A 
ATOM     13  C   UNL A   1      41.892  25.619  28.339  1.00  0.00     0.017 C 
ATOM     14  C   UNL A   1      39.432  21.886  26.364  1.00  0.00     0.048 A 
ATOM     15  C   UNL A   1      39.174  24.668  26.777  1.00  0.00     0.012 A 
ATOM     16  C   UNL A   1      38.272  22.564  25.998  1.00  0.00     0.123 A 
ATOM     17  C   UNL A   1      38.135  23.939  26.196  1.00  0.00     0.040 A 
ATOM     18  F   UNL A   1      37.265  21.886  25.432  1.00  0.00    -0.207 F 
BRANCH  13  19
ATOM     19  C   UNL A   1      41.053  26.814  28.318  1.00  0.00    -0.021 A 
ATOM     20  C   UNL A   1      40.952  27.618  27.178  1.00  0.00     0.008 A 
ATOM     21  C   UNL A   1      40.344  27.148  29.476  1.00  0.00     0.054 A 
ATOM     22  C   UNL A   1      40.181  28.777  27.214  1.00  0.00     0.004 A 
ATOM     23  C   UNL A   1      39.527  28.277  29.496  1.00  0.00     0.120 A 
ATOM     24  C   UNL A   1      39.477  29.108  28.373  1.00  0.00     0.046 A 
BRANCH  23  25
ATOM     25  O   UNL A   1      38.683  28.632  30.514  1.00  0.00    -0.489 OA
BRANCH  25  26
ATOM     26  C   UNL A   1      37.632  29.565  30.233  1.00  0.00     0.265 C 
BRANCH  26  27
ATOM     27  C   UNL A   1      37.416  30.673  31.251  1.00  0.00    -0.011 A 
ATOM     28  C   UNL A   1      36.103  30.997  31.631  1.00  0.00     0.007 A 
ATOM     29  C   UNL A   1      38.471  31.399  31.826  1.00  0.00     0.007 A 
ATOM     30  C   UNL A   1      35.855  32.036  32.530  1.00  0.00     0.000 A 
ATOM     31  C   UNL A   1      38.220  32.454  32.705  1.00  0.00     0.000 A 
ATOM     32  C   UNL A   1      36.913  32.773  33.057  1.00  0.00     0.000 A 
ENDBRANCH  26  27
ENDBRANCH  25  26
ENDBRANCH  23  25
ENDBRANCH  13  19
ENDBRANCH   6   7
ENDBRANCH   3   6
ENDBRANCH   1   2
BRANCH   1  33
ATOM     33  C   UNL A   1      45.537  21.798  24.487  1.00  0.00     0.023 C 
BRANCH  33  34
ATOM     34  C   UNL A   1      45.623  23.311  24.295  1.00  0.00     0.023 C 
BRANCH  34  35
ATOM     35  C   UNL A   1      46.939  23.947  24.721  1.00  0.00     0.116 C 
BRANCH  35  36
ATOM     36  N   UNL A   1      47.265  25.164  23.991  1.00  0.00    -0.352 N 
ATOM     37  C   UNL A   1      47.023  26.468  24.365  1.00  0.00     0.251 C 
ATOM     38  H   UNL A   1      47.714  25.040  23.124  1.00  0.00     0.163 HD
ATOM     39  O   UNL A   1      47.282  27.390  23.600  1.00  0.00    -0.269 OA
BRANCH  37  40
ATOM     40  C   UNL A   1      46.396  26.727  25.679  1.00  0.00     0.039 A 
ATOM     41  C   UNL A   1      45.007  26.687  25.816  1.00  0.00     0.014 A 
ATOM     42  C   UNL A   1      47.202  27.102  26.757  1.00  0.00     0.014 A 
ATOM     43  C   UNL A   1      44.418  27.194  26.968  1.00  0.00     0.010 A 
ATOM     44  C   UNL A   1      46.608  27.537  27.944  1.00  0.00     0.010 A 
ATOM     45  C   UNL A   1      45.211  27.642  28.037  1.00  0.00    -0.014 A 
BRANCH  45  46
ATOM     46  C   UNL A   1      44.553  28.238  29.229  1.00  0.00     0.031 A 
ATOM     47  C   UNL A   1      44.447  27.470  30.518  1.00  0.00     0.074 A 
ATOM     48  C   UNL A   1      44.105  29.506  29.165  1.00  0.00     0.049 A 
ATOM     49  N   UNL A   1      43.939  27.855  31.662  1.00  0.00    -0.248 NA
ATOM     50  C   UNL A   1      44.977  26.096  30.533  1.00  0.00     0.031 C 
ATOM     51  C   UNL A   1      44.144  30.350  27.969  1.00  0.00     0.029 A 
ATOM     52  N   UNL A   1      43.553  30.313  30.126  1.00  0.00    -0.354 N 
ATOM     53  C   UNL A   1      44.058  26.767  32.518  1.00  0.00     0.074 A 
ATOM     54  C   UNL A   1      44.676  25.700  31.763  1.00  0.00     0.031 C 
ATOM     55  C   UNL A   1      43.683  31.570  28.279  1.00  0.00     0.029 A 
ATOM     56  C   UNL A   1      43.272  31.581  29.681  1.00  0.00     0.049 A 
ATOM     57  H   UNL A   1      43.375  30.012  31.047  1.00  0.00     0.167 HD
ATOM     58  C   UNL A   1      43.708  26.674  33.824  1.00  0.00     0.034 A 
ATOM     59  C   UNL A   1      42.745  32.641  30.322  1.00  0.00     0.034 A 
ATOM     60  C   UNL A   1      43.138  27.747  34.592  1.00  0.00     0.049 A 
ATOM     61  C   UNL A   1      42.377  32.518  31.771  1.00  0.00     0.074 A 
ATOM     62  C   UNL A   1      42.764  27.744  35.924  1.00  0.00     0.029 A 
ATOM     63  N   UNL A   1      42.874  29.017  34.104  1.00  0.00    -0.354 N 
ATOM     64  N   UNL A   1      42.537  31.494  32.573  1.00  0.00    -0.248 NA
ATOM     65  C   UNL A   1      41.767  33.694  32.407  1.00  0.00     0.031 C 
ATOM     66  C   UNL A   1      42.280  29.017  36.244  1.00  0.00     0.029 A 
ATOM     67  C   UNL A   1      42.351  29.809  35.110  1.00  0.00     0.049 A 
ATOM     68  H   UNL A   1      43.034  29.311  33.178  1.00  0.00     0.167 HD
ATOM     69  C   UNL A   1      42.051  31.899  33.808  1.00  0.00     0.074 A 
ATOM     70  C   UNL A   1      41.614  33.272  33.658  1.00  0.00     0.031 C 
ATOM     71  C   UNL A   1      41.956  31.186  34.957  1.00  0.00     0.034 A 
BRANCH  58  72
ATOM     72  C   UNL A   1      43.995  25.378  34.531  1.00  0.00     0.023 A 
ATOM     73  C   UNL A   1      43.051  24.335  34.451  1.00  0.00     0.012 A 
ATOM     74  C   UNL A   1      45.210  25.165  35.209  1.00  0.00     0.148 A 
ATOM     75  C   UNL A   1      43.305  23.101  35.048  1.00  0.00     0.002 A 
ATOM     76  C   UNL A   1      45.469  23.923  35.779  1.00  0.00     0.091 A 
ATOM     77  F   UNL A   1      46.084  26.179  35.290  1.00  0.00    -0.205 F 
ATOM     78  C   UNL A   1      44.517  22.892  35.702  1.00  0.00     0.022 A 
BRANCH  76  79
ATOM     79  S   UNL A   1      47.019  23.538  36.602  1.00  0.00     0.127 S 
ATOM     80  O   UNL A   1      46.571  22.640  37.666  1.00  0.00    -0.237 OA
ATOM     81  O   UNL A   1      47.783  22.887  35.536  1.00  0.00    -0.237 OA
ATOM     82  O   UNL A   1      47.564  24.813  37.047  1.00  0.00    -0.744 OA
ENDBRANCH  76  79
ENDBRANCH  58  72
BRANCH  59  83
ATOM     83  C   UNL A   1      42.599  33.922  29.582  1.00  0.00     0.023 A 
ATOM     84  C   UNL A   1      41.318  34.331  29.165  1.00  0.00     0.012 A 
ATOM     85  C   UNL A   1      43.696  34.789  29.409  1.00  0.00     0.148 A 
ATOM     86  C   UNL A   1      41.130  35.589  28.594  1.00  0.00     0.002 A 
ATOM     87  C   UNL A   1      43.493  36.057  28.882  1.00  0.00     0.091 A 
ATOM     88  F   UNL A   1      44.902  34.371  29.820  1.00  0.00    -0.205 F 
ATOM     89  C   UNL A   1      42.213  36.457  28.465  1.00  0.00     0.022 A 
BRANCH  87  90
ATOM     90  S   UNL A   1      44.796  37.290  28.795  1.00  0.00     0.127 S 
ATOM     91  O   UNL A   1      45.190  37.408  30.198  1.00  0.00    -0.237 OA
ATOM     92  O   UNL A   1      45.774  36.626  27.933  1.00  0.00    -0.237 OA
ATOM     93  O   UNL A   1      44.184  38.479  28.219  1.00  0.00    -0.744 OA
ENDBRANCH  87  90
ENDBRANCH  59  83
BRANCH  71  94
ATOM     94  C   UNL A   1      41.342  31.859  36.152  1.00  0.00     0.023 A 
ATOM     95  C   UNL A   1      42.156  32.657  36.979  1.00  0.00     0.012 A 
ATOM     96  C   UNL A   1      39.955  31.799  36.387  1.00  0.00     0.148 A 
ATOM     97  C   UNL A   1      41.599  33.383  38.029  1.00  0.00     0.002 A 
ATOM     98  C   UNL A   1      39.402  32.549  37.418  1.00  0.00     0.091 A 
ATOM     99  F   UNL A   1      39.206  31.023  35.590  1.00  0.00    -0.205 F 
ATOM    100  C   UNL A   1      40.223  33.339  38.242  1.00  0.00     0.022 A 
BRANCH  98 101
ATOM    101  S   UNL A   1      37.635  32.610  37.733  1.00  0.00     0.127 S 
ATOM    102  O   UNL A   1      37.362  31.242  38.171  1.00  0.00    -0.237 OA
ATOM    103  O   UNL A   1      37.544  33.619  38.789  1.00  0.00    -0.237 OA
ATOM    104  O   UNL A   1      37.013  32.993  36.472  1.00  0.00    -0.744 OA
ENDBRANCH  98 101
ENDBRANCH  71  94
ENDBRANCH  45  46
ENDBRANCH  37  40
ENDBRANCH  35  36
ENDBRANCH  34  35
ENDBRANCH  33  34
ENDBRANCH   1  33
TORSDOF 19
ENDMDL
MODEL 2
REMARK VINA RESULT:     -10.1      0.699      7.109
REMARK SMILES CC1=C(CC(=O)NCCCCNC(=O)c2ccc(-c3c4nc(c(-c5cccc(S(=O)(=O)[O-])c5F)c5ccc([nH]5)c(-c5cccc(S(=O)(=O)[O-])c5F)c5nc(c(-c6cccc(S(=O)(=O)[O-])c6F)c6ccc3[nH]6)C=C5)C=C4)cc2)c2cc(F)ccc2/C1=C\c1cccc(OCc2ccccc2)c1
REMARK SMILES IDX 8 1 7 2 5 3 6 4 4 6 3 7 1 8 2 9 85 10 78 11 84 12 86 13
REMARK SMILES IDX 79 14 83 15 80 16 82 17 81 18 87 19 88 20 100 21 89 22 91 23
REMARK SMILES IDX 90 24 92 25 93 26 94 27 95 28 99 29 96 30 98 31 97 32 9 33
REMARK SMILES IDX 10 34 11 35 12 36 13 37 14 39 15 40 16 41 77 42 17 43 76 44
REMARK SMILES IDX 18 45 19 46 20 47 70 48 21 49 75 50 69 51 71 52 22 53 74 54
REMARK SMILES IDX 68 55 67 56 23 58 55 59 35 60 54 61 36 62 39 63 53 64 72 65
REMARK SMILES IDX 37 66 38 67 52 69 73 70 40 71 24 72 25 73 33 74 26 75 28 76
REMARK SMILES IDX 34 77 27 78 29 79 30 80 31 81 32 82 56 83 57 84 65 85 58 86
REMARK SMILES IDX 60 87 66 88 59 89 61 90 62 91 63 92 64 93 41 94 42 95 50 96
REMARK SMILES IDX 43 97 45 98 51 99 44 100 46 101 47 102 48 103 49 104
REMARK H PARENT 7 5 12 38 71 57 39 68
REMARK Flexibility Score: inf
ROOT
ATOM      1  C   UNL A   1      44.197  21.184  25.612  1.00  0.00     0.116 C 
ENDROOT
BRANCH   1   2
ATOM      2  N   UNL A   1      43.084  20.296  25.349  1.00  0.00    -0.356 N 
ATOM      3  C   UNL A   1      42.039  19.962  26.161  1.00  0.00     0.224 C 
ATOM      4  O   UNL A   1      41.193  19.172  25.736  1.00  0.00    -0.275 OA
ATOM      5  H   UNL A   1      43.080  19.874  24.459  1.00  0.00     0.163 HD
BRANCH   3   6
ATOM      6  C   UNL A   1      41.902  20.589  27.547  1.00  0.00     0.136 C 
BRANCH   6   7
ATOM      7  C   UNL A   1      41.463  22.016  27.508  1.00  0.00    -0.027 C 
ATOM      8  C   UNL A   1      43.435  23.208  28.628  1.00  0.00     0.045 C 
ATOM      9  C   UNL A   1      42.090  23.117  27.984  1.00  0.00    -0.039 C 
ATOM     10  C   UNL A   1      41.220  24.290  27.808  1.00  0.00    -0.014 C 
ATOM     11  C   UNL A   1      40.184  22.449  26.911  1.00  0.00    -0.011 A 
ATOM     12  C   UNL A   1      40.031  23.840  27.066  1.00  0.00    -0.010 A 
ATOM     13  C   UNL A   1      41.492  25.508  28.308  1.00  0.00     0.017 C 
ATOM     14  C   UNL A   1      39.212  21.700  26.263  1.00  0.00     0.048 A 
ATOM     15  C   UNL A   1      38.917  24.494  26.557  1.00  0.00     0.012 A 
ATOM     16  C   UNL A   1      38.087  22.360  25.777  1.00  0.00     0.123 A 
ATOM     17  C   UNL A   1      37.932  23.741  25.915  1.00  0.00     0.040 A 
ATOM     18  F   UNL A   1      37.131  21.660  25.151  1.00  0.00    -0.207 F 
BRANCH  13  19
ATOM     19  C   UNL A   1      40.656  26.699  28.175  1.00  0.00    -0.021 A 
ATOM     20  C   UNL A   1      40.770  27.554  27.075  1.00  0.00     0.008 A 
ATOM     21  C   UNL A   1      39.729  26.975  29.185  1.00  0.00     0.054 A 
ATOM     22  C   UNL A   1      39.990  28.706  27.009  1.00  0.00     0.004 A 
ATOM     23  C   UNL A   1      38.908  28.098  29.093  1.00  0.00     0.120 A 
ATOM     24  C   UNL A   1      39.068  28.979  28.021  1.00  0.00     0.046 A 
BRANCH  23  25
ATOM     25  O   UNL A   1      37.875  28.400  29.940  1.00  0.00    -0.489 OA
BRANCH  25  26
ATOM     26  C   UNL A   1      38.170  29.134  31.136  1.00  0.00     0.265 C 
BRANCH  26  27
ATOM     27  C   UNL A   1      37.862  30.623  31.112  1.00  0.00    -0.011 A 
ATOM     28  C   UNL A   1      38.930  31.535  31.145  1.00  0.00     0.007 A 
ATOM     29  C   UNL A   1      36.555  31.134  31.068  1.00  0.00     0.007 A 
ATOM     30  C   UNL A   1      38.695  32.911  31.168  1.00  0.00     0.000 A 
ATOM     31  C   UNL A   1      36.320  32.509  31.116  1.00  0.00     0.000 A 
ATOM     32  C   UNL A   1      37.389  33.398  31.167  1.00  0.00     0.000 A 
ENDBRANCH  26  27
ENDBRANCH  25  26
ENDBRANCH  23  25
ENDBRANCH  13  19
ENDBRANCH   6   7
ENDBRANCH   3   6
ENDBRANCH   1   2
BRANCH   1  33
ATOM     33  C   UNL A   1      44.380  22.234  24.516  1.00  0.00     0.023 C 
BRANCH  33  34
ATOM     34  C   UNL A   1      44.747  23.632  25.010  1.00  0.00     0.023 C 
BRANCH  34  35
ATOM     35  C   UNL A   1      46.239  23.908  25.134  1.00  0.00     0.116 C 
BRANCH  35  36
ATOM     36  N   UNL A   1      46.692  25.049  24.351  1.00  0.00    -0.352 N 
ATOM     37  C   UNL A   1      46.660  26.382  24.699  1.00  0.00     0.251 C 
ATOM     38  H   UNL A   1      47.066  24.844  23.465  1.00  0.00     0.163 HD
ATOM     39  O   UNL A   1      47.001  27.242  23.894  1.00  0.00    -0.269 OA
BRANCH  37  40
ATOM     40  C   UNL A   1      46.155  26.757  26.038  1.00  0.00     0.039 A 
ATOM     41  C   UNL A   1      44.781  26.789  26.288  1.00  0.00     0.014 A 
ATOM     42  C   UNL A   1      47.062  27.168  27.018  1.00  0.00     0.014 A 
ATOM     43  C   UNL A   1      44.311  27.397  27.445  1.00  0.00     0.010 A 
ATOM     44  C   UNL A   1      46.586  27.707  28.216  1.00  0.00     0.010 A 
ATOM     45  C   UNL A   1      45.207  27.881  28.413  1.00  0.00    -0.014 A 
BRANCH  45  46
ATOM     46  C   UNL A   1      44.675  28.584  29.608  1.00  0.00     0.031 A 
ATOM     47  C   UNL A   1      44.195  30.008  29.518  1.00  0.00     0.074 A 
ATOM     48  C   UNL A   1      44.565  27.912  30.770  1.00  0.00     0.049 A 
ATOM     49  N   UNL A   1      43.666  30.755  30.455  1.00  0.00    -0.248 NA
ATOM     50  C   UNL A   1      44.318  30.682  28.216  1.00  0.00     0.031 C 
ATOM     51  C   UNL A   1      45.004  26.532  30.985  1.00  0.00     0.029 A 
ATOM     52  N   UNL A   1      44.032  28.286  31.977  1.00  0.00    -0.354 N 
ATOM     53  C   UNL A   1      43.427  31.991  29.867  1.00  0.00     0.074 A 
ATOM     54  C   UNL A   1      43.875  31.901  28.495  1.00  0.00     0.031 C 
ATOM     55  C   UNL A   1      44.679  26.159  32.230  1.00  0.00     0.029 A 
ATOM     56  C   UNL A   1      44.054  27.286  32.918  1.00  0.00     0.049 A 
ATOM     57  H   UNL A   1      43.670  29.184  32.152  1.00  0.00     0.167 HD
ATOM     58  C   UNL A   1      42.859  33.094  30.412  1.00  0.00     0.034 A 
ATOM     59  C   UNL A   1      43.620  27.268  34.192  1.00  0.00     0.034 A 
ATOM     60  C   UNL A   1      42.367  33.173  31.761  1.00  0.00     0.049 A 
ATOM     61  C   UNL A   1      42.984  28.497  34.771  1.00  0.00     0.074 A 
ATOM     62  C   UNL A   1      41.767  34.247  32.394  1.00  0.00     0.029 A 
ATOM     63  N   UNL A   1      42.404  32.136  32.679  1.00  0.00    -0.354 N 
ATOM     64  N   UNL A   1      42.727  29.640  34.184  1.00  0.00    -0.248 NA
ATOM     65  C   UNL A   1      42.566  28.432  36.179  1.00  0.00     0.031 C 
ATOM     66  C   UNL A   1      41.434  33.856  33.695  1.00  0.00     0.029 A 
ATOM     67  C   UNL A   1      41.829  32.539  33.871  1.00  0.00     0.049 A 
ATOM     68  H   UNL A   1      42.785  31.243  32.509  1.00  0.00     0.167 HD
ATOM     69  C   UNL A   1      42.118  30.433  35.147  1.00  0.00     0.074 A 
ATOM     70  C   UNL A   1      42.018  29.631  36.350  1.00  0.00     0.031 C 
ATOM     71  C   UNL A   1      41.701  31.719  35.047  1.00  0.00     0.034 A 
BRANCH  58  72
ATOM     72  C   UNL A   1      42.676  34.295  29.526  1.00  0.00     0.023 A 
ATOM     73  C   UNL A   1      41.390  34.585  29.029  1.00  0.00     0.012 A 
ATOM     74  C   UNL A   1      43.743  35.168  29.244  1.00  0.00     0.148 A 
ATOM     75  C   UNL A   1      41.170  35.720  28.251  1.00  0.00     0.002 A 
ATOM     76  C   UNL A   1      43.512  36.313  28.489  1.00  0.00     0.091 A 
ATOM     77  F   UNL A   1      44.962  34.860  29.710  1.00  0.00    -0.205 F 
ATOM     78  C   UNL A   1      42.227  36.588  27.989  1.00  0.00     0.022 A 
BRANCH  76  79
ATOM     79  S   UNL A   1      44.797  37.519  28.136  1.00  0.00     0.127 S 
ATOM     80  O   UNL A   1      44.142  38.362  27.138  1.00  0.00    -0.237 OA
ATOM     81  O   UNL A   1      44.991  38.155  29.440  1.00  0.00    -0.237 OA
ATOM     82  O   UNL A   1      45.941  36.756  27.658  1.00  0.00    -0.744 OA
ENDBRANCH  76  79
ENDBRANCH  58  72
BRANCH  59  83
ATOM     83  C   UNL A   1      43.734  26.005  34.967  1.00  0.00     0.023 A 
ATOM     84  C   UNL A   1      42.753  25.009  34.804  1.00  0.00     0.012 A 
ATOM     85  C   UNL A   1      44.871  25.738  35.756  1.00  0.00     0.148 A 
ATOM     86  C   UNL A   1      42.906  23.762  35.408  1.00  0.00     0.002 A 
ATOM     87  C   UNL A   1      45.038  24.478  36.315  1.00  0.00     0.091 A 
ATOM     88  F   UNL A   1      45.789  26.706  35.888  1.00  0.00    -0.205 F 
ATOM     89  C   UNL A   1      44.053  23.492  36.151  1.00  0.00     0.022 A 
BRANCH  87  90
ATOM     90  S   UNL A   1      46.536  23.994  37.179  1.00  0.00     0.127 S 
ATOM     91  O   UNL A   1      47.135  25.290  37.492  1.00  0.00    -0.237 OA
ATOM     92  O   UNL A   1      45.993  23.271  38.329  1.00  0.00    -0.237 OA
ATOM     93  O   UNL A   1      47.289  23.171  36.242  1.00  0.00    -0.744 OA
ENDBRANCH  87  90
ENDBRANCH  59  83
BRANCH  71  94
ATOM     94  C   UNL A   1      41.109  32.362  36.269  1.00  0.00     0.023 A 
ATOM     95  C   UNL A   1      41.865  33.319  36.972  1.00  0.00     0.012 A 
ATOM     96  C   UNL A   1      39.777  32.110  36.649  1.00  0.00     0.148 A 
ATOM     97  C   UNL A   1      41.306  34.015  38.041  1.00  0.00     0.002 A 
ATOM     98  C   UNL A   1      39.216  32.829  37.698  1.00  0.00     0.091 A 
ATOM     99  F   UNL A   1      39.083  31.186  35.969  1.00  0.00    -0.205 F 
ATOM    100  C   UNL A   1      39.980  33.779  38.397  1.00  0.00     0.022 A 
BRANCH  98 101
ATOM    101  S   UNL A   1      37.498  32.645  38.191  1.00  0.00     0.127 S 
ATOM    102  O   UNL A   1      37.488  33.319  39.489  1.00  0.00    -0.237 OA
ATOM    103  O   UNL A   1      36.793  33.359  37.127  1.00  0.00    -0.237 OA
ATOM    104  O   UNL A   1      37.242  31.212  38.235  1.00  0.00    -0.744 OA
ENDBRANCH  98 101
ENDBRANCH  71  94
ENDBRANCH  45  46
ENDBRANCH  37  40
ENDBRANCH  35  36
ENDBRANCH  34  35
ENDBRANCH  33  34
ENDBRANCH   1  33
TORSDOF 19
ENDMDL
MODEL 3
REMARK VINA RESULT:      -9.9      3.508      7.160
REMARK SMILES CC1=C(CC(=O)NCCCCNC(=O)c2ccc(-c3c4nc(c(-c5cccc(S(=O)(=O)[O-])c5F)c5ccc([nH]5)c(-c5cccc(S(=O)(=O)[O-])c5F)c5nc(c(-c6cccc(S(=O)(=O)[O-])c6F)c6ccc3[nH]6)C=C5)C=C4)cc2)c2cc(F)ccc2/C1=C\c1cccc(OCc2ccccc2)c1
REMARK SMILES IDX 8 1 7 2 5 3 6 4 4 6 3 7 1 8 2 9 85 10 78 11 84 12 86 13
REMARK SMILES IDX 79 14 83 15 80 16 82 17 81 18 87 19 88 20 100 21 89 22 91 23
REMARK SMILES IDX 90 24 92 25 93 26 94 27 95 28 99 29 96 30 98 31 97 32 9 33
REMARK SMILES IDX 10 34 11 35 12 36 13 37 14 39 15 40 16 41 77 42 17 43 76 44
REMARK SMILES IDX 18 45 19 46 20 47 70 48 21 49 75 50 69 51 71 52 22 53 74 54
REMARK SMILES IDX 68 55 67 56 23 58 55 59 35 60 54 61 36 62 39 63 53 64 72 65
REMARK SMILES IDX 37 66 38 67 52 69 73 70 40 71 24 72 25 73 33 74 26 75 28 76
REMARK SMILES IDX 34 77 27 78 29 79 30 80 31 81 32 82 56 83 57 84 65 85 58 86
REMARK SMILES IDX 60 87 66 88 59 89 61 90 62 91 63 92 64 93 41 94 42 95 50 96
REMARK SMILES IDX 43 97 45 98 51 99 44 100 46 101 47 102 48 103 49 104
REMARK H PARENT 7 5 12 38 71 57 39 68
REMARK Flexibility Score: inf
ROOT
ATOM      1  C   UNL A   1      45.586  23.095  24.536  1.00  0.00     0.116 C 
ENDROOT
BRANCH   1   2
ATOM      2  N   UNL A   1      45.623  24.536  24.684  1.00  0.00    -0.356 N 
ATOM      3  C   UNL A   1      46.273  25.289  25.619  1.00  0.00     0.224 C 
ATOM      4  O   UNL A   1      46.164  26.515  25.566  1.00  0.00    -0.275 OA
ATOM      5  H   UNL A   1      45.107  25.043  24.017  1.00  0.00     0.163 HD
BRANCH   3   6
ATOM      6  C   UNL A   1      47.148  24.624  26.679  1.00  0.00     0.136 C 
BRANCH   6   7
ATOM      7  C   UNL A   1      46.773  25.001  28.075  1.00  0.00    -0.027 C 
ATOM      8  C   UNL A   1      48.427  26.893  28.575  1.00  0.00     0.045 C 
ATOM      9  C   UNL A   1      47.324  25.935  28.886  1.00  0.00    -0.039 C 
ATOM     10  C   UNL A   1      46.685  25.873  30.209  1.00  0.00    -0.014 C 
ATOM     11  C   UNL A   1      45.677  24.350  28.818  1.00  0.00    -0.011 A 
ATOM     12  C   UNL A   1      45.595  24.887  30.118  1.00  0.00    -0.010 A 
ATOM     13  C   UNL A   1      47.105  26.570  31.279  1.00  0.00     0.017 C 
ATOM     14  C   UNL A   1      44.792  23.363  28.406  1.00  0.00     0.048 A 
ATOM     15  C   UNL A   1      44.617  24.457  31.004  1.00  0.00     0.012 A 
ATOM     16  C   UNL A   1      43.831  22.920  29.311  1.00  0.00     0.123 A 
ATOM     17  C   UNL A   1      43.735  23.455  30.596  1.00  0.00     0.040 A 
ATOM     18  F   UNL A   1      42.969  21.965  28.940  1.00  0.00    -0.207 F 
BRANCH  13  19
ATOM     19  C   UNL A   1      46.517  26.532  32.616  1.00  0.00    -0.021 A 
ATOM     20  C   UNL A   1      47.052  25.731  33.629  1.00  0.00     0.008 A 
ATOM     21  C   UNL A   1      45.389  27.320  32.867  1.00  0.00     0.054 A 
ATOM     22  C   UNL A   1      46.433  25.684  34.876  1.00  0.00     0.004 A 
ATOM     23  C   UNL A   1      44.802  27.318  34.131  1.00  0.00     0.120 A 
ATOM     24  C   UNL A   1      45.306  26.471  35.121  1.00  0.00     0.046 A 
BRANCH  23  25
ATOM     25  O   UNL A   1      43.787  28.142  34.539  1.00  0.00    -0.489 OA
BRANCH  25  26
ATOM     26  C   UNL A   1      43.440  29.257  33.707  1.00  0.00     0.265 C 
BRANCH  26  27
ATOM     27  C   UNL A   1      42.420  30.234  34.271  1.00  0.00    -0.011 A 
ATOM     28  C   UNL A   1      41.054  29.962  34.093  1.00  0.00     0.007 A 
ATOM     29  C   UNL A   1      42.781  31.405  34.956  1.00  0.00     0.007 A 
ATOM     30  C   UNL A   1      40.082  30.853  34.556  1.00  0.00     0.000 A 
ATOM     31  C   UNL A   1      41.810  32.306  35.397  1.00  0.00     0.000 A 
ATOM     32  C   UNL A   1      40.461  32.031  35.196  1.00  0.00     0.000 A 
ENDBRANCH  26  27
ENDBRANCH  25  26
ENDBRANCH  23  25
ENDBRANCH  13  19
ENDBRANCH   6   7
ENDBRANCH   3   6
ENDBRANCH   1   2
BRANCH   1  33
ATOM     33  C   UNL A   1      44.172  22.568  24.292  1.00  0.00     0.023 C 
BRANCH  33  34
ATOM     34  C   UNL A   1      43.056  23.367  24.963  1.00  0.00     0.023 C 
BRANCH  34  35
ATOM     35  C   UNL A   1      42.256  22.611  26.015  1.00  0.00     0.116 C 
BRANCH  35  36
ATOM     36  N   UNL A   1      40.814  22.718  25.843  1.00  0.00    -0.352 N 
ATOM     37  C   UNL A   1      39.979  23.720  26.288  1.00  0.00     0.251 C 
ATOM     38  H   UNL A   1      40.383  21.984  25.350  1.00  0.00     0.163 HD
ATOM     39  O   UNL A   1      38.765  23.626  26.139  1.00  0.00    -0.269 OA
BRANCH  37  40
ATOM     40  C   UNL A   1      40.569  24.877  26.994  1.00  0.00     0.039 A 
ATOM     41  C   UNL A   1      40.870  24.792  28.355  1.00  0.00     0.014 A 
ATOM     42  C   UNL A   1      40.733  26.083  26.308  1.00  0.00     0.014 A 
ATOM     43  C   UNL A   1      41.161  25.951  29.064  1.00  0.00     0.010 A 
ATOM     44  C   UNL A   1      41.104  27.232  27.011  1.00  0.00     0.010 A 
ATOM     45  C   UNL A   1      41.262  27.187  28.404  1.00  0.00    -0.014 A 
BRANCH  45  46
ATOM     46  C   UNL A   1      41.511  28.416  29.200  1.00  0.00     0.031 A 
ATOM     47  C   UNL A   1      42.912  28.907  29.447  1.00  0.00     0.074 A 
ATOM     48  C   UNL A   1      40.461  29.130  29.649  1.00  0.00     0.049 A 
ATOM     49  N   UNL A   1      43.303  29.981  30.087  1.00  0.00    -0.248 NA
ATOM     50  C   UNL A   1      44.017  28.097  28.910  1.00  0.00     0.031 C 
ATOM     51  C   UNL A   1      39.057  28.753  29.481  1.00  0.00     0.029 A 
ATOM     52  N   UNL A   1      40.409  30.328  30.315  1.00  0.00    -0.354 N 
ATOM     53  C   UNL A   1      44.692  29.958  30.058  1.00  0.00     0.074 A 
ATOM     54  C   UNL A   1      45.080  28.760  29.347  1.00  0.00     0.031 C 
ATOM     55  C   UNL A   1      38.280  29.722  29.984  1.00  0.00     0.029 A 
ATOM     56  C   UNL A   1      39.129  30.765  30.554  1.00  0.00     0.049 A 
ATOM     57  H   UNL A   1      41.211  30.826  30.594  1.00  0.00     0.167 HD
ATOM     58  C   UNL A   1      45.565  30.866  30.554  1.00  0.00     0.034 A 
ATOM     59  C   UNL A   1      38.681  31.880  31.161  1.00  0.00     0.034 A 
ATOM     60  C   UNL A   1      45.184  32.083  31.218  1.00  0.00     0.049 A 
ATOM     61  C   UNL A   1      39.666  32.878  31.691  1.00  0.00     0.074 A 
ATOM     62  C   UNL A   1      46.003  33.067  31.743  1.00  0.00     0.029 A 
ATOM     63  N   UNL A   1      43.878  32.491  31.435  1.00  0.00    -0.354 N 
ATOM     64  N   UNL A   1      40.974  32.858  31.615  1.00  0.00    -0.248 NA
ATOM     65  C   UNL A   1      39.119  34.056  32.380  1.00  0.00     0.031 C 
ATOM     66  C   UNL A   1      45.190  34.075  32.271  1.00  0.00     0.029 A 
ATOM     67  C   UNL A   1      43.866  33.716  32.077  1.00  0.00     0.049 A 
ATOM     68  H   UNL A   1      43.076  31.982  31.172  1.00  0.00     0.167 HD
ATOM     69  C   UNL A   1      41.410  34.016  32.243  1.00  0.00     0.074 A 
ATOM     70  C   UNL A   1      40.225  34.732  32.673  1.00  0.00     0.031 C 
ATOM     71  C   UNL A   1      42.679  34.435  32.464  1.00  0.00     0.034 A 
BRANCH  58  72
ATOM     72  C   UNL A   1      47.033  30.613  30.340  1.00  0.00     0.023 A 
ATOM     73  C   UNL A   1      47.775  30.003  31.369  1.00  0.00     0.012 A 
ATOM     74  C   UNL A   1      47.657  30.908  29.113  1.00  0.00     0.148 A 
ATOM     75  C   UNL A   1      49.124  29.702  31.187  1.00  0.00     0.002 A 
ATOM     76  C   UNL A   1      48.996  30.582  28.928  1.00  0.00     0.091 A 
ATOM     77  F   UNL A   1      46.934  31.508  28.156  1.00  0.00    -0.205 F 
ATOM     78  C   UNL A   1      49.731  29.982  29.965  1.00  0.00     0.022 A 
BRANCH  76  79
ATOM     79  S   UNL A   1      49.856  30.857  27.375  1.00  0.00     0.127 S 
ATOM     80  O   UNL A   1      51.175  30.300  27.668  1.00  0.00    -0.237 OA
ATOM     81  O   UNL A   1      49.057  30.072  26.434  1.00  0.00    -0.237 OA
ATOM     82  O   UNL A   1      49.821  32.295  27.148  1.00  0.00    -0.744 OA
ENDBRANCH  76  79
ENDBRANCH  58  72
BRANCH  59  83
ATOM     83  C   UNL A   1      37.214  32.112  31.231  1.00  0.00     0.023 A 
ATOM     84  C   UNL A   1      36.544  31.901  32.451  1.00  0.00     0.012 A 
ATOM     85  C   UNL A   1      36.513  32.662  30.140  1.00  0.00     0.148 A 
ATOM     86  C   UNL A   1      35.199  32.243  32.586  1.00  0.00     0.002 A 
ATOM     87  C   UNL A   1      35.187  33.043  30.297  1.00  0.00     0.091 A 
ATOM     88  F   UNL A   1      37.180  32.855  28.993  1.00  0.00    -0.205 F 
ATOM     89  C   UNL A   1      34.525  32.825  31.515  1.00  0.00     0.022 A 
BRANCH  87  90
ATOM     90  S   UNL A   1      34.272  33.916  29.021  1.00  0.00     0.127 S 
ATOM     91  O   UNL A   1      35.235  34.935  28.607  1.00  0.00    -0.237 OA
ATOM     92  O   UNL A   1      34.041  32.852  28.044  1.00  0.00    -0.237 OA
ATOM     93  O   UNL A   1      33.070  34.422  29.667  1.00  0.00    -0.744 OA
ENDBRANCH  87  90
ENDBRANCH  59  83
BRANCH  71  94
ATOM     94  C   UNL A   1      42.874  35.721  33.217  1.00  0.00     0.023 A 
ATOM     95  C   UNL A   1      42.709  35.725  34.615  1.00  0.00     0.012 A 
ATOM     96  C   UNL A   1      43.329  36.883  32.565  1.00  0.00     0.148 A 
ATOM     97  C   UNL A   1      42.990  36.871  35.356  1.00  0.00     0.002 A 
ATOM     98  C   UNL A   1      43.635  38.013  33.313  1.00  0.00     0.091 A 
ATOM     99  F   UNL A   1      43.468  36.853  31.231  1.00  0.00    -0.205 F 
ATOM    100  C   UNL A   1      43.463  38.010  34.709  1.00  0.00     0.022 A 
BRANCH  98 101
ATOM    101  S   UNL A   1      44.312  39.507  32.581  1.00  0.00     0.127 S 
ATOM    102  O   UNL A   1      44.424  40.385  33.746  1.00  0.00    -0.237 OA
ATOM    103  O   UNL A   1      45.591  39.038  32.047  1.00  0.00    -0.237 OA
ATOM    104  O   UNL A   1      43.351  39.934  31.573  1.00  0.00    -0.744 OA
ENDBRANCH  98 101
ENDBRANCH  71  94
ENDBRANCH  45  46
ENDBRANCH  37  40
ENDBRANCH  35  36
ENDBRANCH  34  35
ENDBRANCH  33  34
ENDBRANCH   1  33
TORSDOF 19
ENDMDL
