MODEL 1
REMARK VINA RESULT:     -12.8      0.000      0.000
REMARK SMILES Cc1cc(Cl)cc2c1O[C@H](C(F)(F)F)C(C(=O)NCCCCNC(=O)c1ccc(-c3c4nc(c(-c5cccc(S(=O)(=O)[O-])c5F)c5ccc([nH]5)c(-c5cccc(S(=O)(=O)[O-])c5F)c5nc(c(-c6cccc(S(=O)(=O)[O-])c6F)c6ccc3[nH]6)C=C5)C=C4)cc1)=C2
REMARK SMILES IDX 21 1 20 2 19 3 18 4 16 5 17 6 15 8 1 9 2 10 3 11 8 12 4 13
REMARK SMILES IDX 7 14 9 15 5 16 6 17 89 18 10 19 11 20 12 21 13 22 14 23
REMARK SMILES IDX 22 24 23 25 24 26 25 28 26 29 27 30 88 31 28 32 87 33 29 34
REMARK SMILES IDX 30 35 31 36 81 37 32 38 86 39 80 40 82 41 33 42 85 43 79 44
REMARK SMILES IDX 78 45 34 47 66 48 46 49 65 50 47 51 50 52 64 53 83 54 48 55
REMARK SMILES IDX 49 56 63 58 84 59 51 60 35 61 36 62 44 63 37 64 39 65 45 66
REMARK SMILES IDX 38 67 40 68 41 69 42 70 43 71 67 72 68 73 76 74 69 75 71 76
REMARK SMILES IDX 77 77 70 78 72 79 73 80 74 81 75 82 52 83 53 84 61 85 54 86
REMARK SMILES IDX 56 87 62 88 55 89 57 90 58 91 59 92 60 93
REMARK H PARENT 18 7 23 27 82 46 50 57
REMARK Flexibility Score: inf
ROOT
ATOM      1  C   UNL A   1      31.444  28.068  25.587  1.00  0.00     0.023 C 
ENDROOT
BRANCH   1   2
ATOM      2  C   UNL A   1      30.961  27.833  24.154  1.00  0.00     0.023 C 
BRANCH   2   3
ATOM      3  C   UNL A   1      31.000  26.373  23.712  1.00  0.00     0.116 C 
BRANCH   3   4
ATOM      4  N   UNL A   1      31.741  26.197  22.476  1.00  0.00    -0.352 N 
ATOM      5  C   UNL A   1      32.709  25.374  22.010  1.00  0.00     0.251 C 
ATOM      6  O   UNL A   1      33.061  25.578  20.843  1.00  0.00    -0.270 OA
ATOM      7  H   UNL A   1      31.465  26.852  21.793  1.00  0.00     0.163 HD
BRANCH   5   8
ATOM      8  C   UNL A   1      33.354  24.273  22.786  1.00  0.00     0.067 C 
ATOM      9  C   UNL A   1      36.472  21.109  25.372  1.00  0.00     0.048 C 
ATOM     10  C   UNL A   1      35.102  20.994  24.767  1.00  0.00    -0.007 A 
ATOM     11  C   UNL A   1      34.351  19.824  24.934  1.00  0.00     0.027 A 
ATOM     12  C   UNL A   1      34.534  22.067  24.064  1.00  0.00     0.131 A 
ATOM     13  C   UNL A   1      33.070  19.727  24.386  1.00  0.00     0.042 A 
ATOM     14  C   UNL A   1      33.253  21.969  23.513  1.00  0.00     0.019 A 
ATOM     15  O   UNL A   1      35.304  23.185  23.901  1.00  0.00    -0.475 OA
ATOM     16  Cl  UNL A   1      32.167  18.276  24.590  1.00  0.00    -0.084 Cl
ATOM     17  C   UNL A   1      32.519  20.791  23.673  1.00  0.00     0.032 A 
ATOM     18  C   UNL A   1      32.715  23.089  22.750  1.00  0.00     0.025 C 
ATOM     19  C   UNL A   1      34.602  24.426  23.606  1.00  0.00     0.314 C 
BRANCH  19  20
ATOM     20  C   UNL A   1      34.362  25.189  24.923  1.00  0.00     0.429 C 
ATOM     21  F   UNL A   1      33.198  24.789  25.493  1.00  0.00    -0.167 F 
ATOM     22  F   UNL A   1      35.334  24.973  25.838  1.00  0.00    -0.167 F 
ATOM     23  F   UNL A   1      34.281  26.527  24.739  1.00  0.00    -0.167 F 
ENDBRANCH  19  20
ENDBRANCH   5   8
ENDBRANCH   3   4
ENDBRANCH   2   3
ENDBRANCH   1   2
BRANCH   1  24
ATOM     24  C   UNL A   1      32.582  29.076  25.742  1.00  0.00     0.116 C 
BRANCH  24  25
ATOM     25  N   UNL A   1      32.142  30.409  26.135  1.00  0.00    -0.352 N 
ATOM     26  C   UNL A   1      32.795  31.306  26.947  1.00  0.00     0.251 C 
ATOM     27  H   UNL A   1      31.274  30.702  25.775  1.00  0.00     0.163 HD
ATOM     28  O   UNL A   1      32.267  32.371  27.255  1.00  0.00    -0.269 OA
BRANCH  26  29
ATOM     29  C   UNL A   1      34.122  30.943  27.479  1.00  0.00     0.039 A 
ATOM     30  C   UNL A   1      35.068  31.951  27.677  1.00  0.00     0.014 A 
ATOM     31  C   UNL A   1      34.391  29.625  27.856  1.00  0.00     0.014 A 
ATOM     32  C   UNL A   1      36.263  31.647  28.329  1.00  0.00     0.010 A 
ATOM     33  C   UNL A   1      35.556  29.338  28.557  1.00  0.00     0.010 A 
ATOM     34  C   UNL A   1      36.498  30.347  28.808  1.00  0.00    -0.014 A 
BRANCH  34  35
ATOM     35  C   UNL A   1      37.710  30.026  29.599  1.00  0.00     0.031 A 
ATOM     36  C   UNL A   1      38.753  29.103  29.038  1.00  0.00     0.074 A 
ATOM     37  C   UNL A   1      37.825  30.501  30.855  1.00  0.00     0.049 A 
ATOM     38  N   UNL A   1      39.846  28.661  29.599  1.00  0.00    -0.248 NA
ATOM     39  C   UNL A   1      38.525  28.590  27.677  1.00  0.00     0.031 C 
ATOM     40  C   UNL A   1      36.841  31.348  31.532  1.00  0.00     0.029 A 
ATOM     41  N   UNL A   1      38.811  30.323  31.794  1.00  0.00    -0.354 N 
ATOM     42  C   UNL A   1      40.425  27.801  28.675  1.00  0.00     0.074 A 
ATOM     43  C   UNL A   1      39.541  27.753  27.530  1.00  0.00     0.031 C 
ATOM     44  C   UNL A   1      37.278  31.627  32.771  1.00  0.00     0.029 A 
ATOM     45  C   UNL A   1      38.560  30.962  32.986  1.00  0.00     0.049 A 
ATOM     46  H   UNL A   1      39.620  29.787  31.630  1.00  0.00     0.167 HD
ATOM     47  C   UNL A   1      41.604  27.142  28.755  1.00  0.00     0.034 A 
ATOM     48  C   UNL A   1      39.285  31.011  34.121  1.00  0.00     0.034 A 
ATOM     49  C   UNL A   1      42.501  27.233  29.875  1.00  0.00     0.049 A 
ATOM     50  C   UNL A   1      40.612  30.301  34.171  1.00  0.00     0.074 A 
ATOM     51  C   UNL A   1      43.747  26.653  30.025  1.00  0.00     0.029 A 
ATOM     52  N   UNL A   1      42.250  27.954  31.032  1.00  0.00    -0.354 N 
ATOM     53  N   UNL A   1      41.206  29.603  33.232  1.00  0.00    -0.248 NA
ATOM     54  C   UNL A   1      41.382  30.409  35.417  1.00  0.00     0.031 C 
ATOM     55  C   UNL A   1      44.250  27.023  31.277  1.00  0.00     0.029 A 
ATOM     56  C   UNL A   1      43.320  27.839  31.901  1.00  0.00     0.049 A 
ATOM     57  H   UNL A   1      41.432  28.471  31.209  1.00  0.00     0.167 HD
ATOM     58  C   UNL A   1      42.431  29.216  33.763  1.00  0.00     0.074 A 
ATOM     59  C   UNL A   1      42.503  29.774  35.098  1.00  0.00     0.031 C 
ATOM     60  C   UNL A   1      43.401  28.451  33.203  1.00  0.00     0.034 A 
BRANCH  47  61
ATOM     61  C   UNL A   1      42.032  26.330  27.563  1.00  0.00     0.023 A 
ATOM     62  C   UNL A   1      42.786  26.954  26.548  1.00  0.00     0.012 A 
ATOM     63  C   UNL A   1      41.757  24.953  27.475  1.00  0.00     0.148 A 
ATOM     64  C   UNL A   1      43.237  26.226  25.448  1.00  0.00     0.002 A 
ATOM     65  C   UNL A   1      42.244  24.224  26.394  1.00  0.00     0.091 A 
ATOM     66  F   UNL A   1      41.019  24.384  28.439  1.00  0.00    -0.205 F 
ATOM     67  C   UNL A   1      42.976  24.860  25.377  1.00  0.00     0.022 A 
BRANCH  65  68
ATOM     68  S   UNL A   1      42.026  22.447  26.247  1.00  0.00     0.127 S 
ATOM     69  O   UNL A   1      42.672  21.968  27.468  1.00  0.00    -0.237 OA
ATOM     70  O   UNL A   1      40.569  22.314  26.236  1.00  0.00    -0.237 OA
ATOM     71  O   UNL A   1      42.679  22.066  25.002  1.00  0.00    -0.744 OA
ENDBRANCH  65  68
ENDBRANCH  47  61
BRANCH  48  72
ATOM     72  C   UNL A   1      38.818  31.853  35.260  1.00  0.00     0.023 A 
ATOM     73  C   UNL A   1      38.843  33.254  35.127  1.00  0.00     0.012 A 
ATOM     74  C   UNL A   1      38.295  31.284  36.438  1.00  0.00     0.148 A 
ATOM     75  C   UNL A   1      38.375  34.076  36.152  1.00  0.00     0.002 A 
ATOM     76  C   UNL A   1      37.781  32.109  37.433  1.00  0.00     0.091 A 
ATOM     77  F   UNL A   1      38.293  29.949  36.553  1.00  0.00    -0.205 F 
ATOM     78  C   UNL A   1      37.832  33.504  37.298  1.00  0.00     0.022 A 
BRANCH  76  79
ATOM     79  S   UNL A   1      36.936  31.457  38.880  1.00  0.00     0.127 S 
ATOM     80  O   UNL A   1      35.764  32.324  38.959  1.00  0.00    -0.237 OA
ATOM     81  O   UNL A   1      36.657  30.079  38.475  1.00  0.00    -0.237 OA
ATOM     82  O   UNL A   1      37.890  31.576  39.975  1.00  0.00    -0.744 OA
ENDBRANCH  76  79
ENDBRANCH  48  72
BRANCH  60  83
ATOM     83  C   UNL A   1      44.637  28.174  34.015  1.00  0.00     0.023 A 
ATOM     84  C   UNL A   1      45.714  29.080  33.966  1.00  0.00     0.012 A 
ATOM     85  C   UNL A   1      44.686  27.087  34.910  1.00  0.00     0.148 A 
ATOM     86  C   UNL A   1      46.828  28.900  34.784  1.00  0.00     0.002 A 
ATOM     87  C   UNL A   1      45.780  26.939  35.755  1.00  0.00     0.091 A 
ATOM     88  F   UNL A   1      43.659  26.223  34.927  1.00  0.00    -0.205 F 
ATOM     89  C   UNL A   1      46.855  27.840  35.688  1.00  0.00     0.022 A 
BRANCH  87  90
ATOM     90  S   UNL A   1      45.851  25.661  37.016  1.00  0.00     0.127 S 
ATOM     91  O   UNL A   1      44.678  25.978  37.829  1.00  0.00    -0.237 OA
ATOM     92  O   UNL A   1      45.731  24.434  36.226  1.00  0.00    -0.237 OA
ATOM     93  O   UNL A   1      47.138  25.826  37.676  1.00  0.00    -0.744 OA
ENDBRANCH  87  90
ENDBRANCH  60  83
ENDBRANCH  34  35
ENDBRANCH  26  29
ENDBRANCH  24  25
ENDBRANCH   1  24
TORSDOF 15
ENDMDL
MODEL 2
REMARK VINA RESULT:     -12.8      1.923      7.823
REMARK SMILES Cc1cc(Cl)cc2c1O[C@H](C(F)(F)F)C(C(=O)NCCCCNC(=O)c1ccc(-c3c4nc(c(-c5cccc(S(=O)(=O)[O-])c5F)c5ccc([nH]5)c(-c5cccc(S(=O)(=O)[O-])c5F)c5nc(c(-c6cccc(S(=O)(=O)[O-])c6F)c6ccc3[nH]6)C=C5)C=C4)cc1)=C2
REMARK SMILES IDX 21 1 20 2 19 3 18 4 16 5 17 6 15 8 1 9 2 10 3 11 8 12 4 13
REMARK SMILES IDX 7 14 9 15 5 16 6 17 89 18 10 19 11 20 12 21 13 22 14 23
REMARK SMILES IDX 22 24 23 25 24 26 25 28 26 29 27 30 88 31 28 32 87 33 29 34
REMARK SMILES IDX 30 35 31 36 81 37 32 38 86 39 80 40 82 41 33 42 85 43 79 44
REMARK SMILES IDX 78 45 34 47 66 48 46 49 65 50 47 51 50 52 64 53 83 54 48 55
REMARK SMILES IDX 49 56 63 58 84 59 51 60 35 61 36 62 44 63 37 64 39 65 45 66
REMARK SMILES IDX 38 67 40 68 41 69 42 70 43 71 67 72 68 73 76 74 69 75 71 76
REMARK SMILES IDX 77 77 70 78 72 79 73 80 74 81 75 82 52 83 53 84 61 85 54 86
REMARK SMILES IDX 56 87 62 88 55 89 57 90 58 91 59 92 60 93
REMARK H PARENT 18 7 23 27 82 46 50 57
REMARK Flexibility Score: inf
ROOT
ATOM      1  C   UNL A   1      31.681  28.857  25.251  1.00  0.00     0.023 C 
ENDROOT
BRANCH   1   2
ATOM      2  C   UNL A   1      31.741  28.728  23.727  1.00  0.00     0.023 C 
BRANCH   2   3
ATOM      3  C   UNL A   1      33.146  28.512  23.172  1.00  0.00     0.116 C 
BRANCH   3   4
ATOM      4  N   UNL A   1      33.165  27.527  22.105  1.00  0.00    -0.352 N 
ATOM      5  C   UNL A   1      33.264  26.181  22.002  1.00  0.00     0.251 C 
ATOM      6  O   UNL A   1      33.230  25.735  20.850  1.00  0.00    -0.270 OA
ATOM      7  H   UNL A   1      33.083  27.952  21.220  1.00  0.00     0.163 HD
BRANCH   5   8
ATOM      8  C   UNL A   1      33.406  25.234  23.147  1.00  0.00     0.067 C 
ATOM      9  C   UNL A   1      33.222  22.672  27.599  1.00  0.00     0.048 C 
ATOM     10  C   UNL A   1      34.083  22.610  26.370  1.00  0.00    -0.007 A 
ATOM     11  C   UNL A   1      35.063  21.617  26.243  1.00  0.00     0.027 A 
ATOM     12  C   UNL A   1      33.894  23.513  25.313  1.00  0.00     0.131 A 
ATOM     13  C   UNL A   1      35.849  21.552  25.091  1.00  0.00     0.042 A 
ATOM     14  C   UNL A   1      34.683  23.449  24.162  1.00  0.00     0.019 A 
ATOM     15  O   UNL A   1      32.944  24.482  25.482  1.00  0.00    -0.475 OA
ATOM     16  Cl  UNL A   1      37.058  20.333  24.956  1.00  0.00    -0.084 Cl
ATOM     17  C   UNL A   1      35.668  22.463  24.052  1.00  0.00     0.032 A 
ATOM     18  C   UNL A   1      34.487  24.433  23.104  1.00  0.00     0.025 C 
ATOM     19  C   UNL A   1      32.422  25.104  24.274  1.00  0.00     0.314 C 
BRANCH  19  20
ATOM     20  C   UNL A   1      31.129  24.378  23.856  1.00  0.00     0.429 C 
ATOM     21  F   UNL A   1      30.366  25.185  23.077  1.00  0.00    -0.167 F 
ATOM     22  F   UNL A   1      31.367  23.259  23.134  1.00  0.00    -0.167 F 
ATOM     23  F   UNL A   1      30.374  24.012  24.917  1.00  0.00    -0.167 F 
ENDBRANCH  19  20
ENDBRANCH   5   8
ENDBRANCH   3   4
ENDBRANCH   2   3
ENDBRANCH   1   2
BRANCH   1  24
ATOM     24  C   UNL A   1      32.859  29.585  25.898  1.00  0.00     0.116 C 
BRANCH  24  25
ATOM     25  N   UNL A   1      32.534  30.923  26.378  1.00  0.00    -0.352 N 
ATOM     26  C   UNL A   1      33.272  31.716  27.226  1.00  0.00     0.251 C 
ATOM     27  H   UNL A   1      31.686  31.305  26.055  1.00  0.00     0.163 HD
ATOM     28  O   UNL A   1      32.837  32.799  27.608  1.00  0.00    -0.269 OA
BRANCH  26  29
ATOM     29  C   UNL A   1      34.574  31.217  27.706  1.00  0.00     0.039 A 
ATOM     30  C   UNL A   1      35.619  32.125  27.884  1.00  0.00     0.014 A 
ATOM     31  C   UNL A   1      34.725  29.873  28.056  1.00  0.00     0.014 A 
ATOM     32  C   UNL A   1      36.801  31.696  28.490  1.00  0.00     0.010 A 
ATOM     33  C   UNL A   1      35.880  29.462  28.712  1.00  0.00     0.010 A 
ATOM     34  C   UNL A   1      36.924  30.372  28.943  1.00  0.00    -0.014 A 
BRANCH  34  35
ATOM     35  C   UNL A   1      38.125  29.922  29.686  1.00  0.00     0.031 A 
ATOM     36  C   UNL A   1      38.402  30.454  31.063  1.00  0.00     0.074 A 
ATOM     37  C   UNL A   1      39.007  29.100  29.083  1.00  0.00     0.049 A 
ATOM     38  N   UNL A   1      39.426  30.225  31.841  1.00  0.00    -0.248 NA
ATOM     39  C   UNL A   1      37.412  31.387  31.628  1.00  0.00     0.031 C 
ATOM     40  C   UNL A   1      38.879  28.576  27.722  1.00  0.00     0.029 A 
ATOM     41  N   UNL A   1      40.195  28.577  29.530  1.00  0.00    -0.354 N 
ATOM     42  C   UNL A   1      39.218  30.998  32.976  1.00  0.00     0.074 A 
ATOM     43  C   UNL A   1      37.990  31.735  32.768  1.00  0.00     0.031 C 
ATOM     44  C   UNL A   1      39.938  27.795  27.450  1.00  0.00     0.029 A 
ATOM     45  C   UNL A   1      40.830  27.782  28.605  1.00  0.00     0.049 A 
ATOM     46  H   UNL A   1      40.558  28.756  30.427  1.00  0.00     0.167 HD
ATOM     47  C   UNL A   1      39.962  31.060  34.105  1.00  0.00     0.034 A 
ATOM     48  C   UNL A   1      41.998  27.112  28.682  1.00  0.00     0.034 A 
ATOM     49  C   UNL A   1      41.154  30.289  34.325  1.00  0.00     0.049 A 
ATOM     50  C   UNL A   1      42.787  27.167  29.963  1.00  0.00     0.074 A 
ATOM     51  C   UNL A   1      41.944  30.234  35.459  1.00  0.00     0.029 A 
ATOM     52  N   UNL A   1      41.725  29.433  33.396  1.00  0.00    -0.354 N 
ATOM     53  N   UNL A   1      42.502  27.798  31.078  1.00  0.00    -0.248 NA
ATOM     54  C   UNL A   1      44.036  26.396  30.013  1.00  0.00     0.031 C 
ATOM     55  C   UNL A   1      42.995  29.345  35.214  1.00  0.00     0.029 A 
ATOM     56  C   UNL A   1      42.856  28.841  33.931  1.00  0.00     0.049 A 
ATOM     57  H   UNL A   1      41.378  29.271  32.489  1.00  0.00     0.167 HD
ATOM     58  C   UNL A   1      43.519  27.476  31.969  1.00  0.00     0.074 A 
ATOM     59  C   UNL A   1      44.416  26.577  31.271  1.00  0.00     0.031 C 
ATOM     60  C   UNL A   1      43.704  27.901  33.243  1.00  0.00     0.034 A 
BRANCH  47  61
ATOM     61  C   UNL A   1      39.460  31.932  35.224  1.00  0.00     0.023 A 
ATOM     62  C   UNL A   1      38.580  31.380  36.177  1.00  0.00     0.012 A 
ATOM     63  C   UNL A   1      39.903  33.259  35.377  1.00  0.00     0.148 A 
ATOM     64  C   UNL A   1      38.126  32.142  37.251  1.00  0.00     0.002 A 
ATOM     65  C   UNL A   1      39.478  34.002  36.474  1.00  0.00     0.091 A 
ATOM     66  F   UNL A   1      40.721  33.773  34.447  1.00  0.00    -0.205 F 
ATOM     67  C   UNL A   1      38.584  33.449  37.406  1.00  0.00     0.022 A 
BRANCH  65  68
ATOM     68  S   UNL A   1      40.065  35.668  36.803  1.00  0.00     0.127 S 
ATOM     69  O   UNL A   1      39.538  36.399  35.653  1.00  0.00    -0.237 OA
ATOM     70  O   UNL A   1      39.413  35.979  38.075  1.00  0.00    -0.237 OA
ATOM     71  O   UNL A   1      41.517  35.573  36.873  1.00  0.00    -0.744 OA
ENDBRANCH  65  68
ENDBRANCH  47  61
BRANCH  48  72
ATOM     72  C   UNL A   1      42.430  26.246  27.547  1.00  0.00     0.023 A 
ATOM     73  C   UNL A   1      43.330  26.766  26.598  1.00  0.00     0.012 A 
ATOM     74  C   UNL A   1      42.012  24.906  27.436  1.00  0.00     0.148 A 
ATOM     75  C   UNL A   1      43.792  25.975  25.545  1.00  0.00     0.002 A 
ATOM     76  C   UNL A   1      42.519  24.107  26.416  1.00  0.00     0.091 A 
ATOM     77  F   UNL A   1      41.144  24.433  28.341  1.00  0.00    -0.205 F 
ATOM     78  C   UNL A   1      43.397  24.644  25.462  1.00  0.00     0.022 A 
BRANCH  76  79
ATOM     79  S   UNL A   1      42.175  22.346  26.313  1.00  0.00     0.127 S 
ATOM     80  O   UNL A   1      42.692  21.865  27.591  1.00  0.00    -0.237 OA
ATOM     81  O   UNL A   1      40.717  22.327  26.190  1.00  0.00    -0.237 OA
ATOM     82  O   UNL A   1      42.880  21.880  25.126  1.00  0.00    -0.744 OA
ENDBRANCH  76  79
ENDBRANCH  48  72
BRANCH  60  83
ATOM     83  C   UNL A   1      44.912  27.398  33.986  1.00  0.00     0.023 A 
ATOM     84  C   UNL A   1      46.099  28.154  33.969  1.00  0.00     0.012 A 
ATOM     85  C   UNL A   1      44.835  26.246  34.794  1.00  0.00     0.148 A 
ATOM     86  C   UNL A   1      47.199  27.763  34.731  1.00  0.00     0.002 A 
ATOM     87  C   UNL A   1      45.920  25.886  35.585  1.00  0.00     0.091 A 
ATOM     88  F   UNL A   1      43.702  25.527  34.781  1.00  0.00    -0.205 F 
ATOM     89  C   UNL A   1      47.105  26.640  35.549  1.00  0.00     0.022 A 
BRANCH  87  90
ATOM     90  S   UNL A   1      45.850  24.513  36.742  1.00  0.00     0.127 S 
ATOM     91  O   UNL A   1      47.159  24.600  37.388  1.00  0.00    -0.237 OA
ATOM     92  O   UNL A   1      44.722  24.883  37.600  1.00  0.00    -0.237 OA
ATOM     93  O   UNL A   1      45.624  23.324  35.933  1.00  0.00    -0.744 OA
ENDBRANCH  87  90
ENDBRANCH  60  83
ENDBRANCH  34  35
ENDBRANCH  26  29
ENDBRANCH  24  25
ENDBRANCH   1  24
TORSDOF 15
ENDMDL
MODEL 3
REMARK VINA RESULT:     -12.8      5.514      7.856
REMARK SMILES Cc1cc(Cl)cc2c1O[C@H](C(F)(F)F)C(C(=O)NCCCCNC(=O)c1ccc(-c3c4nc(c(-c5cccc(S(=O)(=O)[O-])c5F)c5ccc([nH]5)c(-c5cccc(S(=O)(=O)[O-])c5F)c5nc(c(-c6cccc(S(=O)(=O)[O-])c6F)c6ccc3[nH]6)C=C5)C=C4)cc1)=C2
REMARK SMILES IDX 21 1 20 2 19 3 18 4 16 5 17 6 15 8 1 9 2 10 3 11 8 12 4 13
REMARK SMILES IDX 7 14 9 15 5 16 6 17 89 18 10 19 11 20 12 21 13 22 14 23
REMARK SMILES IDX 22 24 23 25 24 26 25 28 26 29 27 30 88 31 28 32 87 33 29 34
REMARK SMILES IDX 30 35 31 36 81 37 32 38 86 39 80 40 82 41 33 42 85 43 79 44
REMARK SMILES IDX 78 45 34 47 66 48 46 49 65 50 47 51 50 52 64 53 83 54 48 55
REMARK SMILES IDX 49 56 63 58 84 59 51 60 35 61 36 62 44 63 37 64 39 65 45 66
REMARK SMILES IDX 38 67 40 68 41 69 42 70 43 71 67 72 68 73 76 74 69 75 71 76
REMARK SMILES IDX 77 77 70 78 72 79 73 80 74 81 75 82 52 83 53 84 61 85 54 86
REMARK SMILES IDX 56 87 62 88 55 89 57 90 58 91 59 92 60 93
REMARK H PARENT 18 7 23 27 82 46 50 57
REMARK Flexibility Score: inf
ROOT
ATOM      1  C   UNL A   1      35.709  21.390  25.816  1.00  0.00     0.023 C 
ENDROOT
BRANCH   1   2
ATOM      2  C   UNL A   1      34.864  22.617  26.164  1.00  0.00     0.023 C 
BRANCH   2   3
ATOM      3  C   UNL A   1      33.965  22.433  27.383  1.00  0.00     0.116 C 
BRANCH   3   4
ATOM      4  N   UNL A   1      32.559  22.395  27.024  1.00  0.00    -0.352 N 
ATOM      5  C   UNL A   1      31.693  23.172  26.333  1.00  0.00     0.251 C 
ATOM      6  O   UNL A   1      30.536  22.742  26.262  1.00  0.00    -0.270 OA
ATOM      7  H   UNL A   1      32.118  21.587  27.375  1.00  0.00     0.163 HD
BRANCH   5   8
ATOM      8  C   UNL A   1      32.031  24.468  25.674  1.00  0.00     0.067 C 
ATOM      9  C   UNL A   1      33.738  28.296  22.698  1.00  0.00     0.048 C 
ATOM     10  C   UNL A   1      33.103  28.206  24.056  1.00  0.00    -0.007 A 
ATOM     11  C   UNL A   1      32.775  29.370  24.762  1.00  0.00     0.027 A 
ATOM     12  C   UNL A   1      32.787  26.961  24.621  1.00  0.00     0.131 A 
ATOM     13  C   UNL A   1      32.167  29.282  26.016  1.00  0.00     0.042 A 
ATOM     14  C   UNL A   1      32.183  26.873  25.877  1.00  0.00     0.019 A 
ATOM     15  O   UNL A   1      33.142  25.845  23.914  1.00  0.00    -0.475 OA
ATOM     16  Cl  UNL A   1      31.783  30.723  26.875  1.00  0.00    -0.084 Cl
ATOM     17  C   UNL A   1      31.873  28.042  26.579  1.00  0.00     0.032 A 
ATOM     18  C   UNL A   1      31.911  25.561  26.452  1.00  0.00     0.025 C 
ATOM     19  C   UNL A   1      32.436  24.614  24.235  1.00  0.00     0.314 C 
BRANCH  19  20
ATOM     20  C   UNL A   1      31.253  24.448  23.262  1.00  0.00     0.429 C 
ATOM     21  F   UNL A   1      30.102  24.875  23.842  1.00  0.00    -0.167 F 
ATOM     22  F   UNL A   1      31.403  25.169  22.128  1.00  0.00    -0.167 F 
ATOM     23  F   UNL A   1      31.063  23.161  22.891  1.00  0.00    -0.167 F 
ENDBRANCH  19  20
ENDBRANCH   5   8
ENDBRANCH   3   4
ENDBRANCH   2   3
ENDBRANCH   1   2
BRANCH   1  24
ATOM     24  C   UNL A   1      37.087  21.685  25.222  1.00  0.00     0.116 C 
BRANCH  24  25
ATOM     25  N   UNL A   1      38.070  20.634  25.459  1.00  0.00    -0.352 N 
ATOM     26  C   UNL A   1      39.301  20.752  26.059  1.00  0.00     0.251 C 
ATOM     27  H   UNL A   1      37.821  19.732  25.154  1.00  0.00     0.163 HD
ATOM     28  O   UNL A   1      40.061  19.790  26.125  1.00  0.00    -0.269 OA
BRANCH  26  29
ATOM     29  C   UNL A   1      39.711  22.070  26.579  1.00  0.00     0.039 A 
ATOM     30  C   UNL A   1      40.769  22.138  27.487  1.00  0.00     0.014 A 
ATOM     31  C   UNL A   1      39.101  23.234  26.102  1.00  0.00     0.014 A 
ATOM     32  C   UNL A   1      41.271  23.385  27.860  1.00  0.00     0.010 A 
ATOM     33  C   UNL A   1      39.641  24.473  26.429  1.00  0.00     0.010 A 
ATOM     34  C   UNL A   1      40.736  24.559  27.303  1.00  0.00    -0.014 A 
BRANCH  34  35
ATOM     35  C   UNL A   1      41.323  25.887  27.599  1.00  0.00     0.031 A 
ATOM     36  C   UNL A   1      42.724  26.205  27.165  1.00  0.00     0.074 A 
ATOM     37  C   UNL A   1      40.620  26.772  28.334  1.00  0.00     0.049 A 
ATOM     38  N   UNL A   1      43.427  27.285  27.382  1.00  0.00    -0.248 NA
ATOM     39  C   UNL A   1      43.440  25.163  26.409  1.00  0.00     0.031 C 
ATOM     40  C   UNL A   1      39.278  26.546  28.873  1.00  0.00     0.029 A 
ATOM     41  N   UNL A   1      40.945  28.032  28.773  1.00  0.00    -0.354 N 
ATOM     42  C   UNL A   1      44.671  27.047  26.813  1.00  0.00     0.074 A 
ATOM     43  C   UNL A   1      44.642  25.704  26.274  1.00  0.00     0.031 C 
ATOM     44  C   UNL A   1      38.888  27.634  29.556  1.00  0.00     0.029 A 
ATOM     45  C   UNL A   1      39.959  28.626  29.525  1.00  0.00     0.049 A 
ATOM     46  H   UNL A   1      41.804  28.468  28.568  1.00  0.00     0.167 HD
ATOM     47  C   UNL A   1      45.729  27.885  26.713  1.00  0.00     0.034 A 
ATOM     48  C   UNL A   1      39.921  29.836  30.118  1.00  0.00     0.034 A 
ATOM     49  C   UNL A   1      45.735  29.235  27.206  1.00  0.00     0.049 A 
ATOM     50  C   UNL A   1      41.097  30.763  29.959  1.00  0.00     0.074 A 
ATOM     51  C   UNL A   1      46.736  30.183  27.099  1.00  0.00     0.029 A 
ATOM     52  N   UNL A   1      44.689  29.830  27.894  1.00  0.00    -0.354 N 
ATOM     53  N   UNL A   1      42.213  30.569  29.298  1.00  0.00    -0.248 NA
ATOM     54  C   UNL A   1      40.997  32.084  30.595  1.00  0.00     0.031 C 
ATOM     55  C   UNL A   1      46.294  31.354  27.724  1.00  0.00     0.029 A 
ATOM     56  C   UNL A   1      45.016  31.135  28.214  1.00  0.00     0.049 A 
ATOM     57  H   UNL A   1      43.839  29.389  28.121  1.00  0.00     0.167 HD
ATOM     58  C   UNL A   1      42.934  31.752  29.413  1.00  0.00     0.074 A 
ATOM     59  C   UNL A   1      42.119  32.664  30.190  1.00  0.00     0.031 C 
ATOM     60  C   UNL A   1      44.168  32.049  28.936  1.00  0.00     0.034 A 
BRANCH  47  61
ATOM     61  C   UNL A   1      46.941  27.393  25.969  1.00  0.00     0.023 A 
ATOM     62  C   UNL A   1      47.842  26.530  26.627  1.00  0.00     0.012 A 
ATOM     63  C   UNL A   1      47.156  27.718  24.617  1.00  0.00     0.148 A 
ATOM     64  C   UNL A   1      48.954  26.020  25.960  1.00  0.00     0.002 A 
ATOM     65  C   UNL A   1      48.247  27.173  23.945  1.00  0.00     0.091 A 
ATOM     66  F   UNL A   1      46.301  28.558  24.016  1.00  0.00    -0.205 F 
ATOM     67  C   UNL A   1      49.149  26.332  24.617  1.00  0.00     0.022 A 
BRANCH  65  68
ATOM     68  S   UNL A   1      48.546  27.454  22.196  1.00  0.00     0.127 S 
ATOM     69  O   UNL A   1      49.807  28.194  22.229  1.00  0.00    -0.237 OA
ATOM     70  O   UNL A   1      48.654  26.090  21.679  1.00  0.00    -0.237 OA
ATOM     71  O   UNL A   1      47.395  28.199  21.708  1.00  0.00    -0.744 OA
ENDBRANCH  65  68
ENDBRANCH  47  61
BRANCH  48  72
ATOM     72  C   UNL A   1      38.682  30.275  30.822  1.00  0.00     0.023 A 
ATOM     73  C   UNL A   1      38.555  30.020  32.201  1.00  0.00     0.012 A 
ATOM     74  C   UNL A   1      37.667  30.993  30.160  1.00  0.00     0.148 A 
ATOM     75  C   UNL A   1      37.431  30.453  32.905  1.00  0.00     0.002 A 
ATOM     76  C   UNL A   1      36.575  31.468  30.879  1.00  0.00     0.091 A 
ATOM     77  F   UNL A   1      37.799  31.214  28.845  1.00  0.00    -0.205 F 
ATOM     78  C   UNL A   1      36.449  31.187  32.248  1.00  0.00     0.022 A 
BRANCH  76  79
ATOM     79  S   UNL A   1      35.334  32.541  30.146  1.00  0.00     0.127 S 
ATOM     80  O   UNL A   1      36.138  33.683  29.720  1.00  0.00    -0.237 OA
ATOM     81  O   UNL A   1      34.818  31.710  29.057  1.00  0.00    -0.237 OA
ATOM     82  O   UNL A   1      34.369  32.802  31.205  1.00  0.00    -0.744 OA
ENDBRANCH  76  79
ENDBRANCH  48  72
BRANCH  60  83
ATOM     83  C   UNL A   1      44.723  33.420  29.219  1.00  0.00     0.023 A 
ATOM     84  C   UNL A   1      45.440  33.642  30.410  1.00  0.00     0.012 A 
ATOM     85  C   UNL A   1      44.638  34.447  28.259  1.00  0.00     0.148 A 
ATOM     86  C   UNL A   1      46.051  34.872  30.650  1.00  0.00     0.002 A 
ATOM     87  C   UNL A   1      45.287  35.655  28.484  1.00  0.00     0.091 A 
ATOM     88  F   UNL A   1      43.933  34.222  27.140  1.00  0.00    -0.205 F 
ATOM     89  C   UNL A   1      45.987  35.872  29.682  1.00  0.00     0.022 A 
BRANCH  87  90
ATOM     90  S   UNL A   1      45.339  36.960  27.250  1.00  0.00     0.127 S 
ATOM     91  O   UNL A   1      46.123  37.988  27.935  1.00  0.00    -0.237 OA
ATOM     92  O   UNL A   1      46.031  36.309  26.135  1.00  0.00    -0.237 OA
ATOM     93  O   UNL A   1      43.951  37.304  26.976  1.00  0.00    -0.744 OA
ENDBRANCH  87  90
ENDBRANCH  60  83
ENDBRANCH  34  35
ENDBRANCH  26  29
ENDBRANCH  24  25
ENDBRANCH   1  24
TORSDOF 15
ENDMDL
