MODEL 1
REMARK VINA RESULT:     -11.7      0.000      0.000
REMARK SMILES COC(=O)[C@H]1Sc2nnc(CCC(=O)NCCCCNC(=O)c3ccc(-c4c5nc(c(-c6cccc(S(=O)(=O)[O-])c6F)c6ccc([nH]6)c(-c6cccc(S(=O)(=O)[O-])c6F)c6nc(c(-c7cccc(S(=O)(=O)[O-])c7F)c7ccc4[nH]7)C=C6)C=C5)cc3)c(=O)n2N=C1C
REMARK SMILES IDX 17 1 16 2 15 3 13 4 14 5 12 7 11 8 10 9 5 10 6 11 90 12 7 13
REMARK SMILES IDX 89 14 91 15 8 16 88 17 9 18 86 19 87 20 3 21 4 22 2 23 1 24
REMARK SMILES IDX 18 25 19 26 20 27 21 28 22 30 23 31 24 32 85 33 25 34 84 35
REMARK SMILES IDX 26 36 27 37 28 38 78 39 29 40 83 41 77 42 79 43 30 44 82 45
REMARK SMILES IDX 76 46 75 47 31 49 63 50 43 51 62 52 44 53 47 54 61 55 80 56
REMARK SMILES IDX 45 57 46 58 60 60 81 61 48 62 32 63 33 64 41 65 34 66 36 67
REMARK SMILES IDX 42 68 35 69 37 70 38 71 39 72 40 73 64 74 65 75 73 76 66 77
REMARK SMILES IDX 68 78 74 79 67 80 69 81 70 82 71 83 72 84 49 85 50 86 58 87
REMARK SMILES IDX 51 88 53 89 59 90 52 91 54 92 55 93 56 94 57 95
REMARK H PARENT 15 6 20 29 79 48 47 59
REMARK Flexibility Score: inf
ROOT
ATOM      1  C   UNL A   1      40.718  20.860  26.970  1.00  0.00     0.023 C 
ENDROOT
BRANCH   1   2
ATOM      2  C   UNL A   1      39.687  21.625  26.137  1.00  0.00     0.116 C 
BRANCH   2   3
ATOM      3  N   UNL A   1      38.456  20.856  25.909  1.00  0.00    -0.356 N 
ATOM      4  C   UNL A   1      37.418  21.066  25.045  1.00  0.00     0.220 C 
ATOM      5  O   UNL A   1      36.501  20.244  25.008  1.00  0.00    -0.275 OA
ATOM      6  H   UNL A   1      38.363  20.055  26.474  1.00  0.00     0.163 HD
BRANCH   4   7
ATOM      7  C   UNL A   1      37.403  22.285  24.140  1.00  0.00     0.106 C 
BRANCH   7   8
ATOM      8  C   UNL A   1      36.589  23.447  24.731  1.00  0.00     0.074 C 
BRANCH   8   9
ATOM      9  C   UNL A   1      35.257  23.630  24.023  1.00  0.00     0.131 A 
ATOM     10  C   UNL A   1      31.105  26.521  22.865  1.00  0.00     0.210 C 
ATOM     11  S   UNL A   1      31.831  25.306  21.773  1.00  0.00    -0.063 SA
ATOM     12  C   UNL A   1      31.277  26.199  24.307  1.00  0.00     0.061 C 
ATOM     13  C   UNL A   1      33.091  24.569  22.740  1.00  0.00     0.214 A 
ATOM     14  N   UNL A   1      32.185  25.445  24.839  1.00  0.00    -0.171 NA
ATOM     15  C   UNL A   1      30.350  26.928  25.248  1.00  0.00     0.065 C 
ATOM     16  N   UNL A   1      33.965  23.847  22.101  1.00  0.00    -0.123 NA
ATOM     17  N   UNL A   1      33.122  24.778  24.095  1.00  0.00    -0.169 N 
ATOM     18  N   UNL A   1      35.139  23.407  22.752  1.00  0.00    -0.147 NA
ATOM     19  C   UNL A   1      34.098  24.132  24.847  1.00  0.00     0.296 A 
ATOM     20  O   UNL A   1      34.099  23.912  26.036  1.00  0.00    -0.265 OA
BRANCH  10  21
ATOM     21  C   UNL A   1      31.326  28.014  22.648  1.00  0.00     0.325 C 
ATOM     22  O   UNL A   1      32.397  28.546  22.915  1.00  0.00    -0.250 OA
BRANCH  21  23
ATOM     23  O   UNL A   1      30.343  28.633  21.966  1.00  0.00    -0.468 OA
ATOM     24  C   UNL A   1      29.887  29.954  22.322  1.00  0.00     0.282 C 
ENDBRANCH  21  23
ENDBRANCH  10  21
ENDBRANCH   8   9
ENDBRANCH   7   8
ENDBRANCH   4   7
ENDBRANCH   2   3
ENDBRANCH   1   2
BRANCH   1  25
ATOM     25  C   UNL A   1      41.684  19.883  26.262  1.00  0.00     0.023 C 
BRANCH  25  26
ATOM     26  C   UNL A   1      43.033  20.331  25.636  1.00  0.00     0.116 C 
BRANCH  26  27
ATOM     27  N   UNL A   1      43.303  21.732  25.080  1.00  0.00    -0.352 N 
ATOM     28  C   UNL A   1      43.487  23.104  25.188  1.00  0.00     0.251 C 
ATOM     29  H   UNL A   1      43.395  21.571  24.113  1.00  0.00     0.163 HD
ATOM     30  O   UNL A   1      44.038  23.569  24.172  1.00  0.00    -0.269 OA
BRANCH  28  31
ATOM     31  C   UNL A   1      43.118  24.167  26.198  1.00  0.00     0.039 A 
ATOM     32  C   UNL A   1      43.653  25.481  26.017  1.00  0.00     0.014 A 
ATOM     33  C   UNL A   1      42.354  24.000  27.338  1.00  0.00     0.014 A 
ATOM     34  C   UNL A   1      43.314  26.595  26.847  1.00  0.00     0.010 A 
ATOM     35  C   UNL A   1      41.920  25.124  28.094  1.00  0.00     0.010 A 
ATOM     36  C   UNL A   1      42.382  26.440  27.873  1.00  0.00    -0.014 A 
BRANCH  36  37
ATOM     37  C   UNL A   1      41.976  27.503  28.875  1.00  0.00     0.031 A 
ATOM     38  C   UNL A   1      42.666  27.476  30.227  1.00  0.00     0.074 A 
ATOM     39  C   UNL A   1      40.891  28.304  28.740  1.00  0.00     0.049 A 
ATOM     40  N   UNL A   1      42.337  28.049  31.357  1.00  0.00    -0.248 NA
ATOM     41  C   UNL A   1      43.837  26.588  30.328  1.00  0.00     0.031 C 
ATOM     42  C   UNL A   1      40.023  28.384  27.567  1.00  0.00     0.029 A 
ATOM     43  N   UNL A   1      40.280  29.154  29.650  1.00  0.00    -0.354 N 
ATOM     44  C   UNL A   1      43.206  27.524  32.309  1.00  0.00     0.074 A 
ATOM     45  C   UNL A   1      44.014  26.533  31.638  1.00  0.00     0.031 C 
ATOM     46  C   UNL A   1      38.975  29.187  27.840  1.00  0.00     0.029 A 
ATOM     47  C   UNL A   1      39.085  29.691  29.211  1.00  0.00     0.049 A 
ATOM     48  H   UNL A   1      40.664  29.358  30.533  1.00  0.00     0.167 HD
ATOM     49  C   UNL A   1      43.370  27.856  33.614  1.00  0.00     0.034 A 
ATOM     50  C   UNL A   1      38.186  30.493  29.830  1.00  0.00     0.034 A 
ATOM     51  C   UNL A   1      42.630  28.895  34.273  1.00  0.00     0.049 A 
ATOM     52  C   UNL A   1      38.446  30.962  31.248  1.00  0.00     0.074 A 
ATOM     53  C   UNL A   1      42.823  29.418  35.540  1.00  0.00     0.029 A 
ATOM     54  N   UNL A   1      41.561  29.574  33.716  1.00  0.00    -0.354 N 
ATOM     55  N   UNL A   1      39.413  30.621  32.065  1.00  0.00    -0.248 NA
ATOM     56  C   UNL A   1      37.526  31.969  31.811  1.00  0.00     0.031 C 
ATOM     57  C   UNL A   1      41.865  30.415  35.749  1.00  0.00     0.029 A 
ATOM     58  C   UNL A   1      41.090  30.522  34.606  1.00  0.00     0.049 A 
ATOM     59  H   UNL A   1      41.192  29.409  32.819  1.00  0.00     0.167 HD
ATOM     60  C   UNL A   1      39.250  31.404  33.208  1.00  0.00     0.074 A 
ATOM     61  C   UNL A   1      38.097  32.245  32.978  1.00  0.00     0.031 C 
ATOM     62  C   UNL A   1      39.989  31.414  34.346  1.00  0.00     0.034 A 
BRANCH  49  63
ATOM     63  C   UNL A   1      44.484  27.175  34.373  1.00  0.00     0.023 A 
ATOM     64  C   UNL A   1      45.726  27.835  34.495  1.00  0.00     0.012 A 
ATOM     65  C   UNL A   1      44.304  25.929  35.008  1.00  0.00     0.148 A 
ATOM     66  C   UNL A   1      46.787  27.248  35.181  1.00  0.00     0.002 A 
ATOM     67  C   UNL A   1      45.350  25.376  35.742  1.00  0.00     0.091 A 
ATOM     68  F   UNL A   1      43.124  25.306  34.878  1.00  0.00    -0.205 F 
ATOM     69  C   UNL A   1      46.594  26.026  35.814  1.00  0.00     0.022 A 
BRANCH  67  70
ATOM     70  S   UNL A   1      45.192  23.852  36.679  1.00  0.00     0.127 S 
ATOM     71  O   UNL A   1      44.209  23.117  35.883  1.00  0.00    -0.237 OA
ATOM     72  O   UNL A   1      46.551  23.313  36.617  1.00  0.00    -0.237 OA
ATOM     73  O   UNL A   1      44.748  24.239  38.010  1.00  0.00    -0.744 OA
ENDBRANCH  67  70
ENDBRANCH  49  63
BRANCH  50  74
ATOM     74  C   UNL A   1      37.018  31.047  29.069  1.00  0.00     0.023 A 
ATOM     75  C   UNL A   1      37.014  32.426  28.769  1.00  0.00     0.012 A 
ATOM     76  C   UNL A   1      35.942  30.253  28.622  1.00  0.00     0.148 A 
ATOM     77  C   UNL A   1      35.963  33.008  28.058  1.00  0.00     0.002 A 
ATOM     78  C   UNL A   1      34.917  30.832  27.873  1.00  0.00     0.091 A 
ATOM     79  F   UNL A   1      35.944  28.949  28.931  1.00  0.00    -0.205 F 
ATOM     80  C   UNL A   1      34.921  32.209  27.601  1.00  0.00     0.022 A 
BRANCH  78  81
ATOM     81  S   UNL A   1      33.580  29.881  27.132  1.00  0.00     0.127 S 
ATOM     82  O   UNL A   1      32.483  30.846  27.141  1.00  0.00    -0.237 OA
ATOM     83  O   UNL A   1      34.127  29.581  25.808  1.00  0.00    -0.237 OA
ATOM     84  O   UNL A   1      33.402  28.718  27.991  1.00  0.00    -0.744 OA
ENDBRANCH  78  81
ENDBRANCH  50  74
BRANCH  62  85
ATOM     85  C   UNL A   1      39.631  32.391  35.438  1.00  0.00     0.023 A 
ATOM     86  C   UNL A   1      40.007  33.742  35.321  1.00  0.00     0.012 A 
ATOM     87  C   UNL A   1      38.797  31.996  36.505  1.00  0.00     0.148 A 
ATOM     88  C   UNL A   1      39.576  34.682  36.259  1.00  0.00     0.002 A 
ATOM     89  C   UNL A   1      38.331  32.946  37.408  1.00  0.00     0.091 A 
ATOM     90  F   UNL A   1      38.460  30.702  36.609  1.00  0.00    -0.205 F 
ATOM     91  C   UNL A   1      38.726  34.288  37.291  1.00  0.00     0.022 A 
BRANCH  89  92
ATOM     92  S   UNL A   1      37.146  32.550  38.700  1.00  0.00     0.127 S 
ATOM     93  O   UNL A   1      35.889  32.991  38.097  1.00  0.00    -0.237 OA
ATOM     94  O   UNL A   1      37.288  31.098  38.820  1.00  0.00    -0.237 OA
ATOM     95  O   UNL A   1      37.570  33.296  39.876  1.00  0.00    -0.744 OA
ENDBRANCH  89  92
ENDBRANCH  62  85
ENDBRANCH  36  37
ENDBRANCH  28  31
ENDBRANCH  26  27
ENDBRANCH  25  26
ENDBRANCH   1  25
TORSDOF 18
ENDMDL
MODEL 2
REMARK VINA RESULT:     -11.5      1.842      2.347
REMARK SMILES COC(=O)[C@H]1Sc2nnc(CCC(=O)NCCCCNC(=O)c3ccc(-c4c5nc(c(-c6cccc(S(=O)(=O)[O-])c6F)c6ccc([nH]6)c(-c6cccc(S(=O)(=O)[O-])c6F)c6nc(c(-c7cccc(S(=O)(=O)[O-])c7F)c7ccc4[nH]7)C=C6)C=C5)cc3)c(=O)n2N=C1C
REMARK SMILES IDX 17 1 16 2 15 3 13 4 14 5 12 7 11 8 10 9 5 10 6 11 90 12 7 13
REMARK SMILES IDX 89 14 91 15 8 16 88 17 9 18 86 19 87 20 3 21 4 22 2 23 1 24
REMARK SMILES IDX 18 25 19 26 20 27 21 28 22 30 23 31 24 32 85 33 25 34 84 35
REMARK SMILES IDX 26 36 27 37 28 38 78 39 29 40 83 41 77 42 79 43 30 44 82 45
REMARK SMILES IDX 76 46 75 47 31 49 63 50 43 51 62 52 44 53 47 54 61 55 80 56
REMARK SMILES IDX 45 57 46 58 60 60 81 61 48 62 32 63 33 64 41 65 34 66 36 67
REMARK SMILES IDX 42 68 35 69 37 70 38 71 39 72 40 73 64 74 65 75 73 76 66 77
REMARK SMILES IDX 68 78 74 79 67 80 69 81 70 82 71 83 72 84 49 85 50 86 58 87
REMARK SMILES IDX 51 88 53 89 59 90 52 91 54 92 55 93 56 94 57 95
REMARK H PARENT 15 6 20 29 79 48 47 59
REMARK Flexibility Score: inf
ROOT
ATOM      1  C   UNL A   1      41.455  20.996  26.918  1.00  0.00     0.023 C 
ENDROOT
BRANCH   1   2
ATOM      2  C   UNL A   1      40.120  21.431  26.308  1.00  0.00     0.116 C 
BRANCH   2   3
ATOM      3  N   UNL A   1      39.277  20.294  25.914  1.00  0.00    -0.356 N 
ATOM      4  C   UNL A   1      38.135  20.246  25.166  1.00  0.00     0.220 C 
ATOM      5  O   UNL A   1      37.624  19.149  24.934  1.00  0.00    -0.275 OA
ATOM      6  H   UNL A   1      39.587  19.421  26.247  1.00  0.00     0.163 HD
BRANCH   4   7
ATOM      7  C   UNL A   1      37.515  21.520  24.621  1.00  0.00     0.106 C 
BRANCH   7   8
ATOM      8  C   UNL A   1      36.010  21.618  24.919  1.00  0.00     0.074 C 
BRANCH   8   9
ATOM      9  C   UNL A   1      35.501  23.047  24.828  1.00  0.00     0.131 A 
ATOM     10  C   UNL A   1      31.972  26.502  23.232  1.00  0.00     0.210 C 
ATOM     11  S   UNL A   1      32.921  26.644  24.741  1.00  0.00    -0.063 SA
ATOM     12  C   UNL A   1      32.686  25.772  22.151  1.00  0.00     0.061 C 
ATOM     13  C   UNL A   1      34.023  25.285  24.676  1.00  0.00     0.214 A 
ATOM     14  N   UNL A   1      33.650  24.918  22.284  1.00  0.00    -0.171 NA
ATOM     15  C   UNL A   1      32.141  25.982  20.759  1.00  0.00     0.065 C 
ATOM     16  N   UNL A   1      34.637  24.983  25.783  1.00  0.00    -0.123 NA
ATOM     17  N   UNL A   1      34.189  24.597  23.502  1.00  0.00    -0.169 N 
ATOM     18  N   UNL A   1      35.360  23.775  25.890  1.00  0.00    -0.147 NA
ATOM     19  C   UNL A   1      35.116  23.560  23.463  1.00  0.00     0.296 A 
ATOM     20  O   UNL A   1      35.646  23.070  22.493  1.00  0.00    -0.265 OA
BRANCH  10  21
ATOM     21  C   UNL A   1      30.509  26.074  23.254  1.00  0.00     0.325 C 
ATOM     22  O   UNL A   1      30.186  24.917  23.497  1.00  0.00    -0.250 OA
BRANCH  21  23
ATOM     23  O   UNL A   1      29.627  27.090  23.188  1.00  0.00    -0.468 OA
ATOM     24  C   UNL A   1      30.015  28.407  22.748  1.00  0.00     0.282 C 
ENDBRANCH  21  23
ENDBRANCH  10  21
ENDBRANCH   8   9
ENDBRANCH   7   8
ENDBRANCH   4   7
ENDBRANCH   2   3
ENDBRANCH   1   2
BRANCH   1  25
ATOM     25  C   UNL A   1      42.448  20.185  26.056  1.00  0.00     0.023 C 
BRANCH  25  26
ATOM     26  C   UNL A   1      43.800  20.761  25.551  1.00  0.00     0.116 C 
BRANCH  26  27
ATOM     27  N   UNL A   1      43.979  22.176  24.995  1.00  0.00    -0.352 N 
ATOM     28  C   UNL A   1      44.020  23.561  25.094  1.00  0.00     0.251 C 
ATOM     29  H   UNL A   1      44.168  22.016  24.042  1.00  0.00     0.163 HD
ATOM     30  O   UNL A   1      44.608  24.068  24.120  1.00  0.00    -0.269 OA
BRANCH  28  31
ATOM     31  C   UNL A   1      43.465  24.592  26.050  1.00  0.00     0.039 A 
ATOM     32  C   UNL A   1      42.612  24.140  27.105  1.00  0.00     0.014 A 
ATOM     33  C   UNL A   1      43.640  25.962  25.988  1.00  0.00     0.014 A 
ATOM     34  C   UNL A   1      42.093  24.996  28.125  1.00  0.00     0.010 A 
ATOM     35  C   UNL A   1      43.228  26.798  27.062  1.00  0.00     0.010 A 
ATOM     36  C   UNL A   1      42.449  26.345  28.151  1.00  0.00    -0.014 A 
BRANCH  36  37
ATOM     37  C   UNL A   1      41.928  27.386  29.121  1.00  0.00     0.031 A 
ATOM     38  C   UNL A   1      42.599  27.458  30.481  1.00  0.00     0.074 A 
ATOM     39  C   UNL A   1      40.773  28.074  28.955  1.00  0.00     0.049 A 
ATOM     40  N   UNL A   1      42.201  28.023  31.593  1.00  0.00    -0.248 NA
ATOM     41  C   UNL A   1      43.850  26.691  30.617  1.00  0.00     0.031 C 
ATOM     42  C   UNL A   1      39.917  28.041  27.770  1.00  0.00     0.029 A 
ATOM     43  N   UNL A   1      40.069  28.882  29.837  1.00  0.00    -0.354 N 
ATOM     44  C   UNL A   1      43.104  27.608  32.567  1.00  0.00     0.074 A 
ATOM     45  C   UNL A   1      44.014  26.684  31.930  1.00  0.00     0.031 C 
ATOM     46  C   UNL A   1      38.792  28.745  28.012  1.00  0.00     0.029 A 
ATOM     47  C   UNL A   1      38.834  29.290  29.371  1.00  0.00     0.049 A 
ATOM     48  H   UNL A   1      40.421  29.143  30.718  1.00  0.00     0.167 HD
ATOM     49  C   UNL A   1      43.217  27.985  33.865  1.00  0.00     0.034 A 
ATOM     50  C   UNL A   1      37.853  30.015  29.960  1.00  0.00     0.034 A 
ATOM     51  C   UNL A   1      42.372  28.962  34.491  1.00  0.00     0.049 A 
ATOM     52  C   UNL A   1      38.048  30.540  31.369  1.00  0.00     0.074 A 
ATOM     53  C   UNL A   1      42.496  29.532  35.745  1.00  0.00     0.029 A 
ATOM     54  N   UNL A   1      41.250  29.521  33.904  1.00  0.00    -0.354 N 
ATOM     55  N   UNL A   1      39.032  30.315  32.205  1.00  0.00    -0.248 NA
ATOM     56  C   UNL A   1      37.027  31.465  31.897  1.00  0.00     0.031 C 
ATOM     57  C   UNL A   1      41.443  30.435  35.919  1.00  0.00     0.029 A 
ATOM     58  C   UNL A   1      40.676  30.439  34.766  1.00  0.00     0.049 A 
ATOM     59  H   UNL A   1      40.910  29.299  33.008  1.00  0.00     0.167 HD
ATOM     60  C   UNL A   1      38.779  31.104  33.326  1.00  0.00     0.074 A 
ATOM     61  C   UNL A   1      37.552  31.823  33.063  1.00  0.00     0.031 C 
ATOM     62  C   UNL A   1      39.498  31.213  34.472  1.00  0.00     0.034 A 
BRANCH  49  63
ATOM     63  C   UNL A   1      44.382  27.433  34.654  1.00  0.00     0.023 A 
ATOM     64  C   UNL A   1      45.600  28.148  34.657  1.00  0.00     0.012 A 
ATOM     65  C   UNL A   1      44.274  26.260  35.427  1.00  0.00     0.148 A 
ATOM     66  C   UNL A   1      46.705  27.681  35.364  1.00  0.00     0.002 A 
ATOM     67  C   UNL A   1      45.364  25.830  36.178  1.00  0.00     0.091 A 
ATOM     68  F   UNL A   1      43.117  25.582  35.408  1.00  0.00    -0.205 F 
ATOM     69  C   UNL A   1      46.583  26.529  36.133  1.00  0.00     0.022 A 
BRANCH  67  70
ATOM     70  S   UNL A   1      45.299  24.414  37.280  1.00  0.00     0.127 S 
ATOM     71  O   UNL A   1      46.661  24.390  37.811  1.00  0.00    -0.237 OA
ATOM     72  O   UNL A   1      44.277  24.825  38.244  1.00  0.00    -0.237 OA
ATOM     73  O   UNL A   1      44.935  23.273  36.453  1.00  0.00    -0.744 OA
ENDBRANCH  67  70
ENDBRANCH  49  63
BRANCH  50  74
ATOM     74  C   UNL A   1      36.647  30.434  29.173  1.00  0.00     0.023 A 
ATOM     75  C   UNL A   1      35.844  29.425  28.599  1.00  0.00     0.012 A 
ATOM     76  C   UNL A   1      36.268  31.781  29.001  1.00  0.00     0.148 A 
ATOM     77  C   UNL A   1      34.704  29.742  27.860  1.00  0.00     0.002 A 
ATOM     78  C   UNL A   1      35.102  32.089  28.300  1.00  0.00     0.091 A 
ATOM     79  F   UNL A   1      37.049  32.733  29.531  1.00  0.00    -0.205 F 
ATOM     80  C   UNL A   1      34.327  31.073  27.720  1.00  0.00     0.022 A 
BRANCH  78  81
ATOM     81  S   UNL A   1      34.455  33.762  28.153  1.00  0.00     0.127 S 
ATOM     82  O   UNL A   1      35.313  34.328  27.114  1.00  0.00    -0.237 OA
ATOM     83  O   UNL A   1      33.073  33.512  27.741  1.00  0.00    -0.237 OA
ATOM     84  O   UNL A   1      34.593  34.356  29.476  1.00  0.00    -0.744 OA
ENDBRANCH  78  81
ENDBRANCH  50  74
BRANCH  62  85
ATOM     85  C   UNL A   1      39.032  32.176  35.535  1.00  0.00     0.023 A 
ATOM     86  C   UNL A   1      38.134  31.743  36.528  1.00  0.00     0.012 A 
ATOM     87  C   UNL A   1      39.599  33.465  35.630  1.00  0.00     0.148 A 
ATOM     88  C   UNL A   1      37.792  32.582  37.590  1.00  0.00     0.002 A 
ATOM     89  C   UNL A   1      39.292  34.277  36.717  1.00  0.00     0.091 A 
ATOM     90  F   UNL A   1      40.442  33.866  34.667  1.00  0.00    -0.205 F 
ATOM     91  C   UNL A   1      38.382  33.841  37.692  1.00  0.00     0.022 A 
BRANCH  89  92
ATOM     92  S   UNL A   1      40.089  35.865  36.989  1.00  0.00     0.127 S 
ATOM     93  O   UNL A   1      39.683  36.611  35.798  1.00  0.00    -0.237 OA
ATOM     94  O   UNL A   1      39.465  36.318  38.234  1.00  0.00    -0.237 OA
ATOM     95  O   UNL A   1      41.514  35.586  37.096  1.00  0.00    -0.744 OA
ENDBRANCH  89  92
ENDBRANCH  62  85
ENDBRANCH  36  37
ENDBRANCH  28  31
ENDBRANCH  26  27
ENDBRANCH  25  26
ENDBRANCH   1  25
TORSDOF 18
ENDMDL
MODEL 3
REMARK VINA RESULT:     -11.5      5.776      9.426
REMARK SMILES COC(=O)[C@H]1Sc2nnc(CCC(=O)NCCCCNC(=O)c3ccc(-c4c5nc(c(-c6cccc(S(=O)(=O)[O-])c6F)c6ccc([nH]6)c(-c6cccc(S(=O)(=O)[O-])c6F)c6nc(c(-c7cccc(S(=O)(=O)[O-])c7F)c7ccc4[nH]7)C=C6)C=C5)cc3)c(=O)n2N=C1C
REMARK SMILES IDX 17 1 16 2 15 3 13 4 14 5 12 7 11 8 10 9 5 10 6 11 90 12 7 13
REMARK SMILES IDX 89 14 91 15 8 16 88 17 9 18 86 19 87 20 3 21 4 22 2 23 1 24
REMARK SMILES IDX 18 25 19 26 20 27 21 28 22 30 23 31 24 32 85 33 25 34 84 35
REMARK SMILES IDX 26 36 27 37 28 38 78 39 29 40 83 41 77 42 79 43 30 44 82 45
REMARK SMILES IDX 76 46 75 47 31 49 63 50 43 51 62 52 44 53 47 54 61 55 80 56
REMARK SMILES IDX 45 57 46 58 60 60 81 61 48 62 32 63 33 64 41 65 34 66 36 67
REMARK SMILES IDX 42 68 35 69 37 70 38 71 39 72 40 73 64 74 65 75 73 76 66 77
REMARK SMILES IDX 68 78 74 79 67 80 69 81 70 82 71 83 72 84 49 85 50 86 58 87
REMARK SMILES IDX 51 88 53 89 59 90 52 91 54 92 55 93 56 94 57 95
REMARK H PARENT 15 6 20 29 79 48 47 59
REMARK Flexibility Score: inf
ROOT
ATOM      1  C   UNL A   1      36.241  20.682  24.776  1.00  0.00     0.023 C 
ENDROOT
BRANCH   1   2
ATOM      2  C   UNL A   1      35.229  21.249  25.775  1.00  0.00     0.116 C 
BRANCH   2   3
ATOM      3  N   UNL A   1      34.031  20.411  25.908  1.00  0.00    -0.356 N 
ATOM      4  C   UNL A   1      33.028  20.139  25.019  1.00  0.00     0.220 C 
ATOM      5  O   UNL A   1      32.135  19.359  25.354  1.00  0.00    -0.275 OA
ATOM      6  H   UNL A   1      33.931  19.974  26.784  1.00  0.00     0.163 HD
BRANCH   4   7
ATOM      7  C   UNL A   1      33.024  20.777  23.642  1.00  0.00     0.106 C 
BRANCH   7   8
ATOM      8  C   UNL A   1      32.050  21.961  23.544  1.00  0.00     0.074 C 
BRANCH   8   9
ATOM      9  C   UNL A   1      32.518  23.155  24.360  1.00  0.00     0.131 A 
ATOM     10  C   UNL A   1      32.724  28.276  25.182  1.00  0.00     0.210 C 
ATOM     11  S   UNL A   1      32.731  27.040  26.474  1.00  0.00    -0.063 SA
ATOM     12  C   UNL A   1      33.339  27.807  23.912  1.00  0.00     0.061 C 
ATOM     13  C   UNL A   1      32.785  25.521  25.605  1.00  0.00     0.214 A 
ATOM     14  N   UNL A   1      33.476  26.584  23.510  1.00  0.00    -0.171 NA
ATOM     15  C   UNL A   1      33.745  28.896  22.949  1.00  0.00     0.065 C 
ATOM     16  N   UNL A   1      32.513  24.449  26.292  1.00  0.00    -0.123 NA
ATOM     17  N   UNL A   1      33.090  25.510  24.269  1.00  0.00    -0.169 N 
ATOM     18  N   UNL A   1      32.305  23.216  25.636  1.00  0.00    -0.147 NA
ATOM     19  C   UNL A   1      33.185  24.285  23.617  1.00  0.00     0.296 A 
ATOM     20  O   UNL A   1      33.750  24.035  22.577  1.00  0.00    -0.265 OA
BRANCH  10  21
ATOM     21  C   UNL A   1      31.472  29.088  24.870  1.00  0.00     0.325 C 
ATOM     22  O   UNL A   1      31.411  30.287  25.119  1.00  0.00    -0.250 OA
BRANCH  21  23
ATOM     23  O   UNL A   1      30.550  28.438  24.135  1.00  0.00    -0.468 OA
ATOM     24  C   UNL A   1      30.043  28.980  22.898  1.00  0.00     0.282 C 
ENDBRANCH  21  23
ENDBRANCH  10  21
ENDBRANCH   8   9
ENDBRANCH   7   8
ENDBRANCH   4   7
ENDBRANCH   2   3
ENDBRANCH   1   2
BRANCH   1  25
ATOM     25  C   UNL A   1      37.730  20.595  25.178  1.00  0.00     0.023 C 
BRANCH  25  26
ATOM     26  C   UNL A   1      38.454  19.249  25.462  1.00  0.00     0.116 C 
BRANCH  26  27
ATOM     27  N   UNL A   1      39.968  19.107  25.642  1.00  0.00    -0.352 N 
ATOM     28  C   UNL A   1      41.220  19.529  26.070  1.00  0.00     0.251 C 
ATOM     29  H   UNL A   1      40.159  18.237  25.223  1.00  0.00     0.163 HD
ATOM     30  O   UNL A   1      42.026  18.580  26.119  1.00  0.00    -0.269 OA
BRANCH  28  31
ATOM     31  C   UNL A   1      41.851  20.858  26.415  1.00  0.00     0.039 A 
ATOM     32  C   UNL A   1      42.248  21.082  27.771  1.00  0.00     0.014 A 
ATOM     33  C   UNL A   1      42.039  21.934  25.568  1.00  0.00     0.014 A 
ATOM     34  C   UNL A   1      42.934  22.257  28.211  1.00  0.00     0.010 A 
ATOM     35  C   UNL A   1      42.824  23.050  25.970  1.00  0.00     0.010 A 
ATOM     36  C   UNL A   1      43.289  23.243  27.291  1.00  0.00    -0.014 A 
BRANCH  36  37
ATOM     37  C   UNL A   1      43.951  24.567  27.614  1.00  0.00     0.031 A 
ATOM     38  C   UNL A   1      43.051  25.685  28.108  1.00  0.00     0.074 A 
ATOM     39  C   UNL A   1      45.221  24.891  27.268  1.00  0.00     0.049 A 
ATOM     40  N   UNL A   1      43.266  26.974  28.185  1.00  0.00    -0.248 NA
ATOM     41  C   UNL A   1      41.679  25.288  28.469  1.00  0.00     0.031 C 
ATOM     42  C   UNL A   1      46.201  23.991  26.663  1.00  0.00     0.029 A 
ATOM     43  N   UNL A   1      45.881  26.111  27.300  1.00  0.00    -0.354 N 
ATOM     44  C   UNL A   1      42.038  27.539  28.517  1.00  0.00     0.074 A 
ATOM     45  C   UNL A   1      41.075  26.462  28.546  1.00  0.00     0.031 C 
ATOM     46  C   UNL A   1      47.308  24.691  26.338  1.00  0.00     0.029 A 
ATOM     47  C   UNL A   1      47.130  26.096  26.710  1.00  0.00     0.049 A 
ATOM     48  H   UNL A   1      45.493  26.917  27.709  1.00  0.00     0.167 HD
ATOM     49  C   UNL A   1      41.726  28.822  28.825  1.00  0.00     0.034 A 
ATOM     50  C   UNL A   1      48.026  27.088  26.493  1.00  0.00     0.034 A 
ATOM     51  C   UNL A   1      42.687  29.888  28.880  1.00  0.00     0.049 A 
ATOM     52  C   UNL A   1      47.717  28.497  26.960  1.00  0.00     0.074 A 
ATOM     53  C   UNL A   1      42.510  31.184  29.332  1.00  0.00     0.029 A 
ATOM     54  N   UNL A   1      44.006  29.777  28.480  1.00  0.00    -0.354 N 
ATOM     55  N   UNL A   1      46.613  28.968  27.486  1.00  0.00    -0.248 NA
ATOM     56  C   UNL A   1      48.795  29.500  26.855  1.00  0.00     0.031 C 
ATOM     57  C   UNL A   1      43.727  31.860  29.199  1.00  0.00     0.029 A 
ATOM     58  C   UNL A   1      44.662  30.978  28.683  1.00  0.00     0.049 A 
ATOM     59  H   UNL A   1      44.418  28.965  28.107  1.00  0.00     0.167 HD
ATOM     60  C   UNL A   1      46.878  30.295  27.823  1.00  0.00     0.074 A 
ATOM     61  C   UNL A   1      48.250  30.555  27.449  1.00  0.00     0.031 C 
ATOM     62  C   UNL A   1      46.052  31.214  28.383  1.00  0.00     0.034 A 
BRANCH  49  63
ATOM     63  C   UNL A   1      40.307  29.112  29.256  1.00  0.00     0.023 A 
ATOM     64  C   UNL A   1      39.354  29.453  28.272  1.00  0.00     0.012 A 
ATOM     65  C   UNL A   1      39.895  29.000  30.600  1.00  0.00     0.148 A 
ATOM     66  C   UNL A   1      38.035  29.734  28.617  1.00  0.00     0.002 A 
ATOM     67  C   UNL A   1      38.561  29.225  30.929  1.00  0.00     0.091 A 
ATOM     68  F   UNL A   1      40.810  28.686  31.528  1.00  0.00    -0.205 F 
ATOM     69  C   UNL A   1      37.637  29.608  29.943  1.00  0.00     0.022 A 
BRANCH  67  70
ATOM     70  S   UNL A   1      37.910  29.001  32.588  1.00  0.00     0.127 S 
ATOM     71  O   UNL A   1      36.527  29.447  32.424  1.00  0.00    -0.237 OA
ATOM     72  O   UNL A   1      38.066  27.560  32.785  1.00  0.00    -0.237 OA
ATOM     73  O   UNL A   1      38.730  29.830  33.460  1.00  0.00    -0.744 OA
ENDBRANCH  67  70
ENDBRANCH  49  63
BRANCH  50  74
ATOM     74  C   UNL A   1      49.385  26.771  25.941  1.00  0.00     0.023 A 
ATOM     75  C   UNL A   1      50.265  26.010  26.738  1.00  0.00     0.012 A 
ATOM     76  C   UNL A   1      49.810  27.177  24.659  1.00  0.00     0.148 A 
ATOM     77  C   UNL A   1      51.541  25.672  26.285  1.00  0.00     0.002 A 
ATOM     78  C   UNL A   1      51.069  26.798  24.194  1.00  0.00     0.091 A 
ATOM     79  F   UNL A   1      48.975  27.919  23.918  1.00  0.00    -0.205 F 
ATOM     80  C   UNL A   1      51.939  26.057  25.009  1.00  0.00     0.022 A 
BRANCH  78  81
ATOM     81  S   UNL A   1      51.645  27.138  22.523  1.00  0.00     0.127 S 
ATOM     82  O   UNL A   1      52.860  26.329  22.453  1.00  0.00    -0.237 OA
ATOM     83  O   UNL A   1      50.528  26.644  21.717  1.00  0.00    -0.237 OA
ATOM     84  O   UNL A   1      51.845  28.580  22.461  1.00  0.00    -0.744 OA
ENDBRANCH  78  81
ENDBRANCH  50  74
BRANCH  62  85
ATOM     85  C   UNL A   1      46.591  32.589  28.689  1.00  0.00     0.023 A 
ATOM     86  C   UNL A   1      47.208  32.840  29.929  1.00  0.00     0.012 A 
ATOM     87  C   UNL A   1      46.614  33.585  27.691  1.00  0.00     0.148 A 
ATOM     88  C   UNL A   1      47.823  34.067  30.179  1.00  0.00     0.002 A 
ATOM     89  C   UNL A   1      47.271  34.788  27.929  1.00  0.00     0.091 A 
ATOM     90  F   UNL A   1      46.009  33.334  26.521  1.00  0.00    -0.205 F 
ATOM     91  C   UNL A   1      47.869  35.033  29.176  1.00  0.00     0.022 A 
BRANCH  89  92
ATOM     92  S   UNL A   1      47.477  36.043  26.659  1.00  0.00     0.127 S 
ATOM     93  O   UNL A   1      48.358  37.001  27.326  1.00  0.00    -0.237 OA
ATOM     94  O   UNL A   1      48.106  35.289  25.574  1.00  0.00    -0.237 OA
ATOM     95  O   UNL A   1      46.138  36.531  26.357  1.00  0.00    -0.744 OA
ENDBRANCH  89  92
ENDBRANCH  62  85
ENDBRANCH  36  37
ENDBRANCH  28  31
ENDBRANCH  26  27
ENDBRANCH  25  26
ENDBRANCH   1  25
TORSDOF 18
ENDMDL
