MODEL 1
REMARK VINA RESULT:     -13.6      0.000      0.000
REMARK SMILES O=C(NCCCCNC(=O)c1nnn(-c2cccc(C(F)(F)F)c2)c1[C@@H]1COc2ccccc2O1)c1ccc(-c2c3nc(c(-c4cccc(S(=O)(=O)[O-])c4F)c4ccc([nH]4)c(-c4cccc(S(=O)(=O)[O-])c4F)c4nc(c(-c5cccc(S(=O)(=O)[O-])c5F)c5ccc2[nH]5)C=C4)C=C3)cc1
REMARK SMILES IDX 5 1 4 2 3 3 1 4 2 5 36 7 37 8 98 9 38 10 97 11 39 12 40 13
REMARK SMILES IDX 41 14 91 15 42 16 96 17 90 18 92 19 43 20 95 21 89 22 88 23
REMARK SMILES IDX 44 25 76 26 56 27 75 28 57 29 60 30 74 31 93 32 58 33 59 34
REMARK SMILES IDX 73 36 94 37 61 38 45 39 46 40 54 41 47 42 49 43 55 44 48 45
REMARK SMILES IDX 50 46 51 47 52 48 53 49 77 50 78 51 86 52 79 53 81 54 87 55
REMARK SMILES IDX 80 56 82 57 83 58 84 59 85 60 62 61 63 62 71 63 64 64 66 65
REMARK SMILES IDX 72 66 65 67 67 68 68 69 69 70 70 71 6 72 7 73 8 74 9 75
REMARK SMILES IDX 10 77 11 78 12 79 25 80 13 81 14 82 26 83 27 84 35 85 28 86
REMARK SMILES IDX 34 87 29 88 33 89 30 90 32 91 31 92 15 93 16 94 24 95 17 96
REMARK SMILES IDX 19 97 18 98 20 99 21 100 22 101 23 102
REMARK H PARENT 3 6 92 24 60 35 8 76
REMARK Flexibility Score: inf
ROOT
ATOM      1  C   UNL A   1      37.796  21.152  25.108  1.00  0.00     0.023 C 
ENDROOT
BRANCH   1   2
ATOM      2  C   UNL A   1      38.530  22.218  25.931  1.00  0.00     0.116 C 
BRANCH   2   3
ATOM      3  N   UNL A   1      39.949  21.983  26.124  1.00  0.00    -0.352 N 
ATOM      4  O   UNL A   1      41.999  21.962  26.927  1.00  0.00    -0.269 OA
ATOM      5  C   UNL A   1      40.946  22.602  26.835  1.00  0.00     0.251 C 
ATOM      6  H   UNL A   1      40.272  21.197  25.627  1.00  0.00     0.163 HD
BRANCH   5   7
ATOM      7  C   UNL A   1      40.870  23.958  27.448  1.00  0.00     0.039 A 
ATOM      8  C   UNL A   1      39.861  24.891  27.215  1.00  0.00     0.014 A 
ATOM      9  C   UNL A   1      41.939  24.332  28.290  1.00  0.00     0.014 A 
ATOM     10  C   UNL A   1      39.942  26.175  27.752  1.00  0.00     0.010 A 
ATOM     11  C   UNL A   1      42.016  25.611  28.843  1.00  0.00     0.010 A 
ATOM     12  C   UNL A   1      41.027  26.544  28.551  1.00  0.00    -0.014 A 
BRANCH  12  13
ATOM     13  C   UNL A   1      41.017  27.894  29.112  1.00  0.00     0.031 A 
ATOM     14  C   UNL A   1      41.981  28.863  28.512  1.00  0.00     0.074 A 
ATOM     15  C   UNL A   1      40.141  28.326  30.041  1.00  0.00     0.049 A 
ATOM     16  N   UNL A   1      42.967  29.476  29.086  1.00  0.00    -0.248 NA
ATOM     17  C   UNL A   1      41.863  29.132  27.072  1.00  0.00     0.031 C 
ATOM     18  C   UNL A   1      38.925  27.658  30.506  1.00  0.00     0.029 A 
ATOM     19  N   UNL A   1      40.097  29.538  30.668  1.00  0.00    -0.354 N 
ATOM     20  C   UNL A   1      43.483  30.352  28.129  1.00  0.00     0.074 A 
ATOM     21  C   UNL A   1      42.846  30.013  26.882  1.00  0.00     0.031 C 
ATOM     22  C   UNL A   1      38.144  28.562  31.140  1.00  0.00     0.029 A 
ATOM     23  C   UNL A   1      38.866  29.819  31.244  1.00  0.00     0.049 A 
ATOM     24  H   UNL A   1      40.865  30.154  30.709  1.00  0.00     0.167 HD
ATOM     25  C   UNL A   1      44.276  31.411  28.454  1.00  0.00     0.034 A 
ATOM     26  C   UNL A   1      38.442  31.022  31.698  1.00  0.00     0.034 A 
ATOM     27  C   UNL A   1      44.782  31.324  29.794  1.00  0.00     0.049 A 
ATOM     28  C   UNL A   1      39.631  31.868  31.941  1.00  0.00     0.074 A 
ATOM     29  C   UNL A   1      45.587  30.451  30.496  1.00  0.00     0.029 A 
ATOM     30  N   UNL A   1      44.211  32.149  30.730  1.00  0.00    -0.354 N 
ATOM     31  N   UNL A   1      40.500  31.657  32.890  1.00  0.00    -0.248 NA
ATOM     32  C   UNL A   1      40.048  32.798  30.905  1.00  0.00     0.031 C 
ATOM     33  C   UNL A   1      45.105  30.502  31.836  1.00  0.00     0.029 A 
ATOM     34  C   UNL A   1      44.043  31.408  31.866  1.00  0.00     0.049 A 
ATOM     35  H   UNL A   1      43.968  33.095  30.608  1.00  0.00     0.167 HD
ATOM     36  C   UNL A   1      41.707  32.088  32.359  1.00  0.00     0.074 A 
ATOM     37  C   UNL A   1      41.344  32.900  31.204  1.00  0.00     0.031 C 
ATOM     38  C   UNL A   1      42.888  31.512  32.732  1.00  0.00     0.034 A 
BRANCH  25  39
ATOM     39  C   UNL A   1      44.383  32.706  27.681  1.00  0.00     0.023 A 
ATOM     40  C   UNL A   1      45.496  32.862  26.818  1.00  0.00     0.012 A 
ATOM     41  C   UNL A   1      43.625  33.862  27.963  1.00  0.00     0.148 A 
ATOM     42  C   UNL A   1      45.864  34.111  26.307  1.00  0.00     0.002 A 
ATOM     43  C   UNL A   1      43.950  35.088  27.387  1.00  0.00     0.091 A 
ATOM     44  F   UNL A   1      42.665  33.821  28.892  1.00  0.00    -0.205 F 
ATOM     45  C   UNL A   1      45.085  35.226  26.585  1.00  0.00     0.022 A 
BRANCH  43  46
ATOM     46  S   UNL A   1      42.930  36.540  27.665  1.00  0.00     0.127 S 
ATOM     47  O   UNL A   1      41.622  36.070  27.201  1.00  0.00    -0.237 OA
ATOM     48  O   UNL A   1      43.037  36.712  29.119  1.00  0.00    -0.237 OA
ATOM     49  O   UNL A   1      43.552  37.596  26.895  1.00  0.00    -0.744 OA
ENDBRANCH  43  46
ENDBRANCH  25  39
BRANCH  26  50
ATOM     50  C   UNL A   1      37.071  31.577  31.724  1.00  0.00     0.023 A 
ATOM     51  C   UNL A   1      36.461  31.877  32.958  1.00  0.00     0.012 A 
ATOM     52  C   UNL A   1      36.462  32.055  30.543  1.00  0.00     0.148 A 
ATOM     53  C   UNL A   1      35.294  32.649  33.014  1.00  0.00     0.002 A 
ATOM     54  C   UNL A   1      35.297  32.812  30.602  1.00  0.00     0.091 A 
ATOM     55  F   UNL A   1      37.077  31.847  29.370  1.00  0.00    -0.205 F 
ATOM     56  C   UNL A   1      34.715  33.120  31.839  1.00  0.00     0.022 A 
BRANCH  54  57
ATOM     57  S   UNL A   1      34.504  33.462  29.126  1.00  0.00     0.127 S 
ATOM     58  O   UNL A   1      33.348  34.164  29.686  1.00  0.00    -0.237 OA
ATOM     59  O   UNL A   1      35.544  34.331  28.582  1.00  0.00    -0.237 OA
ATOM     60  O   UNL A   1      34.161  32.301  28.316  1.00  0.00    -0.744 OA
ENDBRANCH  54  57
ENDBRANCH  26  50
BRANCH  38  61
ATOM     61  C   UNL A   1      42.909  30.632  33.955  1.00  0.00     0.023 A 
ATOM     62  C   UNL A   1      43.069  31.168  35.249  1.00  0.00     0.012 A 
ATOM     63  C   UNL A   1      42.540  29.282  33.815  1.00  0.00     0.148 A 
ATOM     64  C   UNL A   1      42.882  30.370  36.380  1.00  0.00     0.002 A 
ATOM     65  C   UNL A   1      42.303  28.506  34.943  1.00  0.00     0.091 A 
ATOM     66  F   UNL A   1      42.383  28.792  32.576  1.00  0.00    -0.205 F 
ATOM     67  C   UNL A   1      42.484  29.045  36.227  1.00  0.00     0.022 A 
BRANCH  65  68
ATOM     68  S   UNL A   1      41.639  26.843  34.823  1.00  0.00     0.127 S 
ATOM     69  O   UNL A   1      40.505  27.030  33.920  1.00  0.00    -0.237 OA
ATOM     70  O   UNL A   1      42.761  26.098  34.250  1.00  0.00    -0.237 OA
ATOM     71  O   UNL A   1      41.298  26.448  36.184  1.00  0.00    -0.744 OA
ENDBRANCH  65  68
ENDBRANCH  38  61
ENDBRANCH  12  13
ENDBRANCH   5   7
ENDBRANCH   2   3
ENDBRANCH   1   2
BRANCH   1  72
ATOM     72  C   UNL A   1      36.314  21.397  24.845  1.00  0.00     0.023 C 
BRANCH  72  73
ATOM     73  C   UNL A   1      35.359  21.245  26.021  1.00  0.00     0.116 C 
BRANCH  73  74
ATOM     74  N   UNL A   1      34.103  20.595  25.760  1.00  0.00    -0.351 N 
ATOM     75  C   UNL A   1      32.948  20.968  25.100  1.00  0.00     0.273 C 
ATOM     76  H   UNL A   1      34.056  19.685  26.133  1.00  0.00     0.163 HD
ATOM     77  O   UNL A   1      32.086  20.080  25.099  1.00  0.00    -0.267 OA
BRANCH  75  78
ATOM     78  C   UNL A   1      32.652  22.264  24.437  1.00  0.00     0.178 A 
ATOM     79  N   UNL A   1      31.986  22.174  23.219  1.00  0.00    -0.124 NA
ATOM     80  C   UNL A   1      32.820  23.630  24.708  1.00  0.00     0.122 A 
ATOM     81  N   UNL A   1      31.719  23.382  22.764  1.00  0.00    -0.061 NA
ATOM     82  N   UNL A   1      32.300  24.267  23.586  1.00  0.00    -0.213 N 
BRANCH  80  83
ATOM     83  C   UNL A   1      33.209  24.372  25.949  1.00  0.00     0.262 C 
ATOM     84  C   UNL A   1      31.997  24.475  26.902  1.00  0.00     0.281 C 
ATOM     85  O   UNL A   1      33.870  25.617  25.687  1.00  0.00    -0.477 OA
ATOM     86  O   UNL A   1      31.163  25.587  26.583  1.00  0.00    -0.485 OA
ATOM     87  C   UNL A   1      33.285  26.697  26.301  1.00  0.00     0.162 A 
ATOM     88  C   UNL A   1      31.942  26.708  26.683  1.00  0.00     0.161 A 
ATOM     89  C   UNL A   1      34.062  27.835  26.485  1.00  0.00     0.050 A 
ATOM     90  C   UNL A   1      31.348  27.859  27.182  1.00  0.00     0.050 A 
ATOM     91  C   UNL A   1      33.485  28.980  27.038  1.00  0.00     0.004 A 
ATOM     92  C   UNL A   1      32.127  28.998  27.370  1.00  0.00     0.004 A 
ENDBRANCH  80  83
BRANCH  82  93
ATOM     93  C   UNL A   1      32.342  25.625  23.226  1.00  0.00     0.067 A 
ATOM     94  C   UNL A   1      33.482  26.138  22.601  1.00  0.00     0.028 A 
ATOM     95  C   UNL A   1      31.194  26.409  23.396  1.00  0.00     0.041 A 
ATOM     96  C   UNL A   1      33.430  27.417  22.048  1.00  0.00     0.003 A 
ATOM     97  C   UNL A   1      31.149  27.704  22.863  1.00  0.00     0.058 A 
ATOM     98  C   UNL A   1      32.268  28.188  22.165  1.00  0.00     0.013 A 
BRANCH  97  99
ATOM     99  C   UNL A   1      29.895  28.533  22.963  1.00  0.00     0.416 C 
ATOM    100  F   UNL A   1      29.960  29.471  23.949  1.00  0.00    -0.166 F 
ATOM    101  F   UNL A   1      29.624  29.218  21.816  1.00  0.00    -0.166 F 
ATOM    102  F   UNL A   1      28.778  27.798  23.228  1.00  0.00    -0.166 F 
ENDBRANCH  97  99
ENDBRANCH  82  93
ENDBRANCH  75  78
ENDBRANCH  73  74
ENDBRANCH  72  73
ENDBRANCH   1  72
TORSDOF 17
ENDMDL
MODEL 2
REMARK VINA RESULT:     -13.4      3.320      8.864
REMARK SMILES O=C(NCCCCNC(=O)c1nnn(-c2cccc(C(F)(F)F)c2)c1[C@@H]1COc2ccccc2O1)c1ccc(-c2c3nc(c(-c4cccc(S(=O)(=O)[O-])c4F)c4ccc([nH]4)c(-c4cccc(S(=O)(=O)[O-])c4F)c4nc(c(-c5cccc(S(=O)(=O)[O-])c5F)c5ccc2[nH]5)C=C4)C=C3)cc1
REMARK SMILES IDX 5 1 4 2 3 3 1 4 2 5 36 7 37 8 98 9 38 10 97 11 39 12 40 13
REMARK SMILES IDX 41 14 91 15 42 16 96 17 90 18 92 19 43 20 95 21 89 22 88 23
REMARK SMILES IDX 44 25 76 26 56 27 75 28 57 29 60 30 74 31 93 32 58 33 59 34
REMARK SMILES IDX 73 36 94 37 61 38 45 39 46 40 54 41 47 42 49 43 55 44 48 45
REMARK SMILES IDX 50 46 51 47 52 48 53 49 77 50 78 51 86 52 79 53 81 54 87 55
REMARK SMILES IDX 80 56 82 57 83 58 84 59 85 60 62 61 63 62 71 63 64 64 66 65
REMARK SMILES IDX 72 66 65 67 67 68 68 69 69 70 70 71 6 72 7 73 8 74 9 75
REMARK SMILES IDX 10 77 11 78 12 79 25 80 13 81 14 82 26 83 27 84 35 85 28 86
REMARK SMILES IDX 34 87 29 88 33 89 30 90 32 91 31 92 15 93 16 94 24 95 17 96
REMARK SMILES IDX 19 97 18 98 20 99 21 100 22 101 23 102
REMARK H PARENT 3 6 92 24 60 35 8 76
REMARK Flexibility Score: inf
ROOT
ATOM      1  C   UNL A   1      33.554  29.149  26.505  1.00  0.00     0.023 C 
ENDROOT
BRANCH   1   2
ATOM      2  C   UNL A   1      33.498  29.858  27.864  1.00  0.00     0.116 C 
BRANCH   2   3
ATOM      3  N   UNL A   1      34.035  31.207  27.882  1.00  0.00    -0.352 N 
ATOM      4  O   UNL A   1      35.341  32.965  27.659  1.00  0.00    -0.269 OA
ATOM      5  C   UNL A   1      35.296  31.747  27.861  1.00  0.00     0.251 C 
ATOM      6  H   UNL A   1      33.331  31.893  27.918  1.00  0.00     0.163 HD
BRANCH   5   7
ATOM      7  C   UNL A   1      36.569  31.008  28.099  1.00  0.00     0.039 A 
ATOM      8  C   UNL A   1      36.855  29.728  27.628  1.00  0.00     0.014 A 
ATOM      9  C   UNL A   1      37.529  31.648  28.911  1.00  0.00     0.014 A 
ATOM     10  C   UNL A   1      38.033  29.081  27.999  1.00  0.00     0.010 A 
ATOM     11  C   UNL A   1      38.716  31.010  29.274  1.00  0.00     0.010 A 
ATOM     12  C   UNL A   1      38.955  29.711  28.837  1.00  0.00    -0.014 A 
BRANCH  12  13
ATOM     13  C   UNL A   1      40.185  28.983  29.147  1.00  0.00     0.031 A 
ATOM     14  C   UNL A   1      40.415  28.661  30.587  1.00  0.00     0.074 A 
ATOM     15  C   UNL A   1      41.044  28.511  28.222  1.00  0.00     0.049 A 
ATOM     16  N   UNL A   1      41.381  29.054  31.354  1.00  0.00    -0.248 NA
ATOM     17  C   UNL A   1      39.399  27.846  31.268  1.00  0.00     0.031 C 
ATOM     18  C   UNL A   1      40.843  28.418  26.775  1.00  0.00     0.029 A 
ATOM     19  N   UNL A   1      42.242  27.884  28.416  1.00  0.00    -0.354 N 
ATOM     20  C   UNL A   1      41.201  28.387  32.568  1.00  0.00     0.074 A 
ATOM     21  C   UNL A   1      39.908  27.755  32.497  1.00  0.00     0.031 C 
ATOM     22  C   UNL A   1      41.754  27.562  26.260  1.00  0.00     0.029 A 
ATOM     23  C   UNL A   1      42.676  27.166  27.311  1.00  0.00     0.049 A 
ATOM     24  H   UNL A   1      42.749  27.937  29.258  1.00  0.00     0.167 HD
ATOM     25  C   UNL A   1      42.197  28.256  33.488  1.00  0.00     0.034 A 
ATOM     26  C   UNL A   1      43.671  26.248  27.284  1.00  0.00     0.034 A 
ATOM     27  C   UNL A   1      43.298  29.141  33.233  1.00  0.00     0.049 A 
ATOM     28  C   UNL A   1      44.538  26.474  28.461  1.00  0.00     0.074 A 
ATOM     29  C   UNL A   1      43.478  30.507  33.169  1.00  0.00     0.029 A 
ATOM     30  N   UNL A   1      44.437  28.584  32.710  1.00  0.00    -0.354 N 
ATOM     31  N   UNL A   1      45.310  27.513  28.615  1.00  0.00    -0.248 NA
ATOM     32  C   UNL A   1      44.312  25.678  29.656  1.00  0.00     0.031 C 
ATOM     33  C   UNL A   1      44.506  30.698  32.201  1.00  0.00     0.029 A 
ATOM     34  C   UNL A   1      44.891  29.436  31.743  1.00  0.00     0.049 A 
ATOM     35  H   UNL A   1      44.849  27.731  32.979  1.00  0.00     0.167 HD
ATOM     36  C   UNL A   1      45.320  27.739  29.984  1.00  0.00     0.074 A 
ATOM     37  C   UNL A   1      44.810  26.508  30.574  1.00  0.00     0.031 C 
ATOM     38  C   UNL A   1      45.467  28.999  30.490  1.00  0.00     0.034 A 
BRANCH  25  39
ATOM     39  C   UNL A   1      42.344  27.122  34.477  1.00  0.00     0.023 A 
ATOM     40  C   UNL A   1      41.911  27.352  35.806  1.00  0.00     0.012 A 
ATOM     41  C   UNL A   1      43.127  25.970  34.250  1.00  0.00     0.148 A 
ATOM     42  C   UNL A   1      42.280  26.510  36.859  1.00  0.00     0.002 A 
ATOM     43  C   UNL A   1      43.425  25.092  35.289  1.00  0.00     0.091 A 
ATOM     44  F   UNL A   1      43.703  25.778  33.059  1.00  0.00    -0.205 F 
ATOM     45  C   UNL A   1      43.033  25.372  36.600  1.00  0.00     0.022 A 
BRANCH  43  46
ATOM     46  S   UNL A   1      44.336  23.574  34.985  1.00  0.00     0.127 S 
ATOM     47  O   UNL A   1      44.527  23.071  36.348  1.00  0.00    -0.237 OA
ATOM     48  O   UNL A   1      43.383  22.804  34.177  1.00  0.00    -0.237 OA
ATOM     49  O   UNL A   1      45.527  23.982  34.270  1.00  0.00    -0.744 OA
ENDBRANCH  43  46
ENDBRANCH  25  39
BRANCH  26  50
ATOM     50  C   UNL A   1      43.802  25.042  26.437  1.00  0.00     0.023 A 
ATOM     51  C   UNL A   1      44.944  24.873  25.631  1.00  0.00     0.012 A 
ATOM     52  C   UNL A   1      42.940  23.937  26.614  1.00  0.00     0.148 A 
ATOM     53  C   UNL A   1      45.231  23.638  25.039  1.00  0.00     0.002 A 
ATOM     54  C   UNL A   1      43.222  22.714  26.015  1.00  0.00     0.091 A 
ATOM     55  F   UNL A   1      41.896  24.060  27.446  1.00  0.00    -0.205 F 
ATOM     56  C   UNL A   1      44.374  22.558  25.234  1.00  0.00     0.022 A 
BRANCH  54  57
ATOM     57  S   UNL A   1      42.166  21.276  26.236  1.00  0.00     0.127 S 
ATOM     58  O   UNL A   1      42.816  20.287  25.375  1.00  0.00    -0.237 OA
ATOM     59  O   UNL A   1      42.298  21.022  27.669  1.00  0.00    -0.237 OA
ATOM     60  O   UNL A   1      40.843  21.682  25.783  1.00  0.00    -0.744 OA
ENDBRANCH  54  57
ENDBRANCH  26  50
BRANCH  38  61
ATOM     61  C   UNL A   1      45.939  30.097  29.571  1.00  0.00     0.023 A 
ATOM     62  C   UNL A   1      47.310  30.367  29.387  1.00  0.00     0.012 A 
ATOM     63  C   UNL A   1      45.002  30.709  28.721  1.00  0.00     0.148 A 
ATOM     64  C   UNL A   1      47.736  31.243  28.385  1.00  0.00     0.002 A 
ATOM     65  C   UNL A   1      45.433  31.538  27.692  1.00  0.00     0.091 A 
ATOM     66  F   UNL A   1      43.701  30.433  28.905  1.00  0.00    -0.205 F 
ATOM     67  C   UNL A   1      46.800  31.815  27.529  1.00  0.00     0.022 A 
BRANCH  65  68
ATOM     68  S   UNL A   1      44.299  32.181  26.459  1.00  0.00     0.127 S 
ATOM     69  O   UNL A   1      43.683  33.304  27.164  1.00  0.00    -0.237 OA
ATOM     70  O   UNL A   1      45.203  32.563  25.372  1.00  0.00    -0.237 OA
ATOM     71  O   UNL A   1      43.402  31.082  26.125  1.00  0.00    -0.744 OA
ENDBRANCH  65  68
ENDBRANCH  38  61
ENDBRANCH  12  13
ENDBRANCH   5   7
ENDBRANCH   2   3
ENDBRANCH   1   2
BRANCH   1  72
ATOM     72  C   UNL A   1      32.919  29.882  25.329  1.00  0.00     0.023 C 
BRANCH  72  73
ATOM     73  C   UNL A   1      31.424  29.694  25.110  1.00  0.00     0.116 C 
BRANCH  73  74
ATOM     74  N   UNL A   1      31.004  29.286  23.797  1.00  0.00    -0.351 N 
ATOM     75  C   UNL A   1      30.792  28.062  23.193  1.00  0.00     0.273 C 
ATOM     76  H   UNL A   1      30.829  30.047  23.196  1.00  0.00     0.163 HD
ATOM     77  O   UNL A   1      30.413  28.163  22.019  1.00  0.00    -0.267 OA
BRANCH  75  78
ATOM     78  C   UNL A   1      30.975  26.710  23.781  1.00  0.00     0.178 A 
ATOM     79  N   UNL A   1      29.816  25.953  23.912  1.00  0.00    -0.124 NA
ATOM     80  C   UNL A   1      32.035  25.909  24.233  1.00  0.00     0.122 A 
ATOM     81  N   UNL A   1      30.112  24.755  24.377  1.00  0.00    -0.061 NA
ATOM     82  N   UNL A   1      31.418  24.744  24.674  1.00  0.00    -0.213 N 
BRANCH  80  83
ATOM     83  C   UNL A   1      33.522  26.038  24.103  1.00  0.00     0.262 C 
ATOM     84  C   UNL A   1      33.965  25.618  22.683  1.00  0.00     0.281 C 
ATOM     85  O   UNL A   1      34.245  25.401  25.166  1.00  0.00    -0.477 OA
ATOM     86  O   UNL A   1      34.147  24.208  22.579  1.00  0.00    -0.485 OA
ATOM     87  C   UNL A   1      35.184  24.497  24.736  1.00  0.00     0.162 A 
ATOM     88  C   UNL A   1      35.103  23.863  23.494  1.00  0.00     0.161 A 
ATOM     89  C   UNL A   1      36.212  24.168  25.611  1.00  0.00     0.050 A 
ATOM     90  C   UNL A   1      35.995  22.858  23.143  1.00  0.00     0.050 A 
ATOM     91  C   UNL A   1      37.146  23.198  25.242  1.00  0.00     0.004 A 
ATOM     92  C   UNL A   1      37.028  22.531  24.018  1.00  0.00     0.004 A 
ENDBRANCH  80  83
BRANCH  82  93
ATOM     93  C   UNL A   1      31.962  23.652  25.373  1.00  0.00     0.067 A 
ATOM     94  C   UNL A   1      32.125  23.733  26.759  1.00  0.00     0.028 A 
ATOM     95  C   UNL A   1      32.219  22.462  24.682  1.00  0.00     0.041 A 
ATOM     96  C   UNL A   1      32.449  22.577  27.468  1.00  0.00     0.003 A 
ATOM     97  C   UNL A   1      32.568  21.305  25.391  1.00  0.00     0.058 A 
ATOM     98  C   UNL A   1      32.655  21.370  26.792  1.00  0.00     0.013 A 
BRANCH  97  99
ATOM     99  C   UNL A   1      32.768  19.995  24.674  1.00  0.00     0.416 C 
ATOM    100  F   UNL A   1      32.160  19.963  23.456  1.00  0.00    -0.166 F 
ATOM    101  F   UNL A   1      34.082  19.718  24.441  1.00  0.00    -0.166 F 
ATOM    102  F   UNL A   1      32.279  18.922  25.358  1.00  0.00    -0.166 F 
ENDBRANCH  97  99
ENDBRANCH  82  93
ENDBRANCH  75  78
ENDBRANCH  73  74
ENDBRANCH  72  73
ENDBRANCH   1  72
TORSDOF 17
ENDMDL
MODEL 3
REMARK VINA RESULT:     -13.2      3.834      9.052
REMARK SMILES O=C(NCCCCNC(=O)c1nnn(-c2cccc(C(F)(F)F)c2)c1[C@@H]1COc2ccccc2O1)c1ccc(-c2c3nc(c(-c4cccc(S(=O)(=O)[O-])c4F)c4ccc([nH]4)c(-c4cccc(S(=O)(=O)[O-])c4F)c4nc(c(-c5cccc(S(=O)(=O)[O-])c5F)c5ccc2[nH]5)C=C4)C=C3)cc1
REMARK SMILES IDX 5 1 4 2 3 3 1 4 2 5 36 7 37 8 98 9 38 10 97 11 39 12 40 13
REMARK SMILES IDX 41 14 91 15 42 16 96 17 90 18 92 19 43 20 95 21 89 22 88 23
REMARK SMILES IDX 44 25 76 26 56 27 75 28 57 29 60 30 74 31 93 32 58 33 59 34
REMARK SMILES IDX 73 36 94 37 61 38 45 39 46 40 54 41 47 42 49 43 55 44 48 45
REMARK SMILES IDX 50 46 51 47 52 48 53 49 77 50 78 51 86 52 79 53 81 54 87 55
REMARK SMILES IDX 80 56 82 57 83 58 84 59 85 60 62 61 63 62 71 63 64 64 66 65
REMARK SMILES IDX 72 66 65 67 67 68 68 69 69 70 70 71 6 72 7 73 8 74 9 75
REMARK SMILES IDX 10 77 11 78 12 79 25 80 13 81 14 82 26 83 27 84 35 85 28 86
REMARK SMILES IDX 34 87 29 88 33 89 30 90 32 91 31 92 15 93 16 94 24 95 17 96
REMARK SMILES IDX 19 97 18 98 20 99 21 100 22 101 23 102
REMARK H PARENT 3 6 92 24 60 35 8 76
REMARK Flexibility Score: inf
ROOT
ATOM      1  C   UNL A   1      33.779  28.625  26.283  1.00  0.00     0.023 C 
ENDROOT
BRANCH   1   2
ATOM      2  C   UNL A   1      33.185  29.166  27.589  1.00  0.00     0.116 C 
BRANCH   2   3
ATOM      3  N   UNL A   1      33.656  30.480  27.986  1.00  0.00    -0.352 N 
ATOM      4  O   UNL A   1      34.911  32.245  28.384  1.00  0.00    -0.269 OA
ATOM      5  C   UNL A   1      34.876  31.012  28.320  1.00  0.00     0.251 C 
ATOM      6  H   UNL A   1      32.932  31.145  28.025  1.00  0.00     0.163 HD
BRANCH   5   7
ATOM      7  C   UNL A   1      36.109  30.238  28.643  1.00  0.00     0.039 A 
ATOM      8  C   UNL A   1      36.367  29.606  29.858  1.00  0.00     0.014 A 
ATOM      9  C   UNL A   1      37.106  30.195  27.646  1.00  0.00     0.014 A 
ATOM     10  C   UNL A   1      37.599  29.001  30.096  1.00  0.00     0.010 A 
ATOM     11  C   UNL A   1      38.336  29.577  27.875  1.00  0.00     0.010 A 
ATOM     12  C   UNL A   1      38.593  29.001  29.115  1.00  0.00    -0.014 A 
BRANCH  12  13
ATOM     13  C   UNL A   1      39.843  28.309  29.425  1.00  0.00     0.031 A 
ATOM     14  C   UNL A   1      40.313  28.402  30.840  1.00  0.00     0.074 A 
ATOM     15  C   UNL A   1      40.517  27.529  28.558  1.00  0.00     0.049 A 
ATOM     16  N   UNL A   1      41.406  28.931  31.290  1.00  0.00    -0.248 NA
ATOM     17  C   UNL A   1      39.415  27.894  31.886  1.00  0.00     0.031 C 
ATOM     18  C   UNL A   1      40.065  27.036  27.256  1.00  0.00     0.029 A 
ATOM     19  N   UNL A   1      41.717  26.901  28.735  1.00  0.00    -0.354 N 
ATOM     20  C   UNL A   1      41.427  28.659  32.660  1.00  0.00     0.074 A 
ATOM     21  C   UNL A   1      40.128  28.128  32.989  1.00  0.00     0.031 C 
ATOM     22  C   UNL A   1      40.855  26.004  26.880  1.00  0.00     0.029 A 
ATOM     23  C   UNL A   1      41.938  25.865  27.839  1.00  0.00     0.049 A 
ATOM     24  H   UNL A   1      42.364  27.160  29.431  1.00  0.00     0.167 HD
ATOM     25  C   UNL A   1      42.564  28.730  33.405  1.00  0.00     0.034 A 
ATOM     26  C   UNL A   1      42.893  24.910  27.928  1.00  0.00     0.034 A 
ATOM     27  C   UNL A   1      43.622  29.422  32.725  1.00  0.00     0.049 A 
ATOM     28  C   UNL A   1      43.957  25.405  28.829  1.00  0.00     0.074 A 
ATOM     29  C   UNL A   1      43.816  30.694  32.229  1.00  0.00     0.029 A 
ATOM     30  N   UNL A   1      44.641  28.657  32.216  1.00  0.00    -0.354 N 
ATOM     31  N   UNL A   1      44.765  26.386  28.541  1.00  0.00    -0.248 NA
ATOM     32  C   UNL A   1      43.925  25.008  30.227  1.00  0.00     0.031 C 
ATOM     33  C   UNL A   1      44.664  30.523  31.097  1.00  0.00     0.029 A 
ATOM     34  C   UNL A   1      44.937  29.158  30.980  1.00  0.00     0.049 A 
ATOM     35  H   UNL A   1      45.076  27.892  32.657  1.00  0.00     0.167 HD
ATOM     36  C   UNL A   1      45.018  26.998  29.760  1.00  0.00     0.074 A 
ATOM     37  C   UNL A   1      44.593  26.031  30.764  1.00  0.00     0.031 C 
ATOM     38  C   UNL A   1      45.276  28.337  29.838  1.00  0.00     0.034 A 
BRANCH  25  39
ATOM     39  C   UNL A   1      42.858  27.923  34.650  1.00  0.00     0.023 A 
ATOM     40  C   UNL A   1      42.990  28.629  35.871  1.00  0.00     0.012 A 
ATOM     41  C   UNL A   1      43.284  26.577  34.640  1.00  0.00     0.148 A 
ATOM     42  C   UNL A   1      43.562  28.043  37.004  1.00  0.00     0.002 A 
ATOM     43  C   UNL A   1      43.780  25.976  35.794  1.00  0.00     0.091 A 
ATOM     44  F   UNL A   1      43.340  25.904  33.486  1.00  0.00    -0.205 F 
ATOM     45  C   UNL A   1      43.951  26.710  36.969  1.00  0.00     0.022 A 
BRANCH  43  46
ATOM     46  S   UNL A   1      44.229  24.236  35.810  1.00  0.00     0.127 S 
ATOM     47  O   UNL A   1      45.323  24.210  34.835  1.00  0.00    -0.237 OA
ATOM     48  O   UNL A   1      44.648  24.044  37.204  1.00  0.00    -0.237 OA
ATOM     49  O   UNL A   1      43.020  23.527  35.450  1.00  0.00    -0.744 OA
ENDBRANCH  43  46
ENDBRANCH  25  39
BRANCH  26  50
ATOM     50  C   UNL A   1      42.850  23.504  27.469  1.00  0.00     0.023 A 
ATOM     51  C   UNL A   1      41.731  22.704  27.769  1.00  0.00     0.012 A 
ATOM     52  C   UNL A   1      43.780  23.025  26.520  1.00  0.00     0.148 A 
ATOM     53  C   UNL A   1      41.532  21.476  27.128  1.00  0.00     0.002 A 
ATOM     54  C   UNL A   1      43.585  21.799  25.893  1.00  0.00     0.091 A 
ATOM     55  F   UNL A   1      44.804  23.813  26.164  1.00  0.00    -0.205 F 
ATOM     56  C   UNL A   1      42.454  21.025  26.187  1.00  0.00     0.022 A 
BRANCH  54  57
ATOM     57  S   UNL A   1      44.728  21.163  24.660  1.00  0.00     0.127 S 
ATOM     58  O   UNL A   1      44.175  19.836  24.387  1.00  0.00    -0.237 OA
ATOM     59  O   UNL A   1      44.570  22.129  23.575  1.00  0.00    -0.237 OA
ATOM     60  O   UNL A   1      46.035  21.143  25.304  1.00  0.00    -0.744 OA
ENDBRANCH  54  57
ENDBRANCH  26  50
BRANCH  38  61
ATOM     61  C   UNL A   1      45.605  29.085  28.571  1.00  0.00     0.023 A 
ATOM     62  C   UNL A   1      44.595  29.562  27.712  1.00  0.00     0.012 A 
ATOM     63  C   UNL A   1      46.932  29.502  28.365  1.00  0.00     0.148 A 
ATOM     64  C   UNL A   1      44.904  30.424  26.657  1.00  0.00     0.002 A 
ATOM     65  C   UNL A   1      47.227  30.401  27.347  1.00  0.00     0.091 A 
ATOM     66  F   UNL A   1      47.879  29.044  29.199  1.00  0.00    -0.205 F 
ATOM     67  C   UNL A   1      46.216  30.856  26.485  1.00  0.00     0.022 A 
BRANCH  65  68
ATOM     68  S   UNL A   1      48.862  31.119  27.166  1.00  0.00     0.127 S 
ATOM     69  O   UNL A   1      49.571  30.081  26.419  1.00  0.00    -0.237 OA
ATOM     70  O   UNL A   1      48.586  32.339  26.406  1.00  0.00    -0.237 OA
ATOM     71  O   UNL A   1      49.347  31.360  28.519  1.00  0.00    -0.744 OA
ENDBRANCH  65  68
ENDBRANCH  38  61
ENDBRANCH  12  13
ENDBRANCH   5   7
ENDBRANCH   2   3
ENDBRANCH   1   2
BRANCH   1  72
ATOM     72  C   UNL A   1      33.317  29.298  24.996  1.00  0.00     0.023 C 
BRANCH  72  73
ATOM     73  C   UNL A   1      31.825  29.545  24.830  1.00  0.00     0.116 C 
BRANCH  73  74
ATOM     74  N   UNL A   1      31.217  29.071  23.615  1.00  0.00    -0.351 N 
ATOM     75  C   UNL A   1      30.881  27.821  23.133  1.00  0.00     0.273 C 
ATOM     76  H   UNL A   1      30.990  29.797  22.990  1.00  0.00     0.163 HD
ATOM     77  O   UNL A   1      30.352  27.861  22.016  1.00  0.00    -0.267 OA
BRANCH  75  78
ATOM     78  C   UNL A   1      31.092  26.503  23.787  1.00  0.00     0.178 A 
ATOM     79  N   UNL A   1      29.940  25.755  24.009  1.00  0.00    -0.124 NA
ATOM     80  C   UNL A   1      32.172  25.729  24.237  1.00  0.00     0.122 A 
ATOM     81  N   UNL A   1      30.259  24.585  24.526  1.00  0.00    -0.061 NA
ATOM     82  N   UNL A   1      31.577  24.590  24.768  1.00  0.00    -0.213 N 
BRANCH  80  83
ATOM     83  C   UNL A   1      33.652  25.849  24.038  1.00  0.00     0.262 C 
ATOM     84  C   UNL A   1      34.039  25.322  22.638  1.00  0.00     0.281 C 
ATOM     85  O   UNL A   1      34.420  25.299  25.117  1.00  0.00    -0.477 OA
ATOM     86  O   UNL A   1      34.224  23.908  22.636  1.00  0.00    -0.485 OA
ATOM     87  C   UNL A   1      35.345  24.366  24.721  1.00  0.00     0.162 A 
ATOM     88  C   UNL A   1      35.218  23.637  23.536  1.00  0.00     0.161 A 
ATOM     89  C   UNL A   1      36.410  24.108  25.576  1.00  0.00     0.050 A 
ATOM     90  C   UNL A   1      36.100  22.610  23.228  1.00  0.00     0.050 A 
ATOM     91  C   UNL A   1      37.333  23.114  25.246  1.00  0.00     0.004 A 
ATOM     92  C   UNL A   1      37.169  22.354  24.083  1.00  0.00     0.004 A 
ENDBRANCH  80  83
BRANCH  82  93
ATOM     93  C   UNL A   1      32.152  23.538  25.503  1.00  0.00     0.067 A 
ATOM     94  C   UNL A   1      32.363  23.692  26.876  1.00  0.00     0.028 A 
ATOM     95  C   UNL A   1      32.391  22.315  24.866  1.00  0.00     0.041 A 
ATOM     96  C   UNL A   1      32.720  22.576  27.632  1.00  0.00     0.003 A 
ATOM     97  C   UNL A   1      32.773  21.198  25.621  1.00  0.00     0.058 A 
ATOM     98  C   UNL A   1      32.909  21.336  27.013  1.00  0.00     0.013 A 
BRANCH  97  99
ATOM     99  C   UNL A   1      32.956  19.853  24.967  1.00  0.00     0.416 C 
ATOM    100  F   UNL A   1      32.573  18.821  25.769  1.00  0.00    -0.166 F 
ATOM    101  F   UNL A   1      32.230  19.722  23.822  1.00  0.00    -0.166 F 
ATOM    102  F   UNL A   1      34.247  19.589  24.619  1.00  0.00    -0.166 F 
ENDBRANCH  97  99
ENDBRANCH  82  93
ENDBRANCH  75  78
ENDBRANCH  73  74
ENDBRANCH  72  73
ENDBRANCH   1  72
TORSDOF 17
ENDMDL
