MODEL 1
REMARK VINA RESULT:     -12.8      0.000      0.000
REMARK SMILES CC(C)=CCc1cccc2c(C(=O)NCCCCNC(=O)c3ccc(-c4c5nc(c(-c6cccc(S(=O)(=O)[O-])c6F)c6ccc([nH]6)c(-c6cccc(S(=O)(=O)[O-])c6F)c6nc(c(-c7cccc(S(=O)(=O)[O-])c7F)c7ccc4[nH]7)C=C6)C=C5)cc3)c[nH]c12
REMARK SMILES IDX 17 1 16 2 15 3 14 4 12 5 13 6 11 8 6 9 7 10 87 11 8 12 10 13
REMARK SMILES IDX 86 14 9 15 85 16 5 18 4 19 1 20 2 21 3 22 18 23 19 24 20 25
REMARK SMILES IDX 21 27 22 28 23 29 84 30 24 31 83 32 25 33 26 34 27 35 77 36
REMARK SMILES IDX 28 37 82 38 76 39 78 40 29 41 81 42 75 43 74 44 30 46 62 47
REMARK SMILES IDX 42 48 61 49 43 50 46 51 60 52 79 53 44 54 45 55 59 57 80 58
REMARK SMILES IDX 47 59 31 60 32 61 40 62 33 63 35 64 41 65 34 66 36 67 37 68
REMARK SMILES IDX 38 69 39 70 63 71 64 72 72 73 65 74 67 75 73 76 66 77 68 78
REMARK SMILES IDX 69 79 70 80 71 81 48 82 49 83 57 84 50 85 52 86 58 87 51 88
REMARK SMILES IDX 53 89 54 90 55 91 56 92
REMARK H PARENT 14 7 86 17 19 26 78 45 46 56
REMARK Flexibility Score: inf
ROOT
ATOM      1  C   UNL A   1      32.691  29.429  25.789  1.00  0.00     0.023 C 
ENDROOT
BRANCH   1   2
ATOM      2  C   UNL A   1      33.914  28.575  25.463  1.00  0.00     0.023 C 
BRANCH   2   3
ATOM      3  C   UNL A   1      33.672  27.086  25.253  1.00  0.00     0.116 C 
BRANCH   3   4
ATOM      4  N   UNL A   1      33.924  26.596  23.915  1.00  0.00    -0.352 N 
ATOM      5  C   UNL A   1      33.258  26.866  22.742  1.00  0.00     0.253 C 
ATOM      6  O   UNL A   1      33.663  26.311  21.718  1.00  0.00    -0.269 OA
ATOM      7  H   UNL A   1      34.687  25.979  23.832  1.00  0.00     0.163 HD
BRANCH   5   8
ATOM      8  C   UNL A   1      32.052  27.699  22.720  1.00  0.00     0.065 A 
ATOM      9  C   UNL A   1      28.533  28.663  22.923  1.00  0.00    -0.020 A 
ATOM     10  C   UNL A   1      27.914  27.548  23.519  1.00  0.00     0.006 A 
ATOM     11  C   UNL A   1      29.933  28.585  22.759  1.00  0.00     0.050 A 
ATOM     12  C   UNL A   1      28.652  26.482  24.018  1.00  0.00     0.001 A 
ATOM     13  C   UNL A   1      30.702  27.489  23.175  1.00  0.00     0.012 A 
ATOM     14  N   UNL A   1      30.812  29.497  22.222  1.00  0.00    -0.360 N 
ATOM     15  C   UNL A   1      30.040  26.470  23.894  1.00  0.00     0.011 A 
ATOM     16  C   UNL A   1      32.076  28.988  22.206  1.00  0.00     0.097 A 
ATOM     17  H   UNL A   1      30.563  30.392  21.894  1.00  0.00     0.166 HD
BRANCH   9  18
ATOM     18  C   UNL A   1      27.689  29.845  22.508  1.00  0.00     0.065 C 
BRANCH  18  19
ATOM     19  C   UNL A   1      28.197  31.154  23.049  1.00  0.00    -0.024 C 
ATOM     20  C   UNL A   1      28.076  32.444  20.897  1.00  0.00     0.039 C 
ATOM     21  C   UNL A   1      28.358  32.307  22.367  1.00  0.00    -0.080 C 
ATOM     22  C   UNL A   1      28.863  33.533  23.079  1.00  0.00     0.039 C 
ENDBRANCH  18  19
ENDBRANCH   9  18
ENDBRANCH   5   8
ENDBRANCH   3   4
ENDBRANCH   2   3
ENDBRANCH   1   2
BRANCH   1  23
ATOM     23  C   UNL A   1      32.602  30.000  27.201  1.00  0.00     0.116 C 
BRANCH  23  24
ATOM     24  N   UNL A   1      32.753  31.448  27.274  1.00  0.00    -0.352 N 
ATOM     25  C   UNL A   1      33.834  32.211  27.654  1.00  0.00     0.251 C 
ATOM     26  H   UNL A   1      31.956  31.961  27.011  1.00  0.00     0.163 HD
ATOM     27  O   UNL A   1      33.731  33.436  27.691  1.00  0.00    -0.269 OA
BRANCH  25  28
ATOM     28  C   UNL A   1      35.101  31.566  28.068  1.00  0.00     0.039 A 
ATOM     29  C   UNL A   1      36.244  32.359  28.210  1.00  0.00     0.014 A 
ATOM     30  C   UNL A   1      35.161  30.201  28.352  1.00  0.00     0.014 A 
ATOM     31  C   UNL A   1      37.412  31.805  28.741  1.00  0.00     0.010 A 
ATOM     32  C   UNL A   1      36.296  29.672  28.965  1.00  0.00     0.010 A 
ATOM     33  C   UNL A   1      37.430  30.470  29.178  1.00  0.00    -0.014 A 
BRANCH  33  34
ATOM     34  C   UNL A   1      38.601  29.909  29.908  1.00  0.00     0.031 A 
ATOM     35  C   UNL A   1      38.960  30.408  31.282  1.00  0.00     0.074 A 
ATOM     36  C   UNL A   1      39.407  29.024  29.286  1.00  0.00     0.049 A 
ATOM     37  N   UNL A   1      39.975  30.077  32.038  1.00  0.00    -0.248 NA
ATOM     38  C   UNL A   1      38.085  31.433  31.872  1.00  0.00     0.031 C 
ATOM     39  C   UNL A   1      39.230  28.535  27.916  1.00  0.00     0.029 A 
ATOM     40  N   UNL A   1      40.553  28.399  29.713  1.00  0.00    -0.354 N 
ATOM     41  C   UNL A   1      39.884  30.878  33.170  1.00  0.00     0.074 A 
ATOM     42  C   UNL A   1      38.734  31.736  32.987  1.00  0.00     0.031 C 
ATOM     43  C   UNL A   1      40.224  27.682  27.620  1.00  0.00     0.029 A 
ATOM     44  C   UNL A   1      41.123  27.581  28.765  1.00  0.00     0.049 A 
ATOM     45  H   UNL A   1      40.930  28.524  30.614  1.00  0.00     0.167 HD
ATOM     46  C   UNL A   1      40.665  30.878  34.278  1.00  0.00     0.034 A 
ATOM     47  C   UNL A   1      42.244  26.833  28.809  1.00  0.00     0.034 A 
ATOM     48  C   UNL A   1      41.773  29.986  34.485  1.00  0.00     0.049 A 
ATOM     49  C   UNL A   1      43.055  26.802  30.076  1.00  0.00     0.074 A 
ATOM     50  C   UNL A   1      42.556  29.836  35.616  1.00  0.00     0.029 A 
ATOM     51  N   UNL A   1      42.259  29.094  33.542  1.00  0.00    -0.354 N 
ATOM     52  N   UNL A   1      42.844  27.434  31.205  1.00  0.00    -0.248 NA
ATOM     53  C   UNL A   1      44.234  25.925  30.090  1.00  0.00     0.031 C 
ATOM     54  C   UNL A   1      43.526  28.862  35.351  1.00  0.00     0.029 A 
ATOM     55  C   UNL A   1      43.336  28.395  34.060  1.00  0.00     0.049 A 
ATOM     56  H   UNL A   1      41.893  28.976  32.636  1.00  0.00     0.167 HD
ATOM     57  C   UNL A   1      43.845  27.009  32.071  1.00  0.00     0.074 A 
ATOM     58  C   UNL A   1      44.645  26.045  31.345  1.00  0.00     0.031 C 
ATOM     59  C   UNL A   1      44.092  27.399  33.347  1.00  0.00     0.034 A 
BRANCH  46  60
ATOM     60  C   UNL A   1      40.300  31.828  35.389  1.00  0.00     0.023 A 
ATOM     61  C   UNL A   1      41.012  33.038  35.524  1.00  0.00     0.012 A 
ATOM     62  C   UNL A   1      39.223  31.562  36.256  1.00  0.00     0.148 A 
ATOM     63  C   UNL A   1      40.682  33.950  36.524  1.00  0.00     0.002 A 
ATOM     64  C   UNL A   1      38.872  32.496  37.224  1.00  0.00     0.091 A 
ATOM     65  F   UNL A   1      38.570  30.397  36.126  1.00  0.00    -0.205 F 
ATOM     66  C   UNL A   1      39.607  33.684  37.367  1.00  0.00     0.022 A 
BRANCH  64  67
ATOM     67  S   UNL A   1      37.455  32.283  38.308  1.00  0.00     0.127 S 
ATOM     68  O   UNL A   1      37.291  30.829  38.298  1.00  0.00    -0.237 OA
ATOM     69  O   UNL A   1      37.948  32.831  39.571  1.00  0.00    -0.237 OA
ATOM     70  O   UNL A   1      36.370  33.039  37.701  1.00  0.00    -0.744 OA
ENDBRANCH  64  67
ENDBRANCH  46  60
BRANCH  47  71
ATOM     71  C   UNL A   1      42.622  25.988  27.640  1.00  0.00     0.023 A 
ATOM     72  C   UNL A   1      43.495  26.514  26.667  1.00  0.00     0.012 A 
ATOM     73  C   UNL A   1      42.153  24.668  27.499  1.00  0.00     0.148 A 
ATOM     74  C   UNL A   1      43.868  25.752  25.559  1.00  0.00     0.002 A 
ATOM     75  C   UNL A   1      42.572  23.896  26.421  1.00  0.00     0.091 A 
ATOM     76  F   UNL A   1      41.312  24.190  28.428  1.00  0.00    -0.205 F 
ATOM     77  C   UNL A   1      43.415  24.441  25.441  1.00  0.00     0.022 A 
BRANCH  75  78
ATOM     78  S   UNL A   1      42.144  22.158  26.263  1.00  0.00     0.127 S 
ATOM     79  O   UNL A   1      40.699  22.222  26.067  1.00  0.00    -0.237 OA
ATOM     80  O   UNL A   1      42.910  21.763  25.079  1.00  0.00    -0.237 OA
ATOM     81  O   UNL A   1      42.593  21.533  27.499  1.00  0.00    -0.744 OA
ENDBRANCH  75  78
ENDBRANCH  47  71
BRANCH  59  82
ATOM     82  C   UNL A   1      45.262  26.767  34.054  1.00  0.00     0.023 A 
ATOM     83  C   UNL A   1      46.536  27.363  33.963  1.00  0.00     0.012 A 
ATOM     84  C   UNL A   1      45.089  25.627  34.862  1.00  0.00     0.148 A 
ATOM     85  C   UNL A   1      47.626  26.815  34.638  1.00  0.00     0.002 A 
ATOM     86  C   UNL A   1      46.171  25.113  35.569  1.00  0.00     0.091 A 
ATOM     87  F   UNL A   1      43.875  25.060  34.921  1.00  0.00    -0.205 F 
ATOM     88  C   UNL A   1      47.441  25.698  35.450  1.00  0.00     0.022 A 
BRANCH  86  89
ATOM     89  S   UNL A   1      46.002  23.735  36.711  1.00  0.00     0.127 S 
ATOM     90  O   UNL A   1      47.392  23.491  37.091  1.00  0.00    -0.237 OA
ATOM     91  O   UNL A   1      45.171  24.304  37.771  1.00  0.00    -0.237 OA
ATOM     92  O   UNL A   1      45.361  22.667  35.953  1.00  0.00    -0.744 OA
ENDBRANCH  86  89
ENDBRANCH  59  82
ENDBRANCH  33  34
ENDBRANCH  25  28
ENDBRANCH  23  24
ENDBRANCH   1  23
TORSDOF 16
ENDMDL
MODEL 2
REMARK VINA RESULT:     -12.7      1.557      3.210
REMARK SMILES CC(C)=CCc1cccc2c(C(=O)NCCCCNC(=O)c3ccc(-c4c5nc(c(-c6cccc(S(=O)(=O)[O-])c6F)c6ccc([nH]6)c(-c6cccc(S(=O)(=O)[O-])c6F)c6nc(c(-c7cccc(S(=O)(=O)[O-])c7F)c7ccc4[nH]7)C=C6)C=C5)cc3)c[nH]c12
REMARK SMILES IDX 17 1 16 2 15 3 14 4 12 5 13 6 11 8 6 9 7 10 87 11 8 12 10 13
REMARK SMILES IDX 86 14 9 15 85 16 5 18 4 19 1 20 2 21 3 22 18 23 19 24 20 25
REMARK SMILES IDX 21 27 22 28 23 29 84 30 24 31 83 32 25 33 26 34 27 35 77 36
REMARK SMILES IDX 28 37 82 38 76 39 78 40 29 41 81 42 75 43 74 44 30 46 62 47
REMARK SMILES IDX 42 48 61 49 43 50 46 51 60 52 79 53 44 54 45 55 59 57 80 58
REMARK SMILES IDX 47 59 31 60 32 61 40 62 33 63 35 64 41 65 34 66 36 67 37 68
REMARK SMILES IDX 38 69 39 70 63 71 64 72 72 73 65 74 67 75 73 76 66 77 68 78
REMARK SMILES IDX 69 79 70 80 71 81 48 82 49 83 57 84 50 85 52 86 58 87 51 88
REMARK SMILES IDX 53 89 54 90 55 91 56 92
REMARK H PARENT 14 7 86 17 19 26 78 45 46 56
REMARK Flexibility Score: inf
ROOT
ATOM      1  C   UNL A   1      32.269  29.698  25.452  1.00  0.00     0.023 C 
ENDROOT
BRANCH   1   2
ATOM      2  C   UNL A   1      33.378  28.968  24.695  1.00  0.00     0.023 C 
BRANCH   2   3
ATOM      3  C   UNL A   1      33.279  28.966  23.175  1.00  0.00     0.116 C 
BRANCH   3   4
ATOM      4  N   UNL A   1      31.953  29.176  22.636  1.00  0.00    -0.352 N 
ATOM      5  C   UNL A   1      30.956  28.264  22.376  1.00  0.00     0.253 C 
ATOM      6  O   UNL A   1      29.903  28.694  21.901  1.00  0.00    -0.269 OA
ATOM      7  H   UNL A   1      31.730  30.112  22.426  1.00  0.00     0.163 HD
BRANCH   5   8
ATOM      8  C   UNL A   1      31.169  26.825  22.558  1.00  0.00     0.065 A 
ATOM      9  C   UNL A   1      31.526  23.581  24.202  1.00  0.00    -0.020 A 
ATOM     10  C   UNL A   1      31.033  23.808  25.502  1.00  0.00     0.006 A 
ATOM     11  C   UNL A   1      31.467  24.676  23.313  1.00  0.00     0.050 A 
ATOM     12  C   UNL A   1      30.423  25.005  25.853  1.00  0.00     0.001 A 
ATOM     13  C   UNL A   1      30.933  25.925  23.658  1.00  0.00     0.012 A 
ATOM     14  N   UNL A   1      31.860  24.768  21.998  1.00  0.00    -0.360 N 
ATOM     15  C   UNL A   1      30.326  26.043  24.927  1.00  0.00     0.011 A 
ATOM     16  C   UNL A   1      31.675  26.037  21.534  1.00  0.00     0.097 A 
ATOM     17  H   UNL A   1      32.224  24.024  21.467  1.00  0.00     0.166 HD
BRANCH   9  18
ATOM     18  C   UNL A   1      32.071  22.219  23.844  1.00  0.00     0.065 C 
BRANCH  18  19
ATOM     19  C   UNL A   1      33.203  21.781  24.735  1.00  0.00    -0.024 C 
ATOM     20  C   UNL A   1      35.041  22.969  23.501  1.00  0.00     0.039 C 
ATOM     21  C   UNL A   1      34.506  22.110  24.612  1.00  0.00    -0.080 C 
ATOM     22  C   UNL A   1      35.505  21.594  25.612  1.00  0.00     0.039 C 
ENDBRANCH  18  19
ENDBRANCH   9  18
ENDBRANCH   5   8
ENDBRANCH   3   4
ENDBRANCH   2   3
ENDBRANCH   1   2
BRANCH   1  23
ATOM     23  C   UNL A   1      32.559  30.085  26.899  1.00  0.00     0.116 C 
BRANCH  23  24
ATOM     24  N   UNL A   1      32.656  31.521  27.129  1.00  0.00    -0.352 N 
ATOM     25  C   UNL A   1      33.692  32.272  27.638  1.00  0.00     0.251 C 
ATOM     26  H   UNL A   1      31.854  32.035  26.882  1.00  0.00     0.163 HD
ATOM     27  O   UNL A   1      33.545  33.482  27.796  1.00  0.00    -0.269 OA
BRANCH  25  28
ATOM     28  C   UNL A   1      34.961  31.626  28.042  1.00  0.00     0.039 A 
ATOM     29  C   UNL A   1      36.105  32.417  28.180  1.00  0.00     0.014 A 
ATOM     30  C   UNL A   1      35.022  30.259  28.322  1.00  0.00     0.014 A 
ATOM     31  C   UNL A   1      37.276  31.861  28.704  1.00  0.00     0.010 A 
ATOM     32  C   UNL A   1      36.160  29.728  28.927  1.00  0.00     0.010 A 
ATOM     33  C   UNL A   1      37.295  30.525  29.137  1.00  0.00    -0.014 A 
BRANCH  33  34
ATOM     34  C   UNL A   1      38.470  29.962  29.858  1.00  0.00     0.031 A 
ATOM     35  C   UNL A   1      38.856  30.478  31.218  1.00  0.00     0.074 A 
ATOM     36  C   UNL A   1      39.256  29.057  29.239  1.00  0.00     0.049 A 
ATOM     37  N   UNL A   1      39.877  30.147  31.965  1.00  0.00    -0.248 NA
ATOM     38  C   UNL A   1      38.001  31.524  31.805  1.00  0.00     0.031 C 
ATOM     39  C   UNL A   1      39.053  28.547  27.880  1.00  0.00     0.029 A 
ATOM     40  N   UNL A   1      40.400  28.424  29.659  1.00  0.00    -0.354 N 
ATOM     41  C   UNL A   1      39.813  30.967  33.085  1.00  0.00     0.074 A 
ATOM     42  C   UNL A   1      38.671  31.836  32.905  1.00  0.00     0.031 C 
ATOM     43  C   UNL A   1      40.032  27.678  27.584  1.00  0.00     0.029 A 
ATOM     44  C   UNL A   1      40.947  27.584  28.717  1.00  0.00     0.049 A 
ATOM     45  H   UNL A   1      40.792  28.559  30.553  1.00  0.00     0.167 HD
ATOM     46  C   UNL A   1      40.610  30.975  34.182  1.00  0.00     0.034 A 
ATOM     47  C   UNL A   1      42.059  26.823  28.757  1.00  0.00     0.034 A 
ATOM     48  C   UNL A   1      41.710  30.073  34.387  1.00  0.00     0.049 A 
ATOM     49  C   UNL A   1      42.888  26.803  30.012  1.00  0.00     0.074 A 
ATOM     50  C   UNL A   1      42.508  29.931  35.508  1.00  0.00     0.029 A 
ATOM     51  N   UNL A   1      42.171  29.160  33.451  1.00  0.00    -0.354 N 
ATOM     52  N   UNL A   1      42.702  27.456  31.134  1.00  0.00    -0.248 NA
ATOM     53  C   UNL A   1      44.057  25.911  30.023  1.00  0.00     0.031 C 
ATOM     54  C   UNL A   1      43.462  28.941  35.245  1.00  0.00     0.029 A 
ATOM     55  C   UNL A   1      43.247  28.456  33.965  1.00  0.00     0.049 A 
ATOM     56  H   UNL A   1      41.790  29.031  32.553  1.00  0.00     0.167 HD
ATOM     57  C   UNL A   1      43.710  27.032  31.992  1.00  0.00     0.074 A 
ATOM     58  C   UNL A   1      44.487  26.046  31.270  1.00  0.00     0.031 C 
ATOM     59  C   UNL A   1      43.981  27.439  33.258  1.00  0.00     0.034 A 
BRANCH  46  60
ATOM     60  C   UNL A   1      40.273  31.948  35.282  1.00  0.00     0.023 A 
ATOM     61  C   UNL A   1      41.025  33.133  35.409  1.00  0.00     0.012 A 
ATOM     62  C   UNL A   1      39.184  31.726  36.146  1.00  0.00     0.148 A 
ATOM     63  C   UNL A   1      40.723  34.066  36.399  1.00  0.00     0.002 A 
ATOM     64  C   UNL A   1      38.861  32.680  37.104  1.00  0.00     0.091 A 
ATOM     65  F   UNL A   1      38.492  30.583  36.025  1.00  0.00    -0.205 F 
ATOM     66  C   UNL A   1      39.635  33.844  37.239  1.00  0.00     0.022 A 
BRANCH  64  67
ATOM     67  S   UNL A   1      37.433  32.526  38.184  1.00  0.00     0.127 S 
ATOM     68  O   UNL A   1      37.826  33.367  39.315  1.00  0.00    -0.237 OA
ATOM     69  O   UNL A   1      36.360  33.079  37.358  1.00  0.00    -0.237 OA
ATOM     70  O   UNL A   1      37.303  31.106  38.475  1.00  0.00    -0.744 OA
ENDBRANCH  64  67
ENDBRANCH  46  60
BRANCH  47  71
ATOM     71  C   UNL A   1      42.409  25.955  27.597  1.00  0.00     0.023 A 
ATOM     72  C   UNL A   1      43.227  26.474  26.573  1.00  0.00     0.012 A 
ATOM     73  C   UNL A   1      41.969  24.620  27.512  1.00  0.00     0.148 A 
ATOM     74  C   UNL A   1      43.573  25.690  25.471  1.00  0.00     0.002 A 
ATOM     75  C   UNL A   1      42.362  23.828  26.439  1.00  0.00     0.091 A 
ATOM     76  F   UNL A   1      41.180  24.149  28.488  1.00  0.00    -0.205 F 
ATOM     77  C   UNL A   1      43.149  24.366  25.409  1.00  0.00     0.022 A 
BRANCH  75  78
ATOM     78  S   UNL A   1      41.973  22.076  26.346  1.00  0.00     0.127 S 
ATOM     79  O   UNL A   1      40.538  22.102  26.080  1.00  0.00    -0.237 OA
ATOM     80  O   UNL A   1      42.801  21.640  25.221  1.00  0.00    -0.237 OA
ATOM     81  O   UNL A   1      42.373  21.521  27.631  1.00  0.00    -0.744 OA
ENDBRANCH  75  78
ENDBRANCH  47  71
BRANCH  59  82
ATOM     82  C   UNL A   1      45.153  26.804  33.958  1.00  0.00     0.023 A 
ATOM     83  C   UNL A   1      46.418  27.421  33.896  1.00  0.00     0.012 A 
ATOM     84  C   UNL A   1      44.989  25.639  34.731  1.00  0.00     0.148 A 
ATOM     85  C   UNL A   1      47.510  26.870  34.566  1.00  0.00     0.002 A 
ATOM     86  C   UNL A   1      46.072  25.121  35.434  1.00  0.00     0.091 A 
ATOM     87  F   UNL A   1      43.783  25.054  34.762  1.00  0.00    -0.205 F 
ATOM     88  C   UNL A   1      47.335  25.728  35.344  1.00  0.00     0.022 A 
BRANCH  86  89
ATOM     89  S   UNL A   1      45.913  23.708  36.534  1.00  0.00     0.127 S 
ATOM     90  O   UNL A   1      45.552  22.643  35.600  1.00  0.00    -0.237 OA
ATOM     91  O   UNL A   1      47.259  23.596  37.097  1.00  0.00    -0.237 OA
ATOM     92  O   UNL A   1      44.886  24.071  37.502  1.00  0.00    -0.744 OA
ENDBRANCH  86  89
ENDBRANCH  59  82
ENDBRANCH  33  34
ENDBRANCH  25  28
ENDBRANCH  23  24
ENDBRANCH   1  23
TORSDOF 16
ENDMDL
MODEL 3
REMARK VINA RESULT:     -12.7      5.210     10.002
REMARK SMILES CC(C)=CCc1cccc2c(C(=O)NCCCCNC(=O)c3ccc(-c4c5nc(c(-c6cccc(S(=O)(=O)[O-])c6F)c6ccc([nH]6)c(-c6cccc(S(=O)(=O)[O-])c6F)c6nc(c(-c7cccc(S(=O)(=O)[O-])c7F)c7ccc4[nH]7)C=C6)C=C5)cc3)c[nH]c12
REMARK SMILES IDX 17 1 16 2 15 3 14 4 12 5 13 6 11 8 6 9 7 10 87 11 8 12 10 13
REMARK SMILES IDX 86 14 9 15 85 16 5 18 4 19 1 20 2 21 3 22 18 23 19 24 20 25
REMARK SMILES IDX 21 27 22 28 23 29 84 30 24 31 83 32 25 33 26 34 27 35 77 36
REMARK SMILES IDX 28 37 82 38 76 39 78 40 29 41 81 42 75 43 74 44 30 46 62 47
REMARK SMILES IDX 42 48 61 49 43 50 46 51 60 52 79 53 44 54 45 55 59 57 80 58
REMARK SMILES IDX 47 59 31 60 32 61 40 62 33 63 35 64 41 65 34 66 36 67 37 68
REMARK SMILES IDX 38 69 39 70 63 71 64 72 72 73 65 74 67 75 73 76 66 77 68 78
REMARK SMILES IDX 69 79 70 80 71 81 48 82 49 83 57 84 50 85 52 86 58 87 51 88
REMARK SMILES IDX 53 89 54 90 55 91 56 92
REMARK H PARENT 14 7 86 17 19 26 78 45 46 56
REMARK Flexibility Score: inf
ROOT
ATOM      1  C   UNL A   1      35.533  21.614  24.697  1.00  0.00     0.023 C 
ENDROOT
BRANCH   1   2
ATOM      2  C   UNL A   1      34.795  22.005  25.975  1.00  0.00     0.023 C 
BRANCH   2   3
ATOM      3  C   UNL A   1      33.817  23.169  25.869  1.00  0.00     0.116 C 
BRANCH   3   4
ATOM      4  N   UNL A   1      32.625  23.056  26.682  1.00  0.00    -0.352 N 
ATOM      5  C   UNL A   1      31.429  23.730  26.584  1.00  0.00     0.253 C 
ATOM      6  O   UNL A   1      30.557  23.461  27.413  1.00  0.00    -0.269 OA
ATOM      7  H   UNL A   1      32.678  22.399  27.414  1.00  0.00     0.163 HD
BRANCH   5   8
ATOM      8  C   UNL A   1      31.230  24.797  25.600  1.00  0.00     0.065 A 
ATOM      9  C   UNL A   1      30.882  28.147  24.182  1.00  0.00    -0.020 A 
ATOM     10  C   UNL A   1      31.348  28.994  25.205  1.00  0.00     0.006 A 
ATOM     11  C   UNL A   1      30.944  26.761  24.444  1.00  0.00     0.050 A 
ATOM     12  C   UNL A   1      31.938  28.492  26.357  1.00  0.00     0.001 A 
ATOM     13  C   UNL A   1      31.457  26.219  25.630  1.00  0.00     0.012 A 
ATOM     14  N   UNL A   1      30.574  25.696  23.655  1.00  0.00    -0.360 N 
ATOM     15  C   UNL A   1      32.039  27.116  26.553  1.00  0.00     0.011 A 
ATOM     16  C   UNL A   1      30.752  24.523  24.327  1.00  0.00     0.097 A 
ATOM     17  H   UNL A   1      30.228  25.770  22.737  1.00  0.00     0.166 HD
BRANCH   9  18
ATOM     18  C   UNL A   1      30.360  28.752  22.900  1.00  0.00     0.065 C 
BRANCH  18  19
ATOM     19  C   UNL A   1      29.551  30.002  23.121  1.00  0.00    -0.024 C 
ATOM     20  C   UNL A   1      27.287  28.914  23.090  1.00  0.00     0.039 C 
ATOM     21  C   UNL A   1      28.209  30.093  23.224  1.00  0.00    -0.080 C 
ATOM     22  C   UNL A   1      27.567  31.433  23.466  1.00  0.00     0.039 C 
ENDBRANCH  18  19
ENDBRANCH   9  18
ENDBRANCH   5   8
ENDBRANCH   3   4
ENDBRANCH   2   3
ENDBRANCH   1   2
BRANCH   1  23
ATOM     23  C   UNL A   1      37.012  21.980  24.613  1.00  0.00     0.116 C 
BRANCH  23  24
ATOM     24  N   UNL A   1      37.918  20.936  25.073  1.00  0.00    -0.352 N 
ATOM     25  C   UNL A   1      39.019  21.012  25.897  1.00  0.00     0.251 C 
ATOM     26  H   UNL A   1      37.710  20.032  24.743  1.00  0.00     0.163 HD
ATOM     27  O   UNL A   1      39.681  20.001  26.122  1.00  0.00    -0.269 OA
BRANCH  25  28
ATOM     28  C   UNL A   1      39.439  22.311  26.470  1.00  0.00     0.039 A 
ATOM     29  C   UNL A   1      40.531  22.338  27.343  1.00  0.00     0.014 A 
ATOM     30  C   UNL A   1      38.794  23.499  26.125  1.00  0.00     0.014 A 
ATOM     31  C   UNL A   1      41.041  23.565  27.779  1.00  0.00     0.010 A 
ATOM     32  C   UNL A   1      39.356  24.722  26.488  1.00  0.00     0.010 A 
ATOM     33  C   UNL A   1      40.493  24.770  27.308  1.00  0.00    -0.014 A 
BRANCH  33  34
ATOM     34  C   UNL A   1      41.127  26.081  27.616  1.00  0.00     0.031 A 
ATOM     35  C   UNL A   1      42.546  26.365  27.202  1.00  0.00     0.074 A 
ATOM     36  C   UNL A   1      40.458  26.981  28.366  1.00  0.00     0.049 A 
ATOM     37  N   UNL A   1      43.276  27.424  27.436  1.00  0.00    -0.248 NA
ATOM     38  C   UNL A   1      43.249  25.309  26.455  1.00  0.00     0.031 C 
ATOM     39  C   UNL A   1      39.114  26.791  28.918  1.00  0.00     0.029 A 
ATOM     40  N   UNL A   1      40.825  28.225  28.818  1.00  0.00    -0.354 N 
ATOM     41  C   UNL A   1      44.530  27.150  26.903  1.00  0.00     0.074 A 
ATOM     42  C   UNL A   1      44.473  25.809  26.364  1.00  0.00     0.031 C 
ATOM     43  C   UNL A   1      38.768  27.878  29.625  1.00  0.00     0.029 A 
ATOM     44  C   UNL A   1      39.872  28.834  29.600  1.00  0.00     0.049 A 
ATOM     45  H   UNL A   1      41.691  28.642  28.601  1.00  0.00     0.167 HD
ATOM     46  C   UNL A   1      45.621  27.951  26.837  1.00  0.00     0.034 A 
ATOM     47  C   UNL A   1      39.881  30.026  30.229  1.00  0.00     0.034 A 
ATOM     48  C   UNL A   1      45.661  29.304  27.321  1.00  0.00     0.049 A 
ATOM     49  C   UNL A   1      41.080  30.922  30.082  1.00  0.00     0.074 A 
ATOM     50  C   UNL A   1      46.682  30.230  27.204  1.00  0.00     0.029 A 
ATOM     51  N   UNL A   1      44.636  29.926  28.017  1.00  0.00    -0.354 N 
ATOM     52  N   UNL A   1      42.190  30.712  29.417  1.00  0.00    -0.248 NA
ATOM     53  C   UNL A   1      41.014  32.236  30.739  1.00  0.00     0.031 C 
ATOM     54  C   UNL A   1      46.280  31.409  27.842  1.00  0.00     0.029 A 
ATOM     55  C   UNL A   1      45.001  31.221  28.343  1.00  0.00     0.049 A 
ATOM     56  H   UNL A   1      43.775  29.508  28.247  1.00  0.00     0.167 HD
ATOM     57  C   UNL A   1      42.940  31.875  29.550  1.00  0.00     0.074 A 
ATOM     58  C   UNL A   1      42.146  32.797  30.336  1.00  0.00     0.031 C 
ATOM     59  C   UNL A   1      44.183  32.148  29.080  1.00  0.00     0.034 A 
BRANCH  46  60
ATOM     60  C   UNL A   1      46.846  27.407  26.149  1.00  0.00     0.023 A 
ATOM     61  C   UNL A   1      47.012  27.619  24.765  1.00  0.00     0.012 A 
ATOM     62  C   UNL A   1      47.856  26.743  26.871  1.00  0.00     0.148 A 
ATOM     63  C   UNL A   1      48.146  27.151  24.104  1.00  0.00     0.002 A 
ATOM     64  C   UNL A   1      49.004  26.315  26.213  1.00  0.00     0.091 A 
ATOM     65  F   UNL A   1      47.672  26.530  28.182  1.00  0.00    -0.205 F 
ATOM     66  C   UNL A   1      49.146  26.508  24.829  1.00  0.00     0.022 A 
BRANCH  64  67
ATOM     67  S   UNL A   1      50.384  25.547  27.070  1.00  0.00     0.127 S 
ATOM     68  O   UNL A   1      49.765  24.329  27.593  1.00  0.00    -0.237 OA
ATOM     69  O   UNL A   1      51.338  25.327  25.984  1.00  0.00    -0.237 OA
ATOM     70  O   UNL A   1      50.817  26.508  28.073  1.00  0.00    -0.744 OA
ENDBRANCH  64  67
ENDBRANCH  46  60
BRANCH  47  71
ATOM     71  C   UNL A   1      38.680  30.477  30.989  1.00  0.00     0.023 A 
ATOM     72  C   UNL A   1      38.616  30.235  32.377  1.00  0.00     0.012 A 
ATOM     73  C   UNL A   1      37.623  31.163  30.364  1.00  0.00     0.148 A 
ATOM     74  C   UNL A   1      37.506  30.641  33.119  1.00  0.00     0.002 A 
ATOM     75  C   UNL A   1      36.545  31.612  31.119  1.00  0.00     0.091 A 
ATOM     76  F   UNL A   1      37.694  31.370  29.041  1.00  0.00    -0.205 F 
ATOM     77  C   UNL A   1      36.476  31.338  32.494  1.00  0.00     0.022 A 
BRANCH  75  78
ATOM     78  S   UNL A   1      35.241  32.631  30.419  1.00  0.00     0.127 S 
ATOM     79  O   UNL A   1      34.796  31.816  29.294  1.00  0.00    -0.237 OA
ATOM     80  O   UNL A   1      34.293  32.717  31.531  1.00  0.00    -0.237 OA
ATOM     81  O   UNL A   1      35.876  33.896  30.079  1.00  0.00    -0.744 OA
ENDBRANCH  75  78
ENDBRANCH  47  71
BRANCH  59  82
ATOM     82  C   UNL A   1      44.759  33.506  29.382  1.00  0.00     0.023 A 
ATOM     83  C   UNL A   1      45.473  33.710  30.580  1.00  0.00     0.012 A 
ATOM     84  C   UNL A   1      44.654  34.559  28.453  1.00  0.00     0.148 A 
ATOM     85  C   UNL A   1      46.045  34.950  30.864  1.00  0.00     0.002 A 
ATOM     86  C   UNL A   1      45.267  35.779  28.721  1.00  0.00     0.091 A 
ATOM     87  F   UNL A   1      43.954  34.355  27.328  1.00  0.00    -0.205 F 
ATOM     88  C   UNL A   1      45.952  35.979  29.930  1.00  0.00     0.022 A 
BRANCH  86  89
ATOM     89  S   UNL A   1      45.277  37.128  27.534  1.00  0.00     0.127 S 
ATOM     90  O   UNL A   1      45.952  36.515  26.392  1.00  0.00    -0.237 OA
ATOM     91  O   UNL A   1      43.850  37.382  27.335  1.00  0.00    -0.237 OA
ATOM     92  O   UNL A   1      45.996  38.219  28.179  1.00  0.00    -0.744 OA
ENDBRANCH  86  89
ENDBRANCH  59  82
ENDBRANCH  33  34
ENDBRANCH  25  28
ENDBRANCH  23  24
ENDBRANCH   1  23
TORSDOF 16
ENDMDL
