MODEL 1
REMARK VINA RESULT:     -11.9      0.000      0.000
REMARK SMILES N#Cc1ccc(C[N@H+]2CCCC[C@H]2C(=O)NCCCCNC(=O)c2ccc(-c3c4nc(c(-c5cccc(S(=O)(=O)[O-])c5F)c5ccc([nH]5)c(-c5cccc(S(=O)(=O)[O-])c5F)c5nc(c(-c6cccc(S(=O)(=O)[O-])c6F)c6ccc3[nH]6)C=C5)C=C4)cc2)c(F)c1
REMARK SMILES IDX 18 1 17 2 16 3 14 4 15 5 13 7 8 8 9 9 10 11 12 12 11 13 7 14
REMARK SMILES IDX 6 15 3 16 4 17 89 18 5 19 87 20 88 21 2 22 1 23 19 24 20 25
REMARK SMILES IDX 21 26 22 27 23 29 24 30 25 31 86 32 26 33 85 34 27 35 28 36
REMARK SMILES IDX 29 37 79 38 30 39 84 40 78 41 80 42 31 43 83 44 77 45 76 46
REMARK SMILES IDX 32 48 64 49 44 50 63 51 45 52 48 53 62 54 81 55 46 56 47 57
REMARK SMILES IDX 61 59 82 60 49 61 33 62 34 63 42 64 35 65 37 66 43 67 36 68
REMARK SMILES IDX 38 69 39 70 40 71 41 72 65 73 66 74 74 75 67 76 69 77 75 78
REMARK SMILES IDX 68 79 70 80 71 81 72 82 73 83 50 84 51 85 59 86 52 87 54 88
REMARK SMILES IDX 60 89 53 90 55 91 56 92 57 93 58 94
REMARK H PARENT 16 6 8 10 21 28 80 47 48 58
REMARK Flexibility Score: inf
ROOT
ATOM      1  C   UNL A   1      31.124  27.693  24.636  1.00  0.00     0.023 C 
ENDROOT
BRANCH   1   2
ATOM      2  C   UNL A   1      30.795  26.198  24.621  1.00  0.00     0.116 C 
BRANCH   2   3
ATOM      3  N   UNL A   1      31.441  25.583  23.484  1.00  0.00    -0.351 N 
ATOM      4  C   UNL A   1      32.443  24.660  23.469  1.00  0.00     0.278 C 
ATOM      5  O   UNL A   1      33.146  24.641  22.457  1.00  0.00    -0.268 OA
ATOM      6  H   UNL A   1      31.112  25.870  22.601  1.00  0.00     0.163 HD
BRANCH   4   7
ATOM      7  C   UNL A   1      32.608  23.693  24.672  1.00  0.00     0.274 C 
ATOM      8  N   UNL A   1      33.291  22.415  24.337  1.00  0.00    -0.321 N 
ATOM      9  C   UNL A   1      34.678  22.587  23.898  1.00  0.00     0.263 C 
ATOM     10  H   UNL A   1      33.368  21.939  25.235  1.00  0.00     0.349 HD
ATOM     11  C   UNL A   1      35.506  23.411  24.896  1.00  0.00     0.062 C 
ATOM     12  C   UNL A   1      33.385  24.385  25.799  1.00  0.00     0.076 C 
ATOM     13  C   UNL A   1      34.815  24.683  25.373  1.00  0.00     0.012 C 
BRANCH   8  14
ATOM     14  C   UNL A   1      32.497  21.448  23.557  1.00  0.00     0.302 C 
BRANCH  14  15
ATOM     15  C   UNL A   1      32.506  20.005  24.004  1.00  0.00     0.042 A 
ATOM     16  C   UNL A   1      32.948  17.328  24.735  1.00  0.00     0.055 A 
ATOM     17  C   UNL A   1      32.917  18.329  25.712  1.00  0.00     0.020 A 
ATOM     18  C   UNL A   1      32.658  17.647  23.409  1.00  0.00     0.059 A 
ATOM     19  C   UNL A   1      32.703  19.662  25.349  1.00  0.00     0.014 A 
ATOM     20  C   UNL A   1      32.408  18.972  23.065  1.00  0.00     0.133 A 
ATOM     21  F   UNL A   1      32.167  19.263  21.778  1.00  0.00    -0.206 F 
BRANCH  16  22
ATOM     22  C   UNL A   1      33.310  15.986  25.088  1.00  0.00     0.099 C 
ATOM     23  N   UNL A   1      33.600  14.903  25.375  1.00  0.00    -0.192 NA
ENDBRANCH  16  22
ENDBRANCH  14  15
ENDBRANCH   8  14
ENDBRANCH   4   7
ENDBRANCH   2   3
ENDBRANCH   1   2
BRANCH   1  24
ATOM     24  C   UNL A   1      31.982  28.127  25.832  1.00  0.00     0.023 C 
BRANCH  24  25
ATOM     25  C   UNL A   1      32.994  29.222  25.518  1.00  0.00     0.116 C 
BRANCH  25  26
ATOM     26  N   UNL A   1      32.562  30.518  26.021  1.00  0.00    -0.352 N 
ATOM     27  C   UNL A   1      33.131  31.290  27.005  1.00  0.00     0.251 C 
ATOM     28  H   UNL A   1      31.756  30.892  25.597  1.00  0.00     0.163 HD
ATOM     29  O   UNL A   1      32.526  32.258  27.456  1.00  0.00    -0.269 OA
BRANCH  27  30
ATOM     30  C   UNL A   1      34.462  30.924  27.531  1.00  0.00     0.039 A 
ATOM     31  C   UNL A   1      35.443  31.912  27.634  1.00  0.00     0.014 A 
ATOM     32  C   UNL A   1      34.721  29.620  27.961  1.00  0.00     0.014 A 
ATOM     33  C   UNL A   1      36.663  31.606  28.238  1.00  0.00     0.010 A 
ATOM     34  C   UNL A   1      35.907  29.340  28.633  1.00  0.00     0.010 A 
ATOM     35  C   UNL A   1      36.888  30.332  28.785  1.00  0.00    -0.014 A 
BRANCH  35  36
ATOM     36  C   UNL A   1      38.117  30.031  29.563  1.00  0.00     0.031 A 
ATOM     37  C   UNL A   1      39.127  29.046  29.044  1.00  0.00     0.074 A 
ATOM     38  C   UNL A   1      38.276  30.578  30.785  1.00  0.00     0.049 A 
ATOM     39  N   UNL A   1      40.215  28.604  29.618  1.00  0.00    -0.248 NA
ATOM     40  C   UNL A   1      38.872  28.467  27.714  1.00  0.00     0.031 C 
ATOM     41  C   UNL A   1      37.336  31.502  31.427  1.00  0.00     0.029 A 
ATOM     42  N   UNL A   1      39.268  30.415  31.721  1.00  0.00    -0.354 N 
ATOM     43  C   UNL A   1      40.755  27.671  28.742  1.00  0.00     0.074 A 
ATOM     44  C   UNL A   1      39.862  27.592  27.607  1.00  0.00     0.031 C 
ATOM     45  C   UNL A   1      37.797  31.824  32.645  1.00  0.00     0.029 A 
ATOM     46  C   UNL A   1      39.034  31.093  32.895  1.00  0.00     0.049 A 
ATOM     47  H   UNL A   1      40.070  29.865  31.565  1.00  0.00     0.167 HD
ATOM     48  C   UNL A   1      41.899  26.957  28.864  1.00  0.00     0.034 A 
ATOM     49  C   UNL A   1      39.720  31.102  34.055  1.00  0.00     0.034 A 
ATOM     50  C   UNL A   1      42.791  27.049  29.989  1.00  0.00     0.049 A 
ATOM     51  C   UNL A   1      40.979  30.287  34.170  1.00  0.00     0.074 A 
ATOM     52  C   UNL A   1      44.015  26.429  30.166  1.00  0.00     0.029 A 
ATOM     53  N   UNL A   1      42.544  27.781  31.140  1.00  0.00    -0.354 N 
ATOM     54  N   UNL A   1      41.557  29.532  33.267  1.00  0.00    -0.248 NA
ATOM     55  C   UNL A   1      41.695  30.341  35.453  1.00  0.00     0.031 C 
ATOM     56  C   UNL A   1      44.482  26.740  31.445  1.00  0.00     0.029 A 
ATOM     57  C   UNL A   1      43.577  27.601  32.045  1.00  0.00     0.049 A 
ATOM     58  H   UNL A   1      41.752  28.345  31.292  1.00  0.00     0.167 HD
ATOM     59  C   UNL A   1      42.717  29.048  33.861  1.00  0.00     0.074 A 
ATOM     60  C   UNL A   1      42.772  29.613  35.193  1.00  0.00     0.031 C 
ATOM     61  C   UNL A   1      43.645  28.200  33.353  1.00  0.00     0.034 A 
BRANCH  48  62
ATOM     62  C   UNL A   1      42.267  26.018  27.744  1.00  0.00     0.023 A 
ATOM     63  C   UNL A   1      43.122  26.456  26.711  1.00  0.00     0.012 A 
ATOM     64  C   UNL A   1      41.820  24.682  27.749  1.00  0.00     0.148 A 
ATOM     65  C   UNL A   1      43.495  25.591  25.683  1.00  0.00     0.002 A 
ATOM     66  C   UNL A   1      42.236  23.813  26.750  1.00  0.00     0.091 A 
ATOM     67  F   UNL A   1      40.997  24.288  28.732  1.00  0.00    -0.205 F 
ATOM     68  C   UNL A   1      43.061  24.267  25.709  1.00  0.00     0.022 A 
BRANCH  66  69
ATOM     69  S   UNL A   1      41.803  22.070  26.736  1.00  0.00     0.127 S 
ATOM     70  O   UNL A   1      42.192  21.681  25.380  1.00  0.00    -0.237 OA
ATOM     71  O   UNL A   1      42.660  21.533  27.793  1.00  0.00    -0.237 OA
ATOM     72  O   UNL A   1      40.375  22.005  27.014  1.00  0.00    -0.744 OA
ENDBRANCH  66  69
ENDBRANCH  48  62
BRANCH  49  73
ATOM     73  C   UNL A   1      39.240  31.927  35.202  1.00  0.00     0.023 A 
ATOM     74  C   UNL A   1      38.264  31.406  36.073  1.00  0.00     0.012 A 
ATOM     75  C   UNL A   1      39.753  33.217  35.437  1.00  0.00     0.148 A 
ATOM     76  C   UNL A   1      37.779  32.170  37.135  1.00  0.00     0.002 A 
ATOM     77  C   UNL A   1      39.310  33.950  36.532  1.00  0.00     0.091 A 
ATOM     78  F   UNL A   1      40.677  33.696  34.593  1.00  0.00    -0.205 F 
ATOM     79  C   UNL A   1      38.308  33.437  37.370  1.00  0.00     0.022 A 
BRANCH  77  80
ATOM     80  S   UNL A   1      40.022  35.534  36.987  1.00  0.00     0.127 S 
ATOM     81  O   UNL A   1      39.394  35.782  38.282  1.00  0.00    -0.237 OA
ATOM     82  O   UNL A   1      41.448  35.214  37.044  1.00  0.00    -0.237 OA
ATOM     83  O   UNL A   1      39.652  36.455  35.922  1.00  0.00    -0.744 OA
ENDBRANCH  77  80
ENDBRANCH  49  73
BRANCH  61  84
ATOM     84  C   UNL A   1      44.828  27.849  34.218  1.00  0.00     0.023 A 
ATOM     85  C   UNL A   1      45.968  28.676  34.224  1.00  0.00     0.012 A 
ATOM     86  C   UNL A   1      44.767  26.748  35.096  1.00  0.00     0.148 A 
ATOM     87  C   UNL A   1      47.041  28.396  35.071  1.00  0.00     0.002 A 
ATOM     88  C   UNL A   1      45.816  26.507  35.975  1.00  0.00     0.091 A 
ATOM     89  F   UNL A   1      43.677  25.967  35.066  1.00  0.00    -0.205 F 
ATOM     90  C   UNL A   1      46.959  27.323  35.955  1.00  0.00     0.022 A 
BRANCH  88  91
ATOM     91  S   UNL A   1      45.763  25.209  37.214  1.00  0.00     0.127 S 
ATOM     92  O   UNL A   1      45.679  24.008  36.384  1.00  0.00    -0.237 OA
ATOM     93  O   UNL A   1      47.042  25.388  37.901  1.00  0.00    -0.237 OA
ATOM     94  O   UNL A   1      44.588  25.476  38.033  1.00  0.00    -0.744 OA
ENDBRANCH  88  91
ENDBRANCH  61  84
ENDBRANCH  35  36
ENDBRANCH  27  30
ENDBRANCH  25  26
ENDBRANCH  24  25
ENDBRANCH   1  24
TORSDOF 17
ENDMDL
MODEL 2
REMARK VINA RESULT:     -11.8      1.439      1.764
REMARK SMILES N#Cc1ccc(C[N@H+]2CCCC[C@H]2C(=O)NCCCCNC(=O)c2ccc(-c3c4nc(c(-c5cccc(S(=O)(=O)[O-])c5F)c5ccc([nH]5)c(-c5cccc(S(=O)(=O)[O-])c5F)c5nc(c(-c6cccc(S(=O)(=O)[O-])c6F)c6ccc3[nH]6)C=C5)C=C4)cc2)c(F)c1
REMARK SMILES IDX 18 1 17 2 16 3 14 4 15 5 13 7 8 8 9 9 10 11 12 12 11 13 7 14
REMARK SMILES IDX 6 15 3 16 4 17 89 18 5 19 87 20 88 21 2 22 1 23 19 24 20 25
REMARK SMILES IDX 21 26 22 27 23 29 24 30 25 31 86 32 26 33 85 34 27 35 28 36
REMARK SMILES IDX 29 37 79 38 30 39 84 40 78 41 80 42 31 43 83 44 77 45 76 46
REMARK SMILES IDX 32 48 64 49 44 50 63 51 45 52 48 53 62 54 81 55 46 56 47 57
REMARK SMILES IDX 61 59 82 60 49 61 33 62 34 63 42 64 35 65 37 66 43 67 36 68
REMARK SMILES IDX 38 69 39 70 40 71 41 72 65 73 66 74 74 75 67 76 69 77 75 78
REMARK SMILES IDX 68 79 70 80 71 81 72 82 73 83 50 84 51 85 59 86 52 87 54 88
REMARK SMILES IDX 60 89 53 90 55 91 56 92 57 93 58 94
REMARK H PARENT 16 6 8 10 21 28 80 47 48 58
REMARK Flexibility Score: inf
ROOT
ATOM      1  C   UNL A   1      31.995  27.804  24.050  1.00  0.00     0.023 C 
ENDROOT
BRANCH   1   2
ATOM      2  C   UNL A   1      33.383  27.170  24.169  1.00  0.00     0.116 C 
BRANCH   2   3
ATOM      3  N   UNL A   1      33.513  26.128  23.176  1.00  0.00    -0.351 N 
ATOM      4  C   UNL A   1      33.887  24.829  23.346  1.00  0.00     0.278 C 
ATOM      5  O   UNL A   1      34.386  24.276  22.365  1.00  0.00    -0.268 OA
ATOM      6  H   UNL A   1      33.304  26.393  22.251  1.00  0.00     0.163 HD
BRANCH   4   7
ATOM      7  C   UNL A   1      33.632  24.135  24.712  1.00  0.00     0.274 C 
ATOM      8  N   UNL A   1      33.777  22.656  24.679  1.00  0.00    -0.321 N 
ATOM      9  C   UNL A   1      35.133  22.204  24.361  1.00  0.00     0.263 C 
ATOM     10  H   UNL A   1      33.639  22.377  25.650  1.00  0.00     0.349 HD
ATOM     11  C   UNL A   1      36.189  22.842  25.279  1.00  0.00     0.062 C 
ATOM     12  C   UNL A   1      34.585  24.699  25.773  1.00  0.00     0.076 C 
ATOM     13  C   UNL A   1      36.030  24.349  25.450  1.00  0.00     0.012 C 
BRANCH   8  14
ATOM     14  C   UNL A   1      32.692  21.919  24.004  1.00  0.00     0.302 C 
BRANCH  14  15
ATOM     15  C   UNL A   1      32.573  20.437  24.272  1.00  0.00     0.042 A 
ATOM     16  C   UNL A   1      32.770  17.658  24.642  1.00  0.00     0.055 A 
ATOM     17  C   UNL A   1      32.898  18.525  25.733  1.00  0.00     0.020 A 
ATOM     18  C   UNL A   1      32.444  18.170  23.387  1.00  0.00     0.059 A 
ATOM     19  C   UNL A   1      32.805  19.908  25.550  1.00  0.00     0.014 A 
ATOM     20  C   UNL A   1      32.317  19.546  23.223  1.00  0.00     0.133 A 
ATOM     21  F   UNL A   1      32.038  20.021  22.000  1.00  0.00    -0.206 F 
BRANCH  16  22
ATOM     22  C   UNL A   1      33.007  16.253  24.805  1.00  0.00     0.099 C 
ATOM     23  N   UNL A   1      33.201  15.121  24.937  1.00  0.00    -0.192 NA
ENDBRANCH  16  22
ENDBRANCH  14  15
ENDBRANCH   8  14
ENDBRANCH   4   7
ENDBRANCH   2   3
ENDBRANCH   1   2
BRANCH   1  24
ATOM     24  C   UNL A   1      31.966  29.299  24.395  1.00  0.00     0.023 C 
BRANCH  24  25
ATOM     25  C   UNL A   1      32.614  29.652  25.729  1.00  0.00     0.116 C 
BRANCH  25  26
ATOM     26  N   UNL A   1      32.245  30.988  26.173  1.00  0.00    -0.352 N 
ATOM     27  C   UNL A   1      32.870  31.787  27.100  1.00  0.00     0.251 C 
ATOM     28  H   UNL A   1      31.443  31.371  25.751  1.00  0.00     0.163 HD
ATOM     29  O   UNL A   1      32.315  32.800  27.514  1.00  0.00    -0.269 OA
BRANCH  27  30
ATOM     30  C   UNL A   1      34.200  31.397  27.611  1.00  0.00     0.039 A 
ATOM     31  C   UNL A   1      35.171  32.383  27.791  1.00  0.00     0.014 A 
ATOM     32  C   UNL A   1      34.467  30.067  27.950  1.00  0.00     0.014 A 
ATOM     33  C   UNL A   1      36.390  32.046  28.383  1.00  0.00     0.010 A 
ATOM     34  C   UNL A   1      35.650  29.751  28.611  1.00  0.00     0.010 A 
ATOM     35  C   UNL A   1      36.621  30.738  28.841  1.00  0.00    -0.014 A 
BRANCH  35  36
ATOM     36  C   UNL A   1      37.847  30.394  29.606  1.00  0.00     0.031 A 
ATOM     37  C   UNL A   1      38.846  29.418  29.050  1.00  0.00     0.074 A 
ATOM     38  C   UNL A   1      38.012  30.893  30.848  1.00  0.00     0.049 A 
ATOM     39  N   UNL A   1      39.928  28.942  29.606  1.00  0.00    -0.248 NA
ATOM     40  C   UNL A   1      38.584  28.893  27.699  1.00  0.00     0.031 C 
ATOM     41  C   UNL A   1      37.083  31.802  31.525  1.00  0.00     0.029 A 
ATOM     42  N   UNL A   1      39.002  30.682  31.777  1.00  0.00    -0.354 N 
ATOM     43  C   UNL A   1      40.458  28.037  28.696  1.00  0.00     0.074 A 
ATOM     44  C   UNL A   1      39.564  28.012  27.559  1.00  0.00     0.031 C 
ATOM     45  C   UNL A   1      37.547  32.072  32.754  1.00  0.00     0.029 A 
ATOM     46  C   UNL A   1      38.776  31.318  32.976  1.00  0.00     0.049 A 
ATOM     47  H   UNL A   1      39.797  30.130  31.600  1.00  0.00     0.167 HD
ATOM     48  C   UNL A   1      41.594  27.306  28.789  1.00  0.00     0.034 A 
ATOM     49  C   UNL A   1      39.462  31.275  34.136  1.00  0.00     0.034 A 
ATOM     50  C   UNL A   1      42.487  27.345  29.917  1.00  0.00     0.049 A 
ATOM     51  C   UNL A   1      40.711  30.442  34.219  1.00  0.00     0.074 A 
ATOM     52  C   UNL A   1      43.703  26.705  30.070  1.00  0.00     0.029 A 
ATOM     53  N   UNL A   1      42.248  28.036  31.095  1.00  0.00    -0.354 N 
ATOM     54  N   UNL A   1      41.281  29.716  33.288  1.00  0.00    -0.248 NA
ATOM     55  C   UNL A   1      41.427  30.439  35.503  1.00  0.00     0.031 C 
ATOM     56  C   UNL A   1      44.174  26.962  31.360  1.00  0.00     0.029 A 
ATOM     57  C   UNL A   1      43.279  27.810  31.992  1.00  0.00     0.049 A 
ATOM     58  H   UNL A   1      41.463  28.602  31.269  1.00  0.00     0.167 HD
ATOM     59  C   UNL A   1      42.435  29.196  33.862  1.00  0.00     0.074 A 
ATOM     60  C   UNL A   1      42.497  29.709  35.214  1.00  0.00     0.031 C 
ATOM     61  C   UNL A   1      43.353  28.358  33.322  1.00  0.00     0.034 A 
BRANCH  48  62
ATOM     62  C   UNL A   1      41.951  26.407  27.634  1.00  0.00     0.023 A 
ATOM     63  C   UNL A   1      42.711  26.911  26.559  1.00  0.00     0.012 A 
ATOM     64  C   UNL A   1      41.592  25.045  27.646  1.00  0.00     0.148 A 
ATOM     65  C   UNL A   1      43.074  26.084  25.496  1.00  0.00     0.002 A 
ATOM     66  C   UNL A   1      42.000  24.216  26.610  1.00  0.00     0.091 A 
ATOM     67  F   UNL A   1      40.858  24.586  28.670  1.00  0.00    -0.205 F 
ATOM     68  C   UNL A   1      42.729  24.735  25.527  1.00  0.00     0.022 A 
BRANCH  66  69
ATOM     69  S   UNL A   1      41.679  22.449  26.594  1.00  0.00     0.127 S 
ATOM     70  O   UNL A   1      42.368  22.014  27.809  1.00  0.00    -0.237 OA
ATOM     71  O   UNL A   1      40.218  22.403  26.673  1.00  0.00    -0.237 OA
ATOM     72  O   UNL A   1      42.240  21.945  25.349  1.00  0.00    -0.744 OA
ENDBRANCH  66  69
ENDBRANCH  48  62
BRANCH  49  73
ATOM     73  C   UNL A   1      38.991  32.061  35.313  1.00  0.00     0.023 A 
ATOM     74  C   UNL A   1      39.150  33.460  35.325  1.00  0.00     0.012 A 
ATOM     75  C   UNL A   1      38.377  31.430  36.413  1.00  0.00     0.148 A 
ATOM     76  C   UNL A   1      38.743  34.213  36.427  1.00  0.00     0.002 A 
ATOM     77  C   UNL A   1      37.919  32.191  37.481  1.00  0.00     0.091 A 
ATOM     78  F   UNL A   1      38.240  30.097  36.384  1.00  0.00    -0.205 F 
ATOM     79  C   UNL A   1      38.119  33.581  37.500  1.00  0.00     0.022 A 
BRANCH  77  80
ATOM     80  S   UNL A   1      36.994  31.482  38.847  1.00  0.00     0.127 S 
ATOM     81  O   UNL A   1      37.927  31.650  39.958  1.00  0.00    -0.237 OA
ATOM     82  O   UNL A   1      35.818  32.351  38.892  1.00  0.00    -0.237 OA
ATOM     83  O   UNL A   1      36.713  30.106  38.463  1.00  0.00    -0.744 OA
ENDBRANCH  77  80
ENDBRANCH  49  73
BRANCH  61  84
ATOM     84  C   UNL A   1      44.532  27.961  34.173  1.00  0.00     0.023 A 
ATOM     85  C   UNL A   1      45.690  28.762  34.193  1.00  0.00     0.012 A 
ATOM     86  C   UNL A   1      44.451  26.840  35.025  1.00  0.00     0.148 A 
ATOM     87  C   UNL A   1      46.761  28.439  35.028  1.00  0.00     0.002 A 
ATOM     88  C   UNL A   1      45.498  26.556  35.892  1.00  0.00     0.091 A 
ATOM     89  F   UNL A   1      43.345  26.084  34.982  1.00  0.00    -0.205 F 
ATOM     90  C   UNL A   1      46.659  27.347  35.886  1.00  0.00     0.022 A 
BRANCH  88  91
ATOM     91  S   UNL A   1      45.423  25.230  37.101  1.00  0.00     0.127 S 
ATOM     92  O   UNL A   1      44.483  25.774  38.081  1.00  0.00    -0.237 OA
ATOM     93  O   UNL A   1      44.902  24.119  36.306  1.00  0.00    -0.237 OA
ATOM     94  O   UNL A   1      46.784  25.047  37.589  1.00  0.00    -0.744 OA
ENDBRANCH  88  91
ENDBRANCH  61  84
ENDBRANCH  35  36
ENDBRANCH  27  30
ENDBRANCH  25  26
ENDBRANCH  24  25
ENDBRANCH   1  24
TORSDOF 17
ENDMDL
MODEL 3
REMARK VINA RESULT:     -11.6      5.696     10.300
REMARK SMILES N#Cc1ccc(C[N@H+]2CCCC[C@H]2C(=O)NCCCCNC(=O)c2ccc(-c3c4nc(c(-c5cccc(S(=O)(=O)[O-])c5F)c5ccc([nH]5)c(-c5cccc(S(=O)(=O)[O-])c5F)c5nc(c(-c6cccc(S(=O)(=O)[O-])c6F)c6ccc3[nH]6)C=C5)C=C4)cc2)c(F)c1
REMARK SMILES IDX 18 1 17 2 16 3 14 4 15 5 13 7 8 8 9 9 10 11 12 12 11 13 7 14
REMARK SMILES IDX 6 15 3 16 4 17 89 18 5 19 87 20 88 21 2 22 1 23 19 24 20 25
REMARK SMILES IDX 21 26 22 27 23 29 24 30 25 31 86 32 26 33 85 34 27 35 28 36
REMARK SMILES IDX 29 37 79 38 30 39 84 40 78 41 80 42 31 43 83 44 77 45 76 46
REMARK SMILES IDX 32 48 64 49 44 50 63 51 45 52 48 53 62 54 81 55 46 56 47 57
REMARK SMILES IDX 61 59 82 60 49 61 33 62 34 63 42 64 35 65 37 66 43 67 36 68
REMARK SMILES IDX 38 69 39 70 40 71 41 72 65 73 66 74 74 75 67 76 69 77 75 78
REMARK SMILES IDX 68 79 70 80 71 81 72 82 73 83 50 84 51 85 59 86 52 87 54 88
REMARK SMILES IDX 60 89 53 90 55 91 56 92 57 93 58 94
REMARK H PARENT 16 6 8 10 21 28 80 47 48 58
REMARK Flexibility Score: inf
ROOT
ATOM      1  C   UNL A   1      36.712  21.241  25.435  1.00  0.00     0.023 C 
ENDROOT
BRANCH   1   2
ATOM      2  C   UNL A   1      36.695  22.763  25.271  1.00  0.00     0.116 C 
BRANCH   2   3
ATOM      3  N   UNL A   1      35.608  23.311  26.049  1.00  0.00    -0.351 N 
ATOM      4  C   UNL A   1      34.427  23.834  25.615  1.00  0.00     0.278 C 
ATOM      5  O   UNL A   1      33.890  24.651  26.364  1.00  0.00    -0.268 OA
ATOM      6  H   UNL A   1      35.739  23.306  27.025  1.00  0.00     0.163 HD
BRANCH   4   7
ATOM      7  C   UNL A   1      33.832  23.354  24.265  1.00  0.00     0.274 C 
ATOM      8  N   UNL A   1      32.348  23.258  24.254  1.00  0.00    -0.321 N 
ATOM      9  C   UNL A   1      31.673  24.545  24.439  1.00  0.00     0.263 C 
ATOM     10  H   UNL A   1      32.129  22.993  23.294  1.00  0.00     0.349 HD
ATOM     11  C   UNL A   1      32.165  25.607  23.443  1.00  0.00     0.062 C 
ATOM     12  C   UNL A   1      34.272  24.291  23.134  1.00  0.00     0.076 C 
ATOM     13  C   UNL A   1      33.683  25.682  23.318  1.00  0.00     0.012 C 
BRANCH   8  14
ATOM     14  C   UNL A   1      31.771  22.129  25.008  1.00  0.00     0.302 C 
BRANCH  14  15
ATOM     15  C   UNL A   1      32.137  20.730  24.573  1.00  0.00     0.042 A 
ATOM     16  C   UNL A   1      33.200  18.300  23.643  1.00  0.00     0.055 A 
ATOM     17  C   UNL A   1      33.209  18.595  25.011  1.00  0.00     0.020 A 
ATOM     18  C   UNL A   1      32.572  19.169  22.752  1.00  0.00     0.059 A 
ATOM     19  C   UNL A   1      32.684  19.807  25.474  1.00  0.00     0.014 A 
ATOM     20  C   UNL A   1      32.019  20.354  23.229  1.00  0.00     0.133 A 
ATOM     21  F   UNL A   1      31.451  21.193  22.350  1.00  0.00    -0.206 F 
BRANCH  16  22
ATOM     22  C   UNL A   1      33.865  17.127  23.155  1.00  0.00     0.099 C 
ATOM     23  N   UNL A   1      34.400  16.179  22.763  1.00  0.00    -0.192 NA
ENDBRANCH  16  22
ENDBRANCH  14  15
ENDBRANCH   8  14
ENDBRANCH   4   7
ENDBRANCH   2   3
ENDBRANCH   1   2
BRANCH   1  24
ATOM     24  C   UNL A   1      38.030  20.585  25.003  1.00  0.00     0.023 C 
BRANCH  24  25
ATOM     25  C   UNL A   1      39.169  20.738  26.004  1.00  0.00     0.116 C 
BRANCH  25  26
ATOM     26  N   UNL A   1      40.058  19.586  25.992  1.00  0.00    -0.352 N 
ATOM     27  C   UNL A   1      41.430  19.561  26.049  1.00  0.00     0.251 C 
ATOM     28  H   UNL A   1      39.617  18.707  25.936  1.00  0.00     0.163 HD
ATOM     29  O   UNL A   1      42.038  18.520  25.817  1.00  0.00    -0.269 OA
BRANCH  27  30
ATOM     30  C   UNL A   1      42.164  20.804  26.365  1.00  0.00     0.039 A 
ATOM     31  C   UNL A   1      42.576  21.631  25.319  1.00  0.00     0.014 A 
ATOM     32  C   UNL A   1      42.402  21.168  27.693  1.00  0.00     0.014 A 
ATOM     33  C   UNL A   1      43.165  22.862  25.608  1.00  0.00     0.010 A 
ATOM     34  C   UNL A   1      42.916  22.429  27.979  1.00  0.00     0.010 A 
ATOM     35  C   UNL A   1      43.296  23.293  26.939  1.00  0.00    -0.014 A 
BRANCH  35  36
ATOM     36  C   UNL A   1      43.780  24.660  27.265  1.00  0.00     0.031 A 
ATOM     37  C   UNL A   1      42.825  25.710  27.759  1.00  0.00     0.074 A 
ATOM     38  C   UNL A   1      45.067  24.979  27.024  1.00  0.00     0.049 A 
ATOM     39  N   UNL A   1      43.051  26.970  28.019  1.00  0.00    -0.248 NA
ATOM     40  C   UNL A   1      41.428  25.294  27.972  1.00  0.00     0.031 C 
ATOM     41  C   UNL A   1      46.079  24.065  26.486  1.00  0.00     0.029 A 
ATOM     42  N   UNL A   1      45.740  26.168  27.168  1.00  0.00    -0.354 N 
ATOM     43  C   UNL A   1      41.826  27.509  28.389  1.00  0.00     0.074 A 
ATOM     44  C   UNL A   1      40.853  26.444  28.297  1.00  0.00     0.031 C 
ATOM     45  C   UNL A   1      47.240  24.724  26.349  1.00  0.00     0.029 A 
ATOM     46  C   UNL A   1      47.046  26.117  26.738  1.00  0.00     0.049 A 
ATOM     47  H   UNL A   1      45.327  26.978  27.544  1.00  0.00     0.167 HD
ATOM     48  C   UNL A   1      41.540  28.772  28.785  1.00  0.00     0.034 A 
ATOM     49  C   UNL A   1      47.976  27.088  26.636  1.00  0.00     0.034 A 
ATOM     50  C   UNL A   1      42.515  29.825  28.888  1.00  0.00     0.049 A 
ATOM     51  C   UNL A   1      47.627  28.485  27.067  1.00  0.00     0.074 A 
ATOM     52  C   UNL A   1      42.338  31.114  29.359  1.00  0.00     0.029 A 
ATOM     53  N   UNL A   1      43.838  29.724  28.487  1.00  0.00    -0.354 N 
ATOM     54  N   UNL A   1      46.502  28.938  27.566  1.00  0.00    -0.248 NA
ATOM     55  C   UNL A   1      48.681  29.504  26.947  1.00  0.00     0.031 C 
ATOM     56  C   UNL A   1      43.538  31.809  29.190  1.00  0.00     0.029 A 
ATOM     57  C   UNL A   1      44.480  30.938  28.668  1.00  0.00     0.049 A 
ATOM     58  H   UNL A   1      44.258  28.911  28.126  1.00  0.00     0.167 HD
ATOM     59  C   UNL A   1      46.721  30.282  27.845  1.00  0.00     0.074 A 
ATOM     60  C   UNL A   1      48.094  30.565  27.484  1.00  0.00     0.031 C 
ATOM     61  C   UNL A   1      45.859  31.201  28.343  1.00  0.00     0.034 A 
BRANCH  48  62
ATOM     62  C   UNL A   1      40.113  29.089  29.155  1.00  0.00     0.023 A 
ATOM     63  C   UNL A   1      39.159  29.323  28.144  1.00  0.00     0.012 A 
ATOM     64  C   UNL A   1      39.704  29.089  30.503  1.00  0.00     0.148 A 
ATOM     65  C   UNL A   1      37.830  29.589  28.469  1.00  0.00     0.002 A 
ATOM     66  C   UNL A   1      38.369  29.304  30.818  1.00  0.00     0.091 A 
ATOM     67  F   UNL A   1      40.628  28.878  31.451  1.00  0.00    -0.205 F 
ATOM     68  C   UNL A   1      37.433  29.569  29.804  1.00  0.00     0.022 A 
BRANCH  66  69
ATOM     69  S   UNL A   1      37.740  29.217  32.497  1.00  0.00     0.127 S 
ATOM     70  O   UNL A   1      38.683  30.079  33.210  1.00  0.00    -0.237 OA
ATOM     71  O   UNL A   1      36.395  29.776  32.349  1.00  0.00    -0.237 OA
ATOM     72  O   UNL A   1      37.779  27.811  32.873  1.00  0.00    -0.744 OA
ENDBRANCH  66  69
ENDBRANCH  48  62
BRANCH  49  73
ATOM     73  C   UNL A   1      49.338  26.768  26.118  1.00  0.00     0.023 A 
ATOM     74  C   UNL A   1      50.247  26.068  26.934  1.00  0.00     0.012 A 
ATOM     75  C   UNL A   1      49.730  27.144  24.819  1.00  0.00     0.148 A 
ATOM     76  C   UNL A   1      51.536  25.782  26.481  1.00  0.00     0.002 A 
ATOM     77  C   UNL A   1      50.994  26.804  24.351  1.00  0.00     0.091 A 
ATOM     78  F   UNL A   1      48.852  27.814  24.060  1.00  0.00    -0.205 F 
ATOM     79  C   UNL A   1      51.906  26.142  25.188  1.00  0.00     0.022 A 
BRANCH  77  80
ATOM     80  S   UNL A   1      51.514  27.113  22.660  1.00  0.00     0.127 S 
ATOM     81  O   UNL A   1      51.721  28.558  22.670  1.00  0.00    -0.237 OA
ATOM     82  O   UNL A   1      52.737  26.315  22.575  1.00  0.00    -0.237 OA
ATOM     83  O   UNL A   1      50.425  26.639  21.818  1.00  0.00    -0.744 OA
ENDBRANCH  77  80
ENDBRANCH  49  73
BRANCH  61  84
ATOM     84  C   UNL A   1      46.371  32.600  28.567  1.00  0.00     0.023 A 
ATOM     85  C   UNL A   1      46.918  32.961  29.814  1.00  0.00     0.012 A 
ATOM     86  C   UNL A   1      46.394  33.529  27.506  1.00  0.00     0.148 A 
ATOM     87  C   UNL A   1      47.455  34.234  30.010  1.00  0.00     0.002 A 
ATOM     88  C   UNL A   1      46.980  34.774  27.693  1.00  0.00     0.091 A 
ATOM     89  F   UNL A   1      45.858  33.168  26.331  1.00  0.00    -0.205 F 
ATOM     90  C   UNL A   1      47.499  35.133  28.948  1.00  0.00     0.022 A 
BRANCH  88  91
ATOM     91  S   UNL A   1      47.170  35.965  26.362  1.00  0.00     0.127 S 
ATOM     92  O   UNL A   1      45.782  36.346  26.102  1.00  0.00    -0.237 OA
ATOM     93  O   UNL A   1      47.982  37.005  26.993  1.00  0.00    -0.237 OA
ATOM     94  O   UNL A   1      47.828  35.254  25.272  1.00  0.00    -0.744 OA
ENDBRANCH  88  91
ENDBRANCH  61  84
ENDBRANCH  35  36
ENDBRANCH  27  30
ENDBRANCH  25  26
ENDBRANCH  24  25
ENDBRANCH   1  24
TORSDOF 17
ENDMDL
