MODEL 1
REMARK VINA RESULT:     -12.1      0.000      0.000
REMARK SMILES Cc1c[nH]c(C[N@H+]2C[C@@H]3CN(S(C)(=O)=O)C[C@]3(C(=O)NCCCCNC(=O)c3ccc(-c4c5nc(c(-c6cccc(S(=O)(=O)[O-])c6F)c6ccc([nH]6)c(-c6cccc(S(=O)(=O)[O-])c6F)c6nc(c(-c7cccc(S(=O)(=O)[O-])c7F)c7ccc4[nH]7)C=C6)C=C5)cc3)C2)n1
REMARK SMILES IDX 23 1 22 2 21 3 20 4 18 5 19 6 17 8 7 9 8 10 91 11 9 13 10 14
REMARK SMILES IDX 16 15 11 16 6 17 5 18 1 19 2 20 3 21 92 22 4 23 12 25 13 26
REMARK SMILES IDX 14 27 15 28 24 29 25 30 26 31 27 33 28 34 29 35 90 36 30 37
REMARK SMILES IDX 89 38 31 39 32 40 33 41 83 42 34 43 88 44 82 45 84 46 35 47
REMARK SMILES IDX 87 48 81 49 80 50 36 52 68 53 48 54 67 55 49 56 52 57 66 58
REMARK SMILES IDX 85 59 50 60 51 61 65 63 86 64 53 65 37 66 38 67 46 68 39 69
REMARK SMILES IDX 41 70 47 71 40 72 42 73 43 74 44 75 45 76 69 77 70 78 78 79
REMARK SMILES IDX 71 80 73 81 79 82 72 83 74 84 75 85 76 86 77 87 54 88 55 89
REMARK SMILES IDX 63 90 56 91 58 92 64 93 57 94 59 95 60 96 61 97 62 98
REMARK H PARENT 20 7 7 12 4 24 25 32 84 51 52 62
REMARK Flexibility Score: inf
ROOT
ATOM      1  C   UNL A   1      31.640  29.293  26.447  1.00  0.00     0.023 C 
ENDROOT
BRANCH   1   2
ATOM      2  C   UNL A   1      31.913  28.033  27.249  1.00  0.00     0.023 C 
BRANCH   2   3
ATOM      3  C   UNL A   1      32.360  26.830  26.409  1.00  0.00     0.116 C 
BRANCH   3   4
ATOM      4  N   UNL A   1      31.649  25.638  26.836  1.00  0.00    -0.355 N 
ATOM      5  C   UNL A   1      31.334  24.546  26.054  1.00  0.00     0.233 C 
ATOM      6  O   UNL A   1      30.295  23.936  26.309  1.00  0.00    -0.274 OA
ATOM      7  H   UNL A   1      31.365  25.606  27.779  1.00  0.00     0.163 HD
BRANCH   5   8
ATOM      8  C   UNL A   1      32.356  24.155  24.911  1.00  0.00     0.121 C 
ATOM      9  N   UNL A   1      34.353  22.725  25.567  1.00  0.00    -0.327 N 
ATOM     10  C   UNL A   1      34.166  22.597  24.145  1.00  0.00     0.268 C 
ATOM     11  C   UNL A   1      33.091  23.318  26.070  1.00  0.00     0.281 C 
ATOM     12  H   UNL A   1      35.159  23.315  25.773  1.00  0.00     0.348 HD
ATOM     13  C   UNL A   1      32.691  22.897  23.962  1.00  0.00     0.082 C 
ATOM     14  C   UNL A   1      32.460  23.214  22.486  1.00  0.00     0.113 C 
ATOM     15  C   UNL A   1      31.150  24.434  23.938  1.00  0.00     0.125 C 
ATOM     16  N   UNL A   1      31.698  24.439  22.559  1.00  0.00    -0.200 NA
BRANCH   9  17
ATOM     17  C   UNL A   1      34.701  21.454  26.243  1.00  0.00     0.338 C 
BRANCH  17  18
ATOM     18  C   UNL A   1      34.094  20.215  25.640  1.00  0.00     0.161 A 
ATOM     19  C   UNL A   1      34.129  17.312  23.588  1.00  0.00     0.068 C 
ATOM     20  C   UNL A   1      33.791  18.375  24.559  1.00  0.00     0.056 A 
ATOM     21  C   UNL A   1      32.771  18.440  25.480  1.00  0.00     0.107 A 
ATOM     22  N   UNL A   1      34.582  19.491  24.652  1.00  0.00    -0.233 NA
ATOM     23  N   UNL A   1      32.955  19.627  26.137  1.00  0.00    -0.344 N 
ATOM     24  H   UNL A   1      32.372  19.995  26.840  1.00  0.00     0.167 HD
ENDBRANCH  17  18
ENDBRANCH   9  17
BRANCH  16  25
ATOM     25  S   UNL A   1      32.345  25.834  21.870  1.00  0.00     0.211 S 
ATOM     26  C   UNL A   1      31.724  27.180  22.873  1.00  0.00     0.176 C 
ATOM     27  O   UNL A   1      33.775  25.791  22.073  1.00  0.00    -0.213 OA
ATOM     28  O   UNL A   1      31.787  25.980  20.541  1.00  0.00    -0.213 OA
ENDBRANCH  16  25
ENDBRANCH   5   8
ENDBRANCH   3   4
ENDBRANCH   2   3
ENDBRANCH   1   2
BRANCH   1  29
ATOM     29  C   UNL A   1      32.844  30.206  26.320  1.00  0.00     0.116 C 
BRANCH  29  30
ATOM     30  N   UNL A   1      32.622  31.570  26.799  1.00  0.00    -0.352 N 
ATOM     31  C   UNL A   1      33.494  32.327  27.549  1.00  0.00     0.251 C 
ATOM     32  H   UNL A   1      31.763  31.990  26.560  1.00  0.00     0.163 HD
ATOM     33  O   UNL A   1      33.209  33.448  27.952  1.00  0.00    -0.269 OA
BRANCH  31  34
ATOM     34  C   UNL A   1      34.783  31.700  27.887  1.00  0.00     0.039 A 
ATOM     35  C   UNL A   1      35.901  32.513  28.079  1.00  0.00     0.014 A 
ATOM     36  C   UNL A   1      34.789  30.352  28.252  1.00  0.00     0.014 A 
ATOM     37  C   UNL A   1      37.020  31.982  28.720  1.00  0.00     0.010 A 
ATOM     38  C   UNL A   1      35.856  29.868  28.992  1.00  0.00     0.010 A 
ATOM     39  C   UNL A   1      36.985  30.672  29.224  1.00  0.00    -0.014 A 
BRANCH  39  40
ATOM     40  C   UNL A   1      38.122  30.082  29.973  1.00  0.00     0.031 A 
ATOM     41  C   UNL A   1      38.399  30.575  31.367  1.00  0.00     0.074 A 
ATOM     42  C   UNL A   1      38.963  29.214  29.375  1.00  0.00     0.049 A 
ATOM     43  N   UNL A   1      39.424  30.337  32.139  1.00  0.00    -0.248 NA
ATOM     44  C   UNL A   1      37.412  31.501  31.951  1.00  0.00     0.031 C 
ATOM     45  C   UNL A   1      38.837  28.709  28.006  1.00  0.00     0.029 A 
ATOM     46  N   UNL A   1      40.116  28.629  29.837  1.00  0.00    -0.354 N 
ATOM     47  C   UNL A   1      39.232  31.123  33.268  1.00  0.00     0.074 A 
ATOM     48  C   UNL A   1      38.021  31.881  33.062  1.00  0.00     0.031 C 
ATOM     49  C   UNL A   1      39.867  27.889  27.742  1.00  0.00     0.029 A 
ATOM     50  C   UNL A   1      40.753  27.844  28.902  1.00  0.00     0.049 A 
ATOM     51  H   UNL A   1      40.456  28.757  30.753  1.00  0.00     0.167 HD
ATOM     52  C   UNL A   1      39.981  31.187  34.392  1.00  0.00     0.034 A 
ATOM     53  C   UNL A   1      41.926  27.185  28.967  1.00  0.00     0.034 A 
ATOM     54  C   UNL A   1      41.154  30.390  34.612  1.00  0.00     0.049 A 
ATOM     55  C   UNL A   1      42.728  27.247  30.241  1.00  0.00     0.074 A 
ATOM     56  C   UNL A   1      41.937  30.311  35.749  1.00  0.00     0.029 A 
ATOM     57  N   UNL A   1      41.714  29.536  33.675  1.00  0.00    -0.354 N 
ATOM     58  N   UNL A   1      42.466  27.897  31.349  1.00  0.00    -0.248 NA
ATOM     59  C   UNL A   1      43.970  26.462  30.289  1.00  0.00     0.031 C 
ATOM     60  C   UNL A   1      42.992  29.436  35.486  1.00  0.00     0.029 A 
ATOM     61  C   UNL A   1      42.838  28.932  34.204  1.00  0.00     0.049 A 
ATOM     62  H   UNL A   1      41.364  29.385  32.768  1.00  0.00     0.167 HD
ATOM     63  C   UNL A   1      43.477  27.559  32.240  1.00  0.00     0.074 A 
ATOM     64  C   UNL A   1      44.357  26.644  31.544  1.00  0.00     0.031 C 
ATOM     65  C   UNL A   1      43.663  27.971  33.518  1.00  0.00     0.034 A 
BRANCH  52  66
ATOM     66  C   UNL A   1      39.530  32.123  35.481  1.00  0.00     0.023 A 
ATOM     67  C   UNL A   1      38.689  31.652  36.510  1.00  0.00     0.012 A 
ATOM     68  C   UNL A   1      39.973  33.459  35.509  1.00  0.00     0.148 A 
ATOM     69  C   UNL A   1      38.260  32.505  37.525  1.00  0.00     0.002 A 
ATOM     70  C   UNL A   1      39.587  34.289  36.553  1.00  0.00     0.091 A 
ATOM     71  F   UNL A   1      40.753  33.894  34.510  1.00  0.00    -0.205 F 
ATOM     72  C   UNL A   1      38.719  33.819  37.553  1.00  0.00     0.022 A 
BRANCH  70  73
ATOM     73  S   UNL A   1      40.192  35.970  36.727  1.00  0.00     0.127 S 
ATOM     74  O   UNL A   1      39.792  36.561  35.450  1.00  0.00    -0.237 OA
ATOM     75  O   UNL A   1      39.436  36.448  37.884  1.00  0.00    -0.237 OA
ATOM     76  O   UNL A   1      41.629  35.862  36.939  1.00  0.00    -0.744 OA
ENDBRANCH  70  73
ENDBRANCH  52  66
BRANCH  53  77
ATOM     77  C   UNL A   1      42.395  26.368  27.811  1.00  0.00     0.023 A 
ATOM     78  C   UNL A   1      43.275  26.939  26.870  1.00  0.00     0.012 A 
ATOM     79  C   UNL A   1      41.985  25.032  27.641  1.00  0.00     0.148 A 
ATOM     80  C   UNL A   1      43.707  26.208  25.762  1.00  0.00     0.002 A 
ATOM     81  C   UNL A   1      42.461  24.291  26.565  1.00  0.00     0.091 A 
ATOM     82  F   UNL A   1      41.141  24.508  28.542  1.00  0.00    -0.205 F 
ATOM     83  C   UNL A   1      43.307  24.883  25.614  1.00  0.00     0.022 A 
BRANCH  81  84
ATOM     84  S   UNL A   1      42.099  22.544  26.358  1.00  0.00     0.127 S 
ATOM     85  O   UNL A   1      42.673  21.974  27.573  1.00  0.00    -0.237 OA
ATOM     86  O   UNL A   1      40.637  22.547  26.306  1.00  0.00    -0.237 OA
ATOM     87  O   UNL A   1      42.745  22.154  25.112  1.00  0.00    -0.744 OA
ENDBRANCH  81  84
ENDBRANCH  53  77
BRANCH  65  88
ATOM     88  C   UNL A   1      44.811  27.384  34.295  1.00  0.00     0.023 A 
ATOM     89  C   UNL A   1      46.074  28.003  34.276  1.00  0.00     0.012 A 
ATOM     90  C   UNL A   1      44.589  26.280  35.142  1.00  0.00     0.148 A 
ATOM     91  C   UNL A   1      47.108  27.518  35.077  1.00  0.00     0.002 A 
ATOM     92  C   UNL A   1      45.606  25.838  35.977  1.00  0.00     0.091 A 
ATOM     93  F   UNL A   1      43.381  25.698  35.130  1.00  0.00    -0.205 F 
ATOM     94  C   UNL A   1      46.870  26.448  35.937  1.00  0.00     0.022 A 
BRANCH  92  95
ATOM     95  S   UNL A   1      45.359  24.540  37.193  1.00  0.00     0.127 S 
ATOM     96  O   UNL A   1      45.113  23.378  36.342  1.00  0.00    -0.237 OA
ATOM     97  O   UNL A   1      46.644  24.524  37.891  1.00  0.00    -0.237 OA
ATOM     98  O   UNL A   1      44.229  24.960  38.010  1.00  0.00    -0.744 OA
ENDBRANCH  92  95
ENDBRANCH  65  88
ENDBRANCH  39  40
ENDBRANCH  31  34
ENDBRANCH  29  30
ENDBRANCH   1  29
TORSDOF 17
ENDMDL
MODEL 2
REMARK VINA RESULT:     -12.1      5.397      8.314
REMARK SMILES Cc1c[nH]c(C[N@H+]2C[C@@H]3CN(S(C)(=O)=O)C[C@]3(C(=O)NCCCCNC(=O)c3ccc(-c4c5nc(c(-c6cccc(S(=O)(=O)[O-])c6F)c6ccc([nH]6)c(-c6cccc(S(=O)(=O)[O-])c6F)c6nc(c(-c7cccc(S(=O)(=O)[O-])c7F)c7ccc4[nH]7)C=C6)C=C5)cc3)C2)n1
REMARK SMILES IDX 23 1 22 2 21 3 20 4 18 5 19 6 17 8 7 9 8 10 91 11 9 13 10 14
REMARK SMILES IDX 16 15 11 16 6 17 5 18 1 19 2 20 3 21 92 22 4 23 12 25 13 26
REMARK SMILES IDX 14 27 15 28 24 29 25 30 26 31 27 33 28 34 29 35 90 36 30 37
REMARK SMILES IDX 89 38 31 39 32 40 33 41 83 42 34 43 88 44 82 45 84 46 35 47
REMARK SMILES IDX 87 48 81 49 80 50 36 52 68 53 48 54 67 55 49 56 52 57 66 58
REMARK SMILES IDX 85 59 50 60 51 61 65 63 86 64 53 65 37 66 38 67 46 68 39 69
REMARK SMILES IDX 41 70 47 71 40 72 42 73 43 74 44 75 45 76 69 77 70 78 78 79
REMARK SMILES IDX 71 80 73 81 79 82 72 83 74 84 75 85 76 86 77 87 54 88 55 89
REMARK SMILES IDX 63 90 56 91 58 92 64 93 57 94 59 95 60 96 61 97 62 98
REMARK H PARENT 20 7 7 12 4 24 25 32 84 51 52 62
REMARK Flexibility Score: inf
ROOT
ATOM      1  C   UNL A   1      37.732  19.946  24.812  1.00  0.00     0.023 C 
ENDROOT
BRANCH   1   2
ATOM      2  C   UNL A   1      37.058  21.241  24.400  1.00  0.00     0.023 C 
BRANCH   2   3
ATOM      3  C   UNL A   1      36.529  22.082  25.568  1.00  0.00     0.116 C 
BRANCH   3   4
ATOM      4  N   UNL A   1      35.592  21.301  26.355  1.00  0.00    -0.355 N 
ATOM      5  C   UNL A   1      34.224  21.474  26.412  1.00  0.00     0.233 C 
ATOM      6  O   UNL A   1      33.653  21.209  27.470  1.00  0.00    -0.274 OA
ATOM      7  H   UNL A   1      35.971  20.575  26.903  1.00  0.00     0.163 HD
BRANCH   5   8
ATOM      8  C   UNL A   1      33.502  21.971  25.094  1.00  0.00     0.121 C 
ATOM      9  N   UNL A   1      32.987  20.229  23.315  1.00  0.00    -0.327 N 
ATOM     10  C   UNL A   1      32.127  21.362  23.087  1.00  0.00     0.268 C 
ATOM     11  C   UNL A   1      33.513  20.415  24.688  1.00  0.00     0.281 C 
ATOM     12  H   UNL A   1      33.735  20.198  22.622  1.00  0.00     0.348 HD
ATOM     13  C   UNL A   1      32.022  21.997  24.459  1.00  0.00     0.082 C 
ATOM     14  C   UNL A   1      31.503  23.422  24.274  1.00  0.00     0.113 C 
ATOM     15  C   UNL A   1      33.028  23.180  25.984  1.00  0.00     0.125 C 
ATOM     16  N   UNL A   1      32.436  24.186  25.068  1.00  0.00    -0.200 NA
BRANCH   9  17
ATOM     17  C   UNL A   1      32.319  18.921  23.127  1.00  0.00     0.338 C 
BRANCH  17  18
ATOM     18  C   UNL A   1      32.856  17.795  23.971  1.00  0.00     0.161 A 
ATOM     19  C   UNL A   1      35.441  15.747  25.299  1.00  0.00     0.068 C 
ATOM     20  C   UNL A   1      34.157  16.417  24.998  1.00  0.00     0.056 A 
ATOM     21  C   UNL A   1      32.945  16.338  25.643  1.00  0.00     0.107 A 
ATOM     22  N   UNL A   1      34.076  17.299  23.951  1.00  0.00    -0.233 NA
ATOM     23  N   UNL A   1      32.118  17.192  24.963  1.00  0.00    -0.344 N 
ATOM     24  H   UNL A   1      31.164  17.345  25.151  1.00  0.00     0.167 HD
ENDBRANCH  17  18
ENDBRANCH   9  17
BRANCH  16  25
ATOM     25  S   UNL A   1      33.382  25.351  24.303  1.00  0.00     0.211 S 
ATOM     26  C   UNL A   1      33.278  24.963  22.558  1.00  0.00     0.176 C 
ATOM     27  O   UNL A   1      32.725  26.626  24.484  1.00  0.00    -0.213 OA
ATOM     28  O   UNL A   1      34.756  25.158  24.717  1.00  0.00    -0.213 OA
ENDBRANCH  16  25
ENDBRANCH   5   8
ENDBRANCH   3   4
ENDBRANCH   2   3
ENDBRANCH   1   2
BRANCH   1  29
ATOM     29  C   UNL A   1      38.724  20.109  25.948  1.00  0.00     0.116 C 
BRANCH  29  30
ATOM     30  N   UNL A   1      39.932  19.296  25.816  1.00  0.00    -0.352 N 
ATOM     31  C   UNL A   1      41.218  19.685  26.121  1.00  0.00     0.251 C 
ATOM     32  H   UNL A   1      39.815  18.378  25.478  1.00  0.00     0.163 HD
ATOM     33  O   UNL A   1      42.184  18.955  25.935  1.00  0.00    -0.269 OA
BRANCH  31  34
ATOM     34  C   UNL A   1      41.383  21.051  26.644  1.00  0.00     0.039 A 
ATOM     35  C   UNL A   1      41.995  21.231  27.885  1.00  0.00     0.014 A 
ATOM     36  C   UNL A   1      41.157  22.124  25.779  1.00  0.00     0.014 A 
ATOM     37  C   UNL A   1      42.460  22.500  28.232  1.00  0.00     0.010 A 
ATOM     38  C   UNL A   1      41.725  23.351  26.079  1.00  0.00     0.010 A 
ATOM     39  C   UNL A   1      42.372  23.556  27.310  1.00  0.00    -0.014 A 
BRANCH  39  40
ATOM     40  C   UNL A   1      42.911  24.907  27.603  1.00  0.00     0.031 A 
ATOM     41  C   UNL A   1      42.007  25.917  28.255  1.00  0.00     0.074 A 
ATOM     42  C   UNL A   1      44.143  25.261  27.184  1.00  0.00     0.049 A 
ATOM     43  N   UNL A   1      42.198  27.194  28.448  1.00  0.00    -0.248 NA
ATOM     44  C   UNL A   1      40.689  25.433  28.706  1.00  0.00     0.031 C 
ATOM     45  C   UNL A   1      45.090  24.390  26.484  1.00  0.00     0.029 A 
ATOM     46  N   UNL A   1      44.795  26.467  27.256  1.00  0.00    -0.354 N 
ATOM     47  C   UNL A   1      41.010  27.672  28.986  1.00  0.00     0.074 A 
ATOM     48  C   UNL A   1      40.088  26.562  29.046  1.00  0.00     0.031 C 
ATOM     49  C   UNL A   1      46.201  25.089  26.196  1.00  0.00     0.029 A 
ATOM     50  C   UNL A   1      46.030  26.467  26.646  1.00  0.00     0.049 A 
ATOM     51  H   UNL A   1      44.416  27.259  27.704  1.00  0.00     0.167 HD
ATOM     52  C   UNL A   1      40.721  28.918  29.423  1.00  0.00     0.034 A 
ATOM     53  C   UNL A   1      46.910  27.469  26.454  1.00  0.00     0.034 A 
ATOM     54  C   UNL A   1      41.660  30.003  29.411  1.00  0.00     0.049 A 
ATOM     55  C   UNL A   1      46.577  28.843  26.975  1.00  0.00     0.074 A 
ATOM     56  C   UNL A   1      41.499  31.282  29.910  1.00  0.00     0.029 A 
ATOM     57  N   UNL A   1      42.934  29.937  28.870  1.00  0.00    -0.354 N 
ATOM     58  N   UNL A   1      45.497  29.248  27.599  1.00  0.00    -0.248 NA
ATOM     59  C   UNL A   1      47.594  29.890  26.799  1.00  0.00     0.031 C 
ATOM     60  C   UNL A   1      42.664  32.001  29.637  1.00  0.00     0.029 A 
ATOM     61  C   UNL A   1      43.568  31.155  29.015  1.00  0.00     0.049 A 
ATOM     62  H   UNL A   1      43.326  29.141  28.445  1.00  0.00     0.167 HD
ATOM     63  C   UNL A   1      45.724  30.577  27.934  1.00  0.00     0.074 A 
ATOM     64  C   UNL A   1      47.047  30.910  27.446  1.00  0.00     0.031 C 
ATOM     65  C   UNL A   1      44.911  31.446  28.583  1.00  0.00     0.034 A 
BRANCH  52  66
ATOM     66  C   UNL A   1      39.345  29.161  29.984  1.00  0.00     0.023 A 
ATOM     67  C   UNL A   1      39.029  28.723  31.287  1.00  0.00     0.012 A 
ATOM     68  C   UNL A   1      38.378  29.860  29.237  1.00  0.00     0.148 A 
ATOM     69  C   UNL A   1      37.760  28.938  31.821  1.00  0.00     0.002 A 
ATOM     70  C   UNL A   1      37.133  30.119  29.796  1.00  0.00     0.091 A 
ATOM     71  F   UNL A   1      38.689  30.247  27.992  1.00  0.00    -0.205 F 
ATOM     72  C   UNL A   1      36.817  29.646  31.080  1.00  0.00     0.022 A 
BRANCH  70  73
ATOM     73  S   UNL A   1      35.881  31.097  28.959  1.00  0.00     0.127 S 
ATOM     74  O   UNL A   1      35.273  30.102  28.075  1.00  0.00    -0.237 OA
ATOM     75  O   UNL A   1      35.033  31.523  30.072  1.00  0.00    -0.237 OA
ATOM     76  O   UNL A   1      36.593  32.175  28.287  1.00  0.00    -0.744 OA
ENDBRANCH  70  73
ENDBRANCH  52  66
BRANCH  53  77
ATOM     77  C   UNL A   1      48.213  27.206  25.778  1.00  0.00     0.023 A 
ATOM     78  C   UNL A   1      49.301  26.723  26.532  1.00  0.00     0.012 A 
ATOM     79  C   UNL A   1      48.380  27.423  24.397  1.00  0.00     0.148 A 
ATOM     80  C   UNL A   1      50.541  26.497  25.933  1.00  0.00     0.002 A 
ATOM     81  C   UNL A   1      49.602  27.144  23.794  1.00  0.00     0.091 A 
ATOM     82  F   UNL A   1      47.337  27.891  23.697  1.00  0.00    -0.205 F 
ATOM     83  C   UNL A   1      50.689  26.700  24.563  1.00  0.00     0.022 A 
BRANCH  81  84
ATOM     84  S   UNL A   1      49.854  27.258  22.019  1.00  0.00     0.127 S 
ATOM     85  O   UNL A   1      51.251  26.858  21.889  1.00  0.00    -0.237 OA
ATOM     86  O   UNL A   1      48.883  26.285  21.518  1.00  0.00    -0.237 OA
ATOM     87  O   UNL A   1      49.557  28.640  21.668  1.00  0.00    -0.744 OA
ENDBRANCH  81  84
ENDBRANCH  53  77
BRANCH  65  88
ATOM     88  C   UNL A   1      45.440  32.821  28.890  1.00  0.00     0.023 A 
ATOM     89  C   UNL A   1      46.210  33.048  30.046  1.00  0.00     0.012 A 
ATOM     90  C   UNL A   1      45.268  33.861  27.953  1.00  0.00     0.148 A 
ATOM     91  C   UNL A   1      46.785  34.297  30.275  1.00  0.00     0.002 A 
ATOM     92  C   UNL A   1      45.890  35.084  28.161  1.00  0.00     0.091 A 
ATOM     93  F   UNL A   1      44.517  33.625  26.868  1.00  0.00    -0.205 F 
ATOM     94  C   UNL A   1      46.639  35.309  29.327  1.00  0.00     0.022 A 
BRANCH  92  95
ATOM     95  S   UNL A   1      45.847  36.405  26.945  1.00  0.00     0.127 S 
ATOM     96  O   UNL A   1      44.417  36.694  26.870  1.00  0.00    -0.237 OA
ATOM     97  O   UNL A   1      46.646  37.445  27.594  1.00  0.00    -0.237 OA
ATOM     98  O   UNL A   1      46.434  35.858  25.730  1.00  0.00    -0.744 OA
ENDBRANCH  92  95
ENDBRANCH  65  88
ENDBRANCH  39  40
ENDBRANCH  31  34
ENDBRANCH  29  30
ENDBRANCH   1  29
TORSDOF 17
ENDMDL
MODEL 3
REMARK VINA RESULT:     -12.0      2.270      4.519
REMARK SMILES Cc1c[nH]c(C[N@H+]2C[C@@H]3CN(S(C)(=O)=O)C[C@]3(C(=O)NCCCCNC(=O)c3ccc(-c4c5nc(c(-c6cccc(S(=O)(=O)[O-])c6F)c6ccc([nH]6)c(-c6cccc(S(=O)(=O)[O-])c6F)c6nc(c(-c7cccc(S(=O)(=O)[O-])c7F)c7ccc4[nH]7)C=C6)C=C5)cc3)C2)n1
REMARK SMILES IDX 23 1 22 2 21 3 20 4 18 5 19 6 17 8 7 9 8 10 91 11 9 13 10 14
REMARK SMILES IDX 16 15 11 16 6 17 5 18 1 19 2 20 3 21 92 22 4 23 12 25 13 26
REMARK SMILES IDX 14 27 15 28 24 29 25 30 26 31 27 33 28 34 29 35 90 36 30 37
REMARK SMILES IDX 89 38 31 39 32 40 33 41 83 42 34 43 88 44 82 45 84 46 35 47
REMARK SMILES IDX 87 48 81 49 80 50 36 52 68 53 48 54 67 55 49 56 52 57 66 58
REMARK SMILES IDX 85 59 50 60 51 61 65 63 86 64 53 65 37 66 38 67 46 68 39 69
REMARK SMILES IDX 41 70 47 71 40 72 42 73 43 74 44 75 45 76 69 77 70 78 78 79
REMARK SMILES IDX 71 80 73 81 79 82 72 83 74 84 75 85 76 86 77 87 54 88 55 89
REMARK SMILES IDX 63 90 56 91 58 92 64 93 57 94 59 95 60 96 61 97 62 98
REMARK H PARENT 20 7 7 12 4 24 25 32 84 51 52 62
REMARK Flexibility Score: inf
ROOT
ATOM      1  C   UNL A   1      32.499  29.372  24.903  1.00  0.00     0.023 C 
ENDROOT
BRANCH   1   2
ATOM      2  C   UNL A   1      33.417  29.402  23.696  1.00  0.00     0.023 C 
BRANCH   2   3
ATOM      3  C   UNL A   1      33.967  28.032  23.280  1.00  0.00     0.116 C 
BRANCH   3   4
ATOM      4  N   UNL A   1      33.281  27.564  22.090  1.00  0.00    -0.355 N 
ATOM      5  C   UNL A   1      32.387  26.516  22.017  1.00  0.00     0.233 C 
ATOM      6  O   UNL A   1      32.348  25.863  20.974  1.00  0.00    -0.274 OA
ATOM      7  H   UNL A   1      33.473  28.043  21.251  1.00  0.00     0.163 HD
BRANCH   5   8
ATOM      8  C   UNL A   1      31.463  26.263  23.277  1.00  0.00     0.121 C 
ATOM      9  N   UNL A   1      29.407  27.737  23.534  1.00  0.00    -0.327 N 
ATOM     10  C   UNL A   1      29.202  26.550  24.324  1.00  0.00     0.268 C 
ATOM     11  C   UNL A   1      30.537  27.409  22.633  1.00  0.00     0.281 C 
ATOM     12  H   UNL A   1      29.616  28.537  24.132  1.00  0.00     0.348 HD
ATOM     13  C   UNL A   1      30.079  25.522  23.637  1.00  0.00     0.082 C 
ATOM     14  C   UNL A   1      30.285  24.362  24.609  1.00  0.00     0.113 C 
ATOM     15  C   UNL A   1      32.111  24.829  23.283  1.00  0.00     0.125 C 
ATOM     16  N   UNL A   1      31.717  24.181  24.557  1.00  0.00    -0.200 NA
BRANCH   9  17
ATOM     17  C   UNL A   1      28.200  28.187  22.804  1.00  0.00     0.338 C 
BRANCH  17  18
ATOM     18  C   UNL A   1      28.163  29.653  22.460  1.00  0.00     0.161 A 
ATOM     19  C   UNL A   1      28.902  33.086  23.014  1.00  0.00     0.068 C 
ATOM     20  C   UNL A   1      28.478  31.785  22.453  1.00  0.00     0.056 A 
ATOM     21  C   UNL A   1      28.054  31.465  21.183  1.00  0.00     0.107 A 
ATOM     22  N   UNL A   1      28.512  30.660  23.235  1.00  0.00    -0.233 NA
ATOM     23  N   UNL A   1      27.826  30.115  21.209  1.00  0.00    -0.344 N 
ATOM     24  H   UNL A   1      27.480  29.573  20.465  1.00  0.00     0.167 HD
ENDBRANCH  17  18
ENDBRANCH   9  17
BRANCH  16  25
ATOM     25  S   UNL A   1      32.609  24.394  25.971  1.00  0.00     0.211 S 
ATOM     26  C   UNL A   1      33.058  22.741  26.493  1.00  0.00     0.176 C 
ATOM     27  O   UNL A   1      33.838  25.061  25.608  1.00  0.00    -0.213 OA
ATOM     28  O   UNL A   1      31.730  24.951  26.978  1.00  0.00    -0.213 OA
ENDBRANCH  16  25
ENDBRANCH   5   8
ENDBRANCH   3   4
ENDBRANCH   2   3
ENDBRANCH   1   2
BRANCH   1  29
ATOM     29  C   UNL A   1      33.203  29.677  26.212  1.00  0.00     0.116 C 
BRANCH  29  30
ATOM     30  N   UNL A   1      32.934  31.011  26.746  1.00  0.00    -0.352 N 
ATOM     31  C   UNL A   1      33.785  31.771  27.519  1.00  0.00     0.251 C 
ATOM     32  H   UNL A   1      32.058  31.407  26.532  1.00  0.00     0.163 HD
ATOM     33  O   UNL A   1      33.461  32.862  27.969  1.00  0.00    -0.269 OA
BRANCH  31  34
ATOM     34  C   UNL A   1      35.099  31.180  27.822  1.00  0.00     0.039 A 
ATOM     35  C   UNL A   1      36.192  32.025  28.015  1.00  0.00     0.014 A 
ATOM     36  C   UNL A   1      35.157  29.825  28.154  1.00  0.00     0.014 A 
ATOM     37  C   UNL A   1      37.339  31.518  28.626  1.00  0.00     0.010 A 
ATOM     38  C   UNL A   1      36.251  29.360  28.865  1.00  0.00     0.010 A 
ATOM     39  C   UNL A   1      37.356  30.196  29.099  1.00  0.00    -0.014 A 
BRANCH  39  40
ATOM     40  C   UNL A   1      38.525  29.629  29.815  1.00  0.00     0.031 A 
ATOM     41  C   UNL A   1      38.862  30.163  31.180  1.00  0.00     0.074 A 
ATOM     42  C   UNL A   1      39.339  28.741  29.208  1.00  0.00     0.049 A 
ATOM     43  N   UNL A   1      39.920  29.947  31.914  1.00  0.00    -0.248 NA
ATOM     44  C   UNL A   1      37.901  31.108  31.778  1.00  0.00     0.031 C 
ATOM     45  C   UNL A   1      39.154  28.195  27.862  1.00  0.00     0.029 A 
ATOM     46  N   UNL A   1      40.511  28.169  29.637  1.00  0.00    -0.354 N 
ATOM     47  C   UNL A   1      39.777  30.768  33.025  1.00  0.00     0.074 A 
ATOM     48  C   UNL A   1      38.557  31.521  32.850  1.00  0.00     0.031 C 
ATOM     49  C   UNL A   1      40.172  27.366  27.578  1.00  0.00     0.029 A 
ATOM     50  C   UNL A   1      41.107  27.356  28.699  1.00  0.00     0.049 A 
ATOM     51  H   UNL A   1      40.890  28.325  30.533  1.00  0.00     0.167 HD
ATOM     52  C   UNL A   1      40.574  30.864  34.113  1.00  0.00     0.034 A 
ATOM     53  C   UNL A   1      42.282  26.697  28.733  1.00  0.00     0.034 A 
ATOM     54  C   UNL A   1      41.755  30.073  34.306  1.00  0.00     0.049 A 
ATOM     55  C   UNL A   1      43.139  26.798  29.969  1.00  0.00     0.074 A 
ATOM     56  C   UNL A   1      42.586  30.028  35.410  1.00  0.00     0.029 A 
ATOM     57  N   UNL A   1      42.275  29.191  33.372  1.00  0.00    -0.354 N 
ATOM     58  N   UNL A   1      42.924  27.481  31.067  1.00  0.00    -0.248 NA
ATOM     59  C   UNL A   1      44.382  26.012  29.987  1.00  0.00     0.031 C 
ATOM     60  C   UNL A   1      43.630  29.145  35.128  1.00  0.00     0.029 A 
ATOM     61  C   UNL A   1      43.420  28.602  33.870  1.00  0.00     0.049 A 
ATOM     62  H   UNL A   1      41.885  29.012  32.487  1.00  0.00     0.167 HD
ATOM     63  C   UNL A   1      43.973  27.169  31.924  1.00  0.00     0.074 A 
ATOM     64  C   UNL A   1      44.823  26.233  31.218  1.00  0.00     0.031 C 
ATOM     65  C   UNL A   1      44.215  27.620  33.179  1.00  0.00     0.034 A 
BRANCH  52  66
ATOM     66  C   UNL A   1      40.170  31.834  35.192  1.00  0.00     0.023 A 
ATOM     67  C   UNL A   1      40.706  33.138  35.204  1.00  0.00     0.012 A 
ATOM     68  C   UNL A   1      39.228  31.466  36.171  1.00  0.00     0.148 A 
ATOM     69  C   UNL A   1      40.345  34.046  36.196  1.00  0.00     0.002 A 
ATOM     70  C   UNL A   1      38.830  32.394  37.125  1.00  0.00     0.091 A 
ATOM     71  F   UNL A   1      38.747  30.215  36.158  1.00  0.00    -0.205 F 
ATOM     72  C   UNL A   1      39.399  33.679  37.149  1.00  0.00     0.022 A 
BRANCH  70  73
ATOM     73  S   UNL A   1      37.555  32.048  38.340  1.00  0.00     0.127 S 
ATOM     74  O   UNL A   1      37.244  30.648  38.050  1.00  0.00    -0.237 OA
ATOM     75  O   UNL A   1      38.266  32.266  39.599  1.00  0.00    -0.237 OA
ATOM     76  O   UNL A   1      36.478  32.991  38.076  1.00  0.00    -0.744 OA
ENDBRANCH  70  73
ENDBRANCH  52  66
BRANCH  53  77
ATOM     77  C   UNL A   1      42.701  25.845  27.584  1.00  0.00     0.023 A 
ATOM     78  C   UNL A   1      43.566  26.375  26.606  1.00  0.00     0.012 A 
ATOM     79  C   UNL A   1      42.257  24.515  27.455  1.00  0.00     0.148 A 
ATOM     80  C   UNL A   1      43.951  25.612  25.503  1.00  0.00     0.002 A 
ATOM     81  C   UNL A   1      42.687  23.741  26.383  1.00  0.00     0.091 A 
ATOM     82  F   UNL A   1      41.428  24.031  28.390  1.00  0.00    -0.205 F 
ATOM     83  C   UNL A   1      43.518  24.293  25.396  1.00  0.00     0.022 A 
BRANCH  81  84
ATOM     84  S   UNL A   1      42.281  21.998  26.225  1.00  0.00     0.127 S 
ATOM     85  O   UNL A   1      40.840  22.047  25.996  1.00  0.00    -0.237 OA
ATOM     86  O   UNL A   1      43.079  21.611  25.061  1.00  0.00    -0.237 OA
ATOM     87  O   UNL A   1      42.701  21.381  27.475  1.00  0.00    -0.744 OA
ENDBRANCH  81  84
ENDBRANCH  53  77
BRANCH  65  88
ATOM     88  C   UNL A   1      45.395  27.055  33.922  1.00  0.00     0.023 A 
ATOM     89  C   UNL A   1      46.641  27.710  33.885  1.00  0.00     0.012 A 
ATOM     90  C   UNL A   1      45.223  25.934  34.759  1.00  0.00     0.148 A 
ATOM     91  C   UNL A   1      47.704  27.244  34.657  1.00  0.00     0.002 A 
ATOM     92  C   UNL A   1      46.270  25.510  35.566  1.00  0.00     0.091 A 
ATOM     93  F   UNL A   1      44.032  25.318  34.765  1.00  0.00    -0.205 F 
ATOM     94  C   UNL A   1      47.516  26.156  35.507  1.00  0.00     0.022 A 
BRANCH  92  95
ATOM     95  S   UNL A   1      46.086  24.190  36.769  1.00  0.00     0.127 S 
ATOM     96  O   UNL A   1      45.807  23.041  35.909  1.00  0.00    -0.237 OA
ATOM     97  O   UNL A   1      47.402  24.170  37.406  1.00  0.00    -0.237 OA
ATOM     98  O   UNL A   1      44.993  24.588  37.645  1.00  0.00    -0.744 OA
ENDBRANCH  92  95
ENDBRANCH  65  88
ENDBRANCH  39  40
ENDBRANCH  31  34
ENDBRANCH  29  30
ENDBRANCH   1  29
TORSDOF 17
ENDMDL
