MODEL 1
REMARK VINA RESULT:     -10.3      0.000      0.000
REMARK SMILES N#CCC1(C[N@@H+]2CCO[C@H](CC(=O)NCCCCNC(=O)c3ccc(-c4c5nc(c(-c6cccc(S(=O)(=O)[O-])c6F)c6ccc([nH]6)c(-c6cccc(S(=O)(=O)[O-])c6F)c6nc(c(-c7cccc(S(=O)(=O)[O-])c7F)c7ccc4[nH]7)C=C6)C=C5)cc3)C2)CC1
REMARK SMILES IDX 15 1 14 2 12 3 13 4 11 6 10 7 6 8 7 9 85 10 8 12 9 13 5 14
REMARK SMILES IDX 4 15 86 16 87 17 3 18 2 19 1 20 16 21 17 22 18 23 19 24
REMARK SMILES IDX 20 25 21 27 22 28 23 29 84 30 24 31 83 32 25 33 26 34 27 35
REMARK SMILES IDX 77 36 28 37 82 38 76 39 78 40 29 41 81 42 75 43 74 44 30 46
REMARK SMILES IDX 62 47 42 48 61 49 43 50 46 51 60 52 79 53 44 54 45 55 59 57
REMARK SMILES IDX 80 58 47 59 31 60 32 61 40 62 33 63 35 64 41 65 34 66 36 67
REMARK SMILES IDX 37 68 38 69 39 70 63 71 64 72 72 73 65 74 67 75 73 76 66 77
REMARK SMILES IDX 68 78 69 79 70 80 71 81 48 82 49 83 57 84 50 85 52 86 58 87
REMARK SMILES IDX 51 88 53 89 54 90 55 91 56 92
REMARK H PARENT 14 5 6 11 19 26 78 45 46 56
REMARK Flexibility Score: inf
ROOT
ATOM      1  C   UNL A   1      33.988  22.706  23.309  1.00  0.00     0.116 C 
ENDROOT
BRANCH   1   2
ATOM      2  N   UNL A   1      33.452  21.901  24.390  1.00  0.00    -0.356 N 
ATOM      3  C   UNL A   1      32.190  21.813  24.875  1.00  0.00     0.222 C 
ATOM      4  O   UNL A   1      31.870  20.708  25.326  1.00  0.00    -0.275 OA
ATOM      5  H   UNL A   1      34.111  21.328  24.844  1.00  0.00     0.163 HD
BRANCH   3   6
ATOM      6  C   UNL A   1      31.178  22.951  24.851  1.00  0.00     0.138 C 
BRANCH   6   7
ATOM      7  C   UNL A   1      31.097  23.895  26.049  1.00  0.00     0.182 C 
ATOM      8  N   UNL A   1      31.169  26.266  25.143  1.00  0.00    -0.330 N 
ATOM      9  C   UNL A   1      32.374  26.455  25.937  1.00  0.00     0.291 C 
ATOM     10  C   UNL A   1      30.407  25.242  25.807  1.00  0.00     0.295 C 
ATOM     11  H   UNL A   1      30.848  27.234  25.122  1.00  0.00     0.348 HD
ATOM     12  C   UNL A   1      33.167  25.136  26.104  1.00  0.00     0.222 C 
ATOM     13  O   UNL A   1      32.381  24.082  26.685  1.00  0.00    -0.366 OA
BRANCH   8  14
ATOM     14  C   UNL A   1      31.012  26.277  23.686  1.00  0.00     0.270 C 
BRANCH  14  15
ATOM     15  C   UNL A   1      32.052  26.908  22.816  1.00  0.00     0.032 C 
ATOM     16  C   UNL A   1      32.311  26.278  21.441  1.00  0.00     0.015 C 
ATOM     17  C   UNL A   1      33.401  26.291  22.459  1.00  0.00     0.015 C 
BRANCH  15  18
ATOM     18  C   UNL A   1      31.999  28.361  22.840  1.00  0.00     0.133 C 
BRANCH  18  19
ATOM     19  C   UNL A   1      30.603  28.783  22.412  1.00  0.00     0.063 C 
ATOM     20  N   UNL A   1      29.445  29.134  22.056  1.00  0.00    -0.198 NA
ENDBRANCH  18  19
ENDBRANCH  15  18
ENDBRANCH  14  15
ENDBRANCH   8  14
ENDBRANCH   6   7
ENDBRANCH   3   6
ENDBRANCH   1   2
BRANCH   1  21
ATOM     21  C   UNL A   1      35.302  23.460  23.588  1.00  0.00     0.023 C 
BRANCH  21  22
ATOM     22  C   UNL A   1      36.435  22.655  24.245  1.00  0.00     0.023 C 
BRANCH  22  23
ATOM     23  C   UNL A   1      37.101  23.389  25.391  1.00  0.00     0.116 C 
BRANCH  23  24
ATOM     24  N   UNL A   1      37.958  22.478  26.138  1.00  0.00    -0.352 N 
ATOM     25  C   UNL A   1      39.218  22.709  26.608  1.00  0.00     0.251 C 
ATOM     26  H   UNL A   1      37.583  21.588  26.326  1.00  0.00     0.163 HD
ATOM     27  O   UNL A   1      40.003  21.782  26.750  1.00  0.00    -0.269 OA
BRANCH  25  28
ATOM     28  C   UNL A   1      39.566  24.083  26.988  1.00  0.00     0.039 A 
ATOM     29  C   UNL A   1      40.031  24.972  26.021  1.00  0.00     0.014 A 
ATOM     30  C   UNL A   1      39.468  24.461  28.333  1.00  0.00     0.014 A 
ATOM     31  C   UNL A   1      40.403  26.253  26.414  1.00  0.00     0.010 A 
ATOM     32  C   UNL A   1      39.724  25.764  28.698  1.00  0.00     0.010 A 
ATOM     33  C   UNL A   1      40.246  26.651  27.753  1.00  0.00    -0.014 A 
BRANCH  33  34
ATOM     34  C   UNL A   1      40.684  27.979  28.217  1.00  0.00     0.031 A 
ATOM     35  C   UNL A   1      42.152  28.304  28.236  1.00  0.00     0.074 A 
ATOM     36  C   UNL A   1      39.765  28.831  28.704  1.00  0.00     0.049 A 
ATOM     37  N   UNL A   1      42.747  29.386  28.656  1.00  0.00    -0.248 NA
ATOM     38  C   UNL A   1      43.081  27.258  27.765  1.00  0.00     0.031 C 
ATOM     39  C   UNL A   1      38.330  28.555  28.823  1.00  0.00     0.029 A 
ATOM     40  N   UNL A   1      39.906  30.094  29.210  1.00  0.00    -0.354 N 
ATOM     41  C   UNL A   1      44.109  29.133  28.550  1.00  0.00     0.074 A 
ATOM     42  C   UNL A   1      44.259  27.780  28.068  1.00  0.00     0.031 C 
ATOM     43  C   UNL A   1      37.721  29.627  29.352  1.00  0.00     0.029 A 
ATOM     44  C   UNL A   1      38.722  30.650  29.629  1.00  0.00     0.049 A 
ATOM     45  H   UNL A   1      40.772  30.558  29.269  1.00  0.00     0.167 HD
ATOM     46  C   UNL A   1      45.142  29.971  28.795  1.00  0.00     0.034 A 
ATOM     47  C   UNL A   1      38.483  31.858  30.169  1.00  0.00     0.034 A 
ATOM     48  C   UNL A   1      44.964  31.337  29.200  1.00  0.00     0.049 A 
ATOM     49  C   UNL A   1      39.640  32.803  30.336  1.00  0.00     0.074 A 
ATOM     50  C   UNL A   1      45.922  32.319  29.363  1.00  0.00     0.029 A 
ATOM     51  N   UNL A   1      43.739  31.911  29.502  1.00  0.00    -0.354 N 
ATOM     52  N   UNL A   1      40.909  32.613  30.058  1.00  0.00    -0.248 NA
ATOM     53  C   UNL A   1      39.330  34.144  30.845  1.00  0.00     0.031 C 
ATOM     54  C   UNL A   1      45.275  33.486  29.783  1.00  0.00     0.029 A 
ATOM     55  C   UNL A   1      43.913  33.235  29.856  1.00  0.00     0.049 A 
ATOM     56  H   UNL A   1      42.872  31.444  29.469  1.00  0.00     0.167 HD
ATOM     57  C   UNL A   1      41.541  33.820  30.322  1.00  0.00     0.074 A 
ATOM     58  C   UNL A   1      40.510  34.741  30.759  1.00  0.00     0.031 C 
ATOM     59  C   UNL A   1      42.856  34.139  30.230  1.00  0.00     0.034 A 
BRANCH  46  60
ATOM     60  C   UNL A   1      46.538  29.455  28.572  1.00  0.00     0.023 A 
ATOM     61  C   UNL A   1      47.212  29.754  27.370  1.00  0.00     0.012 A 
ATOM     62  C   UNL A   1      47.203  28.714  29.568  1.00  0.00     0.148 A 
ATOM     63  C   UNL A   1      48.510  29.297  27.148  1.00  0.00     0.002 A 
ATOM     64  C   UNL A   1      48.514  28.302  29.361  1.00  0.00     0.091 A 
ATOM     65  F   UNL A   1      46.537  28.415  30.693  1.00  0.00    -0.205 F 
ATOM     66  C   UNL A   1      49.165  28.582  28.147  1.00  0.00     0.022 A 
BRANCH  64  67
ATOM     67  S   UNL A   1      49.472  27.447  30.616  1.00  0.00     0.127 S 
ATOM     68  O   UNL A   1      50.489  26.777  29.806  1.00  0.00    -0.237 OA
ATOM     69  O   UNL A   1      49.974  28.557  31.428  1.00  0.00    -0.237 OA
ATOM     70  O   UNL A   1      48.540  26.565  31.302  1.00  0.00    -0.744 OA
ENDBRANCH  64  67
ENDBRANCH  46  60
BRANCH  47  71
ATOM     71  C   UNL A   1      37.089  32.268  30.492  1.00  0.00     0.023 A 
ATOM     72  C   UNL A   1      36.602  32.076  31.800  1.00  0.00     0.012 A 
ATOM     73  C   UNL A   1      36.258  32.873  29.532  1.00  0.00     0.148 A 
ATOM     74  C   UNL A   1      35.296  32.439  32.133  1.00  0.00     0.002 A 
ATOM     75  C   UNL A   1      34.978  33.283  29.885  1.00  0.00     0.091 A 
ATOM     76  F   UNL A   1      36.739  33.045  28.292  1.00  0.00    -0.205 F 
ATOM     77  C   UNL A   1      34.488  33.051  31.179  1.00  0.00     0.022 A 
BRANCH  75  78
ATOM     78  S   UNL A   1      33.918  34.195  28.758  1.00  0.00     0.127 S 
ATOM     79  O   UNL A   1      33.575  33.170  27.775  1.00  0.00    -0.237 OA
ATOM     80  O   UNL A   1      32.819  34.602  29.634  1.00  0.00    -0.237 OA
ATOM     81  O   UNL A   1      34.733  35.300  28.269  1.00  0.00    -0.744 OA
ENDBRANCH  75  78
ENDBRANCH  47  71
BRANCH  59  82
ATOM     82  C   UNL A   1      43.246  35.551  30.568  1.00  0.00     0.023 A 
ATOM     83  C   UNL A   1      43.560  35.892  31.899  1.00  0.00     0.012 A 
ATOM     84  C   UNL A   1      43.367  36.521  29.555  1.00  0.00     0.148 A 
ATOM     85  C   UNL A   1      43.951  37.190  32.221  1.00  0.00     0.002 A 
ATOM     86  C   UNL A   1      43.809  37.797  29.875  1.00  0.00     0.091 A 
ATOM     87  F   UNL A   1      43.045  36.179  28.298  1.00  0.00    -0.205 F 
ATOM     88  C   UNL A   1      44.087  38.138  31.208  1.00  0.00     0.022 A 
BRANCH  86  89
ATOM     89  S   UNL A   1      44.113  39.045  28.620  1.00  0.00     0.127 S 
ATOM     90  O   UNL A   1      42.822  39.727  28.558  1.00  0.00    -0.237 OA
ATOM     91  O   UNL A   1      45.192  39.833  29.218  1.00  0.00    -0.237 OA
ATOM     92  O   UNL A   1      44.498  38.315  27.419  1.00  0.00    -0.744 OA
ENDBRANCH  86  89
ENDBRANCH  59  82
ENDBRANCH  33  34
ENDBRANCH  25  28
ENDBRANCH  23  24
ENDBRANCH  22  23
ENDBRANCH  21  22
ENDBRANCH   1  21
TORSDOF 19
ENDMDL
MODEL 2
REMARK VINA RESULT:     -10.3      4.990      9.773
REMARK SMILES N#CCC1(C[N@@H+]2CCO[C@H](CC(=O)NCCCCNC(=O)c3ccc(-c4c5nc(c(-c6cccc(S(=O)(=O)[O-])c6F)c6ccc([nH]6)c(-c6cccc(S(=O)(=O)[O-])c6F)c6nc(c(-c7cccc(S(=O)(=O)[O-])c7F)c7ccc4[nH]7)C=C6)C=C5)cc3)C2)CC1
REMARK SMILES IDX 15 1 14 2 12 3 13 4 11 6 10 7 6 8 7 9 85 10 8 12 9 13 5 14
REMARK SMILES IDX 4 15 86 16 87 17 3 18 2 19 1 20 16 21 17 22 18 23 19 24
REMARK SMILES IDX 20 25 21 27 22 28 23 29 84 30 24 31 83 32 25 33 26 34 27 35
REMARK SMILES IDX 77 36 28 37 82 38 76 39 78 40 29 41 81 42 75 43 74 44 30 46
REMARK SMILES IDX 62 47 42 48 61 49 43 50 46 51 60 52 79 53 44 54 45 55 59 57
REMARK SMILES IDX 80 58 47 59 31 60 32 61 40 62 33 63 35 64 41 65 34 66 36 67
REMARK SMILES IDX 37 68 38 69 39 70 63 71 64 72 72 73 65 74 67 75 73 76 66 77
REMARK SMILES IDX 68 78 69 79 70 80 71 81 48 82 49 83 57 84 50 85 52 86 58 87
REMARK SMILES IDX 51 88 53 89 54 90 55 91 56 92
REMARK H PARENT 14 5 6 11 19 26 78 45 46 56
REMARK Flexibility Score: inf
ROOT
ATOM      1  C   UNL A   1      30.614  29.030  23.762  1.00  0.00     0.116 C 
ENDROOT
BRANCH   1   2
ATOM      2  N   UNL A   1      31.374  27.867  23.347  1.00  0.00    -0.356 N 
ATOM      3  C   UNL A   1      31.050  26.552  23.375  1.00  0.00     0.222 C 
ATOM      4  O   UNL A   1      31.542  25.864  22.474  1.00  0.00    -0.275 OA
ATOM      5  H   UNL A   1      32.269  28.065  22.988  1.00  0.00     0.163 HD
BRANCH   3   6
ATOM      6  C   UNL A   1      30.112  25.919  24.394  1.00  0.00     0.138 C 
BRANCH   6   7
ATOM      7  C   UNL A   1      30.500  25.942  25.871  1.00  0.00     0.182 C 
ATOM      8  N   UNL A   1      32.501  24.402  26.147  1.00  0.00    -0.330 N 
ATOM      9  C   UNL A   1      31.686  23.627  27.071  1.00  0.00     0.291 C 
ATOM     10  C   UNL A   1      31.986  25.746  26.187  1.00  0.00     0.295 C 
ATOM     11  H   UNL A   1      33.419  24.176  26.529  1.00  0.00     0.348 HD
ATOM     12  C   UNL A   1      30.181  23.701  26.713  1.00  0.00     0.222 C 
ATOM     13  O   UNL A   1      29.685  25.049  26.663  1.00  0.00    -0.366 OA
BRANCH   8  14
ATOM     14  C   UNL A   1      33.046  24.010  24.844  1.00  0.00     0.270 C 
BRANCH  14  15
ATOM     15  C   UNL A   1      34.486  23.632  24.708  1.00  0.00     0.032 C 
ATOM     16  C   UNL A   1      35.163  22.957  25.909  1.00  0.00     0.015 C 
ATOM     17  C   UNL A   1      35.648  24.290  25.447  1.00  0.00     0.015 C 
BRANCH  15  18
ATOM     18  C   UNL A   1      34.797  23.057  23.409  1.00  0.00     0.133 C 
BRANCH  18  19
ATOM     19  C   UNL A   1      33.508  22.507  22.822  1.00  0.00     0.063 C 
ATOM     20  N   UNL A   1      32.438  22.051  22.335  1.00  0.00    -0.198 NA
ENDBRANCH  18  19
ENDBRANCH  15  18
ENDBRANCH  14  15
ENDBRANCH   8  14
ENDBRANCH   6   7
ENDBRANCH   3   6
ENDBRANCH   1   2
BRANCH   1  21
ATOM     21  C   UNL A   1      31.196  29.868  24.914  1.00  0.00     0.023 C 
BRANCH  21  22
ATOM     22  C   UNL A   1      32.627  29.527  25.364  1.00  0.00     0.023 C 
BRANCH  22  23
ATOM     23  C   UNL A   1      32.936  29.993  26.772  1.00  0.00     0.116 C 
BRANCH  23  24
ATOM     24  N   UNL A   1      33.127  31.437  26.789  1.00  0.00    -0.352 N 
ATOM     25  C   UNL A   1      33.880  32.172  27.657  1.00  0.00     0.251 C 
ATOM     26  H   UNL A   1      32.655  31.944  26.090  1.00  0.00     0.163 HD
ATOM     27  O   UNL A   1      33.583  33.333  27.904  1.00  0.00    -0.269 OA
BRANCH  25  28
ATOM     28  C   UNL A   1      35.078  31.543  28.228  1.00  0.00     0.039 A 
ATOM     29  C   UNL A   1      35.015  30.233  28.698  1.00  0.00     0.014 A 
ATOM     30  C   UNL A   1      36.255  32.295  28.331  1.00  0.00     0.014 A 
ATOM     31  C   UNL A   1      36.149  29.677  29.280  1.00  0.00     0.010 A 
ATOM     32  C   UNL A   1      37.407  31.702  28.799  1.00  0.00     0.010 A 
ATOM     33  C   UNL A   1      37.347  30.410  29.328  1.00  0.00    -0.014 A 
BRANCH  33  34
ATOM     34  C   UNL A   1      38.550  29.876  29.988  1.00  0.00     0.031 A 
ATOM     35  C   UNL A   1      38.913  30.368  31.363  1.00  0.00     0.074 A 
ATOM     36  C   UNL A   1      39.346  29.035  29.306  1.00  0.00     0.049 A 
ATOM     37  N   UNL A   1      39.952  30.069  32.092  1.00  0.00    -0.248 NA
ATOM     38  C   UNL A   1      38.016  31.362  31.983  1.00  0.00     0.031 C 
ATOM     39  C   UNL A   1      39.125  28.590  27.926  1.00  0.00     0.029 A 
ATOM     40  N   UNL A   1      40.513  28.424  29.672  1.00  0.00    -0.354 N 
ATOM     41  C   UNL A   1      39.862  30.871  33.223  1.00  0.00     0.074 A 
ATOM     42  C   UNL A   1      38.692  31.703  33.069  1.00  0.00     0.031 C 
ATOM     43  C   UNL A   1      40.118  27.760  27.571  1.00  0.00     0.029 A 
ATOM     44  C   UNL A   1      41.051  27.636  28.684  1.00  0.00     0.049 A 
ATOM     45  H   UNL A   1      40.926  28.537  30.558  1.00  0.00     0.167 HD
ATOM     46  C   UNL A   1      40.663  30.882  34.313  1.00  0.00     0.034 A 
ATOM     47  C   UNL A   1      42.173  26.894  28.691  1.00  0.00     0.034 A 
ATOM     48  C   UNL A   1      41.776  29.991  34.476  1.00  0.00     0.049 A 
ATOM     49  C   UNL A   1      42.988  26.851  29.953  1.00  0.00     0.074 A 
ATOM     50  C   UNL A   1      42.590  29.821  35.580  1.00  0.00     0.029 A 
ATOM     51  N   UNL A   1      42.228  29.115  33.501  1.00  0.00    -0.354 N 
ATOM     52  N   UNL A   1      42.788  27.480  31.088  1.00  0.00    -0.248 NA
ATOM     53  C   UNL A   1      44.156  25.963  29.955  1.00  0.00     0.031 C 
ATOM     54  C   UNL A   1      43.547  28.852  35.264  1.00  0.00     0.029 A 
ATOM     55  C   UNL A   1      43.313  28.402  33.973  1.00  0.00     0.049 A 
ATOM     56  H   UNL A   1      41.833  29.015  32.604  1.00  0.00     0.167 HD
ATOM     57  C   UNL A   1      43.781  27.034  31.949  1.00  0.00     0.074 A 
ATOM     58  C   UNL A   1      44.566  26.065  31.212  1.00  0.00     0.031 C 
ATOM     59  C   UNL A   1      44.035  27.402  33.230  1.00  0.00     0.034 A 
BRANCH  46  60
ATOM     60  C   UNL A   1      40.327  31.838  35.426  1.00  0.00     0.023 A 
ATOM     61  C   UNL A   1      41.087  33.015  35.593  1.00  0.00     0.012 A 
ATOM     62  C   UNL A   1      39.232  31.599  36.278  1.00  0.00     0.148 A 
ATOM     63  C   UNL A   1      40.785  33.919  36.609  1.00  0.00     0.002 A 
ATOM     64  C   UNL A   1      38.906  32.529  37.259  1.00  0.00     0.091 A 
ATOM     65  F   UNL A   1      38.538  30.462  36.124  1.00  0.00    -0.205 F 
ATOM     66  C   UNL A   1      39.688  33.684  37.434  1.00  0.00     0.022 A 
BRANCH  64  67
ATOM     67  S   UNL A   1      37.467  32.358  38.319  1.00  0.00     0.127 S 
ATOM     68  O   UNL A   1      37.345  30.904  38.418  1.00  0.00    -0.237 OA
ATOM     69  O   UNL A   1      37.911  33.017  39.548  1.00  0.00    -0.237 OA
ATOM     70  O   UNL A   1      36.376  33.030  37.628  1.00  0.00    -0.744 OA
ENDBRANCH  64  67
ENDBRANCH  46  60
BRANCH  47  71
ATOM     71  C   UNL A   1      42.527  26.065  27.506  1.00  0.00     0.023 A 
ATOM     72  C   UNL A   1      43.310  26.630  26.481  1.00  0.00     0.012 A 
ATOM     73  C   UNL A   1      42.124  24.721  27.401  1.00  0.00     0.148 A 
ATOM     74  C   UNL A   1      43.650  25.884  25.352  1.00  0.00     0.002 A 
ATOM     75  C   UNL A   1      42.512  23.967  26.300  1.00  0.00     0.091 A 
ATOM     76  F   UNL A   1      41.376  24.203  28.386  1.00  0.00    -0.205 F 
ATOM     77  C   UNL A   1      43.259  24.551  25.266  1.00  0.00     0.022 A 
BRANCH  75  78
ATOM     78  S   UNL A   1      42.164  22.210  26.171  1.00  0.00     0.127 S 
ATOM     79  O   UNL A   1      40.708  22.201  26.059  1.00  0.00    -0.237 OA
ATOM     80  O   UNL A   1      42.879  21.847  24.947  1.00  0.00    -0.237 OA
ATOM     81  O   UNL A   1      42.715  21.617  27.383  1.00  0.00    -0.744 OA
ENDBRANCH  75  78
ENDBRANCH  47  71
BRANCH  59  82
ATOM     82  C   UNL A   1      45.183  26.723  33.925  1.00  0.00     0.023 A 
ATOM     83  C   UNL A   1      46.483  27.256  33.816  1.00  0.00     0.012 A 
ATOM     84  C   UNL A   1      44.959  25.597  34.740  1.00  0.00     0.148 A 
ATOM     85  C   UNL A   1      47.550  26.654  34.479  1.00  0.00     0.002 A 
ATOM     86  C   UNL A   1      46.018  25.035  35.440  1.00  0.00     0.091 A 
ATOM     87  F   UNL A   1      43.717  25.095  34.814  1.00  0.00    -0.205 F 
ATOM     88  C   UNL A   1      47.316  25.552  35.300  1.00  0.00     0.022 A 
BRANCH  86  89
ATOM     89  S   UNL A   1      45.785  23.683  36.598  1.00  0.00     0.127 S 
ATOM     90  O   UNL A   1      45.255  22.634  35.731  1.00  0.00    -0.237 OA
ATOM     91  O   UNL A   1      47.147  23.447  37.081  1.00  0.00    -0.237 OA
ATOM     92  O   UNL A   1      44.868  24.182  37.614  1.00  0.00    -0.744 OA
ENDBRANCH  86  89
ENDBRANCH  59  82
ENDBRANCH  33  34
ENDBRANCH  25  28
ENDBRANCH  23  24
ENDBRANCH  22  23
ENDBRANCH  21  22
ENDBRANCH   1  21
TORSDOF 19
ENDMDL
MODEL 3
REMARK VINA RESULT:     -10.3      3.396      8.474
REMARK SMILES N#CCC1(C[N@@H+]2CCO[C@H](CC(=O)NCCCCNC(=O)c3ccc(-c4c5nc(c(-c6cccc(S(=O)(=O)[O-])c6F)c6ccc([nH]6)c(-c6cccc(S(=O)(=O)[O-])c6F)c6nc(c(-c7cccc(S(=O)(=O)[O-])c7F)c7ccc4[nH]7)C=C6)C=C5)cc3)C2)CC1
REMARK SMILES IDX 15 1 14 2 12 3 13 4 11 6 10 7 6 8 7 9 85 10 8 12 9 13 5 14
REMARK SMILES IDX 4 15 86 16 87 17 3 18 2 19 1 20 16 21 17 22 18 23 19 24
REMARK SMILES IDX 20 25 21 27 22 28 23 29 84 30 24 31 83 32 25 33 26 34 27 35
REMARK SMILES IDX 77 36 28 37 82 38 76 39 78 40 29 41 81 42 75 43 74 44 30 46
REMARK SMILES IDX 62 47 42 48 61 49 43 50 46 51 60 52 79 53 44 54 45 55 59 57
REMARK SMILES IDX 80 58 47 59 31 60 32 61 40 62 33 63 35 64 41 65 34 66 36 67
REMARK SMILES IDX 37 68 38 69 39 70 63 71 64 72 72 73 65 74 67 75 73 76 66 77
REMARK SMILES IDX 68 78 69 79 70 80 71 81 48 82 49 83 57 84 50 85 52 86 58 87
REMARK SMILES IDX 51 88 53 89 54 90 55 91 56 92
REMARK H PARENT 14 5 6 11 19 26 78 45 46 56
REMARK Flexibility Score: inf
ROOT
ATOM      1  C   UNL A   1      35.543  20.871  24.790  1.00  0.00     0.116 C 
ENDROOT
BRANCH   1   2
ATOM      2  N   UNL A   1      34.133  20.574  24.635  1.00  0.00    -0.356 N 
ATOM      3  C   UNL A   1      33.124  21.337  24.147  1.00  0.00     0.222 C 
ATOM      4  O   UNL A   1      32.220  20.720  23.575  1.00  0.00    -0.275 OA
ATOM      5  H   UNL A   1      33.864  19.675  24.933  1.00  0.00     0.163 HD
BRANCH   3   6
ATOM      6  C   UNL A   1      33.079  22.857  24.230  1.00  0.00     0.138 C 
BRANCH   6   7
ATOM      7  C   UNL A   1      34.086  23.674  23.423  1.00  0.00     0.182 C 
ATOM      8  N   UNL A   1      33.353  26.102  23.545  1.00  0.00    -0.330 N 
ATOM      9  C   UNL A   1      33.243  26.066  22.094  1.00  0.00     0.291 C 
ATOM     10  C   UNL A   1      34.333  25.109  23.898  1.00  0.00     0.295 C 
ATOM     11  H   UNL A   1      33.545  27.098  23.657  1.00  0.00     0.348 HD
ATOM     12  C   UNL A   1      32.874  24.654  21.579  1.00  0.00     0.222 C 
ATOM     13  O   UNL A   1      33.802  23.643  22.006  1.00  0.00    -0.366 OA
BRANCH   8  14
ATOM     14  C   UNL A   1      32.299  26.284  24.547  1.00  0.00     0.270 C 
BRANCH  14  15
ATOM     15  C   UNL A   1      32.246  27.529  25.374  1.00  0.00     0.032 C 
ATOM     16  C   UNL A   1      32.882  27.486  26.769  1.00  0.00     0.015 C 
ATOM     17  C   UNL A   1      31.414  27.717  26.638  1.00  0.00     0.015 C 
BRANCH  15  18
ATOM     18  C   UNL A   1      32.515  28.730  24.599  1.00  0.00     0.133 C 
BRANCH  18  19
ATOM     19  C   UNL A   1      31.269  29.051  23.790  1.00  0.00     0.063 C 
ATOM     20  N   UNL A   1      30.236  29.318  23.118  1.00  0.00    -0.198 NA
ENDBRANCH  18  19
ENDBRANCH  15  18
ENDBRANCH  14  15
ENDBRANCH   8  14
ENDBRANCH   6   7
ENDBRANCH   3   6
ENDBRANCH   1   2
BRANCH   1  21
ATOM     21  C   UNL A   1      36.487  19.673  25.002  1.00  0.00     0.023 C 
BRANCH  21  22
ATOM     22  C   UNL A   1      37.963  19.879  24.622  1.00  0.00     0.023 C 
BRANCH  22  23
ATOM     23  C   UNL A   1      38.802  20.423  25.760  1.00  0.00     0.116 C 
BRANCH  23  24
ATOM     24  N   UNL A   1      39.805  19.442  26.155  1.00  0.00    -0.352 N 
ATOM     25  C   UNL A   1      41.160  19.594  26.180  1.00  0.00     0.251 C 
ATOM     26  H   UNL A   1      39.463  18.564  26.438  1.00  0.00     0.163 HD
ATOM     27  O   UNL A   1      41.893  18.626  26.029  1.00  0.00    -0.269 OA
BRANCH  25  28
ATOM     28  C   UNL A   1      41.695  20.934  26.451  1.00  0.00     0.039 A 
ATOM     29  C   UNL A   1      42.064  21.283  27.749  1.00  0.00     0.014 A 
ATOM     30  C   UNL A   1      41.780  21.856  25.401  1.00  0.00     0.014 A 
ATOM     31  C   UNL A   1      42.521  22.573  27.990  1.00  0.00     0.010 A 
ATOM     32  C   UNL A   1      42.344  23.094  25.621  1.00  0.00     0.010 A 
ATOM     33  C   UNL A   1      42.664  23.479  26.925  1.00  0.00    -0.014 A 
BRANCH  33  34
ATOM     34  C   UNL A   1      43.089  24.871  27.151  1.00  0.00     0.031 A 
ATOM     35  C   UNL A   1      42.157  25.818  27.856  1.00  0.00     0.074 A 
ATOM     36  C   UNL A   1      44.259  25.285  26.635  1.00  0.00     0.049 A 
ATOM     37  N   UNL A   1      42.313  27.089  28.105  1.00  0.00    -0.248 NA
ATOM     38  C   UNL A   1      40.856  25.280  28.300  1.00  0.00     0.031 C 
ATOM     39  C   UNL A   1      45.176  24.459  25.843  1.00  0.00     0.029 A 
ATOM     40  N   UNL A   1      44.865  26.510  26.679  1.00  0.00    -0.354 N 
ATOM     41  C   UNL A   1      41.121  27.510  28.681  1.00  0.00     0.074 A 
ATOM     42  C   UNL A   1      40.231  26.374  28.708  1.00  0.00     0.031 C 
ATOM     43  C   UNL A   1      46.239  25.200  25.492  1.00  0.00     0.029 A 
ATOM     44  C   UNL A   1      46.065  26.550  26.012  1.00  0.00     0.049 A 
ATOM     45  H   UNL A   1      44.479  27.286  27.145  1.00  0.00     0.167 HD
ATOM     46  C   UNL A   1      40.813  28.728  29.181  1.00  0.00     0.034 A 
ATOM     47  C   UNL A   1      46.926  27.572  25.851  1.00  0.00     0.034 A 
ATOM     48  C   UNL A   1      41.743  29.821  29.212  1.00  0.00     0.049 A 
ATOM     49  C   UNL A   1      46.599  28.885  26.504  1.00  0.00     0.074 A 
ATOM     50  C   UNL A   1      41.593  31.064  29.797  1.00  0.00     0.029 A 
ATOM     51  N   UNL A   1      43.002  29.795  28.632  1.00  0.00    -0.354 N 
ATOM     52  N   UNL A   1      45.542  29.218  27.208  1.00  0.00    -0.248 NA
ATOM     53  C   UNL A   1      47.601  29.950  26.384  1.00  0.00     0.031 C 
ATOM     54  C   UNL A   1      42.759  31.797  29.555  1.00  0.00     0.029 A 
ATOM     55  C   UNL A   1      43.643  31.002  28.840  1.00  0.00     0.049 A 
ATOM     56  H   UNL A   1      43.384  29.029  28.145  1.00  0.00     0.167 HD
ATOM     57  C   UNL A   1      45.769  30.515  27.645  1.00  0.00     0.074 A 
ATOM     58  C   UNL A   1      47.075  30.898  27.147  1.00  0.00     0.031 C 
ATOM     59  C   UNL A   1      44.967  31.328  28.378  1.00  0.00     0.034 A 
BRANCH  46  60
ATOM     60  C   UNL A   1      39.447  28.918  29.784  1.00  0.00     0.023 A 
ATOM     61  C   UNL A   1      39.193  28.472  31.098  1.00  0.00     0.012 A 
ATOM     62  C   UNL A   1      38.428  29.581  29.073  1.00  0.00     0.148 A 
ATOM     63  C   UNL A   1      37.939  28.649  31.680  1.00  0.00     0.002 A 
ATOM     64  C   UNL A   1      37.195  29.798  29.677  1.00  0.00     0.091 A 
ATOM     65  F   UNL A   1      38.679  29.974  27.815  1.00  0.00    -0.205 F 
ATOM     66  C   UNL A   1      36.945  29.323  30.976  1.00  0.00     0.022 A 
BRANCH  64  67
ATOM     67  S   UNL A   1      35.876  30.724  28.886  1.00  0.00     0.127 S 
ATOM     68  O   UNL A   1      36.626  31.580  27.968  1.00  0.00    -0.237 OA
ATOM     69  O   UNL A   1      35.104  29.663  28.236  1.00  0.00    -0.237 OA
ATOM     70  O   UNL A   1      35.174  31.418  29.955  1.00  0.00    -0.744 OA
ENDBRANCH  64  67
ENDBRANCH  46  60
BRANCH  47  71
ATOM     71  C   UNL A   1      48.210  27.358  25.129  1.00  0.00     0.023 A 
ATOM     72  C   UNL A   1      49.344  26.941  25.853  1.00  0.00     0.012 A 
ATOM     73  C   UNL A   1      48.310  27.533  23.737  1.00  0.00     0.148 A 
ATOM     74  C   UNL A   1      50.566  26.742  25.209  1.00  0.00     0.002 A 
ATOM     75  C   UNL A   1      49.515  27.281  23.093  1.00  0.00     0.091 A 
ATOM     76  F   UNL A   1      47.219  27.934  23.066  1.00  0.00    -0.205 F 
ATOM     77  C   UNL A   1      50.649  26.903  23.829  1.00  0.00     0.022 A 
BRANCH  75  78
ATOM     78  S   UNL A   1      49.677  27.336  21.305  1.00  0.00     0.127 S 
ATOM     79  O   UNL A   1      49.504  28.761  21.034  1.00  0.00    -0.237 OA
ATOM     80  O   UNL A   1      51.036  26.831  21.107  1.00  0.00    -0.237 OA
ATOM     81  O   UNL A   1      48.633  26.457  20.795  1.00  0.00    -0.744 OA
ENDBRANCH  75  78
ENDBRANCH  47  71
BRANCH  59  82
ATOM     82  C   UNL A   1      45.498  32.692  28.719  1.00  0.00     0.023 A 
ATOM     83  C   UNL A   1      46.291  32.869  29.870  1.00  0.00     0.012 A 
ATOM     84  C   UNL A   1      45.266  33.784  27.860  1.00  0.00     0.148 A 
ATOM     85  C   UNL A   1      46.814  34.123  30.181  1.00  0.00     0.002 A 
ATOM     86  C   UNL A   1      45.835  35.017  28.147  1.00  0.00     0.091 A 
ATOM     87  F   UNL A   1      44.493  33.597  26.780  1.00  0.00    -0.205 F 
ATOM     88  C   UNL A   1      46.597  35.192  29.314  1.00  0.00     0.022 A 
BRANCH  86  89
ATOM     89  S   UNL A   1      45.693  36.417  27.032  1.00  0.00     0.127 S 
ATOM     90  O   UNL A   1      44.249  36.486  26.822  1.00  0.00    -0.237 OA
ATOM     91  O   UNL A   1      46.247  37.511  27.832  1.00  0.00    -0.237 OA
ATOM     92  O   UNL A   1      46.484  36.072  25.858  1.00  0.00    -0.744 OA
ENDBRANCH  86  89
ENDBRANCH  59  82
ENDBRANCH  33  34
ENDBRANCH  25  28
ENDBRANCH  23  24
ENDBRANCH  22  23
ENDBRANCH  21  22
ENDBRANCH   1  21
TORSDOF 19
ENDMDL
