MODEL 1
REMARK VINA RESULT:     -12.7      0.000      0.000
REMARK SMILES C[C@@H](C(=O)NCCCCNC(=O)c1ccc(-c2c3nc(c(-c4cccc(S(=O)(=O)[O-])c4F)c4ccc([nH]4)c(-c4cccc(S(=O)(=O)[O-])c4F)c4nc(c(-c5cccc(S(=O)(=O)[O-])c5F)c5ccc2[nH]5)C=C4)C=C3)cc1)c1ccc(C[C@H]2CCC[C@H]2O)cc1-c1ccc(O)cc1
REMARK SMILES IDX 7 1 6 2 5 3 3 4 4 5 2 7 1 8 76 9 77 10 88 11 78 12 87 13
REMARK SMILES IDX 79 14 89 15 90 16 95 17 91 18 94 19 92 20 93 21 80 23 81 24
REMARK SMILES IDX 82 25 85 26 83 27 84 28 86 29 8 31 9 32 10 33 11 34 12 36
REMARK SMILES IDX 13 37 14 38 75 39 15 40 74 41 16 42 17 43 18 44 68 45 19 46
REMARK SMILES IDX 73 47 67 48 69 49 20 50 72 51 66 52 65 53 21 55 53 56 33 57
REMARK SMILES IDX 52 58 34 59 37 60 51 61 70 62 35 63 36 64 50 66 71 67 38 68
REMARK SMILES IDX 22 69 23 70 31 71 24 72 26 73 32 74 25 75 27 76 28 77 29 78
REMARK SMILES IDX 30 79 54 80 55 81 63 82 56 83 58 84 64 85 57 86 59 87 60 88
REMARK SMILES IDX 61 89 62 90 39 91 40 92 48 93 41 94 43 95 49 96 42 97 44 98
REMARK SMILES IDX 45 99 46 100 47 101
REMARK H PARENT 5 6 93 22 86 30 10 35 69 54 37 65
REMARK Flexibility Score: inf
ROOT
ATOM      1  C   UNL A   1      36.314  20.950  25.029  1.00  0.00     0.023 C 
ENDROOT
BRANCH   1   2
ATOM      2  C   UNL A   1      36.218  22.461  25.233  1.00  0.00     0.116 C 
BRANCH   2   3
ATOM      3  N   UNL A   1      35.786  22.809  26.568  1.00  0.00    -0.356 N 
ATOM      4  C   UNL A   1      34.534  22.995  27.065  1.00  0.00     0.227 C 
ATOM      5  O   UNL A   1      34.413  22.799  28.278  1.00  0.00    -0.274 OA
ATOM      6  H   UNL A   1      36.513  22.928  27.220  1.00  0.00     0.163 HD
BRANCH   4   7
ATOM      7  C   UNL A   1      33.326  23.253  26.154  1.00  0.00     0.106 C 
ATOM      8  C   UNL A   1      32.054  23.901  26.720  1.00  0.00     0.023 C 
BRANCH   7   9
ATOM      9  C   UNL A   1      32.868  22.025  25.354  1.00  0.00    -0.028 A 
ATOM     10  C   UNL A   1      32.851  20.805  26.058  1.00  0.00     0.005 A 
ATOM     11  C   UNL A   1      32.566  22.028  23.964  1.00  0.00    -0.014 A 
ATOM     12  C   UNL A   1      32.623  19.600  25.407  1.00  0.00     0.004 A 
ATOM     13  C   UNL A   1      32.412  20.778  23.322  1.00  0.00     0.012 A 
ATOM     14  C   UNL A   1      32.489  19.563  24.022  1.00  0.00    -0.047 A 
BRANCH  11  15
ATOM     15  C   UNL A   1      32.277  23.251  23.181  1.00  0.00    -0.018 A 
ATOM     16  C   UNL A   1      31.059  23.924  23.406  1.00  0.00     0.012 A 
ATOM     17  C   UNL A   1      33.163  23.815  22.249  1.00  0.00     0.012 A 
ATOM     18  C   UNL A   1      30.772  25.142  22.786  1.00  0.00     0.047 A 
ATOM     19  C   UNL A   1      32.889  25.051  21.641  1.00  0.00     0.047 A 
ATOM     20  C   UNL A   1      31.700  25.709  21.928  1.00  0.00     0.115 A 
BRANCH  20  21
ATOM     21  O   UNL A   1      31.399  26.923  21.390  1.00  0.00    -0.508 OA
ATOM     22  H   UNL A   1      30.871  27.531  21.870  1.00  0.00     0.293 HD
ENDBRANCH  20  21
ENDBRANCH  11  15
BRANCH  14  23
ATOM     23  C   UNL A   1      32.438  18.237  23.303  1.00  0.00     0.041 C 
BRANCH  23  24
ATOM     24  C   UNL A   1      33.488  17.182  23.700  1.00  0.00     0.022 C 
ATOM     25  C   UNL A   1      34.840  17.731  24.186  1.00  0.00     0.007 C 
ATOM     26  C   UNL A   1      33.110  16.111  24.737  1.00  0.00     0.117 C 
ATOM     27  C   UNL A   1      35.405  16.678  25.146  1.00  0.00     0.003 C 
ATOM     28  C   UNL A   1      34.459  15.483  25.067  1.00  0.00     0.032 C 
BRANCH  26  29
ATOM     29  O   UNL A   1      32.551  16.601  25.943  1.00  0.00    -0.393 OA
ATOM     30  H   UNL A   1      31.828  17.214  25.738  1.00  0.00     0.210 HD
ENDBRANCH  26  29
ENDBRANCH  23  24
ENDBRANCH  14  23
ENDBRANCH   7   9
ENDBRANCH   4   7
ENDBRANCH   2   3
ENDBRANCH   1   2
BRANCH   1  31
ATOM     31  C   UNL A   1      37.713  20.432  24.684  1.00  0.00     0.023 C 
BRANCH  31  32
ATOM     32  C   UNL A   1      38.768  20.609  25.771  1.00  0.00     0.116 C 
BRANCH  32  33
ATOM     33  N   UNL A   1      39.674  19.475  25.875  1.00  0.00    -0.352 N 
ATOM     34  C   UNL A   1      41.021  19.461  26.149  1.00  0.00     0.251 C 
ATOM     35  H   UNL A   1      39.264  18.592  25.728  1.00  0.00     0.163 HD
ATOM     36  O   UNL A   1      41.649  18.412  26.090  1.00  0.00    -0.269 OA
BRANCH  34  37
ATOM     37  C   UNL A   1      41.711  20.728  26.474  1.00  0.00     0.039 A 
ATOM     38  C   UNL A   1      42.104  21.563  25.425  1.00  0.00     0.014 A 
ATOM     39  C   UNL A   1      41.928  21.110  27.802  1.00  0.00     0.014 A 
ATOM     40  C   UNL A   1      42.639  22.821  25.709  1.00  0.00     0.010 A 
ATOM     41  C   UNL A   1      42.403  22.389  28.081  1.00  0.00     0.010 A 
ATOM     42  C   UNL A   1      42.747  23.263  27.038  1.00  0.00    -0.014 A 
BRANCH  42  43
ATOM     43  C   UNL A   1      43.150  24.658  27.353  1.00  0.00     0.031 A 
ATOM     44  C   UNL A   1      42.173  25.618  27.972  1.00  0.00     0.074 A 
ATOM     45  C   UNL A   1      44.373  25.087  26.979  1.00  0.00     0.049 A 
ATOM     46  N   UNL A   1      42.336  26.884  28.257  1.00  0.00    -0.248 NA
ATOM     47  C   UNL A   1      40.833  25.099  28.292  1.00  0.00     0.031 C 
ATOM     48  C   UNL A   1      45.379  24.274  26.289  1.00  0.00     0.029 A 
ATOM     49  N   UNL A   1      44.967  26.319  27.092  1.00  0.00    -0.354 N 
ATOM     50  C   UNL A   1      41.116  27.322  28.756  1.00  0.00     0.074 A 
ATOM     51  C   UNL A   1      40.213  26.192  28.717  1.00  0.00     0.031 C 
ATOM     52  C   UNL A   1      46.459  25.030  26.035  1.00  0.00     0.029 A 
ATOM     53  C   UNL A   1      46.214  26.386  26.515  1.00  0.00     0.049 A 
ATOM     54  H   UNL A   1      44.541  27.083  27.544  1.00  0.00     0.167 HD
ATOM     55  C   UNL A   1      40.785  28.547  29.227  1.00  0.00     0.034 A 
ATOM     56  C   UNL A   1      47.061  27.425  26.370  1.00  0.00     0.034 A 
ATOM     57  C   UNL A   1      41.697  29.657  29.307  1.00  0.00     0.049 A 
ATOM     58  C   UNL A   1      46.677  28.765  26.940  1.00  0.00     0.074 A 
ATOM     59  C   UNL A   1      41.487  30.901  29.874  1.00  0.00     0.029 A 
ATOM     60  N   UNL A   1      42.985  29.664  28.795  1.00  0.00    -0.354 N 
ATOM     61  N   UNL A   1      45.588  29.104  27.585  1.00  0.00    -0.248 NA
ATOM     62  C   UNL A   1      47.652  29.855  26.791  1.00  0.00     0.031 C 
ATOM     63  C   UNL A   1      42.639  31.671  29.681  1.00  0.00     0.029 A 
ATOM     64  C   UNL A   1      43.574  30.897  29.013  1.00  0.00     0.049 A 
ATOM     65  H   UNL A   1      43.416  28.904  28.341  1.00  0.00     0.167 HD
ATOM     66  C   UNL A   1      45.757  30.438  27.942  1.00  0.00     0.074 A 
ATOM     67  C   UNL A   1      47.068  30.833  27.470  1.00  0.00     0.031 C 
ATOM     68  C   UNL A   1      44.897  31.266  28.584  1.00  0.00     0.034 A 
BRANCH  55  69
ATOM     69  C   UNL A   1      39.389  28.751  29.756  1.00  0.00     0.023 A 
ATOM     70  C   UNL A   1      39.097  28.403  31.090  1.00  0.00     0.012 A 
ATOM     71  C   UNL A   1      38.401  29.375  28.970  1.00  0.00     0.148 A 
ATOM     72  C   UNL A   1      37.837  28.654  31.629  1.00  0.00     0.002 A 
ATOM     73  C   UNL A   1      37.159  29.660  29.528  1.00  0.00     0.091 A 
ATOM     74  F   UNL A   1      38.695  29.681  27.699  1.00  0.00    -0.205 F 
ATOM     75  C   UNL A   1      36.874  29.293  30.853  1.00  0.00     0.022 A 
BRANCH  73  76
ATOM     76  S   UNL A   1      35.875  30.549  28.640  1.00  0.00     0.127 S 
ATOM     77  O   UNL A   1      35.140  29.452  28.011  1.00  0.00    -0.237 OA
ATOM     78  O   UNL A   1      35.159  31.217  29.727  1.00  0.00    -0.237 OA
ATOM     79  O   UNL A   1      36.565  31.443  27.721  1.00  0.00    -0.744 OA
ENDBRANCH  73  76
ENDBRANCH  55  69
BRANCH  56  80
ATOM     80  C   UNL A   1      48.377  27.232  25.700  1.00  0.00     0.023 A 
ATOM     81  C   UNL A   1      49.482  26.795  26.456  1.00  0.00     0.012 A 
ATOM     82  C   UNL A   1      48.539  27.463  24.320  1.00  0.00     0.148 A 
ATOM     83  C   UNL A   1      50.733  26.630  25.859  1.00  0.00     0.002 A 
ATOM     84  C   UNL A   1      49.774  27.239  23.720  1.00  0.00     0.091 A 
ATOM     85  F   UNL A   1      47.483  27.894  23.617  1.00  0.00    -0.205 F 
ATOM     86  C   UNL A   1      50.877  26.842  24.490  1.00  0.00     0.022 A 
BRANCH  84  87
ATOM     87  S   UNL A   1      50.000  27.347  21.941  1.00  0.00     0.127 S 
ATOM     88  O   UNL A   1      51.403  26.971  21.793  1.00  0.00    -0.237 OA
ATOM     89  O   UNL A   1      49.041  26.359  21.447  1.00  0.00    -0.237 OA
ATOM     90  O   UNL A   1      49.665  28.723  21.592  1.00  0.00    -0.744 OA
ENDBRANCH  84  87
ENDBRANCH  56  80
BRANCH  68  91
ATOM     91  C   UNL A   1      45.346  32.682  28.831  1.00  0.00     0.023 A 
ATOM     92  C   UNL A   1      45.895  33.031  30.080  1.00  0.00     0.012 A 
ATOM     93  C   UNL A   1      45.290  33.648  27.806  1.00  0.00     0.148 A 
ATOM     94  C   UNL A   1      46.351  34.326  30.319  1.00  0.00     0.002 A 
ATOM     95  C   UNL A   1      45.791  34.924  28.035  1.00  0.00     0.091 A 
ATOM     96  F   UNL A   1      44.748  33.302  26.629  1.00  0.00    -0.205 F 
ATOM     97  C   UNL A   1      46.310  35.268  29.293  1.00  0.00     0.022 A 
BRANCH  95  98
ATOM     98  S   UNL A   1      45.866  36.175  26.748  1.00  0.00     0.127 S 
ATOM     99  O   UNL A   1      44.609  36.893  26.957  1.00  0.00    -0.237 OA
ATOM    100  O   UNL A   1      47.066  36.927  27.114  1.00  0.00    -0.237 OA
ATOM    101  O   UNL A   1      45.969  35.449  25.489  1.00  0.00    -0.744 OA
ENDBRANCH  95  98
ENDBRANCH  68  91
ENDBRANCH  42  43
ENDBRANCH  34  37
ENDBRANCH  32  33
ENDBRANCH  31  32
ENDBRANCH   1  31
TORSDOF 20
ENDMDL
MODEL 2
REMARK VINA RESULT:     -12.5      5.305      9.944
REMARK SMILES C[C@@H](C(=O)NCCCCNC(=O)c1ccc(-c2c3nc(c(-c4cccc(S(=O)(=O)[O-])c4F)c4ccc([nH]4)c(-c4cccc(S(=O)(=O)[O-])c4F)c4nc(c(-c5cccc(S(=O)(=O)[O-])c5F)c5ccc2[nH]5)C=C4)C=C3)cc1)c1ccc(C[C@H]2CCC[C@H]2O)cc1-c1ccc(O)cc1
REMARK SMILES IDX 7 1 6 2 5 3 3 4 4 5 2 7 1 8 76 9 77 10 88 11 78 12 87 13
REMARK SMILES IDX 79 14 89 15 90 16 95 17 91 18 94 19 92 20 93 21 80 23 81 24
REMARK SMILES IDX 82 25 85 26 83 27 84 28 86 29 8 31 9 32 10 33 11 34 12 36
REMARK SMILES IDX 13 37 14 38 75 39 15 40 74 41 16 42 17 43 18 44 68 45 19 46
REMARK SMILES IDX 73 47 67 48 69 49 20 50 72 51 66 52 65 53 21 55 53 56 33 57
REMARK SMILES IDX 52 58 34 59 37 60 51 61 70 62 35 63 36 64 50 66 71 67 38 68
REMARK SMILES IDX 22 69 23 70 31 71 24 72 26 73 32 74 25 75 27 76 28 77 29 78
REMARK SMILES IDX 30 79 54 80 55 81 63 82 56 83 58 84 64 85 57 86 59 87 60 88
REMARK SMILES IDX 61 89 62 90 39 91 40 92 48 93 41 94 43 95 49 96 42 97 44 98
REMARK SMILES IDX 45 99 46 100 47 101
REMARK H PARENT 5 6 93 22 86 30 10 35 69 54 37 65
REMARK Flexibility Score: inf
ROOT
ATOM      1  C   UNL A   1      33.195  28.780  23.872  1.00  0.00     0.023 C 
ENDROOT
BRANCH   1   2
ATOM      2  C   UNL A   1      33.645  27.325  23.995  1.00  0.00     0.116 C 
BRANCH   2   3
ATOM      3  N   UNL A   1      32.557  26.442  24.351  1.00  0.00    -0.356 N 
ATOM      4  C   UNL A   1      32.383  25.117  24.099  1.00  0.00     0.227 C 
ATOM      5  O   UNL A   1      31.655  24.519  24.898  1.00  0.00    -0.274 OA
ATOM      6  H   UNL A   1      31.828  26.868  24.857  1.00  0.00     0.163 HD
BRANCH   4   7
ATOM      7  C   UNL A   1      33.177  24.384  23.010  1.00  0.00     0.106 C 
ATOM      8  C   UNL A   1      32.941  24.710  21.528  1.00  0.00     0.023 C 
BRANCH   7   9
ATOM      9  C   UNL A   1      33.143  22.854  23.127  1.00  0.00    -0.028 A 
ATOM     10  C   UNL A   1      32.164  22.200  22.351  1.00  0.00     0.005 A 
ATOM     11  C   UNL A   1      33.946  22.089  24.017  1.00  0.00    -0.014 A 
ATOM     12  C   UNL A   1      31.917  20.842  22.498  1.00  0.00     0.004 A 
ATOM     13  C   UNL A   1      33.618  20.726  24.193  1.00  0.00     0.012 A 
ATOM     14  C   UNL A   1      32.577  20.108  23.480  1.00  0.00    -0.047 A 
BRANCH  11  15
ATOM     15  C   UNL A   1      35.176  22.597  24.668  1.00  0.00    -0.018 A 
ATOM     16  C   UNL A   1      36.414  22.029  24.305  1.00  0.00     0.012 A 
ATOM     17  C   UNL A   1      35.196  23.644  25.602  1.00  0.00     0.012 A 
ATOM     18  C   UNL A   1      37.621  22.534  24.794  1.00  0.00     0.047 A 
ATOM     19  C   UNL A   1      36.407  24.171  26.078  1.00  0.00     0.047 A 
ATOM     20  C   UNL A   1      37.610  23.618  25.657  1.00  0.00     0.115 A 
BRANCH  20  21
ATOM     21  O   UNL A   1      38.812  24.110  26.064  1.00  0.00    -0.508 OA
ATOM     22  H   UNL A   1      39.275  23.694  26.765  1.00  0.00     0.293 HD
ENDBRANCH  20  21
ENDBRANCH  11  15
BRANCH  14  23
ATOM     23  C   UNL A   1      32.166  18.685  23.764  1.00  0.00     0.041 C 
BRANCH  23  24
ATOM     24  C   UNL A   1      33.146  17.820  24.579  1.00  0.00     0.022 C 
ATOM     25  C   UNL A   1      32.517  16.660  25.371  1.00  0.00     0.007 C 
ATOM     26  C   UNL A   1      34.353  17.191  23.865  1.00  0.00     0.117 C 
ATOM     27  C   UNL A   1      33.602  15.585  25.481  1.00  0.00     0.003 C 
ATOM     28  C   UNL A   1      34.872  16.204  24.905  1.00  0.00     0.032 C 
BRANCH  26  29
ATOM     29  O   UNL A   1      34.053  16.463  22.687  1.00  0.00    -0.393 OA
ATOM     30  H   UNL A   1      34.835  16.439  22.114  1.00  0.00     0.210 HD
ENDBRANCH  26  29
ENDBRANCH  23  24
ENDBRANCH  14  23
ENDBRANCH   7   9
ENDBRANCH   4   7
ENDBRANCH   2   3
ENDBRANCH   1   2
BRANCH   1  31
ATOM     31  C   UNL A   1      32.307  29.280  25.014  1.00  0.00     0.023 C 
BRANCH  31  32
ATOM     32  C   UNL A   1      33.028  29.590  26.322  1.00  0.00     0.116 C 
BRANCH  32  33
ATOM     33  N   UNL A   1      32.809  30.954  26.782  1.00  0.00    -0.352 N 
ATOM     34  C   UNL A   1      33.628  31.756  27.542  1.00  0.00     0.251 C 
ATOM     35  H   UNL A   1      31.954  31.359  26.512  1.00  0.00     0.163 HD
ATOM     36  O   UNL A   1      33.231  32.847  27.928  1.00  0.00    -0.269 OA
BRANCH  34  37
ATOM     37  C   UNL A   1      34.973  31.272  27.921  1.00  0.00     0.039 A 
ATOM     38  C   UNL A   1      36.026  32.189  27.964  1.00  0.00     0.014 A 
ATOM     39  C   UNL A   1      35.184  29.935  28.273  1.00  0.00     0.014 A 
ATOM     40  C   UNL A   1      37.274  31.784  28.443  1.00  0.00     0.010 A 
ATOM     41  C   UNL A   1      36.410  29.550  28.809  1.00  0.00     0.010 A 
ATOM     42  C   UNL A   1      37.462  30.474  28.914  1.00  0.00    -0.014 A 
BRANCH  42  43
ATOM     43  C   UNL A   1      38.725  30.074  29.585  1.00  0.00     0.031 A 
ATOM     44  C   UNL A   1      39.620  29.029  28.979  1.00  0.00     0.074 A 
ATOM     45  C   UNL A   1      39.010  30.584  30.802  1.00  0.00     0.049 A 
ATOM     46  N   UNL A   1      40.725  28.519  29.456  1.00  0.00    -0.248 NA
ATOM     47  C   UNL A   1      39.212  28.468  27.681  1.00  0.00     0.031 C 
ATOM     48  C   UNL A   1      38.174  31.539  31.535  1.00  0.00     0.029 A 
ATOM     49  N   UNL A   1      40.061  30.345  31.653  1.00  0.00    -0.354 N 
ATOM     50  C   UNL A   1      41.127  27.555  28.540  1.00  0.00     0.074 A 
ATOM     51  C   UNL A   1      40.136  27.536  27.486  1.00  0.00     0.031 C 
ATOM     52  C   UNL A   1      38.739  31.797  32.725  1.00  0.00     0.029 A 
ATOM     53  C   UNL A   1      39.959  31.007  32.855  1.00  0.00     0.049 A 
ATOM     54  H   UNL A   1      40.816  29.755  31.425  1.00  0.00     0.167 HD
ATOM     55  C   UNL A   1      42.233  26.776  28.562  1.00  0.00     0.034 A 
ATOM     56  C   UNL A   1      40.748  30.971  33.947  1.00  0.00     0.034 A 
ATOM     57  C   UNL A   1      43.240  26.828  29.588  1.00  0.00     0.049 A 
ATOM     58  C   UNL A   1      41.991  30.122  33.923  1.00  0.00     0.074 A 
ATOM     59  C   UNL A   1      44.451  26.160  29.638  1.00  0.00     0.029 A 
ATOM     60  N   UNL A   1      43.151  27.578  30.750  1.00  0.00    -0.354 N 
ATOM     61  N   UNL A   1      42.453  29.365  32.958  1.00  0.00    -0.248 NA
ATOM     62  C   UNL A   1      42.839  30.149  35.124  1.00  0.00     0.031 C 
ATOM     63  C   UNL A   1      45.082  26.486  30.843  1.00  0.00     0.029 A 
ATOM     64  C   UNL A   1      44.273  27.374  31.533  1.00  0.00     0.049 A 
ATOM     65  H   UNL A   1      42.398  28.169  30.984  1.00  0.00     0.167 HD
ATOM     66  C   UNL A   1      43.656  28.846  33.425  1.00  0.00     0.074 A 
ATOM     67  C   UNL A   1      43.867  29.403  34.745  1.00  0.00     0.031 C 
ATOM     68  C   UNL A   1      44.499  27.971  32.824  1.00  0.00     0.034 A 
BRANCH  55  69
ATOM     69  C   UNL A   1      42.458  25.831  27.411  1.00  0.00     0.023 A 
ATOM     70  C   UNL A   1      43.196  26.266  26.293  1.00  0.00     0.012 A 
ATOM     71  C   UNL A   1      42.028  24.491  27.479  1.00  0.00     0.148 A 
ATOM     72  C   UNL A   1      43.488  25.388  25.250  1.00  0.00     0.002 A 
ATOM     73  C   UNL A   1      42.358  23.611  26.454  1.00  0.00     0.091 A 
ATOM     74  F   UNL A   1      41.312  24.103  28.544  1.00  0.00    -0.205 F 
ATOM     75  C   UNL A   1      43.080  24.060  25.336  1.00  0.00     0.022 A 
BRANCH  73  76
ATOM     76  S   UNL A   1      41.948  21.862  26.503  1.00  0.00     0.127 S 
ATOM     77  O   UNL A   1      42.753  21.341  25.400  1.00  0.00    -0.237 OA
ATOM     78  O   UNL A   1      42.416  21.477  27.835  1.00  0.00    -0.237 OA
ATOM     79  O   UNL A   1      40.507  21.781  26.315  1.00  0.00    -0.744 OA
ENDBRANCH  73  76
ENDBRANCH  55  69
BRANCH  56  80
ATOM     80  C   UNL A   1      40.416  31.802  35.139  1.00  0.00     0.023 A 
ATOM     81  C   UNL A   1      41.137  32.987  35.380  1.00  0.00     0.012 A 
ATOM     82  C   UNL A   1      39.385  31.434  36.025  1.00  0.00     0.148 A 
ATOM     83  C   UNL A   1      40.865  33.771  36.503  1.00  0.00     0.002 A 
ATOM     84  C   UNL A   1      39.079  32.250  37.109  1.00  0.00     0.091 A 
ATOM     85  F   UNL A   1      38.719  30.294  35.792  1.00  0.00    -0.205 F 
ATOM     86  C   UNL A   1      39.830  33.408  37.361  1.00  0.00     0.022 A 
BRANCH  84  87
ATOM     87  S   UNL A   1      37.667  31.929  38.173  1.00  0.00     0.127 S 
ATOM     88  O   UNL A   1      38.196  32.277  39.488  1.00  0.00    -0.237 OA
ATOM     89  O   UNL A   1      36.665  32.856  37.645  1.00  0.00    -0.237 OA
ATOM     90  O   UNL A   1      37.339  30.523  37.965  1.00  0.00    -0.744 OA
ENDBRANCH  84  87
ENDBRANCH  56  80
BRANCH  68  91
ATOM     91  C   UNL A   1      45.739  27.568  33.576  1.00  0.00     0.023 A 
ATOM     92  C   UNL A   1      46.904  28.352  33.468  1.00  0.00     0.012 A 
ATOM     93  C   UNL A   1      45.731  26.457  34.443  1.00  0.00     0.148 A 
ATOM     94  C   UNL A   1      48.053  28.020  34.185  1.00  0.00     0.002 A 
ATOM     95  C   UNL A   1      46.863  26.160  35.191  1.00  0.00     0.091 A 
ATOM     96  F   UNL A   1      44.617  25.712  34.519  1.00  0.00    -0.205 F 
ATOM     97  C   UNL A   1      48.028  26.932  35.055  1.00  0.00     0.022 A 
BRANCH  95  98
ATOM     98  S   UNL A   1      46.896  24.836  36.405  1.00  0.00     0.127 S 
ATOM     99  O   UNL A   1      46.707  23.655  35.563  1.00  0.00    -0.237 OA
ATOM    100  O   UNL A   1      48.237  24.969  36.976  1.00  0.00    -0.237 OA
ATOM    101  O   UNL A   1      45.813  25.119  37.336  1.00  0.00    -0.744 OA
ENDBRANCH  95  98
ENDBRANCH  68  91
ENDBRANCH  42  43
ENDBRANCH  34  37
ENDBRANCH  32  33
ENDBRANCH  31  32
ENDBRANCH   1  31
TORSDOF 20
ENDMDL
MODEL 3
REMARK VINA RESULT:     -12.5      5.431      8.238
REMARK SMILES C[C@@H](C(=O)NCCCCNC(=O)c1ccc(-c2c3nc(c(-c4cccc(S(=O)(=O)[O-])c4F)c4ccc([nH]4)c(-c4cccc(S(=O)(=O)[O-])c4F)c4nc(c(-c5cccc(S(=O)(=O)[O-])c5F)c5ccc2[nH]5)C=C4)C=C3)cc1)c1ccc(C[C@H]2CCC[C@H]2O)cc1-c1ccc(O)cc1
REMARK SMILES IDX 7 1 6 2 5 3 3 4 4 5 2 7 1 8 76 9 77 10 88 11 78 12 87 13
REMARK SMILES IDX 79 14 89 15 90 16 95 17 91 18 94 19 92 20 93 21 80 23 81 24
REMARK SMILES IDX 82 25 85 26 83 27 84 28 86 29 8 31 9 32 10 33 11 34 12 36
REMARK SMILES IDX 13 37 14 38 75 39 15 40 74 41 16 42 17 43 18 44 68 45 19 46
REMARK SMILES IDX 73 47 67 48 69 49 20 50 72 51 66 52 65 53 21 55 53 56 33 57
REMARK SMILES IDX 52 58 34 59 37 60 51 61 70 62 35 63 36 64 50 66 71 67 38 68
REMARK SMILES IDX 22 69 23 70 31 71 24 72 26 73 32 74 25 75 27 76 28 77 29 78
REMARK SMILES IDX 30 79 54 80 55 81 63 82 56 83 58 84 64 85 57 86 59 87 60 88
REMARK SMILES IDX 61 89 62 90 39 91 40 92 48 93 41 94 43 95 49 96 42 97 44 98
REMARK SMILES IDX 45 99 46 100 47 101
REMARK H PARENT 5 6 93 22 86 30 10 35 69 54 37 65
REMARK Flexibility Score: inf
ROOT
ATOM      1  C   UNL A   1      31.937  27.858  24.398  1.00  0.00     0.023 C 
ENDROOT
BRANCH   1   2
ATOM      2  C   UNL A   1      33.138  27.058  24.897  1.00  0.00     0.116 C 
BRANCH   2   3
ATOM      3  N   UNL A   1      33.829  26.378  23.824  1.00  0.00    -0.356 N 
ATOM      4  C   UNL A   1      34.321  25.112  23.758  1.00  0.00     0.227 C 
ATOM      5  O   UNL A   1      34.411  24.639  22.621  1.00  0.00    -0.274 OA
ATOM      6  H   UNL A   1      33.964  26.919  23.013  1.00  0.00     0.163 HD
BRANCH   4   7
ATOM      7  C   UNL A   1      34.572  24.270  25.016  1.00  0.00     0.106 C 
ATOM      8  C   UNL A   1      36.005  24.030  25.513  1.00  0.00     0.023 C 
BRANCH   7   9
ATOM      9  C   UNL A   1      33.882  22.899  25.004  1.00  0.00    -0.028 A 
ATOM     10  C   UNL A   1      34.709  21.792  25.284  1.00  0.00     0.005 A 
ATOM     11  C   UNL A   1      32.525  22.674  24.642  1.00  0.00    -0.014 A 
ATOM     12  C   UNL A   1      34.248  20.492  25.136  1.00  0.00     0.004 A 
ATOM     13  C   UNL A   1      32.113  21.339  24.430  1.00  0.00     0.012 A 
ATOM     14  C   UNL A   1      32.976  20.249  24.624  1.00  0.00    -0.047 A 
BRANCH  11  15
ATOM     15  C   UNL A   1      31.492  23.736  24.598  1.00  0.00    -0.018 A 
ATOM     16  C   UNL A   1      30.969  24.114  23.345  1.00  0.00     0.012 A 
ATOM     17  C   UNL A   1      30.965  24.367  25.735  1.00  0.00     0.012 A 
ATOM     18  C   UNL A   1      29.916  25.025  23.239  1.00  0.00     0.047 A 
ATOM     19  C   UNL A   1      29.890  25.265  25.636  1.00  0.00     0.047 A 
ATOM     20  C   UNL A   1      29.367  25.574  24.386  1.00  0.00     0.115 A 
BRANCH  20  21
ATOM     21  O   UNL A   1      28.307  26.415  24.236  1.00  0.00    -0.508 OA
ATOM     22  H   UNL A   1      28.390  27.185  23.707  1.00  0.00     0.293 HD
ENDBRANCH  20  21
ENDBRANCH  11  15
BRANCH  14  23
ATOM     23  C   UNL A   1      32.555  18.842  24.283  1.00  0.00     0.041 C 
BRANCH  23  24
ATOM     24  C   UNL A   1      33.342  17.693  24.943  1.00  0.00     0.022 C 
ATOM     25  C   UNL A   1      32.495  16.558  25.542  1.00  0.00     0.007 C 
ATOM     26  C   UNL A   1      34.432  16.976  24.131  1.00  0.00     0.117 C 
ATOM     27  C   UNL A   1      33.364  15.298  25.473  1.00  0.00     0.003 C 
ATOM     28  C   UNL A   1      34.739  15.758  24.996  1.00  0.00     0.032 C 
BRANCH  26  29
ATOM     29  O   UNL A   1      34.033  16.512  22.853  1.00  0.00    -0.393 OA
ATOM     30  H   UNL A   1      34.192  15.557  22.791  1.00  0.00     0.210 HD
ENDBRANCH  26  29
ENDBRANCH  23  24
ENDBRANCH  14  23
ENDBRANCH   7   9
ENDBRANCH   4   7
ENDBRANCH   2   3
ENDBRANCH   1   2
BRANCH   1  31
ATOM     31  C   UNL A   1      31.948  29.342  24.775  1.00  0.00     0.023 C 
BRANCH  31  32
ATOM     32  C   UNL A   1      32.786  29.706  25.996  1.00  0.00     0.116 C 
BRANCH  32  33
ATOM     33  N   UNL A   1      32.596  31.083  26.427  1.00  0.00    -0.352 N 
ATOM     34  C   UNL A   1      33.367  31.842  27.275  1.00  0.00     0.251 C 
ATOM     35  H   UNL A   1      31.803  31.535  26.058  1.00  0.00     0.163 HD
ATOM     36  O   UNL A   1      32.992  32.957  27.612  1.00  0.00    -0.269 OA
BRANCH  34  37
ATOM     37  C   UNL A   1      34.628  31.283  27.809  1.00  0.00     0.039 A 
ATOM     38  C   UNL A   1      35.692  32.154  28.060  1.00  0.00     0.014 A 
ATOM     39  C   UNL A   1      34.746  29.921  28.100  1.00  0.00     0.014 A 
ATOM     40  C   UNL A   1      36.845  31.672  28.682  1.00  0.00     0.010 A 
ATOM     41  C   UNL A   1      35.870  29.456  28.777  1.00  0.00     0.010 A 
ATOM     42  C   UNL A   1      36.923  30.330  29.090  1.00  0.00    -0.014 A 
BRANCH  42  43
ATOM     43  C   UNL A   1      38.064  29.841  29.905  1.00  0.00     0.031 A 
ATOM     44  C   UNL A   1      38.305  30.377  31.289  1.00  0.00     0.074 A 
ATOM     45  C   UNL A   1      38.948  28.985  29.350  1.00  0.00     0.049 A 
ATOM     46  N   UNL A   1      39.283  30.107  32.114  1.00  0.00    -0.248 NA
ATOM     47  C   UNL A   1      37.337  31.359  31.806  1.00  0.00     0.031 C 
ATOM     48  C   UNL A   1      38.872  28.463  27.982  1.00  0.00     0.029 A 
ATOM     49  N   UNL A   1      40.101  28.433  29.850  1.00  0.00    -0.354 N 
ATOM     50  C   UNL A   1      39.071  30.907  33.231  1.00  0.00     0.074 A 
ATOM     51  C   UNL A   1      37.882  31.688  32.970  1.00  0.00     0.031 C 
ATOM     52  C   UNL A   1      39.933  27.674  27.752  1.00  0.00     0.029 A 
ATOM     53  C   UNL A   1      40.781  27.657  28.940  1.00  0.00     0.049 A 
ATOM     54  H   UNL A   1      40.411  28.578  30.773  1.00  0.00     0.167 HD
ATOM     55  C   UNL A   1      39.787  30.966  34.377  1.00  0.00     0.034 A 
ATOM     56  C   UNL A   1      41.962  27.016  29.041  1.00  0.00     0.034 A 
ATOM     57  C   UNL A   1      40.943  30.155  34.652  1.00  0.00     0.049 A 
ATOM     58  C   UNL A   1      42.714  27.072  30.344  1.00  0.00     0.074 A 
ATOM     59  C   UNL A   1      41.666  30.061  35.828  1.00  0.00     0.029 A 
ATOM     60  N   UNL A   1      41.555  29.310  33.740  1.00  0.00    -0.354 N 
ATOM     61  N   UNL A   1      42.389  27.682  31.457  1.00  0.00    -0.248 NA
ATOM     62  C   UNL A   1      43.978  26.323  30.416  1.00  0.00     0.031 C 
ATOM     63  C   UNL A   1      42.732  29.179  35.619  1.00  0.00     0.029 A 
ATOM     64  C   UNL A   1      42.659  28.707  34.319  1.00  0.00     0.049 A 
ATOM     65  H   UNL A   1      41.250  29.161  32.815  1.00  0.00     0.167 HD
ATOM     66  C   UNL A   1      43.393  27.372  32.369  1.00  0.00     0.074 A 
ATOM     67  C   UNL A   1      44.318  26.491  31.687  1.00  0.00     0.031 C 
ATOM     68  C   UNL A   1      43.546  27.794  33.648  1.00  0.00     0.034 A 
BRANCH  55  69
ATOM     69  C   UNL A   1      39.314  31.898  35.462  1.00  0.00     0.023 A 
ATOM     70  C   UNL A   1      38.457  31.410  36.468  1.00  0.00     0.012 A 
ATOM     71  C   UNL A   1      39.795  33.220  35.542  1.00  0.00     0.148 A 
ATOM     72  C   UNL A   1      38.068  32.228  37.527  1.00  0.00     0.002 A 
ATOM     73  C   UNL A   1      39.436  34.017  36.623  1.00  0.00     0.091 A 
ATOM     74  F   UNL A   1      40.596  33.668  34.565  1.00  0.00    -0.205 F 
ATOM     75  C   UNL A   1      38.567  33.526  37.611  1.00  0.00     0.022 A 
BRANCH  73  76
ATOM     76  S   UNL A   1      40.083  35.675  36.867  1.00  0.00     0.127 S 
ATOM     77  O   UNL A   1      39.468  36.046  38.140  1.00  0.00    -0.237 OA
ATOM     78  O   UNL A   1      41.525  35.433  36.934  1.00  0.00    -0.237 OA
ATOM     79  O   UNL A   1      39.647  36.451  35.715  1.00  0.00    -0.744 OA
ENDBRANCH  73  76
ENDBRANCH  55  69
BRANCH  56  80
ATOM     80  C   UNL A   1      42.486  26.224  27.893  1.00  0.00     0.023 A 
ATOM     81  C   UNL A   1      43.499  26.769  27.081  1.00  0.00     0.012 A 
ATOM     82  C   UNL A   1      42.000  24.933  27.609  1.00  0.00     0.148 A 
ATOM     83  C   UNL A   1      43.991  26.060  25.983  1.00  0.00     0.002 A 
ATOM     84  C   UNL A   1      42.537  24.208  26.551  1.00  0.00     0.091 A 
ATOM     85  F   UNL A   1      41.024  24.434  28.381  1.00  0.00    -0.205 F 
ATOM     86  C   UNL A   1      43.517  24.776  25.724  1.00  0.00     0.022 A 
BRANCH  84  87
ATOM     87  S   UNL A   1      42.085  22.496  26.245  1.00  0.00     0.127 S 
ATOM     88  O   UNL A   1      42.796  22.214  25.002  1.00  0.00    -0.237 OA
ATOM     89  O   UNL A   1      42.617  21.820  27.428  1.00  0.00    -0.237 OA
ATOM     90  O   UNL A   1      40.629  22.489  26.166  1.00  0.00    -0.744 OA
ENDBRANCH  84  87
ENDBRANCH  56  80
BRANCH  68  91
ATOM     91  C   UNL A   1      44.749  27.300  34.406  1.00  0.00     0.023 A 
ATOM     92  C   UNL A   1      45.978  27.977  34.280  1.00  0.00     0.012 A 
ATOM     93  C   UNL A   1      44.648  26.211  35.295  1.00  0.00     0.148 A 
ATOM     94  C   UNL A   1      47.095  27.561  35.001  1.00  0.00     0.002 A 
ATOM     95  C   UNL A   1      45.753  25.832  36.047  1.00  0.00     0.091 A 
ATOM     96  F   UNL A   1      43.474  25.568  35.389  1.00  0.00    -0.205 F 
ATOM     97  C   UNL A   1      46.980  26.497  35.893  1.00  0.00     0.022 A 
BRANCH  95  98
ATOM     98  S   UNL A   1      45.675  24.535  37.288  1.00  0.00     0.127 S 
ATOM     99  O   UNL A   1      47.037  24.552  37.822  1.00  0.00    -0.237 OA
ATOM    100  O   UNL A   1      44.653  25.040  38.204  1.00  0.00    -0.237 OA
ATOM    101  O   UNL A   1      45.299  23.321  36.575  1.00  0.00    -0.744 OA
ENDBRANCH  95  98
ENDBRANCH  68  91
ENDBRANCH  42  43
ENDBRANCH  34  37
ENDBRANCH  32  33
ENDBRANCH  31  32
ENDBRANCH   1  31
TORSDOF 20
ENDMDL
