MODEL 1
REMARK VINA RESULT:     -11.0      0.000      0.000
REMARK SMILES O=C(COc1ccc(Br)cc1/C=N/Nc1ncccc1[N+](=O)[O-])NCCCCNC(=O)c1ccc(-c2c3nc(c(-c4cccc(S(=O)(=O)[O-])c4F)c4ccc([nH]4)c(-c4cccc(S(=O)(=O)[O-])c4F)c4nc(c(-c5cccc(S(=O)(=O)[O-])c5F)c5ccc2[nH]5)C=C4)C=C3)cc1
REMARK SMILES IDX 25 1 24 2 1 3 2 4 3 6 4 7 5 8 6 9 11 10 7 11 10 12 8 13 9 14
REMARK SMILES IDX 12 15 13 16 14 17 15 19 16 20 20 21 17 22 19 23 18 24 21 25
REMARK SMILES IDX 22 26 23 27 26 28 27 29 28 30 29 31 30 32 31 34 32 35 33 36
REMARK SMILES IDX 94 37 34 38 93 39 35 40 36 41 37 42 87 43 38 44 92 45 86 46
REMARK SMILES IDX 88 47 39 48 91 49 85 50 84 51 40 53 72 54 52 55 71 56 53 57
REMARK SMILES IDX 56 58 70 59 89 60 54 61 55 62 69 64 90 65 57 66 41 67 42 68
REMARK SMILES IDX 50 69 43 70 45 71 51 72 44 73 46 74 47 75 48 76 49 77 73 78
REMARK SMILES IDX 74 79 82 80 75 81 77 82 83 83 76 84 78 85 79 86 80 87 81 88
REMARK SMILES IDX 58 89 59 90 67 91 60 92 62 93 68 94 61 95 63 96 64 97 65 98
REMARK SMILES IDX 66 99
REMARK H PARENT 24 5 14 18 29 33 88 52 56 63
REMARK Flexibility Score: inf
ROOT
ATOM      1  C   UNL A   1      33.086  23.269  25.635  1.00  0.00     0.116 C 
ENDROOT
BRANCH   1   2
ATOM      2  N   UNL A   1      32.148  24.298  25.234  1.00  0.00    -0.353 N 
ATOM      3  O   UNL A   1      30.899  24.259  27.165  1.00  0.00    -0.271 OA
ATOM      4  C   UNL A   1      31.184  24.788  26.094  1.00  0.00     0.257 C 
ATOM      5  H   UNL A   1      32.198  24.659  24.320  1.00  0.00     0.163 HD
BRANCH   4   6
ATOM      6  C   UNL A   1      30.523  26.089  25.618  1.00  0.00     0.329 C 
BRANCH   6   7
ATOM      7  O   UNL A   1      31.286  26.853  24.672  1.00  0.00    -0.483 OA
BRANCH   7   8
ATOM      8  C   UNL A   1      30.605  27.939  24.180  1.00  0.00     0.129 A 
ATOM      9  C   UNL A   1      29.482  27.763  23.364  1.00  0.00     0.048 A 
ATOM     10  C   UNL A   1      30.967  29.238  24.559  1.00  0.00     0.038 A 
ATOM     11  C   UNL A   1      28.758  28.862  22.898  1.00  0.00     0.019 A 
ATOM     12  C   UNL A   1      30.245  30.344  24.085  1.00  0.00     0.029 A 
ATOM     13  C   UNL A   1      29.144  30.147  23.258  1.00  0.00     0.018 A 
ATOM     14  Br  UNL A   1      28.144  31.629  22.649  1.00  0.00    -0.051 Br
BRANCH  10  15
ATOM     15  C   UNL A   1      32.080  29.482  25.496  1.00  0.00     0.145 C 
ATOM     16  N   UNL A   1      31.851  29.930  26.695  1.00  0.00    -0.181 NA
BRANCH  16  17
ATOM     17  N   UNL A   1      32.913  30.059  27.527  1.00  0.00    -0.256 N 
ATOM     18  H   UNL A   1      33.103  29.297  28.120  1.00  0.00     0.192 HD
BRANCH  17  19
ATOM     19  C   UNL A   1      33.764  31.158  27.630  1.00  0.00     0.225 A 
ATOM     20  N   UNL A   1      33.119  32.353  27.599  1.00  0.00    -0.232 NA
ATOM     21  C   UNL A   1      35.136  31.117  27.833  1.00  0.00     0.313 A 
ATOM     22  C   UNL A   1      33.821  33.480  27.860  1.00  0.00     0.114 A 
ATOM     23  C   UNL A   1      35.855  32.284  28.117  1.00  0.00     0.091 A 
ATOM     24  C   UNL A   1      35.174  33.493  28.147  1.00  0.00     0.027 A 
BRANCH  21  25
ATOM     25  N   UNL A   1      35.874  29.888  27.695  1.00  0.00     0.066 N 
ATOM     26  O   UNL A   1      36.766  29.654  28.521  1.00  0.00    -0.258 OA
ATOM     27  O   UNL A   1      35.482  29.100  26.820  1.00  0.00    -0.258 OA
ENDBRANCH  21  25
ENDBRANCH  17  19
ENDBRANCH  16  17
ENDBRANCH  10  15
ENDBRANCH   7   8
ENDBRANCH   6   7
ENDBRANCH   4   6
ENDBRANCH   1   2
BRANCH   1  28
ATOM     28  C   UNL A   1      34.539  23.725  25.619  1.00  0.00     0.023 C 
BRANCH  28  29
ATOM     29  C   UNL A   1      35.554  22.668  26.059  1.00  0.00     0.023 C 
BRANCH  29  30
ATOM     30  C   UNL A   1      37.022  23.027  25.840  1.00  0.00     0.116 C 
BRANCH  30  31
ATOM     31  N   UNL A   1      37.920  21.895  26.011  1.00  0.00    -0.352 N 
ATOM     32  C   UNL A   1      39.248  21.882  26.368  1.00  0.00     0.251 C 
ATOM     33  H   UNL A   1      37.518  21.011  25.846  1.00  0.00     0.163 HD
ATOM     34  O   UNL A   1      39.878  20.827  26.329  1.00  0.00    -0.269 OA
BRANCH  32  35
ATOM     35  C   UNL A   1      39.930  23.133  26.770  1.00  0.00     0.039 A 
ATOM     36  C   UNL A   1      40.838  23.098  27.832  1.00  0.00     0.014 A 
ATOM     37  C   UNL A   1      39.682  24.338  26.106  1.00  0.00     0.014 A 
ATOM     38  C   UNL A   1      41.551  24.249  28.177  1.00  0.00     0.010 A 
ATOM     39  C   UNL A   1      40.450  25.464  26.400  1.00  0.00     0.010 A 
ATOM     40  C   UNL A   1      41.394  25.434  27.439  1.00  0.00    -0.014 A 
BRANCH  40  41
ATOM     41  C   UNL A   1      42.222  26.638  27.722  1.00  0.00     0.031 A 
ATOM     42  C   UNL A   1      41.653  27.790  28.509  1.00  0.00     0.074 A 
ATOM     43  C   UNL A   1      43.461  26.733  27.199  1.00  0.00     0.049 A 
ATOM     44  N   UNL A   1      42.203  28.940  28.799  1.00  0.00    -0.248 NA
ATOM     45  C   UNL A   1      40.279  27.639  29.015  1.00  0.00     0.031 C 
ATOM     46  C   UNL A   1      44.102  25.724  26.354  1.00  0.00     0.029 A 
ATOM     47  N   UNL A   1      44.393  27.740  27.275  1.00  0.00    -0.354 N 
ATOM     48  C   UNL A   1      41.237  29.661  29.490  1.00  0.00     0.074 A 
ATOM     49  C   UNL A   1      40.053  28.833  29.545  1.00  0.00     0.031 C 
ATOM     50  C   UNL A   1      45.319  26.161  25.991  1.00  0.00     0.029 A 
ATOM     51  C   UNL A   1      45.534  27.492  26.545  1.00  0.00     0.049 A 
ATOM     52  H   UNL A   1      44.257  28.561  27.802  1.00  0.00     0.167 HD
ATOM     53  C   UNL A   1      41.332  30.890  30.056  1.00  0.00     0.034 A 
ATOM     54  C   UNL A   1      46.622  28.257  26.332  1.00  0.00     0.034 A 
ATOM     55  C   UNL A   1      42.520  31.701  30.028  1.00  0.00     0.049 A 
ATOM     56  C   UNL A   1      46.715  29.606  26.991  1.00  0.00     0.074 A 
ATOM     57  C   UNL A   1      42.739  32.924  30.638  1.00  0.00     0.029 A 
ATOM     58  N   UNL A   1      43.684  31.382  29.348  1.00  0.00    -0.354 N 
ATOM     59  N   UNL A   1      45.846  30.206  27.768  1.00  0.00    -0.248 NA
ATOM     60  C   UNL A   1      47.953  30.371  26.775  1.00  0.00     0.031 C 
ATOM     61  C   UNL A   1      44.025  33.359  30.301  1.00  0.00     0.029 A 
ATOM     62  C   UNL A   1      44.622  32.388  29.513  1.00  0.00     0.049 A 
ATOM     63  H   UNL A   1      43.826  30.560  28.825  1.00  0.00     0.167 HD
ATOM     64  C   UNL A   1      46.445  31.398  28.162  1.00  0.00     0.074 A 
ATOM     65  C   UNL A   1      47.759  31.425  27.555  1.00  0.00     0.031 C 
ATOM     66  C   UNL A   1      45.946  32.385  28.946  1.00  0.00     0.034 A 
BRANCH  53  67
ATOM     67  C   UNL A   1      40.129  31.416  30.796  1.00  0.00     0.023 A 
ATOM     68  C   UNL A   1      39.129  32.117  30.092  1.00  0.00     0.012 A 
ATOM     69  C   UNL A   1      39.957  31.166  32.171  1.00  0.00     0.148 A 
ATOM     70  C   UNL A   1      37.996  32.593  30.749  1.00  0.00     0.002 A 
ATOM     71  C   UNL A   1      38.802  31.601  32.810  1.00  0.00     0.091 A 
ATOM     72  F   UNL A   1      40.926  30.513  32.829  1.00  0.00    -0.205 F 
ATOM     73  C   UNL A   1      37.827  32.326  32.105  1.00  0.00     0.022 A 
BRANCH  71  74
ATOM     74  S   UNL A   1      38.450  31.238  34.534  1.00  0.00     0.127 S 
ATOM     75  O   UNL A   1      37.126  31.838  34.697  1.00  0.00    -0.237 OA
ATOM     76  O   UNL A   1      38.461  29.775  34.549  1.00  0.00    -0.237 OA
ATOM     77  O   UNL A   1      39.516  31.863  35.304  1.00  0.00    -0.744 OA
ENDBRANCH  71  74
ENDBRANCH  53  67
BRANCH  54  78
ATOM     78  C   UNL A   1      47.740  27.743  25.489  1.00  0.00     0.023 A 
ATOM     79  C   UNL A   1      48.818  27.068  26.094  1.00  0.00     0.012 A 
ATOM     80  C   UNL A   1      47.729  27.903  24.089  1.00  0.00     0.148 A 
ATOM     81  C   UNL A   1      49.882  26.595  25.326  1.00  0.00     0.002 A 
ATOM     82  C   UNL A   1      48.764  27.378  23.324  1.00  0.00     0.091 A 
ATOM     83  F   UNL A   1      46.700  28.556  23.533  1.00  0.00    -0.205 F 
ATOM     84  C   UNL A   1      49.851  26.740  23.942  1.00  0.00     0.022 A 
BRANCH  82  85
ATOM     85  S   UNL A   1      48.740  27.402  21.528  1.00  0.00     0.127 S 
ATOM     86  O   UNL A   1      48.873  25.983  21.208  1.00  0.00    -0.237 OA
ATOM     87  O   UNL A   1      47.423  27.977  21.253  1.00  0.00    -0.237 OA
ATOM     88  O   UNL A   1      49.858  28.247  21.131  1.00  0.00    -0.744 OA
ENDBRANCH  82  85
ENDBRANCH  54  78
BRANCH  66  89
ATOM     89  C   UNL A   1      46.835  33.567  29.237  1.00  0.00     0.023 A 
ATOM     90  C   UNL A   1      47.729  33.527  30.326  1.00  0.00     0.012 A 
ATOM     91  C   UNL A   1      46.834  34.689  28.385  1.00  0.00     0.148 A 
ATOM     92  C   UNL A   1      48.581  34.601  30.582  1.00  0.00     0.002 A 
ATOM     93  C   UNL A   1      47.722  35.732  28.616  1.00  0.00     0.091 A 
ATOM     94  F   UNL A   1      45.963  34.716  27.364  1.00  0.00    -0.205 F 
ATOM     95  C   UNL A   1      48.586  35.696  29.721  1.00  0.00     0.022 A 
BRANCH  93  96
ATOM     96  S   UNL A   1      47.870  37.138  27.507  1.00  0.00     0.127 S 
ATOM     97  O   UNL A   1      46.586  37.809  27.706  1.00  0.00    -0.237 OA
ATOM     98  O   UNL A   1      49.023  37.848  28.061  1.00  0.00    -0.237 OA
ATOM     99  O   UNL A   1      48.082  36.581  26.178  1.00  0.00    -0.744 OA
ENDBRANCH  93  96
ENDBRANCH  66  89
ENDBRANCH  40  41
ENDBRANCH  32  35
ENDBRANCH  30  31
ENDBRANCH  29  30
ENDBRANCH  28  29
ENDBRANCH   1  28
TORSDOF 20
ENDMDL
MODEL 2
REMARK VINA RESULT:     -10.9      2.479      8.320
REMARK SMILES O=C(COc1ccc(Br)cc1/C=N/Nc1ncccc1[N+](=O)[O-])NCCCCNC(=O)c1ccc(-c2c3nc(c(-c4cccc(S(=O)(=O)[O-])c4F)c4ccc([nH]4)c(-c4cccc(S(=O)(=O)[O-])c4F)c4nc(c(-c5cccc(S(=O)(=O)[O-])c5F)c5ccc2[nH]5)C=C4)C=C3)cc1
REMARK SMILES IDX 25 1 24 2 1 3 2 4 3 6 4 7 5 8 6 9 11 10 7 11 10 12 8 13 9 14
REMARK SMILES IDX 12 15 13 16 14 17 15 19 16 20 20 21 17 22 19 23 18 24 21 25
REMARK SMILES IDX 22 26 23 27 26 28 27 29 28 30 29 31 30 32 31 34 32 35 33 36
REMARK SMILES IDX 94 37 34 38 93 39 35 40 36 41 37 42 87 43 38 44 92 45 86 46
REMARK SMILES IDX 88 47 39 48 91 49 85 50 84 51 40 53 72 54 52 55 71 56 53 57
REMARK SMILES IDX 56 58 70 59 89 60 54 61 55 62 69 64 90 65 57 66 41 67 42 68
REMARK SMILES IDX 50 69 43 70 45 71 51 72 44 73 46 74 47 75 48 76 49 77 73 78
REMARK SMILES IDX 74 79 82 80 75 81 77 82 83 83 76 84 78 85 79 86 80 87 81 88
REMARK SMILES IDX 58 89 59 90 67 91 60 92 62 93 68 94 61 95 63 96 64 97 65 98
REMARK SMILES IDX 66 99
REMARK H PARENT 24 5 14 18 29 33 88 52 56 63
REMARK Flexibility Score: inf
ROOT
ATOM      1  C   UNL A   1      33.916  22.638  26.097  1.00  0.00     0.116 C 
ENDROOT
BRANCH   1   2
ATOM      2  N   UNL A   1      34.110  24.072  26.152  1.00  0.00    -0.353 N 
ATOM      3  O   UNL A   1      35.161  24.258  24.115  1.00  0.00    -0.271 OA
ATOM      4  C   UNL A   1      34.628  24.784  25.088  1.00  0.00     0.257 C 
ATOM      5  H   UNL A   1      33.865  24.555  26.973  1.00  0.00     0.163 HD
BRANCH   4   6
ATOM      6  C   UNL A   1      34.439  26.304  25.199  1.00  0.00     0.329 C 
BRANCH   6   7
ATOM      7  O   UNL A   1      34.051  26.779  26.497  1.00  0.00    -0.483 OA
BRANCH   7   8
ATOM      8  C   UNL A   1      33.343  27.955  26.452  1.00  0.00     0.129 A 
ATOM      9  C   UNL A   1      33.893  29.135  26.964  1.00  0.00     0.048 A 
ATOM     10  C   UNL A   1      32.099  28.012  25.813  1.00  0.00     0.038 A 
ATOM     11  C   UNL A   1      33.198  30.343  26.881  1.00  0.00     0.019 A 
ATOM     12  C   UNL A   1      31.394  29.224  25.735  1.00  0.00     0.029 A 
ATOM     13  C   UNL A   1      31.951  30.381  26.269  1.00  0.00     0.018 A 
ATOM     14  Br  UNL A   1      31.027  32.023  26.133  1.00  0.00    -0.051 Br
BRANCH  10  15
ATOM     15  C   UNL A   1      31.512  26.822  25.167  1.00  0.00     0.145 C 
ATOM     16  N   UNL A   1      31.136  26.862  23.923  1.00  0.00    -0.181 NA
BRANCH  16  17
ATOM     17  N   UNL A   1      30.677  25.712  23.373  1.00  0.00    -0.256 N 
ATOM     18  H   UNL A   1      29.724  25.690  23.127  1.00  0.00     0.192 HD
BRANCH  17  19
ATOM     19  C   UNL A   1      31.413  24.556  23.118  1.00  0.00     0.225 A 
ATOM     20  N   UNL A   1      31.109  23.521  23.943  1.00  0.00    -0.232 NA
ATOM     21  C   UNL A   1      32.325  24.374  22.087  1.00  0.00     0.313 A 
ATOM     22  C   UNL A   1      31.636  22.302  23.682  1.00  0.00     0.114 A 
ATOM     23  C   UNL A   1      32.856  23.109  21.813  1.00  0.00     0.091 A 
ATOM     24  C   UNL A   1      32.487  22.044  22.623  1.00  0.00     0.027 A 
BRANCH  21  25
ATOM     25  N   UNL A   1      32.802  25.489  21.309  1.00  0.00     0.066 N 
ATOM     26  O   UNL A   1      32.046  25.956  20.447  1.00  0.00    -0.258 OA
ATOM     27  O   UNL A   1      33.896  25.970  21.641  1.00  0.00    -0.258 OA
ENDBRANCH  21  25
ENDBRANCH  17  19
ENDBRANCH  16  17
ENDBRANCH  10  15
ENDBRANCH   7   8
ENDBRANCH   6   7
ENDBRANCH   4   6
ENDBRANCH   1   2
BRANCH   1  28
ATOM     28  C   UNL A   1      35.139  21.837  26.525  1.00  0.00     0.023 C 
BRANCH  28  29
ATOM     29  C   UNL A   1      35.910  21.171  25.384  1.00  0.00     0.023 C 
BRANCH  29  30
ATOM     30  C   UNL A   1      37.343  21.654  25.180  1.00  0.00     0.116 C 
BRANCH  30  31
ATOM     31  N   UNL A   1      38.341  20.677  25.588  1.00  0.00    -0.352 N 
ATOM     32  C   UNL A   1      39.559  20.875  26.195  1.00  0.00     0.251 C 
ATOM     33  H   UNL A   1      38.110  19.738  25.402  1.00  0.00     0.163 HD
ATOM     34  O   UNL A   1      40.328  19.926  26.340  1.00  0.00    -0.269 OA
BRANCH  32  35
ATOM     35  C   UNL A   1      39.962  22.227  26.646  1.00  0.00     0.039 A 
ATOM     36  C   UNL A   1      40.973  22.346  27.604  1.00  0.00     0.014 A 
ATOM     37  C   UNL A   1      39.353  23.374  26.131  1.00  0.00     0.014 A 
ATOM     38  C   UNL A   1      41.423  23.613  27.986  1.00  0.00     0.010 A 
ATOM     39  C   UNL A   1      39.856  24.633  26.455  1.00  0.00     0.010 A 
ATOM     40  C   UNL A   1      40.897  24.769  27.386  1.00  0.00    -0.014 A 
BRANCH  40  41
ATOM     41  C   UNL A   1      41.438  26.119  27.702  1.00  0.00     0.031 A 
ATOM     42  C   UNL A   1      42.846  26.488  27.316  1.00  0.00     0.074 A 
ATOM     43  C   UNL A   1      40.690  26.988  28.413  1.00  0.00     0.049 A 
ATOM     44  N   UNL A   1      43.505  27.591  27.562  1.00  0.00    -0.248 NA
ATOM     45  C   UNL A   1      43.623  25.479  26.579  1.00  0.00     0.031 C 
ATOM     46  C   UNL A   1      39.340  26.727  28.917  1.00  0.00     0.029 A 
ATOM     47  N   UNL A   1      40.970  28.255  28.862  1.00  0.00    -0.354 N 
ATOM     48  C   UNL A   1      44.779  27.398  27.041  1.00  0.00     0.074 A 
ATOM     49  C   UNL A   1      44.813  26.058  26.498  1.00  0.00     0.031 C 
ATOM     50  C   UNL A   1      38.911  27.797  29.603  1.00  0.00     0.029 A 
ATOM     51  C   UNL A   1      39.963  28.807  29.620  1.00  0.00     0.049 A 
ATOM     52  H   UNL A   1      41.813  28.724  28.661  1.00  0.00     0.167 HD
ATOM     53  C   UNL A   1      45.820  28.265  26.992  1.00  0.00     0.034 A 
ATOM     54  C   UNL A   1      39.898  29.986  30.270  1.00  0.00     0.034 A 
ATOM     55  C   UNL A   1      45.777  29.608  27.504  1.00  0.00     0.049 A 
ATOM     56  C   UNL A   1      41.057  30.941  30.180  1.00  0.00     0.074 A 
ATOM     57  C   UNL A   1      46.753  30.587  27.432  1.00  0.00     0.029 A 
ATOM     58  N   UNL A   1      44.710  30.161  28.194  1.00  0.00    -0.354 N 
ATOM     59  N   UNL A   1      42.198  30.795  29.551  1.00  0.00    -0.248 NA
ATOM     60  C   UNL A   1      40.907  32.238  30.856  1.00  0.00     0.031 C 
ATOM     61  C   UNL A   1      46.288  31.721  28.105  1.00  0.00     0.029 A 
ATOM     62  C   UNL A   1      45.006  31.463  28.563  1.00  0.00     0.049 A 
ATOM     63  H   UNL A   1      43.864  29.697  28.393  1.00  0.00     0.167 HD
ATOM     64  C   UNL A   1      42.885  31.993  29.725  1.00  0.00     0.074 A 
ATOM     65  C   UNL A   1      42.022  32.860  30.499  1.00  0.00     0.031 C 
ATOM     66  C   UNL A   1      44.123  32.336  29.292  1.00  0.00     0.034 A 
BRANCH  53  67
ATOM     67  C   UNL A   1      47.086  27.802  26.317  1.00  0.00     0.023 A 
ATOM     68  C   UNL A   1      48.090  27.169  27.077  1.00  0.00     0.012 A 
ATOM     69  C   UNL A   1      47.257  27.936  24.925  1.00  0.00     0.148 A 
ATOM     70  C   UNL A   1      49.260  26.711  26.473  1.00  0.00     0.002 A 
ATOM     71  C   UNL A   1      48.404  27.434  24.321  1.00  0.00     0.091 A 
ATOM     72  F   UNL A   1      46.301  28.556  24.220  1.00  0.00    -0.205 F 
ATOM     73  C   UNL A   1      49.412  26.834  25.095  1.00  0.00     0.022 A 
BRANCH  71  74
ATOM     74  S   UNL A   1      48.660  27.467  22.543  1.00  0.00     0.127 S 
ATOM     75  O   UNL A   1      48.652  26.041  22.218  1.00  0.00    -0.237 OA
ATOM     76  O   UNL A   1      47.486  28.205  22.077  1.00  0.00    -0.237 OA
ATOM     77  O   UNL A   1      49.931  28.147  22.332  1.00  0.00    -0.744 OA
ENDBRANCH  71  74
ENDBRANCH  53  67
BRANCH  54  78
ATOM     78  C   UNL A   1      38.668  30.351  31.031  1.00  0.00     0.023 A 
ATOM     79  C   UNL A   1      38.518  29.920  32.364  1.00  0.00     0.012 A 
ATOM     80  C   UNL A   1      37.656  31.137  30.446  1.00  0.00     0.148 A 
ATOM     81  C   UNL A   1      37.368  30.235  33.087  1.00  0.00     0.002 A 
ATOM     82  C   UNL A   1      36.540  31.496  31.191  1.00  0.00     0.091 A 
ATOM     83  F   UNL A   1      37.813  31.528  29.173  1.00  0.00    -0.205 F 
ATOM     84  C   UNL A   1      36.384  31.030  32.506  1.00  0.00     0.022 A 
BRANCH  82  85
ATOM     85  S   UNL A   1      35.289  32.624  30.567  1.00  0.00     0.127 S 
ATOM     86  O   UNL A   1      36.068  33.840  30.344  1.00  0.00    -0.237 OA
ATOM     87  O   UNL A   1      34.848  31.941  29.351  1.00  0.00    -0.237 OA
ATOM     88  O   UNL A   1      34.276  32.705  31.610  1.00  0.00    -0.744 OA
ENDBRANCH  82  85
ENDBRANCH  54  78
BRANCH  66  89
ATOM     89  C   UNL A   1      44.613  33.727  29.602  1.00  0.00     0.023 A 
ATOM     90  C   UNL A   1      45.481  33.944  30.691  1.00  0.00     0.012 A 
ATOM     91  C   UNL A   1      44.268  34.810  28.768  1.00  0.00     0.148 A 
ATOM     92  C   UNL A   1      45.969  35.222  30.966  1.00  0.00     0.002 A 
ATOM     93  C   UNL A   1      44.799  36.069  29.017  1.00  0.00     0.091 A 
ATOM     94  F   UNL A   1      43.426  34.587  27.748  1.00  0.00    -0.205 F 
ATOM     95  C   UNL A   1      45.638  36.280  30.122  1.00  0.00     0.022 A 
BRANCH  93  96
ATOM     96  S   UNL A   1      44.509  37.470  27.930  1.00  0.00     0.127 S 
ATOM     97  O   UNL A   1      43.178  37.904  28.354  1.00  0.00    -0.237 OA
ATOM     98  O   UNL A   1      45.595  38.379  28.302  1.00  0.00    -0.237 OA
ATOM     99  O   UNL A   1      44.593  36.950  26.573  1.00  0.00    -0.744 OA
ENDBRANCH  93  96
ENDBRANCH  66  89
ENDBRANCH  40  41
ENDBRANCH  32  35
ENDBRANCH  30  31
ENDBRANCH  29  30
ENDBRANCH  28  29
ENDBRANCH   1  28
TORSDOF 20
ENDMDL
MODEL 3
REMARK VINA RESULT:     -10.8      1.637      1.930
REMARK SMILES O=C(COc1ccc(Br)cc1/C=N/Nc1ncccc1[N+](=O)[O-])NCCCCNC(=O)c1ccc(-c2c3nc(c(-c4cccc(S(=O)(=O)[O-])c4F)c4ccc([nH]4)c(-c4cccc(S(=O)(=O)[O-])c4F)c4nc(c(-c5cccc(S(=O)(=O)[O-])c5F)c5ccc2[nH]5)C=C4)C=C3)cc1
REMARK SMILES IDX 25 1 24 2 1 3 2 4 3 6 4 7 5 8 6 9 11 10 7 11 10 12 8 13 9 14
REMARK SMILES IDX 12 15 13 16 14 17 15 19 16 20 20 21 17 22 19 23 18 24 21 25
REMARK SMILES IDX 22 26 23 27 26 28 27 29 28 30 29 31 30 32 31 34 32 35 33 36
REMARK SMILES IDX 94 37 34 38 93 39 35 40 36 41 37 42 87 43 38 44 92 45 86 46
REMARK SMILES IDX 88 47 39 48 91 49 85 50 84 51 40 53 72 54 52 55 71 56 53 57
REMARK SMILES IDX 56 58 70 59 89 60 54 61 55 62 69 64 90 65 57 66 41 67 42 68
REMARK SMILES IDX 50 69 43 70 45 71 51 72 44 73 46 74 47 75 48 76 49 77 73 78
REMARK SMILES IDX 74 79 82 80 75 81 77 82 83 83 76 84 78 85 79 86 80 87 81 88
REMARK SMILES IDX 58 89 59 90 67 91 60 92 62 93 68 94 61 95 63 96 64 97 65 98
REMARK SMILES IDX 66 99
REMARK H PARENT 24 5 14 18 29 33 88 52 56 63
REMARK Flexibility Score: inf
ROOT
ATOM      1  C   UNL A   1      32.811  22.407  25.392  1.00  0.00     0.116 C 
ENDROOT
BRANCH   1   2
ATOM      2  N   UNL A   1      31.982  23.589  25.265  1.00  0.00    -0.353 N 
ATOM      3  O   UNL A   1      31.062  23.473  27.369  1.00  0.00    -0.271 OA
ATOM      4  C   UNL A   1      31.249  24.088  26.323  1.00  0.00     0.257 C 
ATOM      5  H   UNL A   1      31.941  24.050  24.397  1.00  0.00     0.163 HD
BRANCH   4   6
ATOM      6  C   UNL A   1      30.719  25.512  26.102  1.00  0.00     0.329 C 
BRANCH   6   7
ATOM      7  O   UNL A   1      31.671  26.442  25.563  1.00  0.00    -0.483 OA
BRANCH   7   8
ATOM      8  C   UNL A   1      31.112  27.339  24.686  1.00  0.00     0.129 A 
ATOM      9  C   UNL A   1      30.354  26.891  23.599  1.00  0.00     0.048 A 
ATOM     10  C   UNL A   1      31.216  28.717  24.915  1.00  0.00     0.038 A 
ATOM     11  C   UNL A   1      29.745  27.799  22.730  1.00  0.00     0.019 A 
ATOM     12  C   UNL A   1      30.611  29.631  24.038  1.00  0.00     0.029 A 
ATOM     13  C   UNL A   1      29.879  29.164  22.952  1.00  0.00     0.018 A 
ATOM     14  Br  UNL A   1      29.029  30.387  21.790  1.00  0.00    -0.051 Br
BRANCH  10  15
ATOM     15  C   UNL A   1      31.918  29.248  26.099  1.00  0.00     0.145 C 
ATOM     16  N   UNL A   1      32.238  30.505  26.171  1.00  0.00    -0.181 NA
BRANCH  16  17
ATOM     17  N   UNL A   1      32.813  30.939  27.318  1.00  0.00    -0.256 N 
ATOM     18  H   UNL A   1      32.215  31.351  27.984  1.00  0.00     0.192 HD
BRANCH  17  19
ATOM     19  C   UNL A   1      34.164  30.863  27.656  1.00  0.00     0.225 A 
ATOM     20  N   UNL A   1      34.653  29.595  27.668  1.00  0.00    -0.232 NA
ATOM     21  C   UNL A   1      35.014  31.935  27.888  1.00  0.00     0.313 A 
ATOM     22  C   UNL A   1      35.986  29.412  27.816  1.00  0.00     0.114 A 
ATOM     23  C   UNL A   1      36.393  31.741  28.027  1.00  0.00     0.091 A 
ATOM     24  C   UNL A   1      36.890  30.446  27.972  1.00  0.00     0.027 A 
BRANCH  21  25
ATOM     25  N   UNL A   1      34.500  33.269  28.059  1.00  0.00     0.066 N 
ATOM     26  O   UNL A   1      35.024  34.178  27.399  1.00  0.00    -0.258 OA
ATOM     27  O   UNL A   1      33.493  33.390  28.773  1.00  0.00    -0.258 OA
ENDBRANCH  21  25
ENDBRANCH  17  19
ENDBRANCH  16  17
ENDBRANCH  10  15
ENDBRANCH   7   8
ENDBRANCH   6   7
ENDBRANCH   4   6
ENDBRANCH   1   2
BRANCH   1  28
ATOM     28  C   UNL A   1      34.286  22.659  25.109  1.00  0.00     0.023 C 
BRANCH  28  29
ATOM     29  C   UNL A   1      35.145  22.937  26.344  1.00  0.00     0.023 C 
BRANCH  29  30
ATOM     30  C   UNL A   1      36.602  23.299  26.071  1.00  0.00     0.116 C 
BRANCH  30  31
ATOM     31  N   UNL A   1      37.486  22.143  26.051  1.00  0.00    -0.352 N 
ATOM     32  C   UNL A   1      38.843  22.080  26.263  1.00  0.00     0.251 C 
ATOM     33  H   UNL A   1      37.048  21.283  25.856  1.00  0.00     0.163 HD
ATOM     34  O   UNL A   1      39.440  21.022  26.069  1.00  0.00    -0.269 OA
BRANCH  32  35
ATOM     35  C   UNL A   1      39.593  23.282  26.694  1.00  0.00     0.039 A 
ATOM     36  C   UNL A   1      40.536  23.159  27.718  1.00  0.00     0.014 A 
ATOM     37  C   UNL A   1      39.375  24.525  26.094  1.00  0.00     0.014 A 
ATOM     38  C   UNL A   1      41.311  24.262  28.087  1.00  0.00     0.010 A 
ATOM     39  C   UNL A   1      40.202  25.602  26.409  1.00  0.00     0.010 A 
ATOM     40  C   UNL A   1      41.179  25.485  27.409  1.00  0.00    -0.014 A 
BRANCH  40  41
ATOM     41  C   UNL A   1      42.069  26.639  27.714  1.00  0.00     0.031 A 
ATOM     42  C   UNL A   1      41.564  27.800  28.529  1.00  0.00     0.074 A 
ATOM     43  C   UNL A   1      43.310  26.683  27.186  1.00  0.00     0.049 A 
ATOM     44  N   UNL A   1      42.173  28.915  28.840  1.00  0.00    -0.248 NA
ATOM     45  C   UNL A   1      40.186  27.709  29.039  1.00  0.00     0.031 C 
ATOM     46  C   UNL A   1      43.895  25.661  26.316  1.00  0.00     0.029 A 
ATOM     47  N   UNL A   1      44.292  27.638  27.279  1.00  0.00    -0.354 N 
ATOM     48  C   UNL A   1      41.248  29.669  29.553  1.00  0.00     0.074 A 
ATOM     49  C   UNL A   1      40.023  28.901  29.596  1.00  0.00     0.031 C 
ATOM     50  C   UNL A   1      45.130  26.043  25.956  1.00  0.00     0.029 A 
ATOM     51  C   UNL A   1      45.415  27.350  26.538  1.00  0.00     0.049 A 
ATOM     52  H   UNL A   1      44.200  28.453  27.824  1.00  0.00     0.167 HD
ATOM     53  C   UNL A   1      41.408  30.878  30.144  1.00  0.00     0.034 A 
ATOM     54  C   UNL A   1      46.541  28.062  26.336  1.00  0.00     0.034 A 
ATOM     55  C   UNL A   1      42.635  31.629  30.128  1.00  0.00     0.049 A 
ATOM     56  C   UNL A   1      46.705  29.390  27.023  1.00  0.00     0.074 A 
ATOM     57  C   UNL A   1      42.919  32.825  30.764  1.00  0.00     0.029 A 
ATOM     58  N   UNL A   1      43.779  31.265  29.435  1.00  0.00    -0.354 N 
ATOM     59  N   UNL A   1      45.871  30.016  27.817  1.00  0.00    -0.248 NA
ATOM     60  C   UNL A   1      47.979  30.095  26.817  1.00  0.00     0.031 C 
ATOM     61  C   UNL A   1      44.224  33.201  30.428  1.00  0.00     0.029 A 
ATOM     62  C   UNL A   1      44.767  32.218  29.617  1.00  0.00     0.049 A 
ATOM     63  H   UNL A   1      43.876  30.449  28.893  1.00  0.00     0.167 HD
ATOM     64  C   UNL A   1      46.531  31.167  28.235  1.00  0.00     0.074 A 
ATOM     65  C   UNL A   1      47.843  31.140  27.621  1.00  0.00     0.031 C 
ATOM     66  C   UNL A   1      46.086  32.161  29.042  1.00  0.00     0.034 A 
BRANCH  53  67
ATOM     67  C   UNL A   1      40.236  31.448  30.903  1.00  0.00     0.023 A 
ATOM     68  C   UNL A   1      39.327  32.301  30.243  1.00  0.00     0.012 A 
ATOM     69  C   UNL A   1      40.000  31.094  32.245  1.00  0.00     0.148 A 
ATOM     70  C   UNL A   1      38.224  32.822  30.916  1.00  0.00     0.002 A 
ATOM     71  C   UNL A   1      38.871  31.579  32.895  1.00  0.00     0.091 A 
ATOM     72  F   UNL A   1      40.883  30.297  32.862  1.00  0.00    -0.205 F 
ATOM     73  C   UNL A   1      37.990  32.453  32.237  1.00  0.00     0.022 A 
BRANCH  71  74
ATOM     74  S   UNL A   1      38.433  31.099  34.571  1.00  0.00     0.127 S 
ATOM     75  O   UNL A   1      37.223  31.890  34.797  1.00  0.00    -0.237 OA
ATOM     76  O   UNL A   1      38.204  29.661  34.428  1.00  0.00    -0.237 OA
ATOM     77  O   UNL A   1      39.574  31.455  35.402  1.00  0.00    -0.744 OA
ENDBRANCH  71  74
ENDBRANCH  53  67
BRANCH  54  78
ATOM     78  C   UNL A   1      47.627  27.510  25.475  1.00  0.00     0.023 A 
ATOM     79  C   UNL A   1      48.529  26.569  26.008  1.00  0.00     0.012 A 
ATOM     80  C   UNL A   1      47.757  27.900  24.127  1.00  0.00     0.148 A 
ATOM     81  C   UNL A   1      49.563  26.054  25.226  1.00  0.00     0.002 A 
ATOM     82  C   UNL A   1      48.753  27.339  23.337  1.00  0.00     0.091 A 
ATOM     83  F   UNL A   1      46.894  28.804  23.642  1.00  0.00    -0.205 F 
ATOM     84  C   UNL A   1      49.670  26.430  23.889  1.00  0.00     0.022 A 
BRANCH  82  85
ATOM     85  S   UNL A   1      48.882  27.665  21.575  1.00  0.00     0.127 S 
ATOM     86  O   UNL A   1      49.723  26.558  21.127  1.00  0.00    -0.237 OA
ATOM     87  O   UNL A   1      47.483  27.587  21.153  1.00  0.00    -0.237 OA
ATOM     88  O   UNL A   1      49.470  28.992  21.462  1.00  0.00    -0.744 OA
ENDBRANCH  82  85
ENDBRANCH  54  78
BRANCH  66  89
ATOM     89  C   UNL A   1      47.036  33.289  29.354  1.00  0.00     0.023 A 
ATOM     90  C   UNL A   1      47.042  34.449  28.554  1.00  0.00     0.012 A 
ATOM     91  C   UNL A   1      47.874  33.226  30.485  1.00  0.00     0.148 A 
ATOM     92  C   UNL A   1      47.891  35.514  28.855  1.00  0.00     0.002 A 
ATOM     93  C   UNL A   1      48.679  34.311  30.808  1.00  0.00     0.091 A 
ATOM     94  F   UNL A   1      47.868  32.106  31.223  1.00  0.00    -0.205 F 
ATOM     95  C   UNL A   1      48.699  35.449  29.988  1.00  0.00     0.022 A 
BRANCH  93  96
ATOM     96  S   UNL A   1      49.680  34.359  32.300  1.00  0.00     0.127 S 
ATOM     97  O   UNL A   1      48.670  34.613  33.327  1.00  0.00    -0.237 OA
ATOM     98  O   UNL A   1      50.256  33.014  32.329  1.00  0.00    -0.237 OA
ATOM     99  O   UNL A   1      50.648  35.428  32.101  1.00  0.00    -0.744 OA
ENDBRANCH  93  96
ENDBRANCH  66  89
ENDBRANCH  40  41
ENDBRANCH  32  35
ENDBRANCH  30  31
ENDBRANCH  29  30
ENDBRANCH  28  29
ENDBRANCH   1  28
TORSDOF 20
ENDMDL
