MODEL 1
REMARK VINA RESULT:     -12.1      0.000      0.000
REMARK SMILES O=C(C[C@@H]1C(=O)NC(=S)N1c1ccccc1)NCCCCNC(=O)c1ccc(-c2c3nc(c(-c4cccc(S(=O)(=O)[O-])c4F)c4ccc([nH]4)c(-c4cccc(S(=O)(=O)[O-])c4F)c4nc(c(-c5cccc(S(=O)(=O)[O-])c5F)c5ccc2[nH]5)C=C4)C=C3)cc1
REMARK SMILES IDX 20 1 19 2 18 3 17 4 1 5 2 6 3 8 4 9 5 10 10 11 6 12 7 13
REMARK SMILES IDX 8 14 9 16 11 17 12 18 16 19 13 20 15 21 14 22 21 23 22 24
REMARK SMILES IDX 23 25 24 27 25 28 26 29 87 30 27 31 86 32 28 33 29 34 30 35
REMARK SMILES IDX 80 36 31 37 85 38 79 39 81 40 32 41 84 42 78 43 77 44 33 46
REMARK SMILES IDX 65 47 45 48 64 49 46 50 49 51 63 52 82 53 47 54 48 55 62 57
REMARK SMILES IDX 83 58 50 59 34 60 35 61 43 62 36 63 38 64 44 65 37 66 39 67
REMARK SMILES IDX 40 68 41 69 42 70 66 71 67 72 75 73 68 74 70 75 76 76 69 77
REMARK SMILES IDX 71 78 72 79 73 80 74 81 51 82 52 83 60 84 53 85 55 86 61 87
REMARK SMILES IDX 54 88 56 89 57 90 58 91 59 92
REMARK H PARENT 17 7 7 15 22 26 81 45 49 56
REMARK Flexibility Score: inf
ROOT
ATOM      1  C   UNL A   1      31.622  31.856  26.724  1.00  0.00     0.023 C 
ENDROOT
BRANCH   1   2
ATOM      2  C   UNL A   1      31.860  30.386  26.371  1.00  0.00     0.023 C 
BRANCH   2   3
ATOM      3  C   UNL A   1      31.392  29.972  24.978  1.00  0.00     0.116 C 
BRANCH   3   4
ATOM      4  N   UNL A   1      32.420  29.263  24.239  1.00  0.00    -0.356 N 
ATOM      5  O   UNL A   1      31.753  27.173  24.914  1.00  0.00    -0.275 OA
ATOM      6  C   UNL A   1      32.489  27.892  24.242  1.00  0.00     0.222 C 
ATOM      7  H   UNL A   1      33.083  29.776  23.723  1.00  0.00     0.163 HD
BRANCH   6   8
ATOM      8  C   UNL A   1      33.596  27.289  23.408  1.00  0.00     0.135 C 
BRANCH   8   9
ATOM      9  C   UNL A   1      33.295  25.993  22.665  1.00  0.00     0.188 C 
ATOM     10  C   UNL A   1      31.848  25.883  22.174  1.00  0.00     0.249 C 
ATOM     11  N   UNL A   1      33.375  24.772  23.485  1.00  0.00    -0.306 N 
ATOM     12  O   UNL A   1      31.307  26.598  21.347  1.00  0.00    -0.272 OA
ATOM     13  N   UNL A   1      31.243  24.842  22.800  1.00  0.00    -0.301 N 
ATOM     14  C   UNL A   1      32.120  24.148  23.574  1.00  0.00     0.180 C 
ATOM     15  H   UNL A   1      30.289  24.617  22.705  1.00  0.00     0.172 HD
ATOM     16  S   UNL A   1      31.619  22.839  24.470  1.00  0.00    -0.040 S 
BRANCH  11  17
ATOM     17  C   UNL A   1      34.613  24.227  23.928  1.00  0.00     0.044 A 
ATOM     18  C   UNL A   1      35.359  23.386  23.090  1.00  0.00     0.026 A 
ATOM     19  C   UNL A   1      35.108  24.485  25.211  1.00  0.00     0.026 A 
ATOM     20  C   UNL A   1      36.537  22.781  23.539  1.00  0.00     0.002 A 
ATOM     21  C   UNL A   1      36.273  23.864  25.669  1.00  0.00     0.002 A 
ATOM     22  C   UNL A   1      36.985  23.006  24.836  1.00  0.00     0.000 A 
ENDBRANCH  11  17
ENDBRANCH   8   9
ENDBRANCH   6   8
ENDBRANCH   3   4
ENDBRANCH   2   3
ENDBRANCH   1   2
BRANCH   1  23
ATOM     23  C   UNL A   1      32.833  32.602  27.276  1.00  0.00     0.116 C 
BRANCH  23  24
ATOM     24  N   UNL A   1      32.534  33.981  27.631  1.00  0.00    -0.352 N 
ATOM     25  C   UNL A   1      33.095  34.775  28.604  1.00  0.00     0.251 C 
ATOM     26  H   UNL A   1      31.826  34.408  27.096  1.00  0.00     0.163 HD
ATOM     27  O   UNL A   1      32.603  35.873  28.852  1.00  0.00    -0.269 OA
BRANCH  25  28
ATOM     28  C   UNL A   1      34.270  34.300  29.371  1.00  0.00     0.039 A 
ATOM     29  C   UNL A   1      34.064  33.705  30.618  1.00  0.00     0.014 A 
ATOM     30  C   UNL A   1      35.566  34.439  28.869  1.00  0.00     0.014 A 
ATOM     31  C   UNL A   1      35.151  33.186  31.328  1.00  0.00     0.010 A 
ATOM     32  C   UNL A   1      36.637  33.852  29.542  1.00  0.00     0.010 A 
ATOM     33  C   UNL A   1      36.443  33.219  30.778  1.00  0.00    -0.014 A 
BRANCH  33  34
ATOM     34  C   UNL A   1      37.594  32.580  31.473  1.00  0.00     0.031 A 
ATOM     35  C   UNL A   1      38.320  31.421  30.843  1.00  0.00     0.074 A 
ATOM     36  C   UNL A   1      37.934  32.989  32.712  1.00  0.00     0.049 A 
ATOM     37  N   UNL A   1      39.303  30.704  31.325  1.00  0.00    -0.248 NA
ATOM     38  C   UNL A   1      37.869  30.995  29.508  1.00  0.00     0.031 C 
ATOM     39  C   UNL A   1      37.263  34.050  33.466  1.00  0.00     0.029 A 
ATOM     40  N   UNL A   1      38.912  32.544  33.567  1.00  0.00    -0.354 N 
ATOM     41  C   UNL A   1      39.566  29.727  30.372  1.00  0.00     0.074 A 
ATOM     42  C   UNL A   1      38.615  29.920  29.300  1.00  0.00     0.031 C 
ATOM     43  C   UNL A   1      37.848  34.175  34.668  1.00  0.00     0.029 A 
ATOM     44  C   UNL A   1      38.911  33.182  34.788  1.00  0.00     0.049 A 
ATOM     45  H   UNL A   1      39.554  31.836  33.330  1.00  0.00     0.167 HD
ATOM     46  C   UNL A   1      40.528  28.774  30.374  1.00  0.00     0.034 A 
ATOM     47  C   UNL A   1      39.667  32.981  35.885  1.00  0.00     0.034 A 
ATOM     48  C   UNL A   1      41.493  28.602  31.427  1.00  0.00     0.049 A 
ATOM     49  C   UNL A   1      40.744  31.929  35.853  1.00  0.00     0.074 A 
ATOM     50  C   UNL A   1      42.555  27.715  31.483  1.00  0.00     0.029 A 
ATOM     51  N   UNL A   1      41.509  29.318  32.613  1.00  0.00    -0.354 N 
ATOM     52  N   UNL A   1      41.073  31.115  34.879  1.00  0.00    -0.248 NA
ATOM     53  C   UNL A   1      41.577  31.793  37.056  1.00  0.00     0.031 C 
ATOM     54  C   UNL A   1      43.192  27.873  32.718  1.00  0.00     0.029 A 
ATOM     55  C   UNL A   1      42.553  28.887  33.414  1.00  0.00     0.049 A 
ATOM     56  H   UNL A   1      40.872  30.030  32.852  1.00  0.00     0.167 HD
ATOM     57  C   UNL A   1      42.172  30.398  35.337  1.00  0.00     0.074 A 
ATOM     58  C   UNL A   1      42.466  30.890  36.667  1.00  0.00     0.031 C 
ATOM     59  C   UNL A   1      42.868  29.414  34.716  1.00  0.00     0.034 A 
BRANCH  46  60
ATOM     60  C   UNL A   1      40.617  27.864  29.175  1.00  0.00     0.023 A 
ATOM     61  C   UNL A   1      39.761  26.745  29.084  1.00  0.00     0.012 A 
ATOM     62  C   UNL A   1      41.497  28.146  28.113  1.00  0.00     0.148 A 
ATOM     63  C   UNL A   1      39.807  25.903  27.973  1.00  0.00     0.002 A 
ATOM     64  C   UNL A   1      41.502  27.330  26.987  1.00  0.00     0.091 A 
ATOM     65  F   UNL A   1      42.315  29.202  28.224  1.00  0.00    -0.205 F 
ATOM     66  C   UNL A   1      40.668  26.203  26.922  1.00  0.00     0.022 A 
BRANCH  64  67
ATOM     67  S   UNL A   1      42.514  27.674  25.544  1.00  0.00     0.127 S 
ATOM     68  O   UNL A   1      41.956  28.946  25.089  1.00  0.00    -0.237 OA
ATOM     69  O   UNL A   1      43.854  27.768  26.125  1.00  0.00    -0.237 OA
ATOM     70  O   UNL A   1      42.321  26.549  24.638  1.00  0.00    -0.744 OA
ENDBRANCH  64  67
ENDBRANCH  46  60
BRANCH  47  71
ATOM     71  C   UNL A   1      39.462  33.824  37.097  1.00  0.00     0.023 A 
ATOM     72  C   UNL A   1      39.941  35.148  37.114  1.00  0.00     0.012 A 
ATOM     73  C   UNL A   1      38.783  33.325  38.225  1.00  0.00     0.148 A 
ATOM     74  C   UNL A   1      39.780  35.949  38.246  1.00  0.00     0.002 A 
ATOM     75  C   UNL A   1      38.573  34.146  39.327  1.00  0.00     0.091 A 
ATOM     76  F   UNL A   1      38.344  32.058  38.194  1.00  0.00    -0.205 F 
ATOM     77  C   UNL A   1      39.088  35.452  39.348  1.00  0.00     0.022 A 
BRANCH  75  78
ATOM     78  S   UNL A   1      37.582  33.634  40.734  1.00  0.00     0.127 S 
ATOM     79  O   UNL A   1      36.395  33.087  40.082  1.00  0.00    -0.237 OA
ATOM     80  O   UNL A   1      38.451  32.642  41.368  1.00  0.00    -0.237 OA
ATOM     81  O   UNL A   1      37.369  34.839  41.526  1.00  0.00    -0.744 OA
ENDBRANCH  75  78
ENDBRANCH  47  71
BRANCH  59  82
ATOM     82  C   UNL A   1      44.050  28.826  35.443  1.00  0.00     0.023 A 
ATOM     83  C   UNL A   1      45.335  29.376  35.267  1.00  0.00     0.012 A 
ATOM     84  C   UNL A   1      43.871  27.768  36.358  1.00  0.00     0.148 A 
ATOM     85  C   UNL A   1      46.428  28.861  35.962  1.00  0.00     0.002 A 
ATOM     86  C   UNL A   1      44.956  27.295  37.086  1.00  0.00     0.091 A 
ATOM     87  F   UNL A   1      42.645  27.246  36.500  1.00  0.00    -0.205 F 
ATOM     88  C   UNL A   1      46.237  27.829  36.880  1.00  0.00     0.022 A 
BRANCH  86  89
ATOM     89  S   UNL A   1      44.789  26.039  38.360  1.00  0.00     0.127 S 
ATOM     90  O   UNL A   1      43.872  26.686  39.297  1.00  0.00    -0.237 OA
ATOM     91  O   UNL A   1      44.211  24.919  37.615  1.00  0.00    -0.237 OA
ATOM     92  O   UNL A   1      46.132  25.798  38.868  1.00  0.00    -0.744 OA
ENDBRANCH  86  89
ENDBRANCH  59  82
ENDBRANCH  33  34
ENDBRANCH  25  28
ENDBRANCH  23  24
ENDBRANCH   1  23
TORSDOF 16
ENDMDL
MODEL 2
REMARK VINA RESULT:     -12.0      1.309      2.458
REMARK SMILES O=C(C[C@@H]1C(=O)NC(=S)N1c1ccccc1)NCCCCNC(=O)c1ccc(-c2c3nc(c(-c4cccc(S(=O)(=O)[O-])c4F)c4ccc([nH]4)c(-c4cccc(S(=O)(=O)[O-])c4F)c4nc(c(-c5cccc(S(=O)(=O)[O-])c5F)c5ccc2[nH]5)C=C4)C=C3)cc1
REMARK SMILES IDX 20 1 19 2 18 3 17 4 1 5 2 6 3 8 4 9 5 10 10 11 6 12 7 13
REMARK SMILES IDX 8 14 9 16 11 17 12 18 16 19 13 20 15 21 14 22 21 23 22 24
REMARK SMILES IDX 23 25 24 27 25 28 26 29 87 30 27 31 86 32 28 33 29 34 30 35
REMARK SMILES IDX 80 36 31 37 85 38 79 39 81 40 32 41 84 42 78 43 77 44 33 46
REMARK SMILES IDX 65 47 45 48 64 49 46 50 49 51 63 52 82 53 47 54 48 55 62 57
REMARK SMILES IDX 83 58 50 59 34 60 35 61 43 62 36 63 38 64 44 65 37 66 39 67
REMARK SMILES IDX 40 68 41 69 42 70 66 71 67 72 75 73 68 74 70 75 76 76 69 77
REMARK SMILES IDX 71 78 72 79 73 80 74 81 51 82 52 83 60 84 53 85 55 86 61 87
REMARK SMILES IDX 54 88 56 89 57 90 58 91 59 92
REMARK H PARENT 17 7 7 15 22 26 81 45 49 56
REMARK Flexibility Score: inf
ROOT
ATOM      1  C   UNL A   1      31.554  31.894  26.633  1.00  0.00     0.023 C 
ENDROOT
BRANCH   1   2
ATOM      2  C   UNL A   1      31.807  30.464  26.152  1.00  0.00     0.023 C 
BRANCH   2   3
ATOM      3  C   UNL A   1      32.386  29.521  27.204  1.00  0.00     0.116 C 
BRANCH   3   4
ATOM      4  N   UNL A   1      32.917  28.303  26.620  1.00  0.00    -0.356 N 
ATOM      5  O   UNL A   1      31.044  27.043  27.032  1.00  0.00    -0.275 OA
ATOM      6  C   UNL A   1      32.169  27.154  26.551  1.00  0.00     0.222 C 
ATOM      7  H   UNL A   1      33.835  28.300  26.265  1.00  0.00     0.163 HD
BRANCH   6   8
ATOM      8  C   UNL A   1      32.842  25.971  25.894  1.00  0.00     0.135 C 
BRANCH   8   9
ATOM      9  C   UNL A   1      32.040  25.183  24.864  1.00  0.00     0.188 C 
ATOM     10  C   UNL A   1      32.742  23.913  24.375  1.00  0.00     0.249 C 
ATOM     11  N   UNL A   1      31.835  25.868  23.577  1.00  0.00    -0.306 N 
ATOM     12  O   UNL A   1      33.024  22.935  25.049  1.00  0.00    -0.272 OA
ATOM     13  N   UNL A   1      33.000  24.030  23.049  1.00  0.00    -0.301 N 
ATOM     14  C   UNL A   1      32.464  25.169  22.534  1.00  0.00     0.180 C 
ATOM     15  H   UNL A   1      33.510  23.371  22.523  1.00  0.00     0.172 HD
ATOM     16  S   UNL A   1      32.664  25.559  20.930  1.00  0.00    -0.040 S 
BRANCH  11  17
ATOM     17  C   UNL A   1      30.942  26.967  23.428  1.00  0.00     0.044 A 
ATOM     18  C   UNL A   1      29.565  26.793  23.620  1.00  0.00     0.026 A 
ATOM     19  C   UNL A   1      31.400  28.236  23.060  1.00  0.00     0.026 A 
ATOM     20  C   UNL A   1      28.667  27.842  23.401  1.00  0.00     0.002 A 
ATOM     21  C   UNL A   1      30.503  29.281  22.818  1.00  0.00     0.002 A 
ATOM     22  C   UNL A   1      29.136  29.083  22.982  1.00  0.00     0.000 A 
ENDBRANCH  11  17
ENDBRANCH   8   9
ENDBRANCH   6   8
ENDBRANCH   3   4
ENDBRANCH   2   3
ENDBRANCH   1   2
BRANCH   1  23
ATOM     23  C   UNL A   1      32.730  32.567  27.335  1.00  0.00     0.116 C 
BRANCH  23  24
ATOM     24  N   UNL A   1      32.485  33.972  27.626  1.00  0.00    -0.352 N 
ATOM     25  C   UNL A   1      33.083  34.789  28.558  1.00  0.00     0.251 C 
ATOM     26  H   UNL A   1      31.790  34.400  27.076  1.00  0.00     0.163 HD
ATOM     27  O   UNL A   1      32.634  35.915  28.757  1.00  0.00    -0.269 OA
BRANCH  25  28
ATOM     28  C   UNL A   1      34.244  34.306  29.340  1.00  0.00     0.039 A 
ATOM     29  C   UNL A   1      34.014  33.574  30.507  1.00  0.00     0.014 A 
ATOM     30  C   UNL A   1      35.554  34.572  28.930  1.00  0.00     0.014 A 
ATOM     31  C   UNL A   1      35.093  33.050  31.223  1.00  0.00     0.010 A 
ATOM     32  C   UNL A   1      36.624  33.982  29.600  1.00  0.00     0.010 A 
ATOM     33  C   UNL A   1      36.408  33.214  30.754  1.00  0.00    -0.014 A 
BRANCH  33  34
ATOM     34  C   UNL A   1      37.559  32.575  31.447  1.00  0.00     0.031 A 
ATOM     35  C   UNL A   1      38.289  31.421  30.812  1.00  0.00     0.074 A 
ATOM     36  C   UNL A   1      37.898  32.980  32.688  1.00  0.00     0.049 A 
ATOM     37  N   UNL A   1      39.273  30.704  31.291  1.00  0.00    -0.248 NA
ATOM     38  C   UNL A   1      37.839  30.999  29.475  1.00  0.00     0.031 C 
ATOM     39  C   UNL A   1      37.224  34.035  33.446  1.00  0.00     0.029 A 
ATOM     40  N   UNL A   1      38.877  32.533  33.541  1.00  0.00    -0.354 N 
ATOM     41  C   UNL A   1      39.539  29.732  30.334  1.00  0.00     0.074 A 
ATOM     42  C   UNL A   1      38.589  29.928  29.262  1.00  0.00     0.031 C 
ATOM     43  C   UNL A   1      37.808  34.156  34.649  1.00  0.00     0.029 A 
ATOM     44  C   UNL A   1      38.874  33.165  34.764  1.00  0.00     0.049 A 
ATOM     45  H   UNL A   1      39.521  31.828  33.302  1.00  0.00     0.167 HD
ATOM     46  C   UNL A   1      40.504  28.781  30.332  1.00  0.00     0.034 A 
ATOM     47  C   UNL A   1      39.630  32.961  35.861  1.00  0.00     0.034 A 
ATOM     48  C   UNL A   1      41.469  28.607  31.384  1.00  0.00     0.049 A 
ATOM     49  C   UNL A   1      40.709  31.912  35.825  1.00  0.00     0.074 A 
ATOM     50  C   UNL A   1      42.533  27.723  31.437  1.00  0.00     0.029 A 
ATOM     51  N   UNL A   1      41.483  29.318  32.574  1.00  0.00    -0.354 N 
ATOM     52  N   UNL A   1      41.041  31.103  34.847  1.00  0.00    -0.248 NA
ATOM     53  C   UNL A   1      41.542  31.773  37.028  1.00  0.00     0.031 C 
ATOM     54  C   UNL A   1      43.169  27.877  32.673  1.00  0.00     0.029 A 
ATOM     55  C   UNL A   1      42.527  28.885  33.373  1.00  0.00     0.049 A 
ATOM     56  H   UNL A   1      40.843  30.027  32.815  1.00  0.00     0.167 HD
ATOM     57  C   UNL A   1      42.142  30.387  35.302  1.00  0.00     0.074 A 
ATOM     58  C   UNL A   1      42.434  30.873  36.635  1.00  0.00     0.031 C 
ATOM     59  C   UNL A   1      42.840  29.408  34.678  1.00  0.00     0.034 A 
BRANCH  46  60
ATOM     60  C   UNL A   1      40.595  27.877  29.129  1.00  0.00     0.023 A 
ATOM     61  C   UNL A   1      39.731  26.766  29.024  1.00  0.00     0.012 A 
ATOM     62  C   UNL A   1      41.488  28.157  28.076  1.00  0.00     0.148 A 
ATOM     63  C   UNL A   1      39.779  25.930  27.909  1.00  0.00     0.002 A 
ATOM     64  C   UNL A   1      41.496  27.347  26.946  1.00  0.00     0.091 A 
ATOM     65  F   UNL A   1      42.314  29.205  28.201  1.00  0.00    -0.205 F 
ATOM     66  C   UNL A   1      40.653  26.227  26.867  1.00  0.00     0.022 A 
BRANCH  64  67
ATOM     67  S   UNL A   1      42.524  27.689  25.513  1.00  0.00     0.127 S 
ATOM     68  O   UNL A   1      42.286  26.505  24.690  1.00  0.00    -0.237 OA
ATOM     69  O   UNL A   1      41.928  28.921  24.996  1.00  0.00    -0.237 OA
ATOM     70  O   UNL A   1      43.883  27.835  26.018  1.00  0.00    -0.744 OA
ENDBRANCH  64  67
ENDBRANCH  46  60
BRANCH  47  71
ATOM     71  C   UNL A   1      39.422  33.798  37.077  1.00  0.00     0.023 A 
ATOM     72  C   UNL A   1      39.908  35.120  37.105  1.00  0.00     0.012 A 
ATOM     73  C   UNL A   1      38.733  33.297  38.198  1.00  0.00     0.148 A 
ATOM     74  C   UNL A   1      39.745  35.914  38.240  1.00  0.00     0.002 A 
ATOM     75  C   UNL A   1      38.521  34.112  39.304  1.00  0.00     0.091 A 
ATOM     76  F   UNL A   1      38.286  32.033  38.156  1.00  0.00    -0.205 F 
ATOM     77  C   UNL A   1      39.043  35.414  39.335  1.00  0.00     0.022 A 
BRANCH  75  78
ATOM     78  S   UNL A   1      37.518  33.598  40.701  1.00  0.00     0.127 S 
ATOM     79  O   UNL A   1      38.350  32.559  41.302  1.00  0.00    -0.237 OA
ATOM     80  O   UNL A   1      37.423  34.837  41.474  1.00  0.00    -0.237 OA
ATOM     81  O   UNL A   1      36.253  33.146  40.134  1.00  0.00    -0.744 OA
ENDBRANCH  75  78
ENDBRANCH  47  71
BRANCH  59  82
ATOM     82  C   UNL A   1      44.023  28.819  35.403  1.00  0.00     0.023 A 
ATOM     83  C   UNL A   1      45.310  29.363  35.216  1.00  0.00     0.012 A 
ATOM     84  C   UNL A   1      43.845  27.768  36.325  1.00  0.00     0.148 A 
ATOM     85  C   UNL A   1      46.405  28.847  35.909  1.00  0.00     0.002 A 
ATOM     86  C   UNL A   1      44.931  27.296  37.051  1.00  0.00     0.091 A 
ATOM     87  F   UNL A   1      42.617  27.252  36.477  1.00  0.00    -0.205 F 
ATOM     88  C   UNL A   1      46.214  27.823  36.835  1.00  0.00     0.022 A 
BRANCH  86  89
ATOM     89  S   UNL A   1      44.765  26.048  38.334  1.00  0.00     0.127 S 
ATOM     90  O   UNL A   1      46.162  25.719  38.611  1.00  0.00    -0.237 OA
ATOM     91  O   UNL A   1      44.090  26.790  39.400  1.00  0.00    -0.237 OA
ATOM     92  O   UNL A   1      43.975  24.973  37.751  1.00  0.00    -0.744 OA
ENDBRANCH  86  89
ENDBRANCH  59  82
ENDBRANCH  33  34
ENDBRANCH  25  28
ENDBRANCH  23  24
ENDBRANCH   1  23
TORSDOF 16
ENDMDL
MODEL 3
REMARK VINA RESULT:     -11.9      5.721      9.051
REMARK SMILES O=C(C[C@@H]1C(=O)NC(=S)N1c1ccccc1)NCCCCNC(=O)c1ccc(-c2c3nc(c(-c4cccc(S(=O)(=O)[O-])c4F)c4ccc([nH]4)c(-c4cccc(S(=O)(=O)[O-])c4F)c4nc(c(-c5cccc(S(=O)(=O)[O-])c5F)c5ccc2[nH]5)C=C4)C=C3)cc1
REMARK SMILES IDX 20 1 19 2 18 3 17 4 1 5 2 6 3 8 4 9 5 10 10 11 6 12 7 13
REMARK SMILES IDX 8 14 9 16 11 17 12 18 16 19 13 20 15 21 14 22 21 23 22 24
REMARK SMILES IDX 23 25 24 27 25 28 26 29 87 30 27 31 86 32 28 33 29 34 30 35
REMARK SMILES IDX 80 36 31 37 85 38 79 39 81 40 32 41 84 42 78 43 77 44 33 46
REMARK SMILES IDX 65 47 45 48 64 49 46 50 49 51 63 52 82 53 47 54 48 55 62 57
REMARK SMILES IDX 83 58 50 59 34 60 35 61 43 62 36 63 38 64 44 65 37 66 39 67
REMARK SMILES IDX 40 68 41 69 42 70 66 71 67 72 75 73 68 74 70 75 76 76 69 77
REMARK SMILES IDX 71 78 72 79 73 80 74 81 51 82 52 83 60 84 53 85 55 86 61 87
REMARK SMILES IDX 54 88 56 89 57 90 58 91 59 92
REMARK H PARENT 17 7 7 15 22 26 81 45 49 56
REMARK Flexibility Score: inf
ROOT
ATOM      1  C   UNL A   1      36.968  21.913  23.812  1.00  0.00     0.023 C 
ENDROOT
BRANCH   1   2
ATOM      2  C   UNL A   1      36.018  23.033  23.383  1.00  0.00     0.023 C 
BRANCH   2   3
ATOM      3  C   UNL A   1      34.533  22.710  23.524  1.00  0.00     0.116 C 
BRANCH   3   4
ATOM      4  N   UNL A   1      33.939  23.344  24.687  1.00  0.00    -0.356 N 
ATOM      5  O   UNL A   1      33.602  21.387  25.838  1.00  0.00    -0.275 OA
ATOM      6  C   UNL A   1      33.550  22.614  25.782  1.00  0.00     0.222 C 
ATOM      7  H   UNL A   1      33.812  24.320  24.691  1.00  0.00     0.163 HD
BRANCH   6   8
ATOM      8  C   UNL A   1      32.972  23.409  26.929  1.00  0.00     0.135 C 
BRANCH   8   9
ATOM      9  C   UNL A   1      31.617  24.075  26.715  1.00  0.00     0.188 C 
ATOM     10  C   UNL A   1      30.630  23.224  25.909  1.00  0.00     0.249 C 
ATOM     11  N   UNL A   1      31.644  25.287  25.879  1.00  0.00    -0.306 N 
ATOM     12  O   UNL A   1      30.159  22.150  26.244  1.00  0.00    -0.272 OA
ATOM     13  N   UNL A   1      30.340  23.861  24.747  1.00  0.00    -0.301 N 
ATOM     14  C   UNL A   1      30.909  25.094  24.698  1.00  0.00     0.180 C 
ATOM     15  H   UNL A   1      29.784  23.478  24.030  1.00  0.00     0.172 HD
ATOM     16  S   UNL A   1      30.726  26.067  23.361  1.00  0.00    -0.040 S 
BRANCH  11  17
ATOM     17  C   UNL A   1      32.176  26.524  26.340  1.00  0.00     0.044 A 
ATOM     18  C   UNL A   1      31.379  27.408  27.080  1.00  0.00     0.026 A 
ATOM     19  C   UNL A   1      33.489  26.909  26.048  1.00  0.00     0.026 A 
ATOM     20  C   UNL A   1      31.862  28.660  27.473  1.00  0.00     0.002 A 
ATOM     21  C   UNL A   1      33.967  28.169  26.420  1.00  0.00     0.002 A 
ATOM     22  C   UNL A   1      33.152  29.048  27.127  1.00  0.00     0.000 A 
ENDBRANCH  11  17
ENDBRANCH   8   9
ENDBRANCH   6   8
ENDBRANCH   3   4
ENDBRANCH   2   3
ENDBRANCH   1   2
BRANCH   1  23
ATOM     23  C   UNL A   1      37.101  21.708  25.319  1.00  0.00     0.116 C 
BRANCH  23  24
ATOM     24  N   UNL A   1      38.100  20.709  25.667  1.00  0.00    -0.352 N 
ATOM     25  C   UNL A   1      39.357  20.878  26.198  1.00  0.00     0.251 C 
ATOM     26  H   UNL A   1      37.837  19.776  25.498  1.00  0.00     0.163 HD
ATOM     27  O   UNL A   1      40.116  19.916  26.285  1.00  0.00    -0.269 OA
BRANCH  25  28
ATOM     28  C   UNL A   1      39.809  22.219  26.638  1.00  0.00     0.039 A 
ATOM     29  C   UNL A   1      40.858  22.308  27.556  1.00  0.00     0.014 A 
ATOM     30  C   UNL A   1      39.206  23.381  26.151  1.00  0.00     0.014 A 
ATOM     31  C   UNL A   1      41.348  23.562  27.931  1.00  0.00     0.010 A 
ATOM     32  C   UNL A   1      39.747  24.627  26.465  1.00  0.00     0.010 A 
ATOM     33  C   UNL A   1      40.824  24.733  27.359  1.00  0.00    -0.014 A 
BRANCH  33  34
ATOM     34  C   UNL A   1      41.401  26.069  27.668  1.00  0.00     0.031 A 
ATOM     35  C   UNL A   1      42.829  26.387  27.307  1.00  0.00     0.074 A 
ATOM     36  C   UNL A   1      40.667  26.971  28.351  1.00  0.00     0.049 A 
ATOM     37  N   UNL A   1      43.518  27.473  27.551  1.00  0.00    -0.248 NA
ATOM     38  C   UNL A   1      43.590  25.342  26.603  1.00  0.00     0.031 C 
ATOM     39  C   UNL A   1      39.298  26.760  28.826  1.00  0.00     0.029 A 
ATOM     40  N   UNL A   1      40.977  28.235  28.787  1.00  0.00    -0.354 N 
ATOM     41  C   UNL A   1      44.796  27.231  27.061  1.00  0.00     0.074 A 
ATOM     42  C   UNL A   1      44.798  25.883  26.538  1.00  0.00     0.031 C 
ATOM     43  C   UNL A   1      38.887  27.854  29.486  1.00  0.00     0.029 A 
ATOM     44  C   UNL A   1      39.971  28.831  29.514  1.00  0.00     0.049 A 
ATOM     45  H   UNL A   1      41.838  28.675  28.599  1.00  0.00     0.167 HD
ATOM     46  C   UNL A   1      45.864  28.064  27.022  1.00  0.00     0.034 A 
ATOM     47  C   UNL A   1      39.928  30.022  30.145  1.00  0.00     0.034 A 
ATOM     48  C   UNL A   1      45.853  29.416  27.513  1.00  0.00     0.049 A 
ATOM     49  C   UNL A   1      41.121  30.937  30.068  1.00  0.00     0.074 A 
ATOM     50  C   UNL A   1      46.861  30.363  27.448  1.00  0.00     0.029 A 
ATOM     51  N   UNL A   1      44.789  30.012  28.173  1.00  0.00    -0.354 N 
ATOM     52  N   UNL A   1      42.271  30.745  29.466  1.00  0.00    -0.248 NA
ATOM     53  C   UNL A   1      40.999  32.246  30.724  1.00  0.00     0.031 C 
ATOM     54  C   UNL A   1      46.418  31.519  28.098  1.00  0.00     0.029 A 
ATOM     55  C   UNL A   1      45.119  31.307  28.532  1.00  0.00     0.049 A 
ATOM     56  H   UNL A   1      43.925  29.577  28.360  1.00  0.00     0.167 HD
ATOM     57  C   UNL A   1      42.992  31.920  29.639  1.00  0.00     0.074 A 
ATOM     58  C   UNL A   1      42.141  32.827  30.383  1.00  0.00     0.031 C 
ATOM     59  C   UNL A   1      44.249  32.218  29.229  1.00  0.00     0.034 A 
BRANCH  46  60
ATOM     60  C   UNL A   1      47.130  27.552  26.384  1.00  0.00     0.023 A 
ATOM     61  C   UNL A   1      47.418  27.881  25.042  1.00  0.00     0.012 A 
ATOM     62  C   UNL A   1      48.063  26.800  27.125  1.00  0.00     0.148 A 
ATOM     63  C   UNL A   1      48.595  27.440  24.439  1.00  0.00     0.002 A 
ATOM     64  C   UNL A   1      49.257  26.406  26.530  1.00  0.00     0.091 A 
ATOM     65  F   UNL A   1      47.765  26.482  28.392  1.00  0.00    -0.205 F 
ATOM     66  C   UNL A   1      49.518  26.713  25.186  1.00  0.00     0.022 A 
BRANCH  64  67
ATOM     67  S   UNL A   1      50.548  25.537  27.428  1.00  0.00     0.127 S 
ATOM     68  O   UNL A   1      49.878  24.283  27.767  1.00  0.00    -0.237 OA
ATOM     69  O   UNL A   1      51.596  25.414  26.414  1.00  0.00    -0.237 OA
ATOM     70  O   UNL A   1      50.892  26.386  28.561  1.00  0.00    -0.744 OA
ENDBRANCH  64  67
ENDBRANCH  46  60
BRANCH  47  71
ATOM     71  C   UNL A   1      38.695  30.437  30.871  1.00  0.00     0.023 A 
ATOM     72  C   UNL A   1      38.558  30.142  32.241  1.00  0.00     0.012 A 
ATOM     73  C   UNL A   1      37.664  31.137  30.213  1.00  0.00     0.148 A 
ATOM     74  C   UNL A   1      37.403  30.502  32.935  1.00  0.00     0.002 A 
ATOM     75  C   UNL A   1      36.541  31.546  30.924  1.00  0.00     0.091 A 
ATOM     76  F   UNL A   1      37.808  31.400  28.906  1.00  0.00    -0.205 F 
ATOM     77  C   UNL A   1      36.400  31.212  32.280  1.00  0.00     0.022 A 
BRANCH  75  78
ATOM     78  S   UNL A   1      35.264  32.575  30.196  1.00  0.00     0.127 S 
ATOM     79  O   UNL A   1      34.795  31.738  29.094  1.00  0.00    -0.237 OA
ATOM     80  O   UNL A   1      34.321  32.716  31.307  1.00  0.00    -0.237 OA
ATOM     81  O   UNL A   1      35.926  33.814  29.810  1.00  0.00    -0.744 OA
ENDBRANCH  75  78
ENDBRANCH  47  71
BRANCH  59  82
ATOM     82  C   UNL A   1      44.776  33.598  29.531  1.00  0.00     0.023 A 
ATOM     83  C   UNL A   1      45.435  33.854  30.749  1.00  0.00     0.012 A 
ATOM     84  C   UNL A   1      44.679  34.625  28.570  1.00  0.00     0.148 A 
ATOM     85  C   UNL A   1      45.957  35.118  31.022  1.00  0.00     0.002 A 
ATOM     86  C   UNL A   1      45.247  35.866  28.827  1.00  0.00     0.091 A 
ATOM     87  F   UNL A   1      44.034  34.369  27.423  1.00  0.00    -0.205 F 
ATOM     88  C   UNL A   1      45.874  36.120  30.057  1.00  0.00     0.022 A 
BRANCH  86  89
ATOM     89  S   UNL A   1      45.277  37.185  27.607  1.00  0.00     0.127 S 
ATOM     90  O   UNL A   1      43.850  37.418  27.386  1.00  0.00    -0.237 OA
ATOM     91  O   UNL A   1      45.965  38.257  28.328  1.00  0.00    -0.237 OA
ATOM     92  O   UNL A   1      46.007  36.660  26.463  1.00  0.00    -0.744 OA
ENDBRANCH  86  89
ENDBRANCH  59  82
ENDBRANCH  33  34
ENDBRANCH  25  28
ENDBRANCH  23  24
ENDBRANCH   1  23
TORSDOF 16
ENDMDL
