MODEL 1
REMARK VINA RESULT:     -13.1      0.000      0.000
REMARK SMILES C[C@@H](NC(=O)[C@H]1CC=CC[C@@H]1C(=O)NCCCCNC(=O)c1ccc(-c2c3nc(c(-c4cccc(S(=O)(=O)[O-])c4F)c4ccc([nH]4)c(-c4cccc(S(=O)(=O)[O-])c4F)c4nc(c(-c5cccc(S(=O)(=O)[O-])c5F)c5ccc2[nH]5)C=C4)C=C3)cc1)c1ccc(-n2ccnc2)cc1
REMARK SMILES IDX 16 1 15 2 14 3 12 4 13 5 11 7 6 8 7 9 8 10 10 11 9 12 4 13
REMARK SMILES IDX 3 14 5 16 2 17 1 18 85 19 86 20 95 21 87 22 94 23 88 24
REMARK SMILES IDX 89 25 90 26 93 27 91 28 92 29 17 30 18 31 19 32 20 33 21 35
REMARK SMILES IDX 22 36 23 37 84 38 24 39 83 40 25 41 26 42 27 43 77 44 28 45
REMARK SMILES IDX 82 46 76 47 78 48 29 49 81 50 75 51 74 52 30 54 62 55 42 56
REMARK SMILES IDX 61 57 43 58 46 59 60 60 79 61 44 62 45 63 59 65 80 66 47 67
REMARK SMILES IDX 31 68 32 69 40 70 33 71 35 72 41 73 34 74 36 75 37 76 38 77
REMARK SMILES IDX 39 78 63 79 64 80 72 81 65 82 67 83 73 84 66 85 68 86 69 87
REMARK SMILES IDX 70 88 71 89 48 90 49 91 57 92 50 93 52 94 58 95 51 96 53 97
REMARK SMILES IDX 54 98 55 99 56 100
REMARK H PARENT 14 6 3 15 19 34 78 53 46 64
REMARK Flexibility Score: inf
ROOT
ATOM      1  C   UNL A   1      36.058  21.800  23.957  1.00  0.00     0.023 C 
ENDROOT
BRANCH   1   2
ATOM      2  C   UNL A   1      36.434  23.296  23.870  1.00  0.00     0.116 C 
BRANCH   2   3
ATOM      3  N   UNL A   1      36.063  24.200  25.015  1.00  0.00    -0.356 N 
ATOM      4  C   UNL A   1      34.857  24.323  25.880  1.00  0.00     0.224 C 
ATOM      5  O   UNL A   1      35.381  23.710  26.878  1.00  0.00    -0.275 OA
ATOM      6  H   UNL A   1      36.769  24.850  25.240  1.00  0.00     0.163 HD
BRANCH   4   7
ATOM      7  C   UNL A   1      32.920  25.330  25.627  1.00  0.00     0.095 C 
ATOM      8  C   UNL A   1      32.209  25.981  24.081  1.00  0.00     0.095 C 
ATOM      9  C   UNL A   1      31.897  27.488  23.995  1.00  0.00     0.041 C 
ATOM     10  C   UNL A   1      31.398  28.174  25.196  1.00  0.00    -0.030 C 
ATOM     11  C   UNL A   1      31.944  26.288  26.755  1.00  0.00     0.041 C 
ATOM     12  C   UNL A   1      31.412  27.635  26.407  1.00  0.00    -0.030 C 
BRANCH   8  13
ATOM     13  C   UNL A   1      31.143  25.039  23.459  1.00  0.00     0.224 C 
ATOM     14  N   UNL A   1      31.520  24.036  22.590  1.00  0.00    -0.349 N 
ATOM     15  H   UNL A   1      30.949  23.951  21.793  1.00  0.00     0.164 HD
ATOM     16  O   UNL A   1      29.938  25.297  23.512  1.00  0.00    -0.275 OA
BRANCH  14  17
ATOM     17  C   UNL A   1      32.637  23.063  22.651  1.00  0.00     0.109 C 
ATOM     18  C   UNL A   1      33.189  22.954  21.222  1.00  0.00     0.036 C 
BRANCH  17  19
ATOM     19  C   UNL A   1      32.175  21.734  23.245  1.00  0.00    -0.026 A 
ATOM     20  C   UNL A   1      32.724  21.335  24.926  1.00  0.00     0.008 A 
ATOM     21  C   UNL A   1      31.945  20.419  22.047  1.00  0.00     0.008 A 
ATOM     22  C   UNL A   1      33.074  19.656  25.371  1.00  0.00     0.027 A 
ATOM     23  C   UNL A   1      32.554  18.747  22.440  1.00  0.00     0.027 A 
ATOM     24  C   UNL A   1      33.063  18.354  24.134  1.00  0.00     0.046 A 
BRANCH  24  25
ATOM     25  N   UNL A   1      33.060  17.018  24.604  1.00  0.00    -0.306 N 
ATOM     26  C   UNL A   1      32.114  16.370  25.349  1.00  0.00     0.113 A 
ATOM     27  C   UNL A   1      34.152  16.181  24.555  1.00  0.00     0.204 A 
ATOM     28  C   UNL A   1      32.700  15.185  25.746  1.00  0.00     0.131 A 
ATOM     29  N   UNL A   1      33.970  15.082  25.247  1.00  0.00    -0.245 NA
ENDBRANCH  24  25
ENDBRANCH  17  19
ENDBRANCH  14  17
ENDBRANCH   8  13
ENDBRANCH   4   7
ENDBRANCH   2   3
ENDBRANCH   1   2
BRANCH   1  30
ATOM     30  C   UNL A   1      36.940  20.822  24.704  1.00  0.00     0.023 C 
BRANCH  30  31
ATOM     31  C   UNL A   1      37.982  21.401  25.621  1.00  0.00     0.116 C 
BRANCH  31  32
ATOM     32  N   UNL A   1      39.208  20.623  25.734  1.00  0.00    -0.352 N 
ATOM     33  C   UNL A   1      40.366  20.979  26.401  1.00  0.00     0.251 C 
ATOM     34  H   UNL A   1      39.212  19.746  25.287  1.00  0.00     0.163 HD
ATOM     35  O   UNL A   1      41.343  20.237  26.415  1.00  0.00    -0.269 OA
BRANCH  33  36
ATOM     36  C   UNL A   1      40.424  22.317  27.037  1.00  0.00     0.039 A 
ATOM     37  C   UNL A   1      41.341  22.537  28.068  1.00  0.00     0.014 A 
ATOM     38  C   UNL A   1      39.724  23.386  26.473  1.00  0.00     0.014 A 
ATOM     39  C   UNL A   1      41.656  23.849  28.437  1.00  0.00     0.010 A 
ATOM     40  C   UNL A   1      40.132  24.683  26.755  1.00  0.00     0.010 A 
ATOM     41  C   UNL A   1      41.111  24.933  27.730  1.00  0.00    -0.014 A 
BRANCH  41  42
ATOM     42  C   UNL A   1      41.565  26.332  27.950  1.00  0.00     0.031 A 
ATOM     43  C   UNL A   1      42.971  26.729  27.581  1.00  0.00     0.074 A 
ATOM     44  C   UNL A   1      40.774  27.206  28.611  1.00  0.00     0.049 A 
ATOM     45  N   UNL A   1      43.597  27.853  27.808  1.00  0.00    -0.248 NA
ATOM     46  C   UNL A   1      43.797  25.711  26.907  1.00  0.00     0.031 C 
ATOM     47  C   UNL A   1      39.433  26.918  29.127  1.00  0.00     0.029 A 
ATOM     48  N   UNL A   1      41.002  28.505  29.000  1.00  0.00    -0.354 N 
ATOM     49  C   UNL A   1      44.899  27.658  27.363  1.00  0.00     0.074 A 
ATOM     50  C   UNL A   1      44.984  26.298  26.879  1.00  0.00     0.031 C 
ATOM     51  C   UNL A   1      38.961  28.003  29.765  1.00  0.00     0.029 A 
ATOM     52  C   UNL A   1      39.973  29.054  29.733  1.00  0.00     0.049 A 
ATOM     53  H   UNL A   1      41.824  28.997  28.776  1.00  0.00     0.167 HD
ATOM     54  C   UNL A   1      45.922  28.541  27.322  1.00  0.00     0.034 A 
ATOM     55  C   UNL A   1      39.861  30.261  30.325  1.00  0.00     0.034 A 
ATOM     56  C   UNL A   1      45.811  29.917  27.712  1.00  0.00     0.049 A 
ATOM     57  C   UNL A   1      40.989  31.249  30.195  1.00  0.00     0.074 A 
ATOM     58  C   UNL A   1      46.738  30.931  27.553  1.00  0.00     0.029 A 
ATOM     59  N   UNL A   1      44.710  30.472  28.343  1.00  0.00    -0.354 N 
ATOM     60  N   UNL A   1      42.134  31.114  29.570  1.00  0.00    -0.248 NA
ATOM     61  C   UNL A   1      40.803  32.567  30.821  1.00  0.00     0.031 C 
ATOM     62  C   UNL A   1      46.204  32.100  28.103  1.00  0.00     0.029 A 
ATOM     63  C   UNL A   1      44.942  31.813  28.598  1.00  0.00     0.049 A 
ATOM     64  H   UNL A   1      43.886  29.987  28.574  1.00  0.00     0.167 HD
ATOM     65  C   UNL A   1      42.792  32.331  29.710  1.00  0.00     0.074 A 
ATOM     66  C   UNL A   1      41.905  33.203  30.451  1.00  0.00     0.031 C 
ATOM     67  C   UNL A   1      44.029  32.686  29.286  1.00  0.00     0.034 A 
BRANCH  54  68
ATOM     68  C   UNL A   1      47.236  28.070  26.761  1.00  0.00     0.023 A 
ATOM     69  C   UNL A   1      48.273  27.703  27.642  1.00  0.00     0.012 A 
ATOM     70  C   UNL A   1      47.416  27.914  25.373  1.00  0.00     0.148 A 
ATOM     71  C   UNL A   1      49.480  27.213  27.150  1.00  0.00     0.002 A 
ATOM     72  C   UNL A   1      48.608  27.387  24.892  1.00  0.00     0.091 A 
ATOM     73  F   UNL A   1      46.424  28.291  24.553  1.00  0.00    -0.205 F 
ATOM     74  C   UNL A   1      49.643  27.044  25.777  1.00  0.00     0.022 A 
BRANCH  72  75
ATOM     75  S   UNL A   1      48.894  27.063  23.149  1.00  0.00     0.127 S 
ATOM     76  O   UNL A   1      48.150  25.820  22.954  1.00  0.00    -0.237 OA
ATOM     77  O   UNL A   1      48.295  28.238  22.515  1.00  0.00    -0.237 OA
ATOM     78  O   UNL A   1      50.338  26.955  22.992  1.00  0.00    -0.744 OA
ENDBRANCH  72  75
ENDBRANCH  54  68
BRANCH  55  79
ATOM     79  C   UNL A   1      38.609  30.629  31.052  1.00  0.00     0.023 A 
ATOM     80  C   UNL A   1      38.470  30.276  32.408  1.00  0.00     0.012 A 
ATOM     81  C   UNL A   1      37.568  31.334  30.420  1.00  0.00     0.148 A 
ATOM     82  C   UNL A   1      37.306  30.588  33.112  1.00  0.00     0.002 A 
ATOM     83  C   UNL A   1      36.432  31.691  31.142  1.00  0.00     0.091 A 
ATOM     84  F   UNL A   1      37.702  31.645  29.122  1.00  0.00    -0.205 F 
ATOM     85  C   UNL A   1      36.291  31.303  32.482  1.00  0.00     0.022 A 
BRANCH  83  86
ATOM     86  S   UNL A   1      35.154  32.738  30.435  1.00  0.00     0.127 S 
ATOM     87  O   UNL A   1      34.174  32.788  31.515  1.00  0.00    -0.237 OA
ATOM     88  O   UNL A   1      35.873  33.990  30.197  1.00  0.00    -0.237 OA
ATOM     89  O   UNL A   1      34.739  32.056  29.216  1.00  0.00    -0.744 OA
ENDBRANCH  83  86
ENDBRANCH  55  79
BRANCH  67  90
ATOM     90  C   UNL A   1      44.508  34.077  29.600  1.00  0.00     0.023 A 
ATOM     91  C   UNL A   1      45.360  34.281  30.703  1.00  0.00     0.012 A 
ATOM     92  C   UNL A   1      44.202  35.159  28.752  1.00  0.00     0.148 A 
ATOM     93  C   UNL A   1      45.885  35.544  30.970  1.00  0.00     0.002 A 
ATOM     94  C   UNL A   1      44.764  36.406  28.998  1.00  0.00     0.091 A 
ATOM     95  F   UNL A   1      43.376  34.945  27.716  1.00  0.00    -0.205 F 
ATOM     96  C   UNL A   1      45.597  36.602  30.110  1.00  0.00     0.022 A 
BRANCH  94  97
ATOM     97  S   UNL A   1      44.526  37.805  27.895  1.00  0.00     0.127 S 
ATOM     98  O   UNL A   1      43.096  37.719  27.608  1.00  0.00    -0.237 OA
ATOM     99  O   UNL A   1      44.914  38.936  28.738  1.00  0.00    -0.237 OA
ATOM    100  O   UNL A   1      45.407  37.572  26.758  1.00  0.00    -0.744 OA
ENDBRANCH  94  97
ENDBRANCH  67  90
ENDBRANCH  41  42
ENDBRANCH  33  36
ENDBRANCH  31  32
ENDBRANCH  30  31
ENDBRANCH   1  30
TORSDOF 18
ENDMDL
MODEL 2
REMARK VINA RESULT:     -12.4      2.112      2.809
REMARK SMILES C[C@@H](NC(=O)[C@H]1CC=CC[C@@H]1C(=O)NCCCCNC(=O)c1ccc(-c2c3nc(c(-c4cccc(S(=O)(=O)[O-])c4F)c4ccc([nH]4)c(-c4cccc(S(=O)(=O)[O-])c4F)c4nc(c(-c5cccc(S(=O)(=O)[O-])c5F)c5ccc2[nH]5)C=C4)C=C3)cc1)c1ccc(-n2ccnc2)cc1
REMARK SMILES IDX 16 1 15 2 14 3 12 4 13 5 11 7 6 8 7 9 8 10 10 11 9 12 4 13
REMARK SMILES IDX 3 14 5 16 2 17 1 18 85 19 86 20 95 21 87 22 94 23 88 24
REMARK SMILES IDX 89 25 90 26 93 27 91 28 92 29 17 30 18 31 19 32 20 33 21 35
REMARK SMILES IDX 22 36 23 37 84 38 24 39 83 40 25 41 26 42 27 43 77 44 28 45
REMARK SMILES IDX 82 46 76 47 78 48 29 49 81 50 75 51 74 52 30 54 62 55 42 56
REMARK SMILES IDX 61 57 43 58 46 59 60 60 79 61 44 62 45 63 59 65 80 66 47 67
REMARK SMILES IDX 31 68 32 69 40 70 33 71 35 72 41 73 34 74 36 75 37 76 38 77
REMARK SMILES IDX 39 78 63 79 64 80 72 81 65 82 67 83 73 84 66 85 68 86 69 87
REMARK SMILES IDX 70 88 71 89 48 90 49 91 57 92 50 93 52 94 58 95 51 96 53 97
REMARK SMILES IDX 54 98 55 99 56 100
REMARK H PARENT 14 6 3 15 19 34 78 53 46 64
REMARK Flexibility Score: inf
ROOT
ATOM      1  C   UNL A   1      36.442  22.275  25.775  1.00  0.00     0.023 C 
ENDROOT
BRANCH   1   2
ATOM      2  C   UNL A   1      35.903  23.720  25.851  1.00  0.00     0.116 C 
BRANCH   2   3
ATOM      3  N   UNL A   1      34.638  23.977  26.625  1.00  0.00    -0.356 N 
ATOM      4  C   UNL A   1      33.290  24.490  26.252  1.00  0.00     0.224 C 
ATOM      5  O   UNL A   1      32.737  23.333  26.242  1.00  0.00    -0.275 OA
ATOM      6  H   UNL A   1      34.718  23.761  27.582  1.00  0.00     0.163 HD
BRANCH   4   7
ATOM      7  C   UNL A   1      32.473  26.512  25.974  1.00  0.00     0.095 C 
ATOM      8  C   UNL A   1      32.854  27.681  24.629  1.00  0.00     0.095 C 
ATOM      9  C   UNL A   1      33.476  29.042  24.995  1.00  0.00     0.041 C 
ATOM     10  C   UNL A   1      33.040  29.706  26.233  1.00  0.00    -0.030 C 
ATOM     11  C   UNL A   1      31.854  27.693  27.141  1.00  0.00     0.041 C 
ATOM     12  C   UNL A   1      32.316  29.108  27.169  1.00  0.00    -0.030 C 
BRANCH   8  13
ATOM     13  C   UNL A   1      31.761  27.717  23.529  1.00  0.00     0.224 C 
ATOM     14  N   UNL A   1      32.052  27.316  22.241  1.00  0.00    -0.349 N 
ATOM     15  H   UNL A   1      31.695  27.907  21.539  1.00  0.00     0.164 HD
ATOM     16  O   UNL A   1      30.697  28.322  23.689  1.00  0.00    -0.275 OA
BRANCH  14  17
ATOM     17  C   UNL A   1      32.809  26.147  21.733  1.00  0.00     0.109 C 
ATOM     18  C   UNL A   1      32.169  25.774  20.386  1.00  0.00     0.036 C 
BRANCH  17  19
ATOM     19  C   UNL A   1      32.818  25.013  22.755  1.00  0.00    -0.026 A 
ATOM     20  C   UNL A   1      34.273  23.932  22.787  1.00  0.00     0.008 A 
ATOM     21  C   UNL A   1      31.201  24.342  23.143  1.00  0.00     0.008 A 
ATOM     22  C   UNL A   1      34.092  22.209  23.161  1.00  0.00     0.027 A 
ATOM     23  C   UNL A   1      30.998  22.535  23.267  1.00  0.00     0.027 A 
ATOM     24  C   UNL A   1      32.463  21.472  23.337  1.00  0.00     0.046 A 
BRANCH  24  25
ATOM     25  N   UNL A   1      32.399  20.181  23.917  1.00  0.00    -0.306 N 
ATOM     26  C   UNL A   1      32.598  19.810  25.218  1.00  0.00     0.113 A 
ATOM     27  C   UNL A   1      32.322  19.014  23.191  1.00  0.00     0.204 A 
ATOM     28  C   UNL A   1      32.670  18.433  25.206  1.00  0.00     0.131 A 
ATOM     29  N   UNL A   1      32.499  17.950  23.937  1.00  0.00    -0.245 NA
ENDBRANCH  24  25
ENDBRANCH  17  19
ENDBRANCH  14  17
ENDBRANCH   8  13
ENDBRANCH   4   7
ENDBRANCH   2   3
ENDBRANCH   1   2
BRANCH   1  30
ATOM     30  C   UNL A   1      37.865  22.001  25.337  1.00  0.00     0.023 C 
BRANCH  30  31
ATOM     31  C   UNL A   1      38.934  22.081  26.391  1.00  0.00     0.116 C 
BRANCH  31  32
ATOM     32  N   UNL A   1      40.297  21.913  25.905  1.00  0.00    -0.352 N 
ATOM     33  C   UNL A   1      41.349  22.801  26.039  1.00  0.00     0.251 C 
ATOM     34  H   UNL A   1      40.491  21.074  25.427  1.00  0.00     0.163 HD
ATOM     35  O   UNL A   1      42.455  22.548  25.573  1.00  0.00    -0.269 OA
BRANCH  33  36
ATOM     36  C   UNL A   1      41.085  24.103  26.698  1.00  0.00     0.039 A 
ATOM     37  C   UNL A   1      41.313  24.224  28.071  1.00  0.00     0.014 A 
ATOM     38  C   UNL A   1      40.817  25.232  25.922  1.00  0.00     0.014 A 
ATOM     39  C   UNL A   1      41.409  25.499  28.639  1.00  0.00     0.010 A 
ATOM     40  C   UNL A   1      41.037  26.491  26.465  1.00  0.00     0.010 A 
ATOM     41  C   UNL A   1      41.349  26.642  27.826  1.00  0.00    -0.014 A 
BRANCH  41  42
ATOM     42  C   UNL A   1      41.643  28.003  28.350  1.00  0.00     0.031 A 
ATOM     43  C   UNL A   1      43.073  28.434  28.548  1.00  0.00     0.074 A 
ATOM     44  C   UNL A   1      40.638  28.796  28.781  1.00  0.00     0.049 A 
ATOM     45  N   UNL A   1      43.537  29.521  29.107  1.00  0.00    -0.248 NA
ATOM     46  C   UNL A   1      44.121  27.500  28.100  1.00  0.00     0.031 C 
ATOM     47  C   UNL A   1      39.213  28.456  28.754  1.00  0.00     0.029 A 
ATOM     48  N   UNL A   1      40.665  30.039  29.369  1.00  0.00    -0.354 N 
ATOM     49  C   UNL A   1      44.918  29.374  29.132  1.00  0.00     0.074 A 
ATOM     50  C   UNL A   1      45.219  28.080  28.560  1.00  0.00     0.031 C 
ATOM     51  C   UNL A   1      38.507  29.459  29.301  1.00  0.00     0.029 A 
ATOM     52  C   UNL A   1      39.424  30.502  29.748  1.00  0.00     0.049 A 
ATOM     53  H   UNL A   1      41.495  30.550  29.508  1.00  0.00     0.167 HD
ATOM     54  C   UNL A   1      45.856  30.250  29.556  1.00  0.00     0.034 A 
ATOM     55  C   UNL A   1      39.066  31.630  30.394  1.00  0.00     0.034 A 
ATOM     56  C   UNL A   1      45.564  31.571  30.034  1.00  0.00     0.049 A 
ATOM     57  C   UNL A   1      40.130  32.622  30.784  1.00  0.00     0.074 A 
ATOM     58  C   UNL A   1      46.449  32.592  30.328  1.00  0.00     0.029 A 
ATOM     59  N   UNL A   1      44.291  32.053  30.293  1.00  0.00    -0.354 N 
ATOM     60  N   UNL A   1      41.426  32.556  30.593  1.00  0.00    -0.248 NA
ATOM     61  C   UNL A   1      39.685  33.857  31.448  1.00  0.00     0.031 C 
ATOM     62  C   UNL A   1      45.711  33.690  30.782  1.00  0.00     0.029 A 
ATOM     63  C   UNL A   1      44.367  33.352  30.763  1.00  0.00     0.049 A 
ATOM     64  H   UNL A   1      43.457  31.547  30.161  1.00  0.00     0.167 HD
ATOM     65  C   UNL A   1      41.946  33.745  31.093  1.00  0.00     0.074 A 
ATOM     66  C   UNL A   1      40.823  34.527  31.566  1.00  0.00     0.031 C 
ATOM     67  C   UNL A   1      43.239  34.142  31.177  1.00  0.00     0.034 A 
BRANCH  54  68
ATOM     68  C   UNL A   1      47.300  29.843  29.446  1.00  0.00     0.023 A 
ATOM     69  C   UNL A   1      47.936  29.244  30.553  1.00  0.00     0.012 A 
ATOM     70  C   UNL A   1      48.000  29.979  28.232  1.00  0.00     0.148 A 
ATOM     71  C   UNL A   1      49.256  28.808  30.461  1.00  0.00     0.002 A 
ATOM     72  C   UNL A   1      49.303  29.506  28.136  1.00  0.00     0.091 A 
ATOM     73  F   UNL A   1      47.382  30.572  27.200  1.00  0.00    -0.205 F 
ATOM     74  C   UNL A   1      49.934  28.928  29.251  1.00  0.00     0.022 A 
BRANCH  72  75
ATOM     75  S   UNL A   1      50.243  29.547  26.606  1.00  0.00     0.127 S 
ATOM     76  O   UNL A   1      49.345  28.845  25.691  1.00  0.00    -0.237 OA
ATOM     77  O   UNL A   1      50.364  30.984  26.359  1.00  0.00    -0.237 OA
ATOM     78  O   UNL A   1      51.500  28.868  26.888  1.00  0.00    -0.744 OA
ENDBRANCH  72  75
ENDBRANCH  54  68
BRANCH  55  79
ATOM     79  C   UNL A   1      37.626  31.916  30.668  1.00  0.00     0.023 A 
ATOM     80  C   UNL A   1      37.083  31.580  31.924  1.00  0.00     0.012 A 
ATOM     81  C   UNL A   1      36.798  32.525  29.707  1.00  0.00     0.148 A 
ATOM     82  C   UNL A   1      35.736  31.815  32.205  1.00  0.00     0.002 A 
ATOM     83  C   UNL A   1      35.469  32.808  30.013  1.00  0.00     0.091 A 
ATOM     84  F   UNL A   1      37.319  32.819  28.507  1.00  0.00    -0.205 F 
ATOM     85  C   UNL A   1      34.932  32.438  31.254  1.00  0.00     0.022 A 
BRANCH  83  86
ATOM     86  S   UNL A   1      34.418  33.739  28.891  1.00  0.00     0.127 S 
ATOM     87  O   UNL A   1      34.081  32.732  27.889  1.00  0.00    -0.237 OA
ATOM     88  O   UNL A   1      33.311  34.138  29.761  1.00  0.00    -0.237 OA
ATOM     89  O   UNL A   1      35.243  34.852  28.438  1.00  0.00    -0.744 OA
ENDBRANCH  83  86
ENDBRANCH  55  79
BRANCH  67  90
ATOM     90  C   UNL A   1      43.524  35.484  31.795  1.00  0.00     0.023 A 
ATOM     91  C   UNL A   1      43.745  35.571  33.183  1.00  0.00     0.012 A 
ATOM     92  C   UNL A   1      43.674  36.634  30.995  1.00  0.00     0.148 A 
ATOM     93  C   UNL A   1      44.092  36.786  33.771  1.00  0.00     0.002 A 
ATOM     94  C   UNL A   1      44.062  37.832  31.582  1.00  0.00     0.091 A 
ATOM     95  F   UNL A   1      43.443  36.531  29.678  1.00  0.00    -0.205 F 
ATOM     96  C   UNL A   1      44.263  37.912  32.969  1.00  0.00     0.022 A 
BRANCH  94  97
ATOM     97  S   UNL A   1      44.398  39.312  30.618  1.00  0.00     0.127 S 
ATOM     98  O   UNL A   1      44.627  40.304  31.666  1.00  0.00    -0.237 OA
ATOM     99  O   UNL A   1      45.593  38.930  29.866  1.00  0.00    -0.237 OA
ATOM    100  O   UNL A   1      43.215  39.531  29.797  1.00  0.00    -0.744 OA
ENDBRANCH  94  97
ENDBRANCH  67  90
ENDBRANCH  41  42
ENDBRANCH  33  36
ENDBRANCH  31  32
ENDBRANCH  30  31
ENDBRANCH   1  30
TORSDOF 18
ENDMDL
MODEL 3
REMARK VINA RESULT:     -12.4      2.522      3.201
REMARK SMILES C[C@@H](NC(=O)[C@H]1CC=CC[C@@H]1C(=O)NCCCCNC(=O)c1ccc(-c2c3nc(c(-c4cccc(S(=O)(=O)[O-])c4F)c4ccc([nH]4)c(-c4cccc(S(=O)(=O)[O-])c4F)c4nc(c(-c5cccc(S(=O)(=O)[O-])c5F)c5ccc2[nH]5)C=C4)C=C3)cc1)c1ccc(-n2ccnc2)cc1
REMARK SMILES IDX 16 1 15 2 14 3 12 4 13 5 11 7 6 8 7 9 8 10 10 11 9 12 4 13
REMARK SMILES IDX 3 14 5 16 2 17 1 18 85 19 86 20 95 21 87 22 94 23 88 24
REMARK SMILES IDX 89 25 90 26 93 27 91 28 92 29 17 30 18 31 19 32 20 33 21 35
REMARK SMILES IDX 22 36 23 37 84 38 24 39 83 40 25 41 26 42 27 43 77 44 28 45
REMARK SMILES IDX 82 46 76 47 78 48 29 49 81 50 75 51 74 52 30 54 62 55 42 56
REMARK SMILES IDX 61 57 43 58 46 59 60 60 79 61 44 62 45 63 59 65 80 66 47 67
REMARK SMILES IDX 31 68 32 69 40 70 33 71 35 72 41 73 34 74 36 75 37 76 38 77
REMARK SMILES IDX 39 78 63 79 64 80 72 81 65 82 67 83 73 84 66 85 68 86 69 87
REMARK SMILES IDX 70 88 71 89 48 90 49 91 57 92 50 93 52 94 58 95 51 96 53 97
REMARK SMILES IDX 54 98 55 99 56 100
REMARK H PARENT 14 6 3 15 19 34 78 53 46 64
REMARK Flexibility Score: inf
ROOT
ATOM      1  C   UNL A   1      39.561  23.454  26.977  1.00  0.00     0.023 C 
ENDROOT
BRANCH   1   2
ATOM      2  C   UNL A   1      38.402  24.375  26.540  1.00  0.00     0.116 C 
BRANCH   2   3
ATOM      3  N   UNL A   1      37.116  23.745  26.077  1.00  0.00    -0.356 N 
ATOM      4  C   UNL A   1      36.110  24.103  25.038  1.00  0.00     0.224 C 
ATOM      5  O   UNL A   1      36.532  23.244  24.184  1.00  0.00    -0.275 OA
ATOM      6  H   UNL A   1      36.890  22.921  26.566  1.00  0.00     0.163 HD
BRANCH   4   7
ATOM      7  C   UNL A   1      34.402  25.487  25.010  1.00  0.00     0.095 C 
ATOM      8  C   UNL A   1      33.535  26.139  23.547  1.00  0.00     0.095 C 
ATOM      9  C   UNL A   1      33.518  27.664  23.324  1.00  0.00     0.041 C 
ATOM     10  C   UNL A   1      33.421  28.547  24.496  1.00  0.00    -0.030 C 
ATOM     11  C   UNL A   1      33.887  26.732  26.162  1.00  0.00     0.041 C 
ATOM     12  C   UNL A   1      33.574  28.126  25.744  1.00  0.00    -0.030 C 
BRANCH   8  13
ATOM     13  C   UNL A   1      32.199  25.404  23.255  1.00  0.00     0.224 C 
ATOM     14  N   UNL A   1      32.160  24.356  22.358  1.00  0.00    -0.349 N 
ATOM     15  H   UNL A   1      31.397  24.379  21.737  1.00  0.00     0.164 HD
ATOM     16  O   UNL A   1      31.111  25.869  23.604  1.00  0.00    -0.275 OA
BRANCH  14  17
ATOM     17  C   UNL A   1      33.070  23.201  22.170  1.00  0.00     0.109 C 
ATOM     18  C   UNL A   1      33.150  22.961  20.654  1.00  0.00     0.036 C 
BRANCH  17  19
ATOM     19  C   UNL A   1      32.594  21.991  22.970  1.00  0.00    -0.026 A 
ATOM     20  C   UNL A   1      33.509  21.576  24.479  1.00  0.00     0.008 A 
ATOM     21  C   UNL A   1      31.861  20.684  21.985  1.00  0.00     0.008 A 
ATOM     22  C   UNL A   1      33.714  19.881  24.956  1.00  0.00     0.027 A 
ATOM     23  C   UNL A   1      32.299  18.952  22.343  1.00  0.00     0.027 A 
ATOM     24  C   UNL A   1      33.180  18.550  23.875  1.00  0.00     0.046 A 
BRANCH  24  25
ATOM     25  N   UNL A   1      33.106  17.252  24.438  1.00  0.00    -0.306 N 
ATOM     26  C   UNL A   1      32.273  16.784  25.416  1.00  0.00     0.113 A 
ATOM     27  C   UNL A   1      34.041  16.264  24.223  1.00  0.00     0.204 A 
ATOM     28  C   UNL A   1      32.772  15.548  25.771  1.00  0.00     0.131 A 
ATOM     29  N   UNL A   1      33.874  15.238  25.022  1.00  0.00    -0.245 NA
ENDBRANCH  24  25
ENDBRANCH  17  19
ENDBRANCH  14  17
ENDBRANCH   8  13
ENDBRANCH   4   7
ENDBRANCH   2   3
ENDBRANCH   1   2
BRANCH   1  30
ATOM     30  C   UNL A   1      39.668  22.039  26.449  1.00  0.00     0.023 C 
BRANCH  30  31
ATOM     31  C   UNL A   1      40.598  21.106  27.173  1.00  0.00     0.116 C 
BRANCH  31  32
ATOM     32  N   UNL A   1      41.237  20.097  26.338  1.00  0.00    -0.352 N 
ATOM     33  C   UNL A   1      42.463  20.191  25.704  1.00  0.00     0.251 C 
ATOM     34  H   UNL A   1      40.742  19.257  26.211  1.00  0.00     0.163 HD
ATOM     35  O   UNL A   1      42.890  19.271  25.014  1.00  0.00    -0.269 OA
BRANCH  33  36
ATOM     36  C   UNL A   1      43.214  21.464  25.818  1.00  0.00     0.039 A 
ATOM     37  C   UNL A   1      43.100  22.411  24.797  1.00  0.00     0.014 A 
ATOM     38  C   UNL A   1      43.853  21.789  27.016  1.00  0.00     0.014 A 
ATOM     39  C   UNL A   1      43.504  23.728  25.036  1.00  0.00     0.010 A 
ATOM     40  C   UNL A   1      44.135  23.121  27.290  1.00  0.00     0.010 A 
ATOM     41  C   UNL A   1      43.953  24.110  26.310  1.00  0.00    -0.014 A 
BRANCH  41  42
ATOM     42  C   UNL A   1      44.204  25.532  26.670  1.00  0.00     0.031 A 
ATOM     43  C   UNL A   1      45.601  26.089  26.585  1.00  0.00     0.074 A 
ATOM     44  C   UNL A   1      43.216  26.280  27.207  1.00  0.00     0.049 A 
ATOM     45  N   UNL A   1      46.049  27.254  26.971  1.00  0.00    -0.248 NA
ATOM     46  C   UNL A   1      46.642  25.202  26.034  1.00  0.00     0.031 C 
ATOM     47  C   UNL A   1      41.843  25.829  27.453  1.00  0.00     0.029 A 
ATOM     48  N   UNL A   1      43.226  27.570  27.686  1.00  0.00    -0.354 N 
ATOM     49  C   UNL A   1      47.423  27.217  26.767  1.00  0.00     0.074 A 
ATOM     50  C   UNL A   1      47.743  25.905  26.252  1.00  0.00     0.031 C 
ATOM     51  C   UNL A   1      41.148  26.820  28.037  1.00  0.00     0.029 A 
ATOM     52  C   UNL A   1      42.028  27.967  28.238  1.00  0.00     0.049 A 
ATOM     53  H   UNL A   1      44.017  28.154  27.640  1.00  0.00     0.167 HD
ATOM     54  C   UNL A   1      48.334  28.199  26.954  1.00  0.00     0.034 A 
ATOM     55  C   UNL A   1      41.680  29.118  28.848  1.00  0.00     0.034 A 
ATOM     56  C   UNL A   1      48.005  29.531  27.374  1.00  0.00     0.049 A 
ATOM     57  C   UNL A   1      42.698  30.220  28.971  1.00  0.00     0.074 A 
ATOM     58  C   UNL A   1      48.829  30.640  27.432  1.00  0.00     0.029 A 
ATOM     59  N   UNL A   1      46.754  29.934  27.812  1.00  0.00    -0.354 N 
ATOM     60  N   UNL A   1      43.945  30.239  28.565  1.00  0.00    -0.248 NA
ATOM     61  C   UNL A   1      42.258  31.472  29.606  1.00  0.00     0.031 C 
ATOM     62  C   UNL A   1      48.080  31.714  27.922  1.00  0.00     0.029 A 
ATOM     63  C   UNL A   1      46.788  31.273  28.161  1.00  0.00     0.049 A 
ATOM     64  H   UNL A   1      45.960  29.355  27.866  1.00  0.00     0.167 HD
ATOM     65  C   UNL A   1      44.429  31.504  28.875  1.00  0.00     0.074 A 
ATOM     66  C   UNL A   1      43.333  32.237  29.475  1.00  0.00     0.031 C 
ATOM     67  C   UNL A   1      45.676  32.007  28.704  1.00  0.00     0.034 A 
BRANCH  54  68
ATOM     68  C   UNL A   1      49.771  27.897  26.628  1.00  0.00     0.023 A 
ATOM     69  C   UNL A   1      50.210  27.985  25.291  1.00  0.00     0.012 A 
ATOM     70  C   UNL A   1      50.699  27.606  27.646  1.00  0.00     0.148 A 
ATOM     71  C   UNL A   1      51.546  27.764  24.968  1.00  0.00     0.002 A 
ATOM     72  C   UNL A   1      52.038  27.425  27.321  1.00  0.00     0.091 A 
ATOM     73  F   UNL A   1      50.255  27.504  28.907  1.00  0.00    -0.205 F 
ATOM     74  C   UNL A   1      52.461  27.496  25.983  1.00  0.00     0.022 A 
BRANCH  72  75
ATOM     75  S   UNL A   1      53.310  27.145  28.557  1.00  0.00     0.127 S 
ATOM     76  O   UNL A   1      52.627  26.244  29.484  1.00  0.00    -0.237 OA
ATOM     77  O   UNL A   1      54.372  26.520  27.769  1.00  0.00    -0.237 OA
ATOM     78  O   UNL A   1      53.642  28.457  29.097  1.00  0.00    -0.744 OA
ENDBRANCH  72  75
ENDBRANCH  54  68
BRANCH  55  79
ATOM     79  C   UNL A   1      40.285  29.315  29.344  1.00  0.00     0.023 A 
ATOM     80  C   UNL A   1      39.289  29.750  28.448  1.00  0.00     0.012 A 
ATOM     81  C   UNL A   1      39.935  29.063  30.684  1.00  0.00     0.148 A 
ATOM     82  C   UNL A   1      37.980  29.963  28.883  1.00  0.00     0.002 A 
ATOM     83  C   UNL A   1      38.615  29.224  31.099  1.00  0.00     0.091 A 
ATOM     84  F   UNL A   1      40.895  28.672  31.533  1.00  0.00    -0.205 F 
ATOM     85  C   UNL A   1      37.641  29.692  30.206  1.00  0.00     0.022 A 
BRANCH  83  86
ATOM     86  S   UNL A   1      38.080  28.752  32.748  1.00  0.00     0.127 S 
ATOM     87  O   UNL A   1      39.013  29.493  33.592  1.00  0.00    -0.237 OA
ATOM     88  O   UNL A   1      36.700  29.240  32.779  1.00  0.00    -0.237 OA
ATOM     89  O   UNL A   1      38.192  27.299  32.780  1.00  0.00    -0.744 OA
ENDBRANCH  83  86
ENDBRANCH  55  79
BRANCH  67  90
ATOM     90  C   UNL A   1      45.935  33.417  29.159  1.00  0.00     0.023 A 
ATOM     91  C   UNL A   1      46.377  33.646  30.477  1.00  0.00     0.012 A 
ATOM     92  C   UNL A   1      45.842  34.499  28.261  1.00  0.00     0.148 A 
ATOM     93  C   UNL A   1      46.703  34.933  30.901  1.00  0.00     0.002 A 
ATOM     94  C   UNL A   1      46.211  35.771  28.678  1.00  0.00     0.091 A 
ATOM     95  F   UNL A   1      45.405  34.259  27.016  1.00  0.00    -0.205 F 
ATOM     96  C   UNL A   1      46.633  35.991  29.999  1.00  0.00     0.022 A 
BRANCH  94  97
ATOM     97  S   UNL A   1      46.242  37.179  27.562  1.00  0.00     0.127 S 
ATOM     98  O   UNL A   1      46.113  36.530  26.259  1.00  0.00    -0.237 OA
ATOM     99  O   UNL A   1      45.065  37.939  27.986  1.00  0.00    -0.237 OA
ATOM    100  O   UNL A   1      47.512  37.853  27.802  1.00  0.00    -0.744 OA
ENDBRANCH  94  97
ENDBRANCH  67  90
ENDBRANCH  41  42
ENDBRANCH  33  36
ENDBRANCH  31  32
ENDBRANCH  30  31
ENDBRANCH   1  30
TORSDOF 18
ENDMDL
