MODEL 1
REMARK VINA RESULT:     -11.9      0.000      0.000
REMARK SMILES C[C@@H](Oc1ccccc1Cl)C(=O)N1CC[C@H](C(=O)NCCCCNC(=O)c2ccc(-c3c4nc(c(-c5cccc(S(=O)(=O)[O-])c5F)c5ccc([nH]5)c(-c5cccc(S(=O)(=O)[O-])c5F)c5nc(c(-c6cccc(S(=O)(=O)[O-])c6F)c6ccc3[nH]6)C=C5)C=C4)cc2)[C@@H]1C
REMARK SMILES IDX 21 1 20 2 19 3 17 4 18 5 16 7 13 8 14 9 90 10 15 11 91 12
REMARK SMILES IDX 11 13 12 14 2 15 1 16 3 17 4 18 5 19 9 20 6 21 8 22 10 23
REMARK SMILES IDX 7 24 22 25 23 26 24 27 25 28 26 30 27 31 28 32 89 33 29 34
REMARK SMILES IDX 88 35 30 36 31 37 32 38 82 39 33 40 87 41 81 42 83 43 34 44
REMARK SMILES IDX 86 45 80 46 79 47 35 49 67 50 47 51 66 52 48 53 51 54 65 55
REMARK SMILES IDX 84 56 49 57 50 58 64 60 85 61 52 62 36 63 37 64 45 65 38 66
REMARK SMILES IDX 40 67 46 68 39 69 41 70 42 71 43 72 44 73 68 74 69 75 77 76
REMARK SMILES IDX 70 77 72 78 78 79 71 80 73 81 74 82 75 83 76 84 53 85 54 86
REMARK SMILES IDX 62 87 55 88 57 89 63 90 56 91 58 92 59 93 60 94 61 95
REMARK H PARENT 19 6 24 29 83 48 51 59
REMARK Flexibility Score: inf
ROOT
ATOM      1  C   UNL A   1      31.566  30.652  26.113  1.00  0.00     0.023 C 
ENDROOT
BRANCH   1   2
ATOM      2  C   UNL A   1      30.872  30.310  24.797  1.00  0.00     0.116 C 
BRANCH   2   3
ATOM      3  N   UNL A   1      31.649  29.404  23.977  1.00  0.00    -0.356 N 
ATOM      4  C   UNL A   1      31.622  28.053  23.852  1.00  0.00     0.225 C 
ATOM      5  O   UNL A   1      32.332  27.562  22.967  1.00  0.00    -0.275 OA
ATOM      6  H   UNL A   1      32.316  29.848  23.407  1.00  0.00     0.163 HD
BRANCH   4   7
ATOM      7  C   UNL A   1      30.784  27.121  24.728  1.00  0.00     0.102 C 
ATOM      8  N   UNL A   1      31.373  25.029  25.736  1.00  0.00    -0.336 N 
ATOM      9  C   UNL A   1      30.777  24.713  24.449  1.00  0.00     0.121 C 
ATOM     10  C   UNL A   1      31.421  26.482  25.979  1.00  0.00     0.094 C 
ATOM     11  C   UNL A   1      30.103  25.984  23.973  1.00  0.00     0.037 C 
ATOM     12  C   UNL A   1      32.806  27.042  26.304  1.00  0.00     0.032 C 
BRANCH   8  13
ATOM     13  C   UNL A   1      31.588  23.966  26.591  1.00  0.00     0.263 C 
ATOM     14  O   UNL A   1      30.660  23.537  27.290  1.00  0.00    -0.271 OA
BRANCH  13  15
ATOM     15  C   UNL A   1      32.998  23.389  26.804  1.00  0.00     0.259 C 
ATOM     16  C   UNL A   1      33.122  22.378  27.929  1.00  0.00     0.064 C 
BRANCH  15  17
ATOM     17  O   UNL A   1      33.472  22.841  25.567  1.00  0.00    -0.479 OA
BRANCH  17  18
ATOM     18  C   UNL A   1      34.836  22.733  25.519  1.00  0.00     0.139 A 
ATOM     19  C   UNL A   1      35.636  23.858  25.735  1.00  0.00     0.048 A 
ATOM     20  C   UNL A   1      35.424  21.511  25.178  1.00  0.00     0.083 A 
ATOM     21  C   UNL A   1      37.026  23.746  25.672  1.00  0.00     0.004 A 
ATOM     22  C   UNL A   1      36.813  21.400  25.120  1.00  0.00     0.024 A 
ATOM     23  Cl  UNL A   1      34.469  20.116  24.832  1.00  0.00    -0.080 Cl
ATOM     24  C   UNL A   1      37.614  22.516  25.375  1.00  0.00     0.002 A 
ENDBRANCH  17  18
ENDBRANCH  15  17
ENDBRANCH  13  15
ENDBRANCH   8  13
ENDBRANCH   4   7
ENDBRANCH   2   3
ENDBRANCH   1   2
BRANCH   1  25
ATOM     25  C   UNL A   1      31.410  32.110  26.544  1.00  0.00     0.023 C 
BRANCH  25  26
ATOM     26  C   UNL A   1      32.659  32.734  27.158  1.00  0.00     0.116 C 
BRANCH  26  27
ATOM     27  N   UNL A   1      32.425  34.028  27.784  1.00  0.00    -0.352 N 
ATOM     28  C   UNL A   1      33.183  34.621  28.776  1.00  0.00     0.251 C 
ATOM     29  H   UNL A   1      31.642  34.534  27.468  1.00  0.00     0.163 HD
ATOM     30  O   UNL A   1      32.849  35.674  29.288  1.00  0.00    -0.269 OA
BRANCH  28  31
ATOM     31  C   UNL A   1      34.394  33.906  29.227  1.00  0.00     0.039 A 
ATOM     32  C   UNL A   1      35.647  34.376  28.829  1.00  0.00     0.014 A 
ATOM     33  C   UNL A   1      34.276  32.856  30.139  1.00  0.00     0.014 A 
ATOM     34  C   UNL A   1      36.795  33.839  29.412  1.00  0.00     0.010 A 
ATOM     35  C   UNL A   1      35.415  32.368  30.764  1.00  0.00     0.010 A 
ATOM     36  C   UNL A   1      36.684  32.861  30.413  1.00  0.00    -0.014 A 
BRANCH  36  37
ATOM     37  C   UNL A   1      37.869  32.329  31.130  1.00  0.00     0.031 A 
ATOM     38  C   UNL A   1      38.624  31.171  30.541  1.00  0.00     0.074 A 
ATOM     39  C   UNL A   1      38.178  32.794  32.355  1.00  0.00     0.049 A 
ATOM     40  N   UNL A   1      39.570  30.447  31.076  1.00  0.00    -0.248 NA
ATOM     41  C   UNL A   1      38.236  30.752  29.183  1.00  0.00     0.031 C 
ATOM     42  C   UNL A   1      37.479  33.875  33.055  1.00  0.00     0.029 A 
ATOM     43  N   UNL A   1      39.139  32.391  33.248  1.00  0.00    -0.354 N 
ATOM     44  C   UNL A   1      39.855  29.457  30.145  1.00  0.00     0.074 A 
ATOM     45  C   UNL A   1      38.966  29.658  29.022  1.00  0.00     0.031 C 
ATOM     46  C   UNL A   1      38.035  34.048  34.266  1.00  0.00     0.029 A 
ATOM     47  C   UNL A   1      39.105  33.071  34.443  1.00  0.00     0.049 A 
ATOM     48  H   UNL A   1      39.793  31.681  33.051  1.00  0.00     0.167 HD
ATOM     49  C   UNL A   1      40.794  28.483  30.206  1.00  0.00     0.034 A 
ATOM     50  C   UNL A   1      39.848  32.917  35.557  1.00  0.00     0.034 A 
ATOM     51  C   UNL A   1      41.719  28.330  31.293  1.00  0.00     0.049 A 
ATOM     52  C   UNL A   1      40.919  31.860  35.579  1.00  0.00     0.074 A 
ATOM     53  C   UNL A   1      42.759  27.426  31.418  1.00  0.00     0.029 A 
ATOM     54  N   UNL A   1      41.723  29.110  32.439  1.00  0.00    -0.354 N 
ATOM     55  N   UNL A   1      41.259  31.013  34.638  1.00  0.00    -0.248 NA
ATOM     56  C   UNL A   1      41.727  31.752  36.803  1.00  0.00     0.031 C 
ATOM     57  C   UNL A   1      43.395  27.663  32.640  1.00  0.00     0.029 A 
ATOM     58  C   UNL A   1      42.753  28.716  33.274  1.00  0.00     0.049 A 
ATOM     59  H   UNL A   1      41.087  29.837  32.630  1.00  0.00     0.167 HD
ATOM     60  C   UNL A   1      42.346  30.304  35.136  1.00  0.00     0.074 A 
ATOM     61  C   UNL A   1      42.613  30.825  36.461  1.00  0.00     0.031 C 
ATOM     62  C   UNL A   1      43.051  29.303  34.555  1.00  0.00     0.034 A 
BRANCH  49  63
ATOM     63  C   UNL A   1      40.907  27.556  29.027  1.00  0.00     0.023 A 
ATOM     64  C   UNL A   1      40.119  26.387  28.991  1.00  0.00     0.012 A 
ATOM     65  C   UNL A   1      41.760  27.848  27.945  1.00  0.00     0.148 A 
ATOM     66  C   UNL A   1      40.205  25.505  27.917  1.00  0.00     0.002 A 
ATOM     67  C   UNL A   1      41.811  26.982  26.858  1.00  0.00     0.091 A 
ATOM     68  F   UNL A   1      42.524  28.948  28.008  1.00  0.00    -0.205 F 
ATOM     69  C   UNL A   1      41.043  25.807  26.847  1.00  0.00     0.022 A 
BRANCH  67  70
ATOM     70  S   UNL A   1      42.810  27.333  25.406  1.00  0.00     0.127 S 
ATOM     71  O   UNL A   1      42.113  28.485  24.838  1.00  0.00    -0.237 OA
ATOM     72  O   UNL A   1      44.117  27.640  25.991  1.00  0.00    -0.237 OA
ATOM     73  O   UNL A   1      42.781  26.116  24.608  1.00  0.00    -0.744 OA
ENDBRANCH  67  70
ENDBRANCH  49  63
BRANCH  50  74
ATOM     74  C   UNL A   1      39.666  33.848  36.707  1.00  0.00     0.023 A 
ATOM     75  C   UNL A   1      40.007  35.205  36.543  1.00  0.00     0.012 A 
ATOM     76  C   UNL A   1      39.132  33.420  37.937  1.00  0.00     0.148 A 
ATOM     77  C   UNL A   1      39.840  36.114  37.588  1.00  0.00     0.002 A 
ATOM     78  C   UNL A   1      38.923  34.340  38.959  1.00  0.00     0.091 A 
ATOM     79  F   UNL A   1      38.828  32.121  38.081  1.00  0.00    -0.205 F 
ATOM     80  C   UNL A   1      39.289  35.685  38.791  1.00  0.00     0.022 A 
BRANCH  78  81
ATOM     81  S   UNL A   1      38.104  33.899  40.497  1.00  0.00     0.127 S 
ATOM     82  O   UNL A   1      37.969  35.199  41.148  1.00  0.00    -0.237 OA
ATOM     83  O   UNL A   1      36.850  33.315  40.020  1.00  0.00    -0.237 OA
ATOM     84  O   UNL A   1      38.994  32.948  41.149  1.00  0.00    -0.744 OA
ENDBRANCH  78  81
ENDBRANCH  50  74
BRANCH  62  85
ATOM     85  C   UNL A   1      44.215  28.727  35.313  1.00  0.00     0.023 A 
ATOM     86  C   UNL A   1      45.485  29.325  35.195  1.00  0.00     0.012 A 
ATOM     87  C   UNL A   1      44.022  27.675  36.229  1.00  0.00     0.148 A 
ATOM     88  C   UNL A   1      46.551  28.875  35.972  1.00  0.00     0.002 A 
ATOM     89  C   UNL A   1      45.080  27.259  37.029  1.00  0.00     0.091 A 
ATOM     90  F   UNL A   1      42.808  27.111  36.309  1.00  0.00    -0.205 F 
ATOM     91  C   UNL A   1      46.345  27.853  36.898  1.00  0.00     0.022 A 
BRANCH  89  92
ATOM     92  S   UNL A   1      44.886  26.015  38.311  1.00  0.00     0.127 S 
ATOM     93  O   UNL A   1      46.238  25.944  38.864  1.00  0.00    -0.237 OA
ATOM     94  O   UNL A   1      43.897  26.629  39.194  1.00  0.00    -0.237 OA
ATOM     95  O   UNL A   1      44.427  24.809  37.634  1.00  0.00    -0.744 OA
ENDBRANCH  89  92
ENDBRANCH  62  85
ENDBRANCH  36  37
ENDBRANCH  28  31
ENDBRANCH  26  27
ENDBRANCH  25  26
ENDBRANCH   1  25
TORSDOF 18
ENDMDL
MODEL 2
REMARK VINA RESULT:     -11.8      1.443      7.678
REMARK SMILES C[C@@H](Oc1ccccc1Cl)C(=O)N1CC[C@H](C(=O)NCCCCNC(=O)c2ccc(-c3c4nc(c(-c5cccc(S(=O)(=O)[O-])c5F)c5ccc([nH]5)c(-c5cccc(S(=O)(=O)[O-])c5F)c5nc(c(-c6cccc(S(=O)(=O)[O-])c6F)c6ccc3[nH]6)C=C5)C=C4)cc2)[C@@H]1C
REMARK SMILES IDX 21 1 20 2 19 3 17 4 18 5 16 7 13 8 14 9 90 10 15 11 91 12
REMARK SMILES IDX 11 13 12 14 2 15 1 16 3 17 4 18 5 19 9 20 6 21 8 22 10 23
REMARK SMILES IDX 7 24 22 25 23 26 24 27 25 28 26 30 27 31 28 32 89 33 29 34
REMARK SMILES IDX 88 35 30 36 31 37 32 38 82 39 33 40 87 41 81 42 83 43 34 44
REMARK SMILES IDX 86 45 80 46 79 47 35 49 67 50 47 51 66 52 48 53 51 54 65 55
REMARK SMILES IDX 84 56 49 57 50 58 64 60 85 61 52 62 36 63 37 64 45 65 38 66
REMARK SMILES IDX 40 67 46 68 39 69 41 70 42 71 43 72 44 73 68 74 69 75 77 76
REMARK SMILES IDX 70 77 72 78 78 79 71 80 73 81 74 82 75 83 76 84 53 85 54 86
REMARK SMILES IDX 62 87 55 88 57 89 63 90 56 91 58 92 59 93 60 94 61 95
REMARK H PARENT 19 6 24 29 83 48 51 59
REMARK Flexibility Score: inf
ROOT
ATOM      1  C   UNL A   1      31.766  30.572  26.362  1.00  0.00     0.023 C 
ENDROOT
BRANCH   1   2
ATOM      2  C   UNL A   1      31.050  30.379  25.029  1.00  0.00     0.116 C 
BRANCH   2   3
ATOM      3  N   UNL A   1      31.747  29.464  24.149  1.00  0.00    -0.356 N 
ATOM      4  C   UNL A   1      31.657  28.119  23.992  1.00  0.00     0.225 C 
ATOM      5  O   UNL A   1      32.302  27.624  23.060  1.00  0.00    -0.275 OA
ATOM      6  H   UNL A   1      32.404  29.896  23.558  1.00  0.00     0.163 HD
BRANCH   4   7
ATOM      7  C   UNL A   1      30.823  27.199  24.884  1.00  0.00     0.102 C 
ATOM      8  N   UNL A   1      31.364  25.051  25.796  1.00  0.00    -0.336 N 
ATOM      9  C   UNL A   1      30.687  24.805  24.536  1.00  0.00     0.121 C 
ATOM     10  C   UNL A   1      31.494  26.492  26.079  1.00  0.00     0.094 C 
ATOM     11  C   UNL A   1      30.049  26.120  24.134  1.00  0.00     0.037 C 
ATOM     12  C   UNL A   1      32.920  26.977  26.344  1.00  0.00     0.032 C 
BRANCH   8  13
ATOM     13  C   UNL A   1      31.574  23.953  26.607  1.00  0.00     0.263 C 
ATOM     14  O   UNL A   1      30.650  23.514  27.306  1.00  0.00    -0.271 OA
BRANCH  13  15
ATOM     15  C   UNL A   1      32.976  23.342  26.773  1.00  0.00     0.259 C 
ATOM     16  C   UNL A   1      33.184  22.528  28.036  1.00  0.00     0.064 C 
BRANCH  15  17
ATOM     17  O   UNL A   1      33.291  22.569  25.606  1.00  0.00    -0.479 OA
BRANCH  17  18
ATOM     18  C   UNL A   1      34.636  22.503  25.358  1.00  0.00     0.139 A 
ATOM     19  C   UNL A   1      35.423  23.654  25.453  1.00  0.00     0.048 A 
ATOM     20  C   UNL A   1      35.204  21.299  24.932  1.00  0.00     0.083 A 
ATOM     21  C   UNL A   1      36.791  23.584  25.186  1.00  0.00     0.004 A 
ATOM     22  C   UNL A   1      36.573  21.231  24.670  1.00  0.00     0.024 A 
ATOM     23  Cl  UNL A   1      34.253  19.874  24.730  1.00  0.00    -0.080 Cl
ATOM     24  C   UNL A   1      37.368  22.372  24.804  1.00  0.00     0.002 A 
ENDBRANCH  17  18
ENDBRANCH  15  17
ENDBRANCH  13  15
ENDBRANCH   8  13
ENDBRANCH   4   7
ENDBRANCH   2   3
ENDBRANCH   1   2
BRANCH   1  25
ATOM     25  C   UNL A   1      31.586  31.960  26.976  1.00  0.00     0.023 C 
BRANCH  25  26
ATOM     26  C   UNL A   1      32.771  32.902  26.789  1.00  0.00     0.116 C 
BRANCH  26  27
ATOM     27  N   UNL A   1      32.675  34.131  27.564  1.00  0.00    -0.352 N 
ATOM     28  C   UNL A   1      33.500  34.529  28.599  1.00  0.00     0.251 C 
ATOM     29  H   UNL A   1      31.943  34.745  27.326  1.00  0.00     0.163 HD
ATOM     30  O   UNL A   1      33.279  35.542  29.236  1.00  0.00    -0.269 OA
BRANCH  28  31
ATOM     31  C   UNL A   1      34.639  33.651  28.937  1.00  0.00     0.039 A 
ATOM     32  C   UNL A   1      35.937  34.150  28.822  1.00  0.00     0.014 A 
ATOM     33  C   UNL A   1      34.399  32.389  29.483  1.00  0.00     0.014 A 
ATOM     34  C   UNL A   1      37.003  33.408  29.332  1.00  0.00     0.010 A 
ATOM     35  C   UNL A   1      35.452  31.681  30.046  1.00  0.00     0.010 A 
ATOM     36  C   UNL A   1      36.762  32.188  29.984  1.00  0.00    -0.014 A 
BRANCH  36  37
ATOM     37  C   UNL A   1      37.848  31.409  30.626  1.00  0.00     0.031 A 
ATOM     38  C   UNL A   1      38.231  31.714  32.046  1.00  0.00     0.074 A 
ATOM     39  C   UNL A   1      38.568  30.535  29.897  1.00  0.00     0.049 A 
ATOM     40  N   UNL A   1      39.252  31.282  32.736  1.00  0.00    -0.248 NA
ATOM     41  C   UNL A   1      37.367  32.660  32.774  1.00  0.00     0.031 C 
ATOM     42  C   UNL A   1      38.329  30.200  28.492  1.00  0.00     0.029 A 
ATOM     43  N   UNL A   1      39.674  29.792  30.229  1.00  0.00    -0.354 N 
ATOM     44  C   UNL A   1      39.185  31.940  33.957  1.00  0.00     0.074 A 
ATOM     45  C   UNL A   1      38.036  32.818  33.906  1.00  0.00     0.031 C 
ATOM     46  C   UNL A   1      39.259  29.321  28.083  1.00  0.00     0.029 A 
ATOM     47  C   UNL A   1      40.179  29.054  29.184  1.00  0.00     0.049 A 
ATOM     48  H   UNL A   1      40.069  29.789  31.131  1.00  0.00     0.167 HD
ATOM     49  C   UNL A   1      39.990  31.804  35.037  1.00  0.00     0.034 A 
ATOM     50  C   UNL A   1      41.267  28.260  29.121  1.00  0.00     0.034 A 
ATOM     51  C   UNL A   1      41.088  30.882  35.106  1.00  0.00     0.049 A 
ATOM     52  C   UNL A   1      42.116  28.087  30.352  1.00  0.00     0.074 A 
ATOM     53  C   UNL A   1      41.917  30.610  36.179  1.00  0.00     0.029 A 
ATOM     54  N   UNL A   1      41.501  30.070  34.061  1.00  0.00    -0.354 N 
ATOM     55  N   UNL A   1      41.963  28.621  31.540  1.00  0.00    -0.248 NA
ATOM     56  C   UNL A   1      43.271  27.183  30.245  1.00  0.00     0.031 C 
ATOM     57  C   UNL A   1      42.832  29.628  35.783  1.00  0.00     0.029 A 
ATOM     58  C   UNL A   1      42.568  29.288  34.465  1.00  0.00     0.049 A 
ATOM     59  H   UNL A   1      41.094  30.052  33.164  1.00  0.00     0.167 HD
ATOM     60  C   UNL A   1      42.971  28.086  32.333  1.00  0.00     0.074 A 
ATOM     61  C   UNL A   1      43.727  27.180  31.491  1.00  0.00     0.031 C 
ATOM     62  C   UNL A   1      43.255  28.333  33.634  1.00  0.00     0.034 A 
BRANCH  49  63
ATOM     63  C   UNL A   1      39.662  32.626  36.253  1.00  0.00     0.023 A 
ATOM     64  C   UNL A   1      40.264  33.891  36.413  1.00  0.00     0.012 A 
ATOM     65  C   UNL A   1      38.742  32.172  37.218  1.00  0.00     0.148 A 
ATOM     66  C   UNL A   1      39.986  34.674  37.531  1.00  0.00     0.002 A 
ATOM     67  C   UNL A   1      38.439  32.976  38.311  1.00  0.00     0.091 A 
ATOM     68  F   UNL A   1      38.200  30.954  37.066  1.00  0.00    -0.205 F 
ATOM     69  C   UNL A   1      39.067  34.222  38.474  1.00  0.00     0.022 A 
BRANCH  67  70
ATOM     70  S   UNL A   1      37.213  32.500  39.535  1.00  0.00     0.127 S 
ATOM     71  O   UNL A   1      37.303  33.604  40.488  1.00  0.00    -0.237 OA
ATOM     72  O   UNL A   1      35.978  32.473  38.749  1.00  0.00    -0.237 OA
ATOM     73  O   UNL A   1      37.638  31.198  40.028  1.00  0.00    -0.744 OA
ENDBRANCH  67  70
ENDBRANCH  49  63
BRANCH  50  74
ATOM     74  C   UNL A   1      41.558  27.495  27.875  1.00  0.00     0.023 A 
ATOM     75  C   UNL A   1      42.018  28.191  26.741  1.00  0.00     0.012 A 
ATOM     76  C   UNL A   1      41.423  26.095  27.811  1.00  0.00     0.148 A 
ATOM     77  C   UNL A   1      42.316  27.513  25.559  1.00  0.00     0.002 A 
ATOM     78  C   UNL A   1      41.767  25.419  26.645  1.00  0.00     0.091 A 
ATOM     79  F   UNL A   1      40.969  25.449  28.896  1.00  0.00    -0.205 F 
ATOM     80  C   UNL A   1      42.201  26.127  25.514  1.00  0.00     0.022 A 
BRANCH  78  81
ATOM     81  S   UNL A   1      41.768  23.625  26.539  1.00  0.00     0.127 S 
ATOM     82  O   UNL A   1      40.345  23.332  26.402  1.00  0.00    -0.237 OA
ATOM     83  O   UNL A   1      42.566  23.389  25.335  1.00  0.00    -0.237 OA
ATOM     84  O   UNL A   1      42.399  23.165  27.770  1.00  0.00    -0.744 OA
ENDBRANCH  78  81
ENDBRANCH  50  74
BRANCH  62  85
ATOM     85  C   UNL A   1      44.397  27.583  34.262  1.00  0.00     0.023 A 
ATOM     86  C   UNL A   1      45.676  28.171  34.303  1.00  0.00     0.012 A 
ATOM     87  C   UNL A   1      44.174  26.355  34.914  1.00  0.00     0.148 A 
ATOM     88  C   UNL A   1      46.721  27.541  34.976  1.00  0.00     0.002 A 
ATOM     89  C   UNL A   1      45.210  25.753  35.618  1.00  0.00     0.091 A 
ATOM     90  F   UNL A   1      42.952  25.807  34.845  1.00  0.00    -0.205 F 
ATOM     91  C   UNL A   1      46.485  26.340  35.645  1.00  0.00     0.022 A 
BRANCH  89  92
ATOM     92  S   UNL A   1      44.977  24.256  36.583  1.00  0.00     0.127 S 
ATOM     93  O   UNL A   1      44.287  23.390  35.629  1.00  0.00    -0.237 OA
ATOM     94  O   UNL A   1      46.352  23.861  36.882  1.00  0.00    -0.237 OA
ATOM     95  O   UNL A   1      44.193  24.647  37.748  1.00  0.00    -0.744 OA
ENDBRANCH  89  92
ENDBRANCH  62  85
ENDBRANCH  36  37
ENDBRANCH  28  31
ENDBRANCH  26  27
ENDBRANCH  25  26
ENDBRANCH   1  25
TORSDOF 18
ENDMDL
MODEL 3
REMARK VINA RESULT:     -11.5      2.424      3.129
REMARK SMILES C[C@@H](Oc1ccccc1Cl)C(=O)N1CC[C@H](C(=O)NCCCCNC(=O)c2ccc(-c3c4nc(c(-c5cccc(S(=O)(=O)[O-])c5F)c5ccc([nH]5)c(-c5cccc(S(=O)(=O)[O-])c5F)c5nc(c(-c6cccc(S(=O)(=O)[O-])c6F)c6ccc3[nH]6)C=C5)C=C4)cc2)[C@@H]1C
REMARK SMILES IDX 21 1 20 2 19 3 17 4 18 5 16 7 13 8 14 9 90 10 15 11 91 12
REMARK SMILES IDX 11 13 12 14 2 15 1 16 3 17 4 18 5 19 9 20 6 21 8 22 10 23
REMARK SMILES IDX 7 24 22 25 23 26 24 27 25 28 26 30 27 31 28 32 89 33 29 34
REMARK SMILES IDX 88 35 30 36 31 37 32 38 82 39 33 40 87 41 81 42 83 43 34 44
REMARK SMILES IDX 86 45 80 46 79 47 35 49 67 50 47 51 66 52 48 53 51 54 65 55
REMARK SMILES IDX 84 56 49 57 50 58 64 60 85 61 52 62 36 63 37 64 45 65 38 66
REMARK SMILES IDX 40 67 46 68 39 69 41 70 42 71 43 72 44 73 68 74 69 75 77 76
REMARK SMILES IDX 70 77 72 78 78 79 71 80 73 81 74 82 75 83 76 84 53 85 54 86
REMARK SMILES IDX 62 87 55 88 57 89 63 90 56 91 58 92 59 93 60 94 61 95
REMARK H PARENT 19 6 24 29 83 48 51 59
REMARK Flexibility Score: inf
ROOT
ATOM      1  C   UNL A   1      31.205  29.456  24.485  1.00  0.00     0.023 C 
ENDROOT
BRANCH   1   2
ATOM      2  C   UNL A   1      31.098  28.265  23.538  1.00  0.00     0.116 C 
BRANCH   2   3
ATOM      3  N   UNL A   1      32.341  27.988  22.849  1.00  0.00    -0.356 N 
ATOM      4  C   UNL A   1      32.954  26.820  22.527  1.00  0.00     0.225 C 
ATOM      5  O   UNL A   1      33.963  26.899  21.818  1.00  0.00    -0.275 OA
ATOM      6  H   UNL A   1      32.830  28.792  22.562  1.00  0.00     0.163 HD
BRANCH   4   7
ATOM      7  C   UNL A   1      32.480  25.442  22.985  1.00  0.00     0.102 C 
ATOM      8  N   UNL A   1      33.723  23.643  23.965  1.00  0.00    -0.336 N 
ATOM      9  C   UNL A   1      33.720  23.410  22.532  1.00  0.00     0.121 C 
ATOM     10  C   UNL A   1      32.990  24.871  24.324  1.00  0.00     0.094 C 
ATOM     11  C   UNL A   1      32.665  24.333  21.955  1.00  0.00     0.037 C 
ATOM     12  C   UNL A   1      33.785  25.886  25.148  1.00  0.00     0.032 C 
BRANCH   8  13
ATOM     13  C   UNL A   1      34.194  22.613  24.755  1.00  0.00     0.263 C 
ATOM     14  O   UNL A   1      35.354  22.203  24.609  1.00  0.00    -0.271 OA
BRANCH  13  15
ATOM     15  C   UNL A   1      33.264  21.861  25.722  1.00  0.00     0.259 C 
ATOM     16  C   UNL A   1      32.753  22.675  26.897  1.00  0.00     0.064 C 
BRANCH  15  17
ATOM     17  O   UNL A   1      32.177  21.293  24.980  1.00  0.00    -0.479 OA
BRANCH  17  18
ATOM     18  C   UNL A   1      32.410  19.998  24.600  1.00  0.00     0.139 A 
ATOM     19  C   UNL A   1      32.815  19.052  25.547  1.00  0.00     0.048 A 
ATOM     20  C   UNL A   1      32.316  19.643  23.252  1.00  0.00     0.083 A 
ATOM     21  C   UNL A   1      33.063  17.737  25.152  1.00  0.00     0.004 A 
ATOM     22  C   UNL A   1      32.562  18.326  22.861  1.00  0.00     0.024 A 
ATOM     23  Cl  UNL A   1      31.891  20.798  22.042  1.00  0.00    -0.080 Cl
ATOM     24  C   UNL A   1      32.927  17.372  23.813  1.00  0.00     0.002 A 
ENDBRANCH  17  18
ENDBRANCH  15  17
ENDBRANCH  13  15
ENDBRANCH   8  13
ENDBRANCH   4   7
ENDBRANCH   2   3
ENDBRANCH   1   2
BRANCH   1  25
ATOM     25  C   UNL A   1      32.557  29.580  25.187  1.00  0.00     0.023 C 
BRANCH  25  26
ATOM     26  C   UNL A   1      32.484  30.008  26.649  1.00  0.00     0.116 C 
BRANCH  26  27
ATOM     27  N   UNL A   1      32.196  31.423  26.835  1.00  0.00    -0.352 N 
ATOM     28  C   UNL A   1      33.016  32.370  27.419  1.00  0.00     0.251 C 
ATOM     29  H   UNL A   1      31.321  31.740  26.512  1.00  0.00     0.163 HD
ATOM     30  O   UNL A   1      32.641  33.513  27.599  1.00  0.00    -0.269 OA
BRANCH  28  31
ATOM     31  C   UNL A   1      34.355  31.930  27.861  1.00  0.00     0.039 A 
ATOM     32  C   UNL A   1      35.396  32.859  27.897  1.00  0.00     0.014 A 
ATOM     33  C   UNL A   1      34.529  30.635  28.353  1.00  0.00     0.014 A 
ATOM     34  C   UNL A   1      36.603  32.511  28.506  1.00  0.00     0.010 A 
ATOM     35  C   UNL A   1      35.706  30.312  29.012  1.00  0.00     0.010 A 
ATOM     36  C   UNL A   1      36.750  31.249  29.104  1.00  0.00    -0.014 A 
BRANCH  36  37
ATOM     37  C   UNL A   1      37.977  30.866  29.844  1.00  0.00     0.031 A 
ATOM     38  C   UNL A   1      38.926  29.876  29.231  1.00  0.00     0.074 A 
ATOM     39  C   UNL A   1      38.164  31.302  31.104  1.00  0.00     0.049 A 
ATOM     40  N   UNL A   1      39.955  29.278  29.769  1.00  0.00    -0.248 NA
ATOM     41  C   UNL A   1      38.658  29.481  27.837  1.00  0.00     0.031 C 
ATOM     42  C   UNL A   1      37.279  32.217  31.827  1.00  0.00     0.029 A 
ATOM     43  N   UNL A   1      39.144  31.002  32.017  1.00  0.00    -0.354 N 
ATOM     44  C   UNL A   1      40.425  28.400  28.802  1.00  0.00     0.074 A 
ATOM     45  C   UNL A   1      39.557  28.526  27.652  1.00  0.00     0.031 C 
ATOM     46  C   UNL A   1      37.756  32.404  33.069  1.00  0.00     0.029 A 
ATOM     47  C   UNL A   1      38.959  31.597  33.244  1.00  0.00     0.049 A 
ATOM     48  H   UNL A   1      39.908  30.414  31.813  1.00  0.00     0.167 HD
ATOM     49  C   UNL A   1      41.503  27.582  28.854  1.00  0.00     0.034 A 
ATOM     50  C   UNL A   1      39.676  31.495  34.381  1.00  0.00     0.034 A 
ATOM     51  C   UNL A   1      42.400  27.511  29.973  1.00  0.00     0.049 A 
ATOM     52  C   UNL A   1      40.899  30.618  34.396  1.00  0.00     0.074 A 
ATOM     53  C   UNL A   1      43.564  26.774  30.097  1.00  0.00     0.029 A 
ATOM     54  N   UNL A   1      42.240  28.214  31.156  1.00  0.00    -0.354 N 
ATOM     55  N   UNL A   1      41.402  29.890  33.428  1.00  0.00    -0.248 NA
ATOM     56  C   UNL A   1      41.669  30.566  35.647  1.00  0.00     0.031 C 
ATOM     57  C   UNL A   1      44.111  27.036  31.357  1.00  0.00     0.029 A 
ATOM     58  C   UNL A   1      43.288  27.937  32.015  1.00  0.00     0.049 A 
ATOM     59  H   UNL A   1      41.491  28.821  31.357  1.00  0.00     0.167 HD
ATOM     60  C   UNL A   1      42.569  29.331  33.937  1.00  0.00     0.074 A 
ATOM     61  C   UNL A   1      42.701  29.810  35.298  1.00  0.00     0.031 C 
ATOM     62  C   UNL A   1      43.443  28.488  33.337  1.00  0.00     0.034 A 
BRANCH  49  63
ATOM     63  C   UNL A   1      41.803  26.754  27.635  1.00  0.00     0.023 A 
ATOM     64  C   UNL A   1      42.361  27.377  26.499  1.00  0.00     0.012 A 
ATOM     65  C   UNL A   1      41.568  25.366  27.616  1.00  0.00     0.148 A 
ATOM     66  C   UNL A   1      42.645  26.639  25.353  1.00  0.00     0.002 A 
ATOM     67  C   UNL A   1      41.891  24.629  26.482  1.00  0.00     0.091 A 
ATOM     68  F   UNL A   1      41.010  24.794  28.693  1.00  0.00    -0.205 F 
ATOM     69  C   UNL A   1      42.420  25.266  25.347  1.00  0.00     0.022 A 
BRANCH  67  70
ATOM     70  S   UNL A   1      41.699  22.844  26.416  1.00  0.00     0.127 S 
ATOM     71  O   UNL A   1      42.372  22.520  25.161  1.00  0.00    -0.237 OA
ATOM     72  O   UNL A   1      42.411  22.407  27.619  1.00  0.00    -0.237 OA
ATOM     73  O   UNL A   1      40.264  22.604  26.449  1.00  0.00    -0.744 OA
ENDBRANCH  67  70
ENDBRANCH  49  63
BRANCH  50  74
ATOM     74  C   UNL A   1      39.309  32.318  35.568  1.00  0.00     0.023 A 
ATOM     75  C   UNL A   1      38.529  31.735  36.585  1.00  0.00     0.012 A 
ATOM     76  C   UNL A   1      39.749  33.647  35.719  1.00  0.00     0.148 A 
ATOM     77  C   UNL A   1      38.174  32.464  37.720  1.00  0.00     0.002 A 
ATOM     78  C   UNL A   1      39.433  34.353  36.875  1.00  0.00     0.091 A 
ATOM     79  F   UNL A   1      40.478  34.192  34.734  1.00  0.00    -0.205 F 
ATOM     80  C   UNL A   1      38.634  33.769  37.870  1.00  0.00     0.022 A 
BRANCH  78  81
ATOM     81  S   UNL A   1      40.086  35.994  37.208  1.00  0.00     0.127 S 
ATOM     82  O   UNL A   1      39.384  36.353  38.436  1.00  0.00    -0.237 OA
ATOM     83  O   UNL A   1      41.516  35.728  37.369  1.00  0.00    -0.237 OA
ATOM     84  O   UNL A   1      39.758  36.787  36.030  1.00  0.00    -0.744 OA
ENDBRANCH  78  81
ENDBRANCH  50  74
BRANCH  62  85
ATOM     85  C   UNL A   1      44.655  28.056  34.116  1.00  0.00     0.023 A 
ATOM     86  C   UNL A   1      45.823  28.842  34.074  1.00  0.00     0.012 A 
ATOM     87  C   UNL A   1      44.593  26.944  34.978  1.00  0.00     0.148 A 
ATOM     88  C   UNL A   1      46.919  28.520  34.874  1.00  0.00     0.002 A 
ATOM     89  C   UNL A   1      45.674  26.653  35.801  1.00  0.00     0.091 A 
ATOM     90  F   UNL A   1      43.476  26.202  34.985  1.00  0.00    -0.205 F 
ATOM     91  C   UNL A   1      46.839  27.435  35.746  1.00  0.00     0.022 A 
BRANCH  89  92
ATOM     92  S   UNL A   1      45.629  25.334  37.020  1.00  0.00     0.127 S 
ATOM     93  O   UNL A   1      44.460  25.703  37.815  1.00  0.00    -0.237 OA
ATOM     94  O   UNL A   1      45.450  24.146  36.186  1.00  0.00    -0.237 OA
ATOM     95  O   UNL A   1      46.904  25.392  37.723  1.00  0.00    -0.744 OA
ENDBRANCH  89  92
ENDBRANCH  62  85
ENDBRANCH  36  37
ENDBRANCH  28  31
ENDBRANCH  26  27
ENDBRANCH  25  26
ENDBRANCH   1  25
TORSDOF 18
ENDMDL
