MODEL 1
REMARK VINA RESULT:     -11.9      0.000      0.000
REMARK SMILES CCc1cccc(CC)c1N1/C(=[NH+]/C(=O)CCCC(=O)NCCCCNC(=O)c2ccc(-c3c4nc(c(-c5cccc(S(=O)(=O)[O-])c5F)c5ccc([nH]5)c(-c5cccc(S(=O)(=O)[O-])c5F)c5nc(c(-c6cccc(S(=O)(=O)[O-])c6F)c6ccc3[nH]6)C=C5)C=C4)cc2)S[C@@H]2CS(=O)(=O)C[C@@H]21
REMARK SMILES IDX 22 1 21 2 19 3 20 4 18 6 17 7 16 8 14 9 11 10 12 11 99 12
REMARK SMILES IDX 13 13 92 14 93 15 98 16 94 18 95 19 15 20 96 21 97 22 10 23
REMARK SMILES IDX 3 24 4 25 5 26 7 27 6 28 2 29 1 30 8 31 9 32 23 33 24 34
REMARK SMILES IDX 25 35 26 36 27 37 28 39 29 40 30 41 91 42 31 43 90 44 32 45
REMARK SMILES IDX 33 46 34 47 84 48 35 49 89 50 83 51 85 52 36 53 88 54 82 55
REMARK SMILES IDX 81 56 37 58 69 59 49 60 68 61 50 62 53 63 67 64 86 65 51 66
REMARK SMILES IDX 52 67 66 69 87 70 54 71 38 72 39 73 47 74 40 75 42 76 48 77
REMARK SMILES IDX 41 78 43 79 44 80 45 81 46 82 70 83 71 84 79 85 72 86 74 87
REMARK SMILES IDX 80 88 73 89 75 90 76 91 77 92 78 93 55 94 56 95 64 96 57 97
REMARK SMILES IDX 59 98 65 99 58 100 60 101 61 102 62 103 63 104
REMARK H PARENT 21 5 13 17 26 38 85 57 53 68
REMARK Flexibility Score: inf
ROOT
ATOM      1  C   UNL A   1      32.861  26.210  24.489  1.00  0.00     0.116 C 
ENDROOT
BRANCH   1   2
ATOM      2  N   UNL A   1      31.968  27.318  24.245  1.00  0.00    -0.356 N 
ATOM      3  C   UNL A   1      30.616  27.306  24.087  1.00  0.00     0.220 C 
ATOM      4  O   UNL A   1      30.044  28.350  23.774  1.00  0.00    -0.275 OA
ATOM      5  H   UNL A   1      32.395  28.203  24.183  1.00  0.00     0.163 HD
BRANCH   3   6
ATOM      6  C   UNL A   1      29.830  26.041  24.361  1.00  0.00     0.100 C 
BRANCH   6   7
ATOM      7  C   UNL A   1      29.394  25.781  25.802  1.00  0.00     0.022 C 
BRANCH   7   8
ATOM      8  C   UNL A   1      29.635  24.405  26.424  1.00  0.00     0.128 C 
BRANCH   8   9
ATOM      9  C   UNL A   1      31.068  23.951  26.694  1.00  0.00     0.307 C 
ATOM     10  N   UNL A   1      33.228  21.275  25.408  1.00  0.00    -0.216 N 
ATOM     11  C   UNL A   1      32.543  22.177  26.230  1.00  0.00     0.319 C 
ATOM     12  C   UNL A   1      34.615  20.953  25.832  1.00  0.00     0.212 C 
ATOM     13  N   UNL A   1      31.526  22.912  25.920  1.00  0.00    -0.204 N 
ATOM     14  S   UNL A   1      33.403  22.238  27.785  1.00  0.00    -0.029 SA
ATOM     15  C   UNL A   1      34.971  21.964  26.938  1.00  0.00     0.120 C 
ATOM     16  C   UNL A   1      35.673  21.073  24.735  1.00  0.00     0.188 C 
ATOM     17  H   UNL A   1      31.051  22.715  25.081  1.00  0.00     0.316 HD
ATOM     18  C   UNL A   1      35.434  23.244  26.260  1.00  0.00     0.156 C 
ATOM     19  S   UNL A   1      36.474  22.647  24.962  1.00  0.00     0.155 S 
ATOM     20  O   UNL A   1      31.721  24.557  27.543  1.00  0.00    -0.247 OA
ATOM     21  O   UNL A   1      36.289  23.473  23.792  1.00  0.00    -0.229 OA
ATOM     22  O   UNL A   1      37.788  22.405  25.529  1.00  0.00    -0.229 OA
BRANCH  10  23
ATOM     23  C   UNL A   1      32.714  20.604  24.270  1.00  0.00     0.134 A 
ATOM     24  C   UNL A   1      32.421  21.313  23.070  1.00  0.00    -0.001 A 
ATOM     25  C   UNL A   1      32.014  20.607  21.917  1.00  0.00     0.008 A 
ATOM     26  C   UNL A   1      31.969  19.223  21.894  1.00  0.00     0.001 A 
ATOM     27  C   UNL A   1      32.584  19.178  24.253  1.00  0.00    -0.001 A 
ATOM     28  C   UNL A   1      32.267  18.517  23.047  1.00  0.00     0.008 A 
BRANCH  24  29
ATOM     29  C   UNL A   1      32.562  22.814  22.911  1.00  0.00     0.036 C 
ATOM     30  C   UNL A   1      33.355  23.225  21.679  1.00  0.00     0.009 C 
ENDBRANCH  24  29
BRANCH  27  31
ATOM     31  C   UNL A   1      32.793  18.288  25.470  1.00  0.00     0.036 C 
ATOM     32  C   UNL A   1      32.713  16.788  25.189  1.00  0.00     0.009 C 
ENDBRANCH  27  31
ENDBRANCH  10  23
ENDBRANCH   8   9
ENDBRANCH   7   8
ENDBRANCH   6   7
ENDBRANCH   3   6
ENDBRANCH   1   2
BRANCH   1  33
ATOM     33  C   UNL A   1      33.733  26.483  25.713  1.00  0.00     0.023 C 
BRANCH  33  34
ATOM     34  C   UNL A   1      33.373  27.763  26.448  1.00  0.00     0.023 C 
BRANCH  34  35
ATOM     35  C   UNL A   1      34.379  28.880  26.242  1.00  0.00     0.116 C 
BRANCH  35  36
ATOM     36  N   UNL A   1      33.933  30.171  26.749  1.00  0.00    -0.352 N 
ATOM     37  C   UNL A   1      34.531  30.937  27.721  1.00  0.00     0.251 C 
ATOM     38  H   UNL A   1      33.110  30.535  26.350  1.00  0.00     0.163 HD
ATOM     39  O   UNL A   1      33.996  31.959  28.136  1.00  0.00    -0.269 OA
BRANCH  37  40
ATOM     40  C   UNL A   1      35.821  30.481  28.277  1.00  0.00     0.039 A 
ATOM     41  C   UNL A   1      35.824  29.624  29.377  1.00  0.00     0.014 A 
ATOM     42  C   UNL A   1      37.018  30.840  27.651  1.00  0.00     0.014 A 
ATOM     43  C   UNL A   1      37.035  29.097  29.826  1.00  0.00     0.010 A 
ATOM     44  C   UNL A   1      38.200  30.218  28.022  1.00  0.00     0.010 A 
ATOM     45  C   UNL A   1      38.230  29.374  29.140  1.00  0.00    -0.014 A 
BRANCH  45  46
ATOM     46  C   UNL A   1      39.530  28.845  29.621  1.00  0.00     0.031 A 
ATOM     47  C   UNL A   1      40.224  29.520  30.778  1.00  0.00     0.074 A 
ATOM     48  C   UNL A   1      40.107  27.797  28.999  1.00  0.00     0.049 A 
ATOM     49  N   UNL A   1      41.358  29.212  31.350  1.00  0.00    -0.248 NA
ATOM     50  C   UNL A   1      39.578  30.716  31.352  1.00  0.00     0.031 C 
ATOM     51  C   UNL A   1      39.582  27.119  27.811  1.00  0.00     0.029 A 
ATOM     52  N   UNL A   1      41.272  27.128  29.274  1.00  0.00    -0.354 N 
ATOM     53  C   UNL A   1      41.579  30.194  32.309  1.00  0.00     0.074 A 
ATOM     54  C   UNL A   1      40.488  31.135  32.217  1.00  0.00     0.031 C 
ATOM     55  C   UNL A   1      40.413  26.118  27.472  1.00  0.00     0.029 A 
ATOM     56  C   UNL A   1      41.540  26.100  28.398  1.00  0.00     0.049 A 
ATOM     57  H   UNL A   1      41.863  27.361  30.026  1.00  0.00     0.167 HD
ATOM     58  C   UNL A   1      42.578  30.285  33.216  1.00  0.00     0.034 A 
ATOM     59  C   UNL A   1      42.578  25.241  28.353  1.00  0.00     0.034 A 
ATOM     60  C   UNL A   1      43.626  29.313  33.350  1.00  0.00     0.049 A 
ATOM     61  C   UNL A   1      43.639  25.329  29.419  1.00  0.00     0.074 A 
ATOM     62  C   UNL A   1      44.627  29.256  34.303  1.00  0.00     0.029 A 
ATOM     63  N   UNL A   1      43.811  28.231  32.505  1.00  0.00    -0.354 N 
ATOM     64  N   UNL A   1      43.732  26.163  30.428  1.00  0.00    -0.248 NA
ATOM     65  C   UNL A   1      44.714  24.330  29.368  1.00  0.00     0.031 C 
ATOM     66  C   UNL A   1      45.441  28.158  34.012  1.00  0.00     0.029 A 
ATOM     67  C   UNL A   1      44.918  27.506  32.906  1.00  0.00     0.049 A 
ATOM     68  H   UNL A   1      43.241  28.012  31.734  1.00  0.00     0.167 HD
ATOM     69  C   UNL A   1      44.847  25.759  31.153  1.00  0.00     0.074 A 
ATOM     70  C   UNL A   1      45.378  24.589  30.485  1.00  0.00     0.031 C 
ATOM     71  C   UNL A   1      45.396  26.312  32.262  1.00  0.00     0.034 A 
BRANCH  58  72
ATOM     72  C   UNL A   1      42.566  31.448  34.171  1.00  0.00     0.023 A 
ATOM     73  C   UNL A   1      43.311  32.608  33.876  1.00  0.00     0.012 A 
ATOM     74  C   UNL A   1      41.748  31.424  35.317  1.00  0.00     0.148 A 
ATOM     75  C   UNL A   1      43.261  33.717  34.718  1.00  0.00     0.002 A 
ATOM     76  C   UNL A   1      41.664  32.551  36.124  1.00  0.00     0.091 A 
ATOM     77  F   UNL A   1      41.068  30.302  35.591  1.00  0.00    -0.205 F 
ATOM     78  C   UNL A   1      42.427  33.694  35.833  1.00  0.00     0.022 A 
BRANCH  76  79
ATOM     79  S   UNL A   1      40.557  32.654  37.534  1.00  0.00     0.127 S 
ATOM     80  O   UNL A   1      40.230  34.080  37.548  1.00  0.00    -0.237 OA
ATOM     81  O   UNL A   1      39.459  31.781  37.122  1.00  0.00    -0.237 OA
ATOM     82  O   UNL A   1      41.318  32.184  38.682  1.00  0.00    -0.744 OA
ENDBRANCH  76  79
ENDBRANCH  58  72
BRANCH  59  83
ATOM     83  C   UNL A   1      42.650  24.188  27.300  1.00  0.00     0.023 A 
ATOM     84  C   UNL A   1      43.282  24.471  26.071  1.00  0.00     0.012 A 
ATOM     85  C   UNL A   1      42.071  22.920  27.495  1.00  0.00     0.148 A 
ATOM     86  C   UNL A   1      43.280  23.533  25.037  1.00  0.00     0.002 A 
ATOM     87  C   UNL A   1      42.128  21.970  26.483  1.00  0.00     0.091 A 
ATOM     88  F   UNL A   1      41.468  22.672  28.665  1.00  0.00    -0.205 F 
ATOM     89  C   UNL A   1      42.710  22.281  25.245  1.00  0.00     0.022 A 
BRANCH  87  90
ATOM     90  S   UNL A   1      41.532  20.292  26.713  1.00  0.00     0.127 S 
ATOM     91  O   UNL A   1      40.106  20.507  26.938  1.00  0.00    -0.237 OA
ATOM     92  O   UNL A   1      41.869  19.673  25.430  1.00  0.00    -0.237 OA
ATOM     93  O   UNL A   1      42.282  19.763  27.845  1.00  0.00    -0.744 OA
ENDBRANCH  87  90
ENDBRANCH  59  83
BRANCH  71  94
ATOM     94  C   UNL A   1      46.597  25.627  32.861  1.00  0.00     0.023 A 
ATOM     95  C   UNL A   1      47.897  26.032  32.499  1.00  0.00     0.012 A 
ATOM     96  C   UNL A   1      46.430  24.611  33.822  1.00  0.00     0.148 A 
ATOM     97  C   UNL A   1      49.013  25.399  33.045  1.00  0.00     0.002 A 
ATOM     98  C   UNL A   1      47.546  24.026  34.406  1.00  0.00     0.091 A 
ATOM     99  F   UNL A   1      45.186  24.230  34.143  1.00  0.00    -0.205 F 
ATOM    100  C   UNL A   1      48.837  24.404  34.004  1.00  0.00     0.022 A 
BRANCH  98 101
ATOM    101  S   UNL A   1      47.413  22.816  35.726  1.00  0.00     0.127 S 
ATOM    102  O   UNL A   1      46.674  23.563  36.741  1.00  0.00    -0.237 OA
ATOM    103  O   UNL A   1      46.654  21.740  35.086  1.00  0.00    -0.237 OA
ATOM    104  O   UNL A   1      48.781  22.459  36.080  1.00  0.00    -0.744 OA
ENDBRANCH  98 101
ENDBRANCH  71  94
ENDBRANCH  45  46
ENDBRANCH  37  40
ENDBRANCH  35  36
ENDBRANCH  34  35
ENDBRANCH  33  34
ENDBRANCH   1  33
TORSDOF 20
ENDMDL
MODEL 2
REMARK VINA RESULT:     -11.8      1.802      2.449
REMARK SMILES CCc1cccc(CC)c1N1/C(=[NH+]/C(=O)CCCC(=O)NCCCCNC(=O)c2ccc(-c3c4nc(c(-c5cccc(S(=O)(=O)[O-])c5F)c5ccc([nH]5)c(-c5cccc(S(=O)(=O)[O-])c5F)c5nc(c(-c6cccc(S(=O)(=O)[O-])c6F)c6ccc3[nH]6)C=C5)C=C4)cc2)S[C@@H]2CS(=O)(=O)C[C@@H]21
REMARK SMILES IDX 22 1 21 2 19 3 20 4 18 6 17 7 16 8 14 9 11 10 12 11 99 12
REMARK SMILES IDX 13 13 92 14 93 15 98 16 94 18 95 19 15 20 96 21 97 22 10 23
REMARK SMILES IDX 3 24 4 25 5 26 7 27 6 28 2 29 1 30 8 31 9 32 23 33 24 34
REMARK SMILES IDX 25 35 26 36 27 37 28 39 29 40 30 41 91 42 31 43 90 44 32 45
REMARK SMILES IDX 33 46 34 47 84 48 35 49 89 50 83 51 85 52 36 53 88 54 82 55
REMARK SMILES IDX 81 56 37 58 69 59 49 60 68 61 50 62 53 63 67 64 86 65 51 66
REMARK SMILES IDX 52 67 66 69 87 70 54 71 38 72 39 73 47 74 40 75 42 76 48 77
REMARK SMILES IDX 41 78 43 79 44 80 45 81 46 82 70 83 71 84 79 85 72 86 74 87
REMARK SMILES IDX 80 88 73 89 75 90 76 91 77 92 78 93 55 94 56 95 64 96 57 97
REMARK SMILES IDX 59 98 65 99 58 100 60 101 61 102 62 103 63 104
REMARK H PARENT 21 5 13 17 26 38 85 57 53 68
REMARK Flexibility Score: inf
ROOT
ATOM      1  C   UNL A   1      32.642  26.391  23.610  1.00  0.00     0.116 C 
ENDROOT
BRANCH   1   2
ATOM      2  N   UNL A   1      31.613  27.333  23.236  1.00  0.00    -0.356 N 
ATOM      3  C   UNL A   1      30.262  27.171  23.253  1.00  0.00     0.220 C 
ATOM      4  O   UNL A   1      29.551  28.062  22.786  1.00  0.00    -0.275 OA
ATOM      5  H   UNL A   1      31.933  28.211  22.925  1.00  0.00     0.163 HD
BRANCH   3   6
ATOM      6  C   UNL A   1      29.650  25.945  23.898  1.00  0.00     0.100 C 
BRANCH   6   7
ATOM      7  C   UNL A   1      29.537  25.934  25.421  1.00  0.00     0.022 C 
BRANCH   7   8
ATOM      8  C   UNL A   1      29.708  24.616  26.178  1.00  0.00     0.128 C 
BRANCH   8   9
ATOM      9  C   UNL A   1      31.115  24.132  26.519  1.00  0.00     0.307 C 
ATOM     10  N   UNL A   1      33.239  21.349  25.412  1.00  0.00    -0.216 N 
ATOM     11  C   UNL A   1      32.551  22.300  26.175  1.00  0.00     0.319 C 
ATOM     12  C   UNL A   1      34.599  21.003  25.900  1.00  0.00     0.212 C 
ATOM     13  N   UNL A   1      31.569  23.052  25.801  1.00  0.00    -0.204 N 
ATOM     14  S   UNL A   1      33.355  22.392  27.758  1.00  0.00    -0.029 SA
ATOM     15  C   UNL A   1      34.945  22.042  26.982  1.00  0.00     0.120 C 
ATOM     16  C   UNL A   1      35.700  21.052  24.840  1.00  0.00     0.188 C 
ATOM     17  H   UNL A   1      31.120  22.838  24.951  1.00  0.00     0.316 HD
ATOM     18  C   UNL A   1      35.470  23.283  26.278  1.00  0.00     0.156 C 
ATOM     19  S   UNL A   1      36.540  22.609  25.042  1.00  0.00     0.155 S 
ATOM     20  O   UNL A   1      31.754  24.749  27.370  1.00  0.00    -0.247 OA
ATOM     21  O   UNL A   1      36.423  23.397  23.838  1.00  0.00    -0.229 OA
ATOM     22  O   UNL A   1      37.824  22.350  25.668  1.00  0.00    -0.229 OA
BRANCH  10  23
ATOM     23  C   UNL A   1      32.748  20.652  24.280  1.00  0.00     0.134 A 
ATOM     24  C   UNL A   1      32.568  21.314  23.031  1.00  0.00    -0.001 A 
ATOM     25  C   UNL A   1      32.182  20.575  21.892  1.00  0.00     0.008 A 
ATOM     26  C   UNL A   1      32.050  19.197  21.934  1.00  0.00     0.001 A 
ATOM     27  C   UNL A   1      32.528  19.237  24.324  1.00  0.00    -0.001 A 
ATOM     28  C   UNL A   1      32.238  18.535  23.135  1.00  0.00     0.008 A 
BRANCH  24  29
ATOM     29  C   UNL A   1      32.813  22.794  22.808  1.00  0.00     0.036 C 
ATOM     30  C   UNL A   1      33.036  23.161  21.348  1.00  0.00     0.009 C 
ENDBRANCH  24  29
BRANCH  27  31
ATOM     31  C   UNL A   1      32.611  18.401  25.593  1.00  0.00     0.036 C 
ATOM     32  C   UNL A   1      32.664  16.891  25.364  1.00  0.00     0.009 C 
ENDBRANCH  27  31
ENDBRANCH  10  23
ENDBRANCH   8   9
ENDBRANCH   7   8
ENDBRANCH   6   7
ENDBRANCH   3   6
ENDBRANCH   1   2
BRANCH   1  33
ATOM     33  C   UNL A   1      33.311  26.817  24.917  1.00  0.00     0.023 C 
BRANCH  33  34
ATOM     34  C   UNL A   1      32.666  28.029  25.567  1.00  0.00     0.023 C 
BRANCH  34  35
ATOM     35  C   UNL A   1      33.362  29.335  25.230  1.00  0.00     0.116 C 
BRANCH  35  36
ATOM     36  N   UNL A   1      32.728  30.506  25.821  1.00  0.00    -0.352 N 
ATOM     37  C   UNL A   1      33.152  31.222  26.915  1.00  0.00     0.251 C 
ATOM     38  H   UNL A   1      31.901  30.820  25.387  1.00  0.00     0.163 HD
ATOM     39  O   UNL A   1      32.468  32.128  27.379  1.00  0.00    -0.269 OA
BRANCH  37  40
ATOM     40  C   UNL A   1      34.438  30.851  27.538  1.00  0.00     0.039 A 
ATOM     41  C   UNL A   1      35.432  31.819  27.678  1.00  0.00     0.014 A 
ATOM     42  C   UNL A   1      34.619  29.566  28.056  1.00  0.00     0.014 A 
ATOM     43  C   UNL A   1      36.598  31.502  28.374  1.00  0.00     0.010 A 
ATOM     44  C   UNL A   1      35.721  29.295  28.851  1.00  0.00     0.010 A 
ATOM     45  C   UNL A   1      36.744  30.244  28.983  1.00  0.00    -0.014 A 
BRANCH  45  46
ATOM     46  C   UNL A   1      37.990  29.880  29.703  1.00  0.00     0.031 A 
ATOM     47  C   UNL A   1      38.226  30.416  31.094  1.00  0.00     0.074 A 
ATOM     48  C   UNL A   1      38.922  29.115  29.101  1.00  0.00     0.049 A 
ATOM     49  N   UNL A   1      39.242  30.215  31.891  1.00  0.00    -0.248 NA
ATOM     50  C   UNL A   1      37.205  31.320  31.654  1.00  0.00     0.031 C 
ATOM     51  C   UNL A   1      38.853  28.615  27.725  1.00  0.00     0.029 A 
ATOM     52  N   UNL A   1      40.119  28.635  29.567  1.00  0.00    -0.354 N 
ATOM     53  C   UNL A   1      39.004  30.996  33.015  1.00  0.00     0.074 A 
ATOM     54  C   UNL A   1      37.772  31.712  32.785  1.00  0.00     0.031 C 
ATOM     55  C   UNL A   1      39.951  27.883  27.467  1.00  0.00     0.029 A 
ATOM     56  C   UNL A   1      40.812  27.884  28.645  1.00  0.00     0.049 A 
ATOM     57  H   UNL A   1      40.453  28.813  30.476  1.00  0.00     0.167 HD
ATOM     58  C   UNL A   1      39.723  31.082  34.158  1.00  0.00     0.034 A 
ATOM     59  C   UNL A   1      42.005  27.266  28.743  1.00  0.00     0.034 A 
ATOM     60  C   UNL A   1      40.912  30.319  34.412  1.00  0.00     0.049 A 
ATOM     61  C   UNL A   1      42.747  27.326  30.053  1.00  0.00     0.074 A 
ATOM     62  C   UNL A   1      41.657  30.253  35.575  1.00  0.00     0.029 A 
ATOM     63  N   UNL A   1      41.532  29.494  33.488  1.00  0.00    -0.354 N 
ATOM     64  N   UNL A   1      42.412  27.931  31.167  1.00  0.00    -0.248 NA
ATOM     65  C   UNL A   1      44.011  26.581  30.133  1.00  0.00     0.031 C 
ATOM     66  C   UNL A   1      42.751  29.415  35.342  1.00  0.00     0.029 A 
ATOM     67  C   UNL A   1      42.659  28.923  34.050  1.00  0.00     0.049 A 
ATOM     68  H   UNL A   1      41.218  29.338  32.569  1.00  0.00     0.167 HD
ATOM     69  C   UNL A   1      43.398  27.602  32.090  1.00  0.00     0.074 A 
ATOM     70  C   UNL A   1      44.326  26.721  31.413  1.00  0.00     0.031 C 
ATOM     71  C   UNL A   1      43.537  28.003  33.378  1.00  0.00     0.034 A 
BRANCH  58  72
ATOM     72  C   UNL A   1      39.222  31.995  35.245  1.00  0.00     0.023 A 
ATOM     73  C   UNL A   1      38.266  31.529  36.169  1.00  0.00     0.012 A 
ATOM     74  C   UNL A   1      39.764  33.286  35.400  1.00  0.00     0.148 A 
ATOM     75  C   UNL A   1      37.839  32.341  37.219  1.00  0.00     0.002 A 
ATOM     76  C   UNL A   1      39.371  34.070  36.477  1.00  0.00     0.091 A 
ATOM     77  F   UNL A   1      40.653  33.717  34.494  1.00  0.00    -0.205 F 
ATOM     78  C   UNL A   1      38.402  33.604  37.380  1.00  0.00     0.022 A 
BRANCH  76  79
ATOM     79  S   UNL A   1      40.096  35.676  36.822  1.00  0.00     0.127 S 
ATOM     80  O   UNL A   1      41.526  35.370  36.770  1.00  0.00    -0.237 OA
ATOM     81  O   UNL A   1      39.603  36.478  35.703  1.00  0.00    -0.237 OA
ATOM     82  O   UNL A   1      39.596  36.073  38.130  1.00  0.00    -0.744 OA
ENDBRANCH  76  79
ENDBRANCH  58  72
BRANCH  59  83
ATOM     83  C   UNL A   1      42.559  26.490  27.596  1.00  0.00     0.023 A 
ATOM     84  C   UNL A   1      43.380  27.136  26.648  1.00  0.00     0.012 A 
ATOM     85  C   UNL A   1      42.253  25.128  27.421  1.00  0.00     0.148 A 
ATOM     86  C   UNL A   1      43.833  26.454  25.517  1.00  0.00     0.002 A 
ATOM     87  C   UNL A   1      42.758  24.440  26.325  1.00  0.00     0.091 A 
ATOM     88  F   UNL A   1      41.464  24.533  28.326  1.00  0.00    -0.205 F 
ATOM     89  C   UNL A   1      43.528  25.106  25.359  1.00  0.00     0.022 A 
BRANCH  87  90
ATOM     90  S   UNL A   1      42.521  22.673  26.112  1.00  0.00     0.127 S 
ATOM     91  O   UNL A   1      43.165  22.436  24.824  1.00  0.00    -0.237 OA
ATOM     92  O   UNL A   1      43.236  22.130  27.269  1.00  0.00    -0.237 OA
ATOM     93  O   UNL A   1      41.079  22.466  26.151  1.00  0.00    -0.744 OA
ENDBRANCH  87  90
ENDBRANCH  59  83
BRANCH  71  94
ATOM     94  C   UNL A   1      44.699  27.447  34.159  1.00  0.00     0.023 A 
ATOM     95  C   UNL A   1      45.926  28.138  34.192  1.00  0.00     0.012 A 
ATOM     96  C   UNL A   1      44.553  26.259  34.902  1.00  0.00     0.148 A 
ATOM     97  C   UNL A   1      47.007  27.626  34.908  1.00  0.00     0.002 A 
ATOM     98  C   UNL A   1      45.616  25.787  35.661  1.00  0.00     0.091 A 
ATOM     99  F   UNL A   1      43.382  25.609  34.847  1.00  0.00    -0.205 F 
ATOM    100  C   UNL A   1      46.849  26.458  35.650  1.00  0.00     0.022 A 
BRANCH  98 101
ATOM    101  S   UNL A   1      45.466  24.352  36.730  1.00  0.00     0.127 S 
ATOM    102  O   UNL A   1      46.844  24.172  37.181  1.00  0.00    -0.237 OA
ATOM    103  O   UNL A   1      44.543  24.828  37.761  1.00  0.00    -0.237 OA
ATOM    104  O   UNL A   1      44.934  23.284  35.893  1.00  0.00    -0.744 OA
ENDBRANCH  98 101
ENDBRANCH  71  94
ENDBRANCH  45  46
ENDBRANCH  37  40
ENDBRANCH  35  36
ENDBRANCH  34  35
ENDBRANCH  33  34
ENDBRANCH   1  33
TORSDOF 20
ENDMDL
MODEL 3
REMARK VINA RESULT:     -11.2      4.827     10.027
REMARK SMILES CCc1cccc(CC)c1N1/C(=[NH+]/C(=O)CCCC(=O)NCCCCNC(=O)c2ccc(-c3c4nc(c(-c5cccc(S(=O)(=O)[O-])c5F)c5ccc([nH]5)c(-c5cccc(S(=O)(=O)[O-])c5F)c5nc(c(-c6cccc(S(=O)(=O)[O-])c6F)c6ccc3[nH]6)C=C5)C=C4)cc2)S[C@@H]2CS(=O)(=O)C[C@@H]21
REMARK SMILES IDX 22 1 21 2 19 3 20 4 18 6 17 7 16 8 14 9 11 10 12 11 99 12
REMARK SMILES IDX 13 13 92 14 93 15 98 16 94 18 95 19 15 20 96 21 97 22 10 23
REMARK SMILES IDX 3 24 4 25 5 26 7 27 6 28 2 29 1 30 8 31 9 32 23 33 24 34
REMARK SMILES IDX 25 35 26 36 27 37 28 39 29 40 30 41 91 42 31 43 90 44 32 45
REMARK SMILES IDX 33 46 34 47 84 48 35 49 89 50 83 51 85 52 36 53 88 54 82 55
REMARK SMILES IDX 81 56 37 58 69 59 49 60 68 61 50 62 53 63 67 64 86 65 51 66
REMARK SMILES IDX 52 67 66 69 87 70 54 71 38 72 39 73 47 74 40 75 42 76 48 77
REMARK SMILES IDX 41 78 43 79 44 80 45 81 46 82 70 83 71 84 79 85 72 86 74 87
REMARK SMILES IDX 80 88 73 89 75 90 76 91 77 92 78 93 55 94 56 95 64 96 57 97
REMARK SMILES IDX 59 98 65 99 58 100 60 101 61 102 62 103 63 104
REMARK H PARENT 21 5 13 17 26 38 85 57 53 68
REMARK Flexibility Score: inf
ROOT
ATOM      1  C   UNL A   1      34.506  20.309  24.866  1.00  0.00     0.116 C 
ENDROOT
BRANCH   1   2
ATOM      2  N   UNL A   1      33.950  21.507  25.450  1.00  0.00    -0.356 N 
ATOM      3  C   UNL A   1      32.882  22.242  25.036  1.00  0.00     0.220 C 
ATOM      4  O   UNL A   1      32.631  23.303  25.609  1.00  0.00    -0.275 OA
ATOM      5  H   UNL A   1      34.407  21.838  26.257  1.00  0.00     0.163 HD
BRANCH   3   6
ATOM      6  C   UNL A   1      31.984  21.723  23.932  1.00  0.00     0.100 C 
BRANCH   6   7
ATOM      7  C   UNL A   1      31.640  22.682  22.794  1.00  0.00     0.022 C 
BRANCH   7   8
ATOM      8  C   UNL A   1      32.765  23.432  22.078  1.00  0.00     0.128 C 
BRANCH   8   9
ATOM      9  C   UNL A   1      33.165  24.821  22.571  1.00  0.00     0.307 C 
ATOM     10  N   UNL A   1      31.361  27.937  23.289  1.00  0.00    -0.216 N 
ATOM     11  C   UNL A   1      32.287  26.987  22.844  1.00  0.00     0.319 C 
ATOM     12  C   UNL A   1      31.939  29.233  23.731  1.00  0.00     0.212 C 
ATOM     13  N   UNL A   1      32.133  25.706  22.776  1.00  0.00    -0.204 N 
ATOM     14  S   UNL A   1      33.801  27.848  22.487  1.00  0.00    -0.029 SA
ATOM     15  C   UNL A   1      33.460  29.016  23.819  1.00  0.00     0.120 C 
ATOM     16  C   UNL A   1      31.460  29.724  25.098  1.00  0.00     0.188 C 
ATOM     17  H   UNL A   1      31.224  25.343  22.878  1.00  0.00     0.316 HD
ATOM     18  C   UNL A   1      33.758  28.379  25.166  1.00  0.00     0.156 C 
ATOM     19  S   UNL A   1      32.730  29.299  26.271  1.00  0.00     0.155 S 
ATOM     20  O   UNL A   1      34.355  25.043  22.786  1.00  0.00    -0.247 OA
ATOM     21  O   UNL A   1      32.200  28.406  27.275  1.00  0.00    -0.229 OA
ATOM     22  O   UNL A   1      33.441  30.514  26.624  1.00  0.00    -0.229 OA
BRANCH  10  23
ATOM     23  C   UNL A   1      29.949  27.807  23.298  1.00  0.00     0.134 A 
ATOM     24  C   UNL A   1      29.314  26.744  24.002  1.00  0.00    -0.001 A 
ATOM     25  C   UNL A   1      27.905  26.699  24.087  1.00  0.00     0.008 A 
ATOM     26  C   UNL A   1      27.116  27.713  23.571  1.00  0.00     0.001 A 
ATOM     27  C   UNL A   1      29.114  28.806  22.700  1.00  0.00    -0.001 A 
ATOM     28  C   UNL A   1      27.717  28.763  22.899  1.00  0.00     0.008 A 
BRANCH  24  29
ATOM     29  C   UNL A   1      30.057  25.643  24.734  1.00  0.00     0.036 C 
ATOM     30  C   UNL A   1      30.294  25.943  26.207  1.00  0.00     0.009 C 
ENDBRANCH  24  29
BRANCH  27  31
ATOM     31  C   UNL A   1      29.637  29.962  21.859  1.00  0.00     0.036 C 
ATOM     32  C   UNL A   1      29.048  31.328  22.211  1.00  0.00     0.009 C 
ENDBRANCH  27  31
ENDBRANCH  10  23
ENDBRANCH   8   9
ENDBRANCH   7   8
ENDBRANCH   6   7
ENDBRANCH   3   6
ENDBRANCH   1   2
BRANCH   1  33
ATOM     33  C   UNL A   1      36.032  20.381  24.843  1.00  0.00     0.023 C 
BRANCH  33  34
ATOM     34  C   UNL A   1      36.574  21.758  24.501  1.00  0.00     0.023 C 
BRANCH  34  35
ATOM     35  C   UNL A   1      37.693  22.211  25.421  1.00  0.00     0.116 C 
BRANCH  35  36
ATOM     36  N   UNL A   1      38.593  21.137  25.820  1.00  0.00    -0.352 N 
ATOM     37  C   UNL A   1      39.788  21.256  26.491  1.00  0.00     0.251 C 
ATOM     38  H   UNL A   1      38.315  20.223  25.582  1.00  0.00     0.163 HD
ATOM     39  O   UNL A   1      40.507  20.281  26.674  1.00  0.00    -0.269 OA
BRANCH  37  40
ATOM     40  C   UNL A   1      40.198  22.596  26.957  1.00  0.00     0.039 A 
ATOM     41  C   UNL A   1      41.161  22.703  27.959  1.00  0.00     0.014 A 
ATOM     42  C   UNL A   1      39.686  23.739  26.336  1.00  0.00     0.014 A 
ATOM     43  C   UNL A   1      41.637  23.966  28.315  1.00  0.00     0.010 A 
ATOM     44  C   UNL A   1      40.251  24.976  26.604  1.00  0.00     0.010 A 
ATOM     45  C   UNL A   1      41.200  25.111  27.626  1.00  0.00    -0.014 A 
BRANCH  45  46
ATOM     46  C   UNL A   1      41.674  26.463  28.009  1.00  0.00     0.031 A 
ATOM     47  C   UNL A   1      43.077  26.887  27.650  1.00  0.00     0.074 A 
ATOM     48  C   UNL A   1      40.873  27.289  28.712  1.00  0.00     0.049 A 
ATOM     49  N   UNL A   1      43.680  28.021  27.888  1.00  0.00    -0.248 NA
ATOM     50  C   UNL A   1      43.928  25.898  26.960  1.00  0.00     0.031 C 
ATOM     51  C   UNL A   1      39.532  26.959  29.201  1.00  0.00     0.029 A 
ATOM     52  N   UNL A   1      41.078  28.572  29.149  1.00  0.00    -0.354 N 
ATOM     53  C   UNL A   1      44.980  27.866  27.422  1.00  0.00     0.074 A 
ATOM     54  C   UNL A   1      45.099  26.516  26.927  1.00  0.00     0.031 C 
ATOM     55  C   UNL A   1      39.028  28.021  29.853  1.00  0.00     0.029 A 
ATOM     56  C   UNL A   1      40.017  29.094  29.853  1.00  0.00     0.049 A 
ATOM     57  H   UNL A   1      41.908  29.073  28.977  1.00  0.00     0.167 HD
ATOM     58  C   UNL A   1      45.978  28.778  27.370  1.00  0.00     0.034 A 
ATOM     59  C   UNL A   1      39.863  30.302  30.430  1.00  0.00     0.034 A 
ATOM     60  C   UNL A   1      45.839  30.140  27.802  1.00  0.00     0.049 A 
ATOM     61  C   UNL A   1      40.969  31.316  30.296  1.00  0.00     0.074 A 
ATOM     62  C   UNL A   1      46.754  31.171  27.697  1.00  0.00     0.029 A 
ATOM     63  N   UNL A   1      44.715  30.659  28.424  1.00  0.00    -0.354 N 
ATOM     64  N   UNL A   1      42.127  31.202  29.692  1.00  0.00    -0.248 NA
ATOM     65  C   UNL A   1      40.727  32.641  30.883  1.00  0.00     0.031 C 
ATOM     66  C   UNL A   1      46.196  32.307  28.290  1.00  0.00     0.029 A 
ATOM     67  C   UNL A   1      44.917  31.994  28.720  1.00  0.00     0.049 A 
ATOM     68  H   UNL A   1      43.896  30.153  28.625  1.00  0.00     0.167 HD
ATOM     69  C   UNL A   1      42.730  32.451  29.788  1.00  0.00     0.074 A 
ATOM     70  C   UNL A   1      41.796  33.313  30.481  1.00  0.00     0.031 C 
ATOM     71  C   UNL A   1      43.953  32.850  29.358  1.00  0.00     0.034 A 
BRANCH  58  72
ATOM     72  C   UNL A   1      47.298  28.353  26.785  1.00  0.00     0.023 A 
ATOM     73  C   UNL A   1      48.404  28.132  27.630  1.00  0.00     0.012 A 
ATOM     74  C   UNL A   1      47.417  28.091  25.406  1.00  0.00     0.148 A 
ATOM     75  C   UNL A   1      49.615  27.677  27.111  1.00  0.00     0.002 A 
ATOM     76  C   UNL A   1      48.612  27.591  24.903  1.00  0.00     0.091 A 
ATOM     77  F   UNL A   1      46.360  28.333  24.618  1.00  0.00    -0.205 F 
ATOM     78  C   UNL A   1      49.714  27.394  25.751  1.00  0.00     0.022 A 
BRANCH  76  79
ATOM     79  S   UNL A   1      48.816  27.115  23.184  1.00  0.00     0.127 S 
ATOM     80  O   UNL A   1      48.218  25.780  23.176  1.00  0.00    -0.237 OA
ATOM     81  O   UNL A   1      48.033  28.138  22.491  1.00  0.00    -0.237 OA
ATOM     82  O   UNL A   1      50.247  27.153  22.920  1.00  0.00    -0.744 OA
ENDBRANCH  76  79
ENDBRANCH  58  72
BRANCH  59  83
ATOM     83  C   UNL A   1      38.600  30.650  31.144  1.00  0.00     0.023 A 
ATOM     84  C   UNL A   1      38.404  30.213  32.471  1.00  0.00     0.012 A 
ATOM     85  C   UNL A   1      37.581  31.383  30.508  1.00  0.00     0.148 A 
ATOM     86  C   UNL A   1      37.194  30.447  33.126  1.00  0.00     0.002 A 
ATOM     87  C   UNL A   1      36.403  31.666  31.189  1.00  0.00     0.091 A 
ATOM     88  F   UNL A   1      37.781  31.782  29.245  1.00  0.00    -0.205 F 
ATOM     89  C   UNL A   1      36.197  31.179  32.488  1.00  0.00     0.022 A 
BRANCH  87  90
ATOM     90  S   UNL A   1      35.121  32.709  30.488  1.00  0.00     0.127 S 
ATOM     91  O   UNL A   1      34.668  31.908  29.355  1.00  0.00    -0.237 OA
ATOM     92  O   UNL A   1      34.170  32.805  31.597  1.00  0.00    -0.237 OA
ATOM     93  O   UNL A   1      35.779  33.966  30.156  1.00  0.00    -0.744 OA
ENDBRANCH  87  90
ENDBRANCH  59  83
BRANCH  71  94
ATOM     94  C   UNL A   1      44.329  34.293  29.569  1.00  0.00     0.023 A 
ATOM     95  C   UNL A   1      45.098  34.669  30.688  1.00  0.00     0.012 A 
ATOM     96  C   UNL A   1      43.957  35.270  28.624  1.00  0.00     0.148 A 
ATOM     97  C   UNL A   1      45.445  36.004  30.892  1.00  0.00     0.002 A 
ATOM     98  C   UNL A   1      44.357  36.588  28.803  1.00  0.00     0.091 A 
ATOM     99  F   UNL A   1      43.214  34.895  27.573  1.00  0.00    -0.205 F 
ATOM    100  C   UNL A   1      45.083  36.960  29.945  1.00  0.00     0.022 A 
BRANCH  98 101
ATOM    101  S   UNL A   1      44.029  37.862  27.581  1.00  0.00     0.127 S 
ATOM    102  O   UNL A   1      44.161  39.079  28.378  1.00  0.00    -0.237 OA
ATOM    103  O   UNL A   1      45.105  37.646  26.611  1.00  0.00    -0.237 OA
ATOM    104  O   UNL A   1      42.693  37.589  27.067  1.00  0.00    -0.744 OA
ENDBRANCH  98 101
ENDBRANCH  71  94
ENDBRANCH  45  46
ENDBRANCH  37  40
ENDBRANCH  35  36
ENDBRANCH  34  35
ENDBRANCH  33  34
ENDBRANCH   1  33
TORSDOF 20
ENDMDL
