MODEL 1
REMARK VINA RESULT:     -12.7      0.000      0.000
REMARK SMILES Cc1c(CC(=O)NCCCCNC(=O)c2ccc(-c3c4nc(c(-c5cccc(S(=O)(=O)[O-])c5F)c5ccc([nH]5)c(-c5cccc(S(=O)(=O)[O-])c5F)c5nc(c(-c6cccc(S(=O)(=O)[O-])c6F)c6ccc3[nH]6)C=C5)C=C4)cc2)cc(-c2ccc(S(C)(=O)=O)cc2)n1-c1cccc(F)c1
REMARK SMILES IDX 9 1 8 2 7 3 5 4 6 5 4 7 3 8 1 9 2 10 90 11 78 12 79 13 91 14
REMARK SMILES IDX 92 15 97 16 93 17 95 18 94 19 96 20 80 21 81 22 89 23 82 24
REMARK SMILES IDX 88 25 83 26 84 27 85 28 86 29 87 30 10 31 11 32 12 33 13 34
REMARK SMILES IDX 14 36 15 37 16 38 77 39 17 40 76 41 18 42 19 43 20 44 70 45
REMARK SMILES IDX 21 46 75 47 69 48 71 49 22 50 74 51 68 52 67 53 23 55 55 56
REMARK SMILES IDX 35 57 54 58 36 59 39 60 53 61 72 62 37 63 38 64 52 66 73 67
REMARK SMILES IDX 40 68 24 69 25 70 33 71 26 72 28 73 34 74 27 75 29 76 30 77
REMARK SMILES IDX 31 78 32 79 56 80 57 81 65 82 58 83 60 84 66 85 59 86 61 87
REMARK SMILES IDX 62 88 63 89 64 90 41 91 42 92 50 93 43 94 45 95 51 96 44 97
REMARK SMILES IDX 46 98 47 99 48 100 49 101
REMARK H PARENT 7 6 12 35 71 54 39 65
REMARK Flexibility Score: inf
ROOT
ATOM      1  C   UNL A   1      31.875  29.361  24.498  1.00  0.00     0.023 C 
ENDROOT
BRANCH   1   2
ATOM      2  C   UNL A   1      30.923  28.424  25.249  1.00  0.00     0.116 C 
BRANCH   2   3
ATOM      3  N   UNL A   1      30.172  27.556  24.362  1.00  0.00    -0.356 N 
ATOM      4  C   UNL A   1      29.856  26.233  24.478  1.00  0.00     0.224 C 
ATOM      5  O   UNL A   1      29.151  25.726  23.600  1.00  0.00    -0.275 OA
ATOM      6  H   UNL A   1      29.837  27.991  23.544  1.00  0.00     0.163 HD
BRANCH   4   7
ATOM      7  C   UNL A   1      30.331  25.406  25.664  1.00  0.00     0.137 C 
BRANCH   7   8
ATOM      8  C   UNL A   1      31.402  24.416  25.312  1.00  0.00    -0.017 A 
ATOM      9  C   UNL A   1      33.483  25.958  25.161  1.00  0.00     0.065 C 
ATOM     10  C   UNL A   1      32.762  24.646  25.143  1.00  0.00     0.024 A 
ATOM     11  N   UNL A   1      33.384  23.428  24.879  1.00  0.00    -0.313 N 
ATOM     12  C   UNL A   1      31.186  23.040  25.051  1.00  0.00     0.033 A 
ATOM     13  C   UNL A   1      32.408  22.429  24.831  1.00  0.00     0.053 A 
BRANCH  11  14
ATOM     14  C   UNL A   1      34.782  23.218  24.710  1.00  0.00     0.049 A 
ATOM     15  C   UNL A   1      35.294  22.911  23.441  1.00  0.00     0.027 A 
ATOM     16  C   UNL A   1      35.624  23.222  25.826  1.00  0.00     0.065 A 
ATOM     17  C   UNL A   1      36.642  22.582  23.290  1.00  0.00     0.005 A 
ATOM     18  C   UNL A   1      36.962  22.883  25.659  1.00  0.00     0.125 A 
ATOM     19  C   UNL A   1      37.476  22.559  24.406  1.00  0.00     0.039 A 
ATOM     20  F   UNL A   1      37.767  22.835  26.728  1.00  0.00    -0.207 F 
ENDBRANCH  11  14
BRANCH  13  21
ATOM     21  C   UNL A   1      32.663  20.989  24.696  1.00  0.00    -0.001 A 
ATOM     22  C   UNL A   1      33.172  20.243  25.771  1.00  0.00     0.011 A 
ATOM     23  C   UNL A   1      32.384  20.339  23.487  1.00  0.00     0.011 A 
ATOM     24  C   UNL A   1      33.447  18.881  25.627  1.00  0.00     0.021 A 
ATOM     25  C   UNL A   1      32.652  18.975  23.337  1.00  0.00     0.021 A 
ATOM     26  C   UNL A   1      33.197  18.258  24.405  1.00  0.00     0.067 A 
BRANCH  26  27
ATOM     27  S   UNL A   1      33.532  16.523  24.211  1.00  0.00     0.175 S 
ATOM     28  C   UNL A   1      34.992  16.246  25.180  1.00  0.00     0.163 C 
ATOM     29  O   UNL A   1      32.425  15.808  24.865  1.00  0.00    -0.224 OA
ATOM     30  O   UNL A   1      33.863  16.275  22.843  1.00  0.00    -0.224 OA
ENDBRANCH  26  27
ENDBRANCH  13  21
ENDBRANCH   7   8
ENDBRANCH   4   7
ENDBRANCH   2   3
ENDBRANCH   1   2
BRANCH   1  31
ATOM     31  C   UNL A   1      33.399  29.294  24.815  1.00  0.00     0.023 C 
BRANCH  31  32
ATOM     32  C   UNL A   1      33.908  29.265  26.290  1.00  0.00     0.116 C 
BRANCH  32  33
ATOM     33  N   UNL A   1      33.937  30.584  26.935  1.00  0.00    -0.352 N 
ATOM     34  C   UNL A   1      34.825  31.280  27.756  1.00  0.00     0.251 C 
ATOM     35  H   UNL A   1      33.127  31.107  26.739  1.00  0.00     0.163 HD
ATOM     36  O   UNL A   1      34.420  32.391  28.121  1.00  0.00    -0.269 OA
BRANCH  34  37
ATOM     37  C   UNL A   1      36.187  30.812  28.285  1.00  0.00     0.039 A 
ATOM     38  C   UNL A   1      37.154  30.252  27.421  1.00  0.00     0.014 A 
ATOM     39  C   UNL A   1      36.463  30.550  29.609  1.00  0.00     0.014 A 
ATOM     40  C   UNL A   1      38.430  29.605  27.854  1.00  0.00     0.010 A 
ATOM     41  C   UNL A   1      37.704  29.846  30.019  1.00  0.00     0.010 A 
ATOM     42  C   UNL A   1      38.851  29.396  29.206  1.00  0.00    -0.014 A 
BRANCH  42  43
ATOM     43  C   UNL A   1      40.031  28.065  29.552  1.00  0.00     0.031 A 
ATOM     44  C   UNL A   1      40.407  28.502  30.961  1.00  0.00     0.074 A 
ATOM     45  C   UNL A   1      40.932  26.962  29.052  1.00  0.00     0.049 A 
ATOM     46  N   UNL A   1      40.605  29.776  31.151  1.00  0.00    -0.248 NA
ATOM     47  C   UNL A   1      41.090  27.696  31.947  1.00  0.00     0.031 C 
ATOM     48  C   UNL A   1      42.245  26.583  29.725  1.00  0.00     0.029 A 
ATOM     49  N   UNL A   1      41.215  26.102  27.867  1.00  0.00    -0.354 N 
ATOM     50  C   UNL A   1      41.966  29.768  31.296  1.00  0.00     0.074 A 
ATOM     51  C   UNL A   1      42.166  28.497  32.030  1.00  0.00     0.031 C 
ATOM     52  C   UNL A   1      42.948  25.544  29.224  1.00  0.00     0.029 A 
ATOM     53  C   UNL A   1      42.328  24.972  28.013  1.00  0.00     0.049 A 
ATOM     54  H   UNL A   1      40.728  26.228  27.019  1.00  0.00     0.167 HD
ATOM     55  C   UNL A   1      42.646  30.305  30.230  1.00  0.00     0.034 A 
ATOM     56  C   UNL A   1      43.302  24.398  27.125  1.00  0.00     0.034 A 
ATOM     57  C   UNL A   1      42.604  29.846  28.816  1.00  0.00     0.049 A 
ATOM     58  C   UNL A   1      43.746  25.455  26.216  1.00  0.00     0.074 A 
ATOM     59  C   UNL A   1      41.732  29.504  27.788  1.00  0.00     0.029 A 
ATOM     60  N   UNL A   1      43.777  29.941  28.091  1.00  0.00    -0.354 N 
ATOM     61  N   UNL A   1      44.845  26.138  26.287  1.00  0.00    -0.248 NA
ATOM     62  C   UNL A   1      42.769  25.862  25.225  1.00  0.00     0.031 C 
ATOM     63  C   UNL A   1      42.350  29.392  26.533  1.00  0.00     0.029 A 
ATOM     64  C   UNL A   1      43.657  29.261  26.884  1.00  0.00     0.049 A 
ATOM     65  H   UNL A   1      44.584  30.420  28.388  1.00  0.00     0.167 HD
ATOM     66  C   UNL A   1      44.460  27.337  25.713  1.00  0.00     0.074 A 
ATOM     67  C   UNL A   1      43.261  27.056  24.935  1.00  0.00     0.031 C 
ATOM     68  C   UNL A   1      44.742  28.465  26.416  1.00  0.00     0.034 A 
BRANCH  55  69
ATOM     69  C   UNL A   1      42.851  31.783  30.489  1.00  0.00     0.023 A 
ATOM     70  C   UNL A   1      42.251  32.743  29.642  1.00  0.00     0.012 A 
ATOM     71  C   UNL A   1      43.556  32.244  31.616  1.00  0.00     0.148 A 
ATOM     72  C   UNL A   1      42.280  34.096  29.953  1.00  0.00     0.002 A 
ATOM     73  C   UNL A   1      43.496  33.577  31.976  1.00  0.00     0.091 A 
ATOM     74  F   UNL A   1      44.310  31.397  32.330  1.00  0.00    -0.205 F 
ATOM     75  C   UNL A   1      42.860  34.508  31.146  1.00  0.00     0.022 A 
BRANCH  73  76
ATOM     76  S   UNL A   1      44.143  34.148  33.547  1.00  0.00     0.127 S 
ATOM     77  O   UNL A   1      43.527  33.211  34.486  1.00  0.00    -0.237 OA
ATOM     78  O   UNL A   1      45.583  33.976  33.366  1.00  0.00    -0.237 OA
ATOM     79  O   UNL A   1      43.707  35.531  33.703  1.00  0.00    -0.744 OA
ENDBRANCH  73  76
ENDBRANCH  55  69
BRANCH  56  80
ATOM     80  C   UNL A   1      43.846  22.992  26.550  1.00  0.00     0.023 A 
ATOM     81  C   UNL A   1      44.876  22.819  25.571  1.00  0.00     0.012 A 
ATOM     82  C   UNL A   1      43.036  21.819  26.706  1.00  0.00     0.148 A 
ATOM     83  C   UNL A   1      45.116  21.569  24.893  1.00  0.00     0.002 A 
ATOM     84  C   UNL A   1      43.272  20.587  26.038  1.00  0.00     0.091 A 
ATOM     85  F   UNL A   1      41.962  21.912  27.498  1.00  0.00    -0.205 F 
ATOM     86  C   UNL A   1      44.322  20.450  25.135  1.00  0.00     0.022 A 
BRANCH  84  87
ATOM     87  S   UNL A   1      42.212  19.135  26.301  1.00  0.00     0.127 S 
ATOM     88  O   UNL A   1      42.922  18.060  25.604  1.00  0.00    -0.237 OA
ATOM     89  O   UNL A   1      42.227  19.019  27.758  1.00  0.00    -0.237 OA
ATOM     90  O   UNL A   1      40.929  19.484  25.705  1.00  0.00    -0.744 OA
ENDBRANCH  84  87
ENDBRANCH  56  80
BRANCH  68  91
ATOM     91  C   UNL A   1      46.077  28.579  27.043  1.00  0.00     0.023 A 
ATOM     92  C   UNL A   1      46.991  29.356  26.328  1.00  0.00     0.012 A 
ATOM     93  C   UNL A   1      46.350  28.185  28.369  1.00  0.00     0.148 A 
ATOM     94  C   UNL A   1      48.131  29.828  26.958  1.00  0.00     0.002 A 
ATOM     95  C   UNL A   1      47.462  28.699  29.008  1.00  0.00     0.091 A 
ATOM     96  F   UNL A   1      45.450  27.440  29.029  1.00  0.00    -0.205 F 
ATOM     97  C   UNL A   1      48.349  29.528  28.304  1.00  0.00     0.022 A 
BRANCH  95  98
ATOM     98  S   UNL A   1      47.787  28.398  30.748  1.00  0.00     0.127 S 
ATOM     99  O   UNL A   1      48.844  29.370  31.028  1.00  0.00    -0.237 OA
ATOM    100  O   UNL A   1      46.497  28.699  31.362  1.00  0.00    -0.237 OA
ATOM    101  O   UNL A   1      48.207  27.005  30.847  1.00  0.00    -0.744 OA
ENDBRANCH  95  98
ENDBRANCH  68  91
ENDBRANCH  42  43
ENDBRANCH  34  37
ENDBRANCH  32  33
ENDBRANCH  31  32
ENDBRANCH   1  31
TORSDOF 18
ENDMDL
MODEL 2
REMARK VINA RESULT:     -12.2      3.428      5.071
REMARK SMILES Cc1c(CC(=O)NCCCCNC(=O)c2ccc(-c3c4nc(c(-c5cccc(S(=O)(=O)[O-])c5F)c5ccc([nH]5)c(-c5cccc(S(=O)(=O)[O-])c5F)c5nc(c(-c6cccc(S(=O)(=O)[O-])c6F)c6ccc3[nH]6)C=C5)C=C4)cc2)cc(-c2ccc(S(C)(=O)=O)cc2)n1-c1cccc(F)c1
REMARK SMILES IDX 9 1 8 2 7 3 5 4 6 5 4 7 3 8 1 9 2 10 90 11 78 12 79 13 91 14
REMARK SMILES IDX 92 15 97 16 93 17 95 18 94 19 96 20 80 21 81 22 89 23 82 24
REMARK SMILES IDX 88 25 83 26 84 27 85 28 86 29 87 30 10 31 11 32 12 33 13 34
REMARK SMILES IDX 14 36 15 37 16 38 77 39 17 40 76 41 18 42 19 43 20 44 70 45
REMARK SMILES IDX 21 46 75 47 69 48 71 49 22 50 74 51 68 52 67 53 23 55 55 56
REMARK SMILES IDX 35 57 54 58 36 59 39 60 53 61 72 62 37 63 38 64 52 66 73 67
REMARK SMILES IDX 40 68 24 69 25 70 33 71 26 72 28 73 34 74 27 75 29 76 30 77
REMARK SMILES IDX 31 78 32 79 56 80 57 81 65 82 58 83 60 84 66 85 59 86 61 87
REMARK SMILES IDX 62 88 63 89 64 90 41 91 42 92 50 93 43 94 45 95 51 96 44 97
REMARK SMILES IDX 46 98 47 99 48 100 49 101
REMARK H PARENT 7 6 12 35 71 54 39 65
REMARK Flexibility Score: inf
ROOT
ATOM      1  C   UNL A   1      31.702  29.928  25.003  1.00  0.00     0.023 C 
ENDROOT
BRANCH   1   2
ATOM      2  C   UNL A   1      30.384  29.754  24.240  1.00  0.00     0.116 C 
BRANCH   2   3
ATOM      3  N   UNL A   1      30.539  28.994  23.015  1.00  0.00    -0.356 N 
ATOM      4  C   UNL A   1      30.529  27.645  22.803  1.00  0.00     0.224 C 
ATOM      5  O   UNL A   1      30.632  27.240  21.641  1.00  0.00    -0.275 OA
ATOM      6  H   UNL A   1      30.674  29.538  22.205  1.00  0.00     0.163 HD
BRANCH   4   7
ATOM      7  C   UNL A   1      30.370  26.663  23.955  1.00  0.00     0.137 C 
BRANCH   7   8
ATOM      8  C   UNL A   1      31.382  25.556  23.941  1.00  0.00    -0.017 A 
ATOM      9  C   UNL A   1      33.599  26.897  24.055  1.00  0.00     0.065 C 
ATOM     10  C   UNL A   1      32.765  25.654  24.031  1.00  0.00     0.024 A 
ATOM     11  N   UNL A   1      33.298  24.368  24.035  1.00  0.00    -0.313 N 
ATOM     12  C   UNL A   1      31.081  24.178  23.791  1.00  0.00     0.033 A 
ATOM     13  C   UNL A   1      32.252  23.451  23.895  1.00  0.00     0.053 A 
BRANCH  11  14
ATOM     14  C   UNL A   1      34.673  24.028  24.182  1.00  0.00     0.049 A 
ATOM     15  C   UNL A   1      35.344  23.372  23.140  1.00  0.00     0.027 A 
ATOM     16  C   UNL A   1      35.319  24.262  25.399  1.00  0.00     0.065 A 
ATOM     17  C   UNL A   1      36.654  22.926  23.324  1.00  0.00     0.005 A 
ATOM     18  C   UNL A   1      36.620  23.803  25.567  1.00  0.00     0.125 A 
ATOM     19  C   UNL A   1      37.290  23.135  24.545  1.00  0.00     0.039 A 
ATOM     20  F   UNL A   1      37.232  23.977  26.746  1.00  0.00    -0.207 F 
ENDBRANCH  11  14
BRANCH  13  21
ATOM     21  C   UNL A   1      32.379  21.990  23.973  1.00  0.00    -0.001 A 
ATOM     22  C   UNL A   1      32.633  21.351  25.198  1.00  0.00     0.011 A 
ATOM     23  C   UNL A   1      32.232  21.211  22.818  1.00  0.00     0.011 A 
ATOM     24  C   UNL A   1      32.789  19.965  25.261  1.00  0.00     0.021 A 
ATOM     25  C   UNL A   1      32.381  19.822  22.874  1.00  0.00     0.021 A 
ATOM     26  C   UNL A   1      32.675  19.210  24.095  1.00  0.00     0.067 A 
BRANCH  26  27
ATOM     27  S   UNL A   1      32.860  17.443  24.162  1.00  0.00     0.175 S 
ATOM     28  C   UNL A   1      34.558  17.196  24.612  1.00  0.00     0.163 C 
ATOM     29  O   UNL A   1      32.032  16.978  25.285  1.00  0.00    -0.224 OA
ATOM     30  O   UNL A   1      32.677  16.918  22.846  1.00  0.00    -0.224 OA
ENDBRANCH  26  27
ENDBRANCH  13  21
ENDBRANCH   7   8
ENDBRANCH   4   7
ENDBRANCH   2   3
ENDBRANCH   1   2
BRANCH   1  31
ATOM     31  C   UNL A   1      31.801  29.392  26.462  1.00  0.00     0.023 C 
BRANCH  31  32
ATOM     32  C   UNL A   1      33.049  29.706  27.346  1.00  0.00     0.116 C 
BRANCH  32  33
ATOM     33  N   UNL A   1      33.391  31.132  27.407  1.00  0.00    -0.352 N 
ATOM     34  C   UNL A   1      34.554  31.878  27.611  1.00  0.00     0.251 C 
ATOM     35  H   UNL A   1      32.603  31.706  27.268  1.00  0.00     0.163 HD
ATOM     36  O   UNL A   1      34.379  33.103  27.629  1.00  0.00    -0.269 OA
BRANCH  34  37
ATOM     37  C   UNL A   1      35.975  31.359  27.863  1.00  0.00     0.039 A 
ATOM     38  C   UNL A   1      36.321  30.015  27.603  1.00  0.00     0.014 A 
ATOM     39  C   UNL A   1      36.906  31.986  28.663  1.00  0.00     0.014 A 
ATOM     40  C   UNL A   1      37.614  29.365  27.978  1.00  0.00     0.010 A 
ATOM     41  C   UNL A   1      38.155  31.304  29.082  1.00  0.00     0.010 A 
ATOM     42  C   UNL A   1      38.683  29.978  28.706  1.00  0.00    -0.014 A 
BRANCH  42  43
ATOM     43  C   UNL A   1      39.831  28.915  29.620  1.00  0.00     0.031 A 
ATOM     44  C   UNL A   1      38.887  28.545  30.757  1.00  0.00     0.074 A 
ATOM     45  C   UNL A   1      41.243  28.463  29.900  1.00  0.00     0.049 A 
ATOM     46  N   UNL A   1      38.160  29.503  31.257  1.00  0.00    -0.248 NA
ATOM     47  C   UNL A   1      39.071  27.461  31.694  1.00  0.00     0.031 C 
ATOM     48  C   UNL A   1      41.722  28.010  31.274  1.00  0.00     0.029 A 
ATOM     49  N   UNL A   1      42.630  28.481  29.350  1.00  0.00    -0.354 N 
ATOM     50  C   UNL A   1      38.794  29.656  32.460  1.00  0.00     0.074 A 
ATOM     51  C   UNL A   1      39.142  28.252  32.778  1.00  0.00     0.031 C 
ATOM     52  C   UNL A   1      42.995  27.575  31.400  1.00  0.00     0.029 A 
ATOM     53  C   UNL A   1      43.758  27.682  30.141  1.00  0.00     0.049 A 
ATOM     54  H   UNL A   1      42.842  28.973  28.523  1.00  0.00     0.167 HD
ATOM     55  C   UNL A   1      39.535  30.809  32.561  1.00  0.00     0.034 A 
ATOM     56  C   UNL A   1      45.161  27.888  30.374  1.00  0.00     0.034 A 
ATOM     57  C   UNL A   1      40.672  31.223  31.695  1.00  0.00     0.049 A 
ATOM     58  C   UNL A   1      45.387  29.331  30.458  1.00  0.00     0.074 A 
ATOM     59  C   UNL A   1      41.056  31.369  30.366  1.00  0.00     0.029 A 
ATOM     60  N   UNL A   1      41.703  31.913  32.303  1.00  0.00    -0.354 N 
ATOM     61  N   UNL A   1      45.543  30.038  31.533  1.00  0.00    -0.248 NA
ATOM     62  C   UNL A   1      45.273  30.044  29.200  1.00  0.00     0.031 C 
ATOM     63  C   UNL A   1      42.246  32.091  30.196  1.00  0.00     0.029 A 
ATOM     64  C   UNL A   1      42.789  32.019  31.440  1.00  0.00     0.049 A 
ATOM     65  H   UNL A   1      41.674  32.276  33.217  1.00  0.00     0.167 HD
ATOM     66  C   UNL A   1      45.036  31.261  31.133  1.00  0.00     0.074 A 
ATOM     67  C   UNL A   1      45.052  31.259  29.676  1.00  0.00     0.031 C 
ATOM     68  C   UNL A   1      44.107  31.830  31.946  1.00  0.00     0.034 A 
BRANCH  55  69
ATOM     69  C   UNL A   1      38.653  31.895  33.141  1.00  0.00     0.023 A 
ATOM     70  C   UNL A   1      37.774  32.619  32.304  1.00  0.00     0.012 A 
ATOM     71  C   UNL A   1      38.612  32.153  34.523  1.00  0.00     0.148 A 
ATOM     72  C   UNL A   1      36.837  33.497  32.831  1.00  0.00     0.002 A 
ATOM     73  C   UNL A   1      37.614  32.947  35.053  1.00  0.00     0.091 A 
ATOM     74  F   UNL A   1      39.558  31.650  35.329  1.00  0.00    -0.205 F 
ATOM     75  C   UNL A   1      36.723  33.624  34.210  1.00  0.00     0.022 A 
BRANCH  73  76
ATOM     76  S   UNL A   1      37.361  33.072  36.823  1.00  0.00     0.127 S 
ATOM     77  O   UNL A   1      38.489  33.910  37.231  1.00  0.00    -0.237 OA
ATOM     78  O   UNL A   1      36.055  33.723  36.901  1.00  0.00    -0.237 OA
ATOM     79  O   UNL A   1      37.400  31.713  37.349  1.00  0.00    -0.744 OA
ENDBRANCH  73  76
ENDBRANCH  55  69
BRANCH  56  80
ATOM     80  C   UNL A   1      46.602  27.169  30.261  1.00  0.00     0.023 A 
ATOM     81  C   UNL A   1      47.758  27.462  31.051  1.00  0.00     0.012 A 
ATOM     82  C   UNL A   1      46.923  26.445  29.066  1.00  0.00     0.148 A 
ATOM     83  C   UNL A   1      49.081  26.995  30.714  1.00  0.00     0.002 A 
ATOM     84  C   UNL A   1      48.226  25.984  28.734  1.00  0.00     0.091 A 
ATOM     85  F   UNL A   1      45.937  26.233  28.188  1.00  0.00    -0.205 F 
ATOM     86  C   UNL A   1      49.313  26.247  29.563  1.00  0.00     0.022 A 
BRANCH  84  87
ATOM     87  S   UNL A   1      48.555  25.054  27.208  1.00  0.00     0.127 S 
ATOM     88  O   UNL A   1      47.467  24.076  27.159  1.00  0.00    -0.237 OA
ATOM     89  O   UNL A   1      48.465  26.106  26.197  1.00  0.00    -0.237 OA
ATOM     90  O   UNL A   1      49.875  24.466  27.395  1.00  0.00    -0.744 OA
ENDBRANCH  84  87
ENDBRANCH  56  80
BRANCH  68  91
ATOM     91  C   UNL A   1      44.352  31.805  33.404  1.00  0.00     0.023 A 
ATOM     92  C   UNL A   1      44.962  32.955  33.911  1.00  0.00     0.012 A 
ATOM     93  C   UNL A   1      43.787  30.849  34.272  1.00  0.00     0.148 A 
ATOM     94  C   UNL A   1      44.924  33.209  35.272  1.00  0.00     0.002 A 
ATOM     95  C   UNL A   1      43.708  31.131  35.623  1.00  0.00     0.091 A 
ATOM     96  F   UNL A   1      43.207  29.756  33.754  1.00  0.00    -0.205 F 
ATOM     97  C   UNL A   1      44.269  32.316  36.123  1.00  0.00     0.022 A 
BRANCH  95  98
ATOM     98  S   UNL A   1      42.843  30.056  36.773  1.00  0.00     0.127 S 
ATOM     99  O   UNL A   1      42.325  31.015  37.748  1.00  0.00    -0.237 OA
ATOM    100  O   UNL A   1      41.830  29.440  35.920  1.00  0.00    -0.237 OA
ATOM    101  O   UNL A   1      43.845  29.138  37.302  1.00  0.00    -0.744 OA
ENDBRANCH  95  98
ENDBRANCH  68  91
ENDBRANCH  42  43
ENDBRANCH  34  37
ENDBRANCH  32  33
ENDBRANCH  31  32
ENDBRANCH   1  31
TORSDOF 18
ENDMDL
MODEL 3
REMARK VINA RESULT:     -11.9      4.005      9.445
REMARK SMILES Cc1c(CC(=O)NCCCCNC(=O)c2ccc(-c3c4nc(c(-c5cccc(S(=O)(=O)[O-])c5F)c5ccc([nH]5)c(-c5cccc(S(=O)(=O)[O-])c5F)c5nc(c(-c6cccc(S(=O)(=O)[O-])c6F)c6ccc3[nH]6)C=C5)C=C4)cc2)cc(-c2ccc(S(C)(=O)=O)cc2)n1-c1cccc(F)c1
REMARK SMILES IDX 9 1 8 2 7 3 5 4 6 5 4 7 3 8 1 9 2 10 90 11 78 12 79 13 91 14
REMARK SMILES IDX 92 15 97 16 93 17 95 18 94 19 96 20 80 21 81 22 89 23 82 24
REMARK SMILES IDX 88 25 83 26 84 27 85 28 86 29 87 30 10 31 11 32 12 33 13 34
REMARK SMILES IDX 14 36 15 37 16 38 77 39 17 40 76 41 18 42 19 43 20 44 70 45
REMARK SMILES IDX 21 46 75 47 69 48 71 49 22 50 74 51 68 52 67 53 23 55 55 56
REMARK SMILES IDX 35 57 54 58 36 59 39 60 53 61 72 62 37 63 38 64 52 66 73 67
REMARK SMILES IDX 40 68 24 69 25 70 33 71 26 72 28 73 34 74 27 75 29 76 30 77
REMARK SMILES IDX 31 78 32 79 56 80 57 81 65 82 58 83 60 84 66 85 59 86 61 87
REMARK SMILES IDX 62 88 63 89 64 90 41 91 42 92 50 93 43 94 45 95 51 96 44 97
REMARK SMILES IDX 46 98 47 99 48 100 49 101
REMARK H PARENT 7 6 12 35 71 54 39 65
REMARK Flexibility Score: inf
ROOT
ATOM      1  C   UNL A   1      31.681  29.492  24.540  1.00  0.00     0.023 C 
ENDROOT
BRANCH   1   2
ATOM      2  C   UNL A   1      30.397  28.960  23.896  1.00  0.00     0.116 C 
BRANCH   2   3
ATOM      3  N   UNL A   1      30.644  28.228  22.669  1.00  0.00    -0.356 N 
ATOM      4  C   UNL A   1      30.665  26.884  22.430  1.00  0.00     0.224 C 
ATOM      5  O   UNL A   1      30.852  26.504  21.270  1.00  0.00    -0.275 OA
ATOM      6  H   UNL A   1      30.828  28.791  21.881  1.00  0.00     0.163 HD
BRANCH   4   7
ATOM      7  C   UNL A   1      30.440  25.876  23.548  1.00  0.00     0.137 C 
BRANCH   7   8
ATOM      8  C   UNL A   1      31.528  24.850  23.657  1.00  0.00    -0.017 A 
ATOM      9  C   UNL A   1      33.634  26.360  23.778  1.00  0.00     0.065 C 
ATOM     10  C   UNL A   1      32.894  25.059  23.803  1.00  0.00     0.024 A 
ATOM     11  N   UNL A   1      33.519  23.819  23.920  1.00  0.00    -0.313 N 
ATOM     12  C   UNL A   1      31.336  23.447  23.590  1.00  0.00     0.033 A 
ATOM     13  C   UNL A   1      32.551  22.819  23.798  1.00  0.00     0.053 A 
BRANCH  11  14
ATOM     14  C   UNL A   1      34.905  23.595  24.153  1.00  0.00     0.049 A 
ATOM     15  C   UNL A   1      35.668  22.898  23.204  1.00  0.00     0.027 A 
ATOM     16  C   UNL A   1      35.477  23.985  25.367  1.00  0.00     0.065 A 
ATOM     17  C   UNL A   1      36.995  22.567  23.480  1.00  0.00     0.005 A 
ATOM     18  C   UNL A   1      36.798  23.639  25.628  1.00  0.00     0.125 A 
ATOM     19  C   UNL A   1      37.558  22.931  24.701  1.00  0.00     0.039 A 
ATOM     20  F   UNL A   1      37.341  23.963  26.809  1.00  0.00    -0.207 F 
ENDBRANCH  11  14
BRANCH  13  21
ATOM     21  C   UNL A   1      32.779  21.380  23.982  1.00  0.00    -0.001 A 
ATOM     22  C   UNL A   1      33.413  20.892  25.137  1.00  0.00     0.011 A 
ATOM     23  C   UNL A   1      32.349  20.471  23.007  1.00  0.00     0.011 A 
ATOM     24  C   UNL A   1      33.661  19.526  25.291  1.00  0.00     0.021 A 
ATOM     25  C   UNL A   1      32.588  19.102  23.157  1.00  0.00     0.021 A 
ATOM     26  C   UNL A   1      33.258  18.640  24.293  1.00  0.00     0.067 A 
BRANCH  26  27
ATOM     27  S   UNL A   1      33.556  16.898  24.482  1.00  0.00     0.175 S 
ATOM     28  C   UNL A   1      32.387  16.383  25.711  1.00  0.00     0.163 C 
ATOM     29  O   UNL A   1      33.168  16.267  23.211  1.00  0.00    -0.224 OA
ATOM     30  O   UNL A   1      34.867  16.718  25.023  1.00  0.00    -0.224 OA
ENDBRANCH  26  27
ENDBRANCH  13  21
ENDBRANCH   7   8
ENDBRANCH   4   7
ENDBRANCH   2   3
ENDBRANCH   1   2
BRANCH   1  31
ATOM     31  C   UNL A   1      31.968  29.154  26.034  1.00  0.00     0.023 C 
BRANCH  31  32
ATOM     32  C   UNL A   1      32.879  30.078  26.901  1.00  0.00     0.116 C 
BRANCH  32  33
ATOM     33  N   UNL A   1      32.476  31.489  26.893  1.00  0.00    -0.352 N 
ATOM     34  C   UNL A   1      32.810  32.633  27.622  1.00  0.00     0.251 C 
ATOM     35  H   UNL A   1      31.801  31.676  26.201  1.00  0.00     0.163 HD
ATOM     36  O   UNL A   1      32.175  33.646  27.303  1.00  0.00    -0.269 OA
BRANCH  34  37
ATOM     37  C   UNL A   1      33.811  32.757  28.777  1.00  0.00     0.039 A 
ATOM     38  C   UNL A   1      33.896  33.937  29.549  1.00  0.00     0.014 A 
ATOM     39  C   UNL A   1      34.914  31.949  28.946  1.00  0.00     0.014 A 
ATOM     40  C   UNL A   1      34.946  34.228  30.571  1.00  0.00     0.010 A 
ATOM     41  C   UNL A   1      35.983  32.287  29.918  1.00  0.00     0.010 A 
ATOM     42  C   UNL A   1      36.062  33.393  30.893  1.00  0.00    -0.014 A 
BRANCH  42  43
ATOM     43  C   UNL A   1      37.535  34.154  31.623  1.00  0.00     0.031 A 
ATOM     44  C   UNL A   1      38.424  34.078  30.389  1.00  0.00     0.074 A 
ATOM     45  C   UNL A   1      38.316  34.564  32.848  1.00  0.00     0.049 A 
ATOM     46  N   UNL A   1      38.389  32.971  29.703  1.00  0.00    -0.248 NA
ATOM     47  C   UNL A   1      39.659  34.801  30.186  1.00  0.00     0.031 C 
ATOM     48  C   UNL A   1      39.839  34.563  32.909  1.00  0.00     0.029 A 
ATOM     49  N   UNL A   1      38.192  34.802  34.315  1.00  0.00    -0.354 N 
ATOM     50  C   UNL A   1      39.615  32.465  30.040  1.00  0.00     0.074 A 
ATOM     51  C   UNL A   1      40.427  33.702  30.100  1.00  0.00     0.031 C 
ATOM     52  C   UNL A   1      40.438  35.000  34.039  1.00  0.00     0.029 A 
ATOM     53  C   UNL A   1      39.466  35.355  35.093  1.00  0.00     0.049 A 
ATOM     54  H   UNL A   1      37.347  34.623  34.789  1.00  0.00     0.167 HD
ATOM     55  C   UNL A   1      39.562  31.384  30.888  1.00  0.00     0.034 A 
ATOM     56  C   UNL A   1      40.004  35.160  36.412  1.00  0.00     0.034 A 
ATOM     57  C   UNL A   1      38.960  31.340  32.247  1.00  0.00     0.049 A 
ATOM     58  C   UNL A   1      39.705  33.783  36.810  1.00  0.00     0.074 A 
ATOM     59  C   UNL A   1      37.809  31.661  32.960  1.00  0.00     0.029 A 
ATOM     60  N   UNL A   1      39.589  30.545  33.186  1.00  0.00    -0.354 N 
ATOM     61  N   UNL A   1      40.514  32.771  36.797  1.00  0.00    -0.248 NA
ATOM     62  C   UNL A   1      38.310  33.520  37.107  1.00  0.00     0.031 C 
ATOM     63  C   UNL A   1      37.763  31.101  34.245  1.00  0.00     0.029 A 
ATOM     64  C   UNL A   1      39.070  30.787  34.453  1.00  0.00     0.049 A 
ATOM     65  H   UNL A   1      40.305  29.899  32.986  1.00  0.00     0.167 HD
ATOM     66  C   UNL A   1      39.638  31.723  36.578  1.00  0.00     0.074 A 
ATOM     67  C   UNL A   1      38.314  32.206  36.949  1.00  0.00     0.031 C 
ATOM     68  C   UNL A   1      39.951  30.870  35.568  1.00  0.00     0.034 A 
BRANCH  55  69
ATOM     69  C   UNL A   1      39.518  30.122  30.052  1.00  0.00     0.023 A 
ATOM     70  C   UNL A   1      38.305  29.414  29.897  1.00  0.00     0.012 A 
ATOM     71  C   UNL A   1      40.643  29.671  29.338  1.00  0.00     0.148 A 
ATOM     72  C   UNL A   1      38.197  28.356  29.004  1.00  0.00     0.002 A 
ATOM     73  C   UNL A   1      40.508  28.686  28.377  1.00  0.00     0.091 A 
ATOM     74  F   UNL A   1      41.856  30.175  29.605  1.00  0.00    -0.205 F 
ATOM     75  C   UNL A   1      39.286  28.024  28.208  1.00  0.00     0.022 A 
BRANCH  73  76
ATOM     76  S   UNL A   1      41.850  28.284  27.259  1.00  0.00     0.127 S 
ATOM     77  O   UNL A   1      42.810  27.643  28.158  1.00  0.00    -0.237 OA
ATOM     78  O   UNL A   1      41.199  27.380  26.313  1.00  0.00    -0.237 OA
ATOM     79  O   UNL A   1      42.310  29.543  26.686  1.00  0.00    -0.744 OA
ENDBRANCH  73  76
ENDBRANCH  55  69
BRANCH  56  80
ATOM     80  C   UNL A   1      40.516  35.951  37.722  1.00  0.00     0.023 A 
ATOM     81  C   UNL A   1      39.690  36.574  38.711  1.00  0.00     0.012 A 
ATOM     82  C   UNL A   1      41.871  36.421  37.763  1.00  0.00     0.148 A 
ATOM     83  C   UNL A   1      40.200  37.502  39.691  1.00  0.00     0.002 A 
ATOM     84  C   UNL A   1      42.373  37.335  38.728  1.00  0.00     0.091 A 
ATOM     85  F   UNL A   1      42.697  36.005  36.798  1.00  0.00    -0.205 F 
ATOM     86  C   UNL A   1      41.542  37.873  39.708  1.00  0.00     0.022 A 
BRANCH  84  87
ATOM     87  S   UNL A   1      44.108  37.872  38.729  1.00  0.00     0.127 S 
ATOM     88  O   UNL A   1      44.192  38.765  39.887  1.00  0.00    -0.237 OA
ATOM     89  O   UNL A   1      44.810  36.601  38.898  1.00  0.00    -0.237 OA
ATOM     90  O   UNL A   1      44.304  38.539  37.449  1.00  0.00    -0.744 OA
ENDBRANCH  84  87
ENDBRANCH  56  80
BRANCH  68  91
ATOM     91  C   UNL A   1      41.357  30.425  35.444  1.00  0.00     0.023 A 
ATOM     92  C   UNL A   1      41.614  29.156  35.968  1.00  0.00     0.012 A 
ATOM     93  C   UNL A   1      42.310  31.075  34.635  1.00  0.00     0.148 A 
ATOM     94  C   UNL A   1      42.772  28.487  35.609  1.00  0.00     0.002 A 
ATOM     95  C   UNL A   1      43.440  30.384  34.240  1.00  0.00     0.091 A 
ATOM     96  F   UNL A   1      42.033  32.293  34.146  1.00  0.00    -0.205 F 
ATOM     97  C   UNL A   1      43.667  29.085  34.721  1.00  0.00     0.022 A 
BRANCH  95  98
ATOM     98  S   UNL A   1      44.614  31.067  33.065  1.00  0.00     0.127 S 
ATOM     99  O   UNL A   1      43.785  31.224  31.870  1.00  0.00    -0.237 OA
ATOM    100  O   UNL A   1      45.007  32.317  33.709  1.00  0.00    -0.237 OA
ATOM    101  O   UNL A   1      45.679  30.079  32.935  1.00  0.00    -0.744 OA
ENDBRANCH  95  98
ENDBRANCH  68  91
ENDBRANCH  42  43
ENDBRANCH  34  37
ENDBRANCH  32  33
ENDBRANCH  31  32
ENDBRANCH   1  31
TORSDOF 18
ENDMDL
