MODEL 1
REMARK VINA RESULT:     -10.4      0.000      0.000
REMARK SMILES CC(C)C[C@H](NC(=O)CNC(=O)[C@@H](NC(=O)OCc1ccccc1)C(C)C)C(=O)N[C@@H](C)C(=O)NCCCCNC(=O)c1ccc(-c2c3nc(c(-c4cccc(S(=O)(=O)[O-])c4F)c4ccc([nH]4)c(-c4cccc(S(=O)(=O)[O-])c4F)c4nc(c(-c5cccc(S(=O)(=O)[O-])c5F)c5ccc2[nH]5)C=C4)C=C3)cc1
REMARK SMILES IDX 31 1 32 2 30 3 28 4 29 5 5 7 4 8 2 9 1 10 3 11 6 12 7 13
REMARK SMILES IDX 8 15 9 16 10 17 11 18 12 20 13 21 14 22 15 23 16 25 17 26
REMARK SMILES IDX 18 27 19 28 20 29 24 30 21 31 23 32 22 33 25 34 26 35 27 36
REMARK SMILES IDX 33 37 34 38 35 39 36 41 37 42 38 43 39 44 40 45 41 46 42 48
REMARK SMILES IDX 43 49 44 50 105 51 45 52 104 53 46 54 47 55 48 56 98 57
REMARK SMILES IDX 49 58 103 59 97 60 99 61 50 62 102 63 96 64 95 65 51 67
REMARK SMILES IDX 83 68 63 69 82 70 64 71 67 72 81 73 100 74 65 75 66 76 80 78
REMARK SMILES IDX 101 79 68 80 52 81 53 82 61 83 54 84 56 85 62 86 55 87 57 88
REMARK SMILES IDX 58 89 59 90 60 91 84 92 85 93 93 94 86 95 88 96 94 97 87 98
REMARK SMILES IDX 89 99 90 100 91 101 92 102 69 103 70 104 78 105 71 106
REMARK SMILES IDX 73 107 79 108 72 109 74 110 75 111 76 112 77 113
REMARK H PARENT 30 6 6 14 10 19 14 24 35 40 40 47 99 66 67 77
REMARK Flexibility Score: inf
ROOT
ATOM      1  C   UNL A   1      34.930  21.805  24.733  1.00  0.00     0.168 C 
ATOM      2  C   UNL A   1      35.754  20.694  25.365  1.00  0.00     0.041 C 
ENDROOT
BRANCH   1   3
ATOM      3  N   UNL A   1      33.807  21.265  23.962  1.00  0.00    -0.343 N 
ATOM      4  C   UNL A   1      32.688  21.888  23.493  1.00  0.00     0.243 C 
ATOM      5  O   UNL A   1      32.057  21.320  22.599  1.00  0.00    -0.273 OA
ATOM      6  H   UNL A   1      33.869  20.306  23.749  1.00  0.00     0.164 HD
BRANCH   4   7
ATOM      7  C   UNL A   1      32.278  23.285  24.000  1.00  0.00     0.171 C 
BRANCH   7   8
ATOM      8  C   UNL A   1      30.862  23.282  24.595  1.00  0.00     0.038 C 
BRANCH   8   9
ATOM      9  C   UNL A   1      30.768  23.570  26.115  1.00  0.00    -0.015 C 
ATOM     10  C   UNL A   1      29.790  22.673  26.876  1.00  0.00     0.007 C 
ATOM     11  C   UNL A   1      32.157  23.428  26.744  1.00  0.00     0.007 C 
ENDBRANCH   8   9
ENDBRANCH   7   8
BRANCH   7  12
ATOM     12  N   UNL A   1      32.497  24.254  22.918  1.00  0.00    -0.343 N 
ATOM     13  C   UNL A   1      33.298  25.341  22.798  1.00  0.00     0.240 C 
ATOM     14  H   UNL A   1      31.952  24.079  22.117  1.00  0.00     0.164 HD
ATOM     15  O   UNL A   1      33.468  25.771  21.651  1.00  0.00    -0.273 OA
BRANCH  13  16
ATOM     16  C   UNL A   1      34.098  25.952  23.956  1.00  0.00     0.216 C 
BRANCH  16  17
ATOM     17  N   UNL A   1      33.400  26.130  25.206  1.00  0.00    -0.345 N 
ATOM     18  C   UNL A   1      33.381  27.123  26.126  1.00  0.00     0.243 C 
ATOM     19  H   UNL A   1      32.815  25.374  25.438  1.00  0.00     0.164 HD
ATOM     20  O   UNL A   1      32.574  26.968  27.052  1.00  0.00    -0.273 OA
BRANCH  18  21
ATOM     21  C   UNL A   1      34.187  28.448  26.032  1.00  0.00     0.177 C 
BRANCH  21  22
ATOM     22  N   UNL A   1      33.964  29.168  24.777  1.00  0.00    -0.309 N 
ATOM     23  C   UNL A   1      33.004  29.109  23.829  1.00  0.00     0.408 C 
ATOM     24  H   UNL A   1      34.662  29.836  24.582  1.00  0.00     0.167 HD
ATOM     25  O   UNL A   1      33.272  29.440  22.672  1.00  0.00    -0.225 OA
BRANCH  23  26
ATOM     26  O   UNL A   1      31.797  28.694  24.256  1.00  0.00    -0.445 OA
BRANCH  26  27
ATOM     27  C   UNL A   1      30.966  29.726  24.812  1.00  0.00     0.270 C 
BRANCH  27  28
ATOM     28  C   UNL A   1      29.868  30.119  23.847  1.00  0.00    -0.011 A 
ATOM     29  C   UNL A   1      29.448  29.243  22.838  1.00  0.00     0.007 A 
ATOM     30  C   UNL A   1      29.212  31.354  23.978  1.00  0.00     0.007 A 
ATOM     31  C   UNL A   1      28.400  29.598  21.984  1.00  0.00     0.000 A 
ATOM     32  C   UNL A   1      28.150  31.697  23.143  1.00  0.00     0.000 A 
ATOM     33  C   UNL A   1      27.746  30.819  22.141  1.00  0.00     0.000 A 
ENDBRANCH  27  28
ENDBRANCH  26  27
ENDBRANCH  23  26
ENDBRANCH  21  22
BRANCH  21  34
ATOM     34  C   UNL A   1      34.158  29.268  27.335  1.00  0.00     0.015 C 
ATOM     35  C   UNL A   1      35.575  29.647  27.795  1.00  0.00     0.010 C 
ATOM     36  C   UNL A   1      33.366  30.567  27.131  1.00  0.00     0.010 C 
ENDBRANCH  21  34
ENDBRANCH  18  21
ENDBRANCH  16  17
ENDBRANCH  13  16
ENDBRANCH   7  12
ENDBRANCH   4   7
ENDBRANCH   1   3
BRANCH   1  37
ATOM     37  C   UNL A   1      35.795  22.782  23.915  1.00  0.00     0.242 C 
ATOM     38  O   UNL A   1      35.699  22.815  22.685  1.00  0.00    -0.273 OA
ATOM     39  N   UNL A   1      36.614  23.691  24.506  1.00  0.00    -0.354 N 
ATOM     40  H   UNL A   1      37.158  24.221  23.879  1.00  0.00     0.163 HD
BRANCH  39  41
ATOM     41  C   UNL A   1      36.822  24.007  25.902  1.00  0.00     0.116 C 
BRANCH  41  42
ATOM     42  C   UNL A   1      38.290  23.891  26.299  1.00  0.00     0.023 C 
BRANCH  42  43
ATOM     43  C   UNL A   1      38.888  22.493  26.121  1.00  0.00     0.023 C 
BRANCH  43  44
ATOM     44  C   UNL A   1      40.235  22.271  26.801  1.00  0.00     0.116 C 
BRANCH  44  45
ATOM     45  N   UNL A   1      41.333  22.128  25.856  1.00  0.00    -0.352 N 
ATOM     46  C   UNL A   1      42.282  23.051  25.491  1.00  0.00     0.251 C 
ATOM     47  H   UNL A   1      41.406  21.249  25.419  1.00  0.00     0.163 HD
ATOM     48  O   UNL A   1      43.076  22.787  24.593  1.00  0.00    -0.269 OA
BRANCH  46  49
ATOM     49  C   UNL A   1      42.313  24.368  26.158  1.00  0.00     0.039 A 
ATOM     50  C   UNL A   1      42.692  24.427  27.500  1.00  0.00     0.014 A 
ATOM     51  C   UNL A   1      41.996  25.537  25.461  1.00  0.00     0.014 A 
ATOM     52  C   UNL A   1      42.803  25.668  28.129  1.00  0.00     0.010 A 
ATOM     53  C   UNL A   1      42.185  26.775  26.067  1.00  0.00     0.010 A 
ATOM     54  C   UNL A   1      42.580  26.854  27.410  1.00  0.00    -0.014 A 
BRANCH  54  55
ATOM     55  C   UNL A   1      42.770  28.177  28.056  1.00  0.00     0.031 A 
ATOM     56  C   UNL A   1      44.146  28.776  28.182  1.00  0.00     0.074 A 
ATOM     57  C   UNL A   1      41.705  28.817  28.578  1.00  0.00     0.049 A 
ATOM     58  N   UNL A   1      44.495  29.933  28.679  1.00  0.00    -0.248 NA
ATOM     59  C   UNL A   1      45.279  27.961  27.713  1.00  0.00     0.031 C 
ATOM     60  C   UNL A   1      40.335  28.298  28.607  1.00  0.00     0.029 A 
ATOM     61  N   UNL A   1      41.608  30.038  29.197  1.00  0.00    -0.354 N 
ATOM     62  C   UNL A   1      45.883  29.973  28.615  1.00  0.00     0.074 A 
ATOM     63  C   UNL A   1      46.316  28.707  28.065  1.00  0.00     0.031 C 
ATOM     64  C   UNL A   1      39.533  29.203  29.188  1.00  0.00     0.029 A 
ATOM     65  C   UNL A   1      40.330  30.356  29.594  1.00  0.00     0.049 A 
ATOM     66  H   UNL A   1      42.381  30.632  29.343  1.00  0.00     0.167 HD
ATOM     67  C   UNL A   1      46.721  30.983  28.951  1.00  0.00     0.034 A 
ATOM     68  C   UNL A   1      39.853  31.457  30.206  1.00  0.00     0.034 A 
ATOM     69  C   UNL A   1      46.282  32.256  29.453  1.00  0.00     0.049 A 
ATOM     70  C   UNL A   1      40.798  32.588  30.510  1.00  0.00     0.074 A 
ATOM     71  C   UNL A   1      47.040  33.380  29.728  1.00  0.00     0.029 A 
ATOM     72  N   UNL A   1      44.970  32.575  29.768  1.00  0.00    -0.354 N 
ATOM     73  N   UNL A   1      42.083  32.678  30.270  1.00  0.00    -0.248 NA
ATOM     74  C   UNL A   1      40.218  33.787  31.131  1.00  0.00     0.031 C 
ATOM     75  C   UNL A   1      46.190  34.370  30.233  1.00  0.00     0.029 A 
ATOM     76  C   UNL A   1      44.897  33.872  30.244  1.00  0.00     0.049 A 
ATOM     77  H   UNL A   1      44.203  31.966  29.666  1.00  0.00     0.167 HD
ATOM     78  C   UNL A   1      42.458  33.955  30.674  1.00  0.00     0.074 A 
ATOM     79  C   UNL A   1      41.256  34.610  31.149  1.00  0.00     0.031 C 
ATOM     80  C   UNL A   1      43.687  34.529  30.668  1.00  0.00     0.034 A 
BRANCH  67  81
ATOM     81  C   UNL A   1      48.198  30.770  28.737  1.00  0.00     0.023 A 
ATOM     82  C   UNL A   1      48.790  31.169  27.521  1.00  0.00     0.012 A 
ATOM     83  C   UNL A   1      49.009  30.238  29.757  1.00  0.00     0.148 A 
ATOM     84  C   UNL A   1      50.158  31.009  27.309  1.00  0.00     0.002 A 
ATOM     85  C   UNL A   1      50.380  30.126  29.557  1.00  0.00     0.091 A 
ATOM     86  F   UNL A   1      48.426  29.844  30.899  1.00  0.00    -0.205 F 
ATOM     87  C   UNL A   1      50.954  30.498  28.330  1.00  0.00     0.022 A 
BRANCH  85  88
ATOM     88  S   UNL A   1      51.503  29.556  30.837  1.00  0.00     0.127 S 
ATOM     89  O   UNL A   1      50.870  28.303  31.248  1.00  0.00    -0.237 OA
ATOM     90  O   UNL A   1      52.755  29.391  30.098  1.00  0.00    -0.237 OA
ATOM     91  O   UNL A   1      51.527  30.605  31.847  1.00  0.00    -0.744 OA
ENDBRANCH  85  88
ENDBRANCH  67  81
BRANCH  68  92
ATOM     92  C   UNL A   1      38.396  31.582  30.495  1.00  0.00     0.023 A 
ATOM     93  C   UNL A   1      37.861  30.959  31.640  1.00  0.00     0.012 A 
ATOM     94  C   UNL A   1      37.543  32.324  29.656  1.00  0.00     0.148 A 
ATOM     95  C   UNL A   1      36.498  31.037  31.923  1.00  0.00     0.002 A 
ATOM     96  C   UNL A   1      36.194  32.445  29.975  1.00  0.00     0.091 A 
ATOM     97  F   UNL A   1      38.067  32.902  28.567  1.00  0.00    -0.205 F 
ATOM     98  C   UNL A   1      35.667  31.787  31.097  1.00  0.00     0.022 A 
BRANCH  96  99
ATOM     99  S   UNL A   1      35.078  33.499  29.043  1.00  0.00     0.127 S 
ATOM    100  O   UNL A   1      35.474  33.210  27.667  1.00  0.00    -0.237 OA
ATOM    101  O   UNL A   1      33.769  32.973  29.431  1.00  0.00    -0.237 OA
ATOM    102  O   UNL A   1      35.340  34.855  29.507  1.00  0.00    -0.744 OA
ENDBRANCH  96  99
ENDBRANCH  68  92
BRANCH  80 103
ATOM    103  C   UNL A   1      43.792  35.950  31.157  1.00  0.00     0.023 A 
ATOM    104  C   UNL A   1      43.998  36.209  32.526  1.00  0.00     0.012 A 
ATOM    105  C   UNL A   1      43.735  37.028  30.251  1.00  0.00     0.148 A 
ATOM    106  C   UNL A   1      44.101  37.518  32.994  1.00  0.00     0.002 A 
ATOM    107  C   UNL A   1      43.892  38.328  30.716  1.00  0.00     0.091 A 
ATOM    108  F   UNL A   1      43.519  36.765  28.954  1.00  0.00    -0.205 F 
ATOM    109  C   UNL A   1      44.058  38.577  32.088  1.00  0.00     0.022 A 
BRANCH 107 110
ATOM    110  S   UNL A   1      43.950  39.740  29.609  1.00  0.00     0.127 S 
ATOM    111  O   UNL A   1      44.695  40.714  30.405  1.00  0.00    -0.237 OA
ATOM    112  O   UNL A   1      44.681  39.206  28.459  1.00  0.00    -0.237 OA
ATOM    113  O   UNL A   1      42.563  40.085  29.331  1.00  0.00    -0.744 OA
ENDBRANCH 107 110
ENDBRANCH  80 103
ENDBRANCH  54  55
ENDBRANCH  46  49
ENDBRANCH  44  45
ENDBRANCH  43  44
ENDBRANCH  42  43
ENDBRANCH  41  42
ENDBRANCH  39  41
ENDBRANCH   1  37
TORSDOF 27
ENDMDL
MODEL 2
REMARK VINA RESULT:      -9.9      3.265      7.748
REMARK SMILES CC(C)C[C@H](NC(=O)CNC(=O)[C@@H](NC(=O)OCc1ccccc1)C(C)C)C(=O)N[C@@H](C)C(=O)NCCCCNC(=O)c1ccc(-c2c3nc(c(-c4cccc(S(=O)(=O)[O-])c4F)c4ccc([nH]4)c(-c4cccc(S(=O)(=O)[O-])c4F)c4nc(c(-c5cccc(S(=O)(=O)[O-])c5F)c5ccc2[nH]5)C=C4)C=C3)cc1
REMARK SMILES IDX 31 1 32 2 30 3 28 4 29 5 5 7 4 8 2 9 1 10 3 11 6 12 7 13
REMARK SMILES IDX 8 15 9 16 10 17 11 18 12 20 13 21 14 22 15 23 16 25 17 26
REMARK SMILES IDX 18 27 19 28 20 29 24 30 21 31 23 32 22 33 25 34 26 35 27 36
REMARK SMILES IDX 33 37 34 38 35 39 36 41 37 42 38 43 39 44 40 45 41 46 42 48
REMARK SMILES IDX 43 49 44 50 105 51 45 52 104 53 46 54 47 55 48 56 98 57
REMARK SMILES IDX 49 58 103 59 97 60 99 61 50 62 102 63 96 64 95 65 51 67
REMARK SMILES IDX 83 68 63 69 82 70 64 71 67 72 81 73 100 74 65 75 66 76 80 78
REMARK SMILES IDX 101 79 68 80 52 81 53 82 61 83 54 84 56 85 62 86 55 87 57 88
REMARK SMILES IDX 58 89 59 90 60 91 84 92 85 93 93 94 86 95 88 96 94 97 87 98
REMARK SMILES IDX 89 99 90 100 91 101 92 102 69 103 70 104 78 105 71 106
REMARK SMILES IDX 73 107 79 108 72 109 74 110 75 111 76 112 77 113
REMARK H PARENT 30 6 6 14 10 19 14 24 35 40 40 47 99 66 67 77
REMARK Flexibility Score: inf
ROOT
ATOM      1  C   UNL A   1      35.224  22.318  24.706  1.00  0.00     0.168 C 
ATOM      2  C   UNL A   1      35.575  20.983  25.344  1.00  0.00     0.041 C 
ENDROOT
BRANCH   1   3
ATOM      3  N   UNL A   1      33.988  22.230  23.924  1.00  0.00    -0.343 N 
ATOM      4  C   UNL A   1      32.968  23.126  23.795  1.00  0.00     0.243 C 
ATOM      5  O   UNL A   1      32.206  22.981  22.837  1.00  0.00    -0.273 OA
ATOM      6  H   UNL A   1      33.876  21.396  23.413  1.00  0.00     0.164 HD
BRANCH   4   7
ATOM      7  C   UNL A   1      32.827  24.321  24.758  1.00  0.00     0.171 C 
BRANCH   7   8
ATOM      8  C   UNL A   1      33.126  23.921  26.210  1.00  0.00     0.038 C 
BRANCH   8   9
ATOM      9  C   UNL A   1      32.404  22.649  26.723  1.00  0.00    -0.015 C 
ATOM     10  C   UNL A   1      33.019  22.027  27.977  1.00  0.00     0.007 C 
ATOM     11  C   UNL A   1      30.936  22.981  27.007  1.00  0.00     0.007 C 
ENDBRANCH   8   9
ENDBRANCH   7   8
BRANCH   7  12
ATOM     12  N   UNL A   1      31.511  24.938  24.541  1.00  0.00    -0.343 N 
ATOM     13  C   UNL A   1      30.884  26.000  25.106  1.00  0.00     0.240 C 
ATOM     14  H   UNL A   1      30.977  24.492  23.846  1.00  0.00     0.164 HD
ATOM     15  O   UNL A   1      29.903  26.442  24.495  1.00  0.00    -0.273 OA
BRANCH  13  16
ATOM     16  C   UNL A   1      31.401  26.748  26.340  1.00  0.00     0.216 C 
BRANCH  16  17
ATOM     17  N   UNL A   1      31.196  28.177  26.368  1.00  0.00    -0.345 N 
ATOM     18  C   UNL A   1      32.005  29.236  26.131  1.00  0.00     0.243 C 
ATOM     19  H   UNL A   1      30.277  28.435  26.609  1.00  0.00     0.164 HD
ATOM     20  O   UNL A   1      31.448  30.342  26.161  1.00  0.00    -0.273 OA
BRANCH  18  21
ATOM     21  C   UNL A   1      33.500  29.147  25.719  1.00  0.00     0.177 C 
BRANCH  21  22
ATOM     22  N   UNL A   1      33.713  29.337  24.284  1.00  0.00    -0.309 N 
ATOM     23  C   UNL A   1      33.041  28.934  23.183  1.00  0.00     0.408 C 
ATOM     24  H   UNL A   1      34.516  29.868  24.076  1.00  0.00     0.167 HD
ATOM     25  O   UNL A   1      33.647  28.794  22.119  1.00  0.00    -0.225 OA
BRANCH  23  26
ATOM     26  O   UNL A   1      31.721  28.733  23.355  1.00  0.00    -0.445 OA
BRANCH  26  27
ATOM     27  C   UNL A   1      30.932  28.856  22.161  1.00  0.00     0.270 C 
BRANCH  27  28
ATOM     28  C   UNL A   1      29.836  29.886  22.336  1.00  0.00    -0.011 A 
ATOM     29  C   UNL A   1      29.500  30.764  21.298  1.00  0.00     0.007 A 
ATOM     30  C   UNL A   1      29.099  29.947  23.531  1.00  0.00     0.007 A 
ATOM     31  C   UNL A   1      28.454  31.678  21.456  1.00  0.00     0.000 A 
ATOM     32  C   UNL A   1      28.040  30.840  23.678  1.00  0.00     0.000 A 
ATOM     33  C   UNL A   1      27.719  31.710  22.640  1.00  0.00     0.000 A 
ENDBRANCH  27  28
ENDBRANCH  26  27
ENDBRANCH  23  26
ENDBRANCH  21  22
BRANCH  21  34
ATOM     34  C   UNL A   1      34.438  29.902  26.681  1.00  0.00     0.015 C 
ATOM     35  C   UNL A   1      33.707  31.050  27.396  1.00  0.00     0.010 C 
ATOM     36  C   UNL A   1      34.981  28.949  27.755  1.00  0.00     0.010 C 
ENDBRANCH  21  34
ENDBRANCH  18  21
ENDBRANCH  16  17
ENDBRANCH  13  16
ENDBRANCH   7  12
ENDBRANCH   4   7
ENDBRANCH   1   3
BRANCH   1  37
ATOM     37  C   UNL A   1      36.395  22.906  23.898  1.00  0.00     0.242 C 
ATOM     38  O   UNL A   1      36.331  22.968  22.666  1.00  0.00    -0.273 OA
ATOM     39  N   UNL A   1      37.486  23.452  24.498  1.00  0.00    -0.354 N 
ATOM     40  H   UNL A   1      38.193  23.743  23.877  1.00  0.00     0.163 HD
BRANCH  39  41
ATOM     41  C   UNL A   1      37.782  23.674  25.896  1.00  0.00     0.116 C 
BRANCH  41  42
ATOM     42  C   UNL A   1      39.038  22.931  26.336  1.00  0.00     0.023 C 
BRANCH  42  43
ATOM     43  C   UNL A   1      39.196  21.534  25.730  1.00  0.00     0.023 C 
BRANCH  43  44
ATOM     44  C   UNL A   1      39.528  20.427  26.725  1.00  0.00     0.116 C 
BRANCH  44  45
ATOM     45  N   UNL A   1      40.493  19.467  26.209  1.00  0.00    -0.352 N 
ATOM     46  C   UNL A   1      41.823  19.651  25.923  1.00  0.00     0.251 C 
ATOM     47  H   UNL A   1      40.144  18.562  26.041  1.00  0.00     0.163 HD
ATOM     48  O   UNL A   1      42.463  18.748  25.391  1.00  0.00    -0.269 OA
BRANCH  46  49
ATOM     49  C   UNL A   1      42.463  20.946  26.225  1.00  0.00     0.039 A 
ATOM     50  C   UNL A   1      42.755  21.809  25.168  1.00  0.00     0.014 A 
ATOM     51  C   UNL A   1      42.749  21.318  27.542  1.00  0.00     0.014 A 
ATOM     52  C   UNL A   1      43.288  23.070  25.437  1.00  0.00     0.010 A 
ATOM     53  C   UNL A   1      43.205  22.605  27.812  1.00  0.00     0.010 A 
ATOM     54  C   UNL A   1      43.491  23.490  26.763  1.00  0.00    -0.014 A 
BRANCH  54  55
ATOM     55  C   UNL A   1      43.987  24.859  27.055  1.00  0.00     0.031 A 
ATOM     56  C   UNL A   1      43.071  25.894  27.650  1.00  0.00     0.074 A 
ATOM     57  C   UNL A   1      45.255  25.185  26.733  1.00  0.00     0.049 A 
ATOM     58  N   UNL A   1      43.342  27.123  28.006  1.00  0.00    -0.248 NA
ATOM     59  C   UNL A   1      41.663  25.511  27.850  1.00  0.00     0.031 C 
ATOM     60  C   UNL A   1      46.213  24.301  26.062  1.00  0.00     0.029 A 
ATOM     61  N   UNL A   1      45.955  26.351  26.914  1.00  0.00    -0.354 N 
ATOM     62  C   UNL A   1      42.139  27.669  28.437  1.00  0.00     0.074 A 
ATOM     63  C   UNL A   1      41.127  26.650  28.264  1.00  0.00     0.031 C 
ATOM     64  C   UNL A   1      47.379  24.947  25.912  1.00  0.00     0.029 A 
ATOM     65  C   UNL A   1      47.250  26.296  26.452  1.00  0.00     0.049 A 
ATOM     66  H   UNL A   1      45.566  27.152  27.335  1.00  0.00     0.167 HD
ATOM     67  C   UNL A   1      41.902  28.895  28.962  1.00  0.00     0.034 A 
ATOM     68  C   UNL A   1      48.224  27.225  26.473  1.00  0.00     0.034 A 
ATOM     69  C   UNL A   1      42.920  29.887  29.176  1.00  0.00     0.049 A 
ATOM     70  C   UNL A   1      47.949  28.556  27.119  1.00  0.00     0.074 A 
ATOM     71  C   UNL A   1      42.803  31.120  29.793  1.00  0.00     0.029 A 
ATOM     72  N   UNL A   1      44.240  29.768  28.771  1.00  0.00    -0.354 N 
ATOM     73  N   UNL A   1      46.850  28.985  27.690  1.00  0.00    -0.248 NA
ATOM     74  C   UNL A   1      49.062  29.514  27.161  1.00  0.00     0.031 C 
ATOM     75  C   UNL A   1      44.047  31.757  29.738  1.00  0.00     0.029 A 
ATOM     76  C   UNL A   1      44.947  30.908  29.113  1.00  0.00     0.049 A 
ATOM     77  H   UNL A   1      44.619  28.986  28.307  1.00  0.00     0.167 HD
ATOM     78  C   UNL A   1      47.150  30.247  28.193  1.00  0.00     0.074 A 
ATOM     79  C   UNL A   1      48.543  30.499  27.881  1.00  0.00     0.031 C 
ATOM     80  C   UNL A   1      46.344  31.125  28.840  1.00  0.00     0.034 A 
BRANCH  67  81
ATOM     81  C   UNL A   1      40.492  29.214  29.391  1.00  0.00     0.023 A 
ATOM     82  C   UNL A   1      39.570  29.705  28.445  1.00  0.00     0.012 A 
ATOM     83  C   UNL A   1      40.064  28.967  30.710  1.00  0.00     0.148 A 
ATOM     84  C   UNL A   1      38.253  29.981  28.811  1.00  0.00     0.002 A 
ATOM     85  C   UNL A   1      38.737  29.199  31.056  1.00  0.00     0.091 A 
ATOM     86  F   UNL A   1      40.959  28.519  31.601  1.00  0.00    -0.205 F 
ATOM     87  C   UNL A   1      37.834  29.717  30.112  1.00  0.00     0.022 A 
BRANCH  85  88
ATOM     88  S   UNL A   1      38.078  28.816  32.682  1.00  0.00     0.127 S 
ATOM     89  O   UNL A   1      36.700  29.290  32.560  1.00  0.00    -0.237 OA
ATOM     90  O   UNL A   1      38.219  27.361  32.736  1.00  0.00    -0.237 OA
ATOM     91  O   UNL A   1      38.907  29.542  33.633  1.00  0.00    -0.744 OA
ENDBRANCH  85  88
ENDBRANCH  67  81
BRANCH  68  92
ATOM     92  C   UNL A   1      49.579  26.901  25.942  1.00  0.00     0.023 A 
ATOM     93  C   UNL A   1      50.510  26.247  26.774  1.00  0.00     0.012 A 
ATOM     94  C   UNL A   1      49.946  27.221  24.621  1.00  0.00     0.148 A 
ATOM     95  C   UNL A   1      51.793  25.952  26.314  1.00  0.00     0.002 A 
ATOM     96  C   UNL A   1      51.208  26.874  24.151  1.00  0.00     0.091 A 
ATOM     97  F   UNL A   1      49.052  27.852  23.848  1.00  0.00    -0.205 F 
ATOM     98  C   UNL A   1      52.139  26.257  25.001  1.00  0.00     0.022 A 
BRANCH  96  99
ATOM     99  S   UNL A   1      51.692  27.108  22.437  1.00  0.00     0.127 S 
ATOM    100  O   UNL A   1      50.531  26.582  21.724  1.00  0.00    -0.237 OA
ATOM    101  O   UNL A   1      51.855  28.561  22.364  1.00  0.00    -0.237 OA
ATOM    102  O   UNL A   1      52.931  26.359  22.274  1.00  0.00    -0.744 OA
ENDBRANCH  96  99
ENDBRANCH  68  92
BRANCH  80 103
ATOM    103  C   UNL A   1      46.954  32.427  29.288  1.00  0.00     0.023 A 
ATOM    104  C   UNL A   1      47.566  32.519  30.554  1.00  0.00     0.012 A 
ATOM    105  C   UNL A   1      46.966  33.547  28.433  1.00  0.00     0.148 A 
ATOM    106  C   UNL A   1      48.138  33.716  30.981  1.00  0.00     0.002 A 
ATOM    107  C   UNL A   1      47.586  34.721  28.843  1.00  0.00     0.091 A 
ATOM    108  F   UNL A   1      46.363  33.449  27.239  1.00  0.00    -0.205 F 
ATOM    109  C   UNL A   1      48.158  34.814  30.122  1.00  0.00     0.022 A 
BRANCH 107 110
ATOM    110  S   UNL A   1      47.744  36.148  27.764  1.00  0.00     0.127 S 
ATOM    111  O   UNL A   1      46.588  35.986  26.883  1.00  0.00    -0.237 OA
ATOM    112  O   UNL A   1      47.641  37.264  28.704  1.00  0.00    -0.237 OA
ATOM    113  O   UNL A   1      49.045  36.020  27.124  1.00  0.00    -0.744 OA
ENDBRANCH 107 110
ENDBRANCH  80 103
ENDBRANCH  54  55
ENDBRANCH  46  49
ENDBRANCH  44  45
ENDBRANCH  43  44
ENDBRANCH  42  43
ENDBRANCH  41  42
ENDBRANCH  39  41
ENDBRANCH   1  37
TORSDOF 27
ENDMDL
MODEL 3
REMARK VINA RESULT:      -9.7      3.350      9.312
REMARK SMILES CC(C)C[C@H](NC(=O)CNC(=O)[C@@H](NC(=O)OCc1ccccc1)C(C)C)C(=O)N[C@@H](C)C(=O)NCCCCNC(=O)c1ccc(-c2c3nc(c(-c4cccc(S(=O)(=O)[O-])c4F)c4ccc([nH]4)c(-c4cccc(S(=O)(=O)[O-])c4F)c4nc(c(-c5cccc(S(=O)(=O)[O-])c5F)c5ccc2[nH]5)C=C4)C=C3)cc1
REMARK SMILES IDX 31 1 32 2 30 3 28 4 29 5 5 7 4 8 2 9 1 10 3 11 6 12 7 13
REMARK SMILES IDX 8 15 9 16 10 17 11 18 12 20 13 21 14 22 15 23 16 25 17 26
REMARK SMILES IDX 18 27 19 28 20 29 24 30 21 31 23 32 22 33 25 34 26 35 27 36
REMARK SMILES IDX 33 37 34 38 35 39 36 41 37 42 38 43 39 44 40 45 41 46 42 48
REMARK SMILES IDX 43 49 44 50 105 51 45 52 104 53 46 54 47 55 48 56 98 57
REMARK SMILES IDX 49 58 103 59 97 60 99 61 50 62 102 63 96 64 95 65 51 67
REMARK SMILES IDX 83 68 63 69 82 70 64 71 67 72 81 73 100 74 65 75 66 76 80 78
REMARK SMILES IDX 101 79 68 80 52 81 53 82 61 83 54 84 56 85 62 86 55 87 57 88
REMARK SMILES IDX 58 89 59 90 60 91 84 92 85 93 93 94 86 95 88 96 94 97 87 98
REMARK SMILES IDX 89 99 90 100 91 101 92 102 69 103 70 104 78 105 71 106
REMARK SMILES IDX 73 107 79 108 72 109 74 110 75 111 76 112 77 113
REMARK H PARENT 30 6 6 14 10 19 14 24 35 40 40 47 99 66 67 77
REMARK Flexibility Score: inf
ROOT
ATOM      1  C   UNL A   1      33.391  27.191  26.216  1.00  0.00     0.168 C 
ATOM      2  C   UNL A   1      33.369  27.887  24.864  1.00  0.00     0.041 C 
ENDROOT
BRANCH   1   3
ATOM      3  N   UNL A   1      32.674  25.914  26.172  1.00  0.00    -0.343 N 
ATOM      4  C   UNL A   1      33.129  24.665  25.871  1.00  0.00     0.243 C 
ATOM      5  O   UNL A   1      32.432  23.709  26.221  1.00  0.00    -0.273 OA
ATOM      6  H   UNL A   1      31.716  25.966  26.394  1.00  0.00     0.164 HD
BRANCH   4   7
ATOM      7  C   UNL A   1      34.500  24.453  25.199  1.00  0.00     0.171 C 
BRANCH   7   8
ATOM      8  C   UNL A   1      34.467  24.826  23.710  1.00  0.00     0.038 C 
BRANCH   8   9
ATOM      9  C   UNL A   1      33.158  24.483  22.956  1.00  0.00    -0.015 C 
ATOM     10  C   UNL A   1      32.760  25.488  21.874  1.00  0.00     0.007 C 
ATOM     11  C   UNL A   1      33.291  23.098  22.316  1.00  0.00     0.007 C 
ENDBRANCH   8   9
ENDBRANCH   7   8
BRANCH   7  12
ATOM     12  N   UNL A   1      34.953  23.086  25.489  1.00  0.00    -0.343 N 
ATOM     13  C   UNL A   1      36.176  22.546  25.714  1.00  0.00     0.240 C 
ATOM     14  H   UNL A   1      34.221  22.429  25.528  1.00  0.00     0.164 HD
ATOM     15  O   UNL A   1      36.190  21.418  26.221  1.00  0.00    -0.273 OA
BRANCH  13  16
ATOM     16  C   UNL A   1      37.498  23.298  25.518  1.00  0.00     0.216 C 
BRANCH  16  17
ATOM     17  N   UNL A   1      38.374  23.383  26.662  1.00  0.00    -0.345 N 
ATOM     18  C   UNL A   1      39.577  22.835  26.953  1.00  0.00     0.243 C 
ATOM     19  H   UNL A   1      38.024  23.958  27.380  1.00  0.00     0.164 HD
ATOM     20  O   UNL A   1      40.084  23.213  28.018  1.00  0.00    -0.273 OA
BRANCH  18  21
ATOM     21  C   UNL A   1      40.385  21.895  26.016  1.00  0.00     0.177 C 
BRANCH  21  22
ATOM     22  N   UNL A   1      41.805  22.242  25.940  1.00  0.00    -0.309 N 
ATOM     23  C   UNL A   1      42.474  23.334  25.509  1.00  0.00     0.408 C 
ATOM     24  H   UNL A   1      42.398  21.530  26.273  1.00  0.00     0.167 HD
ATOM     25  O   UNL A   1      43.629  23.214  25.096  1.00  0.00    -0.225 OA
BRANCH  23  26
ATOM     26  O   UNL A   1      41.796  24.494  25.588  1.00  0.00    -0.445 OA
BRANCH  26  27
ATOM     27  C   UNL A   1      42.438  25.515  26.369  1.00  0.00     0.270 C 
BRANCH  27  28
ATOM     28  C   UNL A   1      41.483  26.651  26.671  1.00  0.00    -0.011 A 
ATOM     29  C   UNL A   1      40.432  26.484  27.581  1.00  0.00     0.007 A 
ATOM     30  C   UNL A   1      41.664  27.912  26.080  1.00  0.00     0.007 A 
ATOM     31  C   UNL A   1      39.586  27.555  27.889  1.00  0.00     0.000 A 
ATOM     32  C   UNL A   1      40.837  28.985  26.406  1.00  0.00     0.000 A 
ATOM     33  C   UNL A   1      39.794  28.805  27.308  1.00  0.00     0.000 A 
ENDBRANCH  27  28
ENDBRANCH  26  27
ENDBRANCH  23  26
ENDBRANCH  21  22
BRANCH  21  34
ATOM     34  C   UNL A   1      40.027  20.408  26.196  1.00  0.00     0.015 C 
ATOM     35  C   UNL A   1      39.005  19.944  25.146  1.00  0.00     0.010 C 
ATOM     36  C   UNL A   1      41.281  19.535  26.050  1.00  0.00     0.010 C 
ENDBRANCH  21  34
ENDBRANCH  18  21
ENDBRANCH  16  17
ENDBRANCH  13  16
ENDBRANCH   7  12
ENDBRANCH   4   7
ENDBRANCH   1   3
BRANCH   1  37
ATOM     37  C   UNL A   1      32.901  28.107  27.353  1.00  0.00     0.242 C 
ATOM     38  O   UNL A   1      31.783  27.937  27.849  1.00  0.00    -0.273 OA
ATOM     39  N   UNL A   1      33.696  29.060  27.906  1.00  0.00    -0.354 N 
ATOM     40  H   UNL A   1      33.253  29.619  28.586  1.00  0.00     0.163 HD
BRANCH  39  41
ATOM     41  C   UNL A   1      35.082  29.391  27.663  1.00  0.00     0.116 C 
BRANCH  41  42
ATOM     42  C   UNL A   1      35.362  30.873  27.893  1.00  0.00     0.023 C 
BRANCH  42  43
ATOM     43  C   UNL A   1      34.608  31.485  29.076  1.00  0.00     0.023 C 
BRANCH  43  44
ATOM     44  C   UNL A   1      35.473  31.857  30.276  1.00  0.00     0.116 C 
BRANCH  44  45
ATOM     45  N   UNL A   1      35.650  30.758  31.214  1.00  0.00    -0.352 N 
ATOM     46  C   UNL A   1      36.813  30.163  31.636  1.00  0.00     0.251 C 
ATOM     47  H   UNL A   1      34.822  30.391  31.599  1.00  0.00     0.163 HD
ATOM     48  O   UNL A   1      36.764  29.171  32.358  1.00  0.00    -0.269 OA
BRANCH  46  49
ATOM     49  C   UNL A   1      38.113  30.701  31.187  1.00  0.00     0.039 A 
ATOM     50  C   UNL A   1      39.169  30.739  32.098  1.00  0.00     0.014 A 
ATOM     51  C   UNL A   1      38.295  31.144  29.874  1.00  0.00     0.014 A 
ATOM     52  C   UNL A   1      40.427  31.171  31.675  1.00  0.00     0.010 A 
ATOM     53  C   UNL A   1      39.567  31.498  29.435  1.00  0.00     0.010 A 
ATOM     54  C   UNL A   1      40.643  31.527  30.333  1.00  0.00    -0.014 A 
BRANCH  54  55
ATOM     55  C   UNL A   1      41.997  31.916  29.863  1.00  0.00     0.031 A 
ATOM     56  C   UNL A   1      42.354  33.366  29.674  1.00  0.00     0.074 A 
ATOM     57  C   UNL A   1      42.891  30.955  29.554  1.00  0.00     0.049 A 
ATOM     58  N   UNL A   1      43.495  33.890  29.310  1.00  0.00    -0.248 NA
ATOM     59  C   UNL A   1      41.287  34.356  29.898  1.00  0.00     0.031 C 
ATOM     60  C   UNL A   1      42.635  29.513  29.601  1.00  0.00     0.029 A 
ATOM     61  N   UNL A   1      44.192  31.045  29.128  1.00  0.00    -0.354 N 
ATOM     62  C   UNL A   1      43.277  35.260  29.228  1.00  0.00     0.074 A 
ATOM     63  C   UNL A   1      41.884  35.485  29.544  1.00  0.00     0.031 C 
ATOM     64  C   UNL A   1      43.748  28.855  29.244  1.00  0.00     0.029 A 
ATOM     65  C   UNL A   1      44.791  29.823  28.921  1.00  0.00     0.049 A 
ATOM     66  H   UNL A   1      44.654  31.903  28.985  1.00  0.00     0.167 HD
ATOM     67  C   UNL A   1      44.162  36.246  28.949  1.00  0.00     0.034 A 
ATOM     68  C   UNL A   1      46.042  29.520  28.525  1.00  0.00     0.034 A 
ATOM     69  C   UNL A   1      45.557  36.022  28.682  1.00  0.00     0.049 A 
ATOM     70  C   UNL A   1      47.021  30.637  28.283  1.00  0.00     0.074 A 
ATOM     71  C   UNL A   1      46.558  36.957  28.487  1.00  0.00     0.029 A 
ATOM     72  N   UNL A   1      46.149  34.774  28.560  1.00  0.00    -0.354 N 
ATOM     73  N   UNL A   1      46.841  31.930  28.393  1.00  0.00    -0.248 NA
ATOM     74  C   UNL A   1      48.387  30.249  27.903  1.00  0.00     0.031 C 
ATOM     75  C   UNL A   1      47.750  36.275  28.222  1.00  0.00     0.029 A 
ATOM     76  C   UNL A   1      47.498  34.914  28.281  1.00  0.00     0.049 A 
ATOM     77  H   UNL A   1      45.678  33.915  28.657  1.00  0.00     0.167 HD
ATOM     78  C   UNL A   1      48.079  32.510  28.134  1.00  0.00     0.074 A 
ATOM     79  C   UNL A   1      49.005  31.422  27.889  1.00  0.00     0.031 C 
ATOM     80  C   UNL A   1      48.417  33.822  28.088  1.00  0.00     0.034 A 
BRANCH  67  81
ATOM     81  C   UNL A   1      43.660  37.667  28.970  1.00  0.00     0.023 A 
ATOM     82  C   UNL A   1      42.951  38.172  27.861  1.00  0.00     0.012 A 
ATOM     83  C   UNL A   1      43.830  38.479  30.108  1.00  0.00     0.148 A 
ATOM     84  C   UNL A   1      42.451  39.474  27.868  1.00  0.00     0.002 A 
ATOM     85  C   UNL A   1      43.288  39.760  30.126  1.00  0.00     0.091 A 
ATOM     86  F   UNL A   1      44.525  37.990  31.145  1.00  0.00    -0.205 F 
ATOM     87  C   UNL A   1      42.610  40.263  29.004  1.00  0.00     0.022 A 
BRANCH  85  88
ATOM     88  S   UNL A   1      43.367  40.825  31.570  1.00  0.00     0.127 S 
ATOM     89  O   UNL A   1      42.545  41.958  31.145  1.00  0.00    -0.237 OA
ATOM     90  O   UNL A   1      42.760  39.987  32.604  1.00  0.00    -0.237 OA
ATOM     91  O   UNL A   1      44.778  41.119  31.776  1.00  0.00    -0.744 OA
ENDBRANCH  85  88
ENDBRANCH  67  81
BRANCH  68  92
ATOM     92  C   UNL A   1      46.469  28.095  28.417  1.00  0.00     0.023 A 
ATOM     93  C   UNL A   1      46.756  27.369  29.590  1.00  0.00     0.012 A 
ATOM     94  C   UNL A   1      46.576  27.453  27.169  1.00  0.00     0.148 A 
ATOM     95  C   UNL A   1      47.182  26.042  29.521  1.00  0.00     0.002 A 
ATOM     96  C   UNL A   1      46.946  26.114  27.111  1.00  0.00     0.091 A 
ATOM     97  F   UNL A   1      46.308  28.162  26.064  1.00  0.00    -0.205 F 
ATOM     98  C   UNL A   1      47.267  25.412  28.283  1.00  0.00     0.022 A 
BRANCH  96  99
ATOM     99  S   UNL A   1      46.954  25.187  25.572  1.00  0.00     0.127 S 
ATOM    100  O   UNL A   1      45.708  25.628  24.951  1.00  0.00    -0.237 OA
ATOM    101  O   UNL A   1      48.173  25.680  24.928  1.00  0.00    -0.237 OA
ATOM    102  O   UNL A   1      47.008  23.784  25.961  1.00  0.00    -0.744 OA
ENDBRANCH  96  99
ENDBRANCH  68  92
BRANCH  80 103
ATOM    103  C   UNL A   1      49.857  34.158  27.795  1.00  0.00     0.023 A 
ATOM    104  C   UNL A   1      50.776  34.297  28.854  1.00  0.00     0.012 A 
ATOM    105  C   UNL A   1      50.309  34.287  26.467  1.00  0.00     0.148 A 
ATOM    106  C   UNL A   1      52.112  34.604  28.599  1.00  0.00     0.002 A 
ATOM    107  C   UNL A   1      51.652  34.539  26.218  1.00  0.00     0.091 A 
ATOM    108  F   UNL A   1      49.417  34.171  25.472  1.00  0.00    -0.205 F 
ATOM    109  C   UNL A   1      52.552  34.715  27.281  1.00  0.00     0.022 A 
BRANCH 107 110
ATOM    110  S   UNL A   1      52.323  34.598  24.552  1.00  0.00     0.127 S 
ATOM    111  O   UNL A   1      53.753  34.424  24.799  1.00  0.00    -0.237 OA
ATOM    112  O   UNL A   1      51.672  33.455  23.913  1.00  0.00    -0.237 OA
ATOM    113  O   UNL A   1      51.930  35.892  24.012  1.00  0.00    -0.744 OA
ENDBRANCH 107 110
ENDBRANCH  80 103
ENDBRANCH  54  55
ENDBRANCH  46  49
ENDBRANCH  44  45
ENDBRANCH  43  44
ENDBRANCH  42  43
ENDBRANCH  41  42
ENDBRANCH  39  41
ENDBRANCH   1  37
TORSDOF 27
ENDMDL
