MODEL 1
REMARK VINA RESULT:     -12.7      0.000      0.000
REMARK SMILES O=C(C[C@H]1C[C@H]2CC[C@@H](C1)[N@H+]2C[C@@H]1CCCOC1)NCCCCNC(=O)c1ccc(-c2c3nc(c(-c4cccc(S(=O)(=O)[O-])c4F)c4ccc([nH]4)c(-c4cccc(S(=O)(=O)[O-])c4F)c4nc(c(-c5cccc(S(=O)(=O)[O-])c5F)c5ccc2[nH]5)C=C4)C=C3)cc1
REMARK SMILES IDX 21 1 20 2 19 3 1 4 2 5 3 7 4 8 5 9 10 10 6 11 9 12 7 13
REMARK SMILES IDX 11 14 8 15 12 17 13 18 14 19 18 20 15 21 17 22 16 23 22 24
REMARK SMILES IDX 23 25 24 26 25 27 26 29 27 30 28 31 89 32 29 33 88 34 30 35
REMARK SMILES IDX 31 36 32 37 82 38 33 39 87 40 81 41 83 42 34 43 86 44 80 45
REMARK SMILES IDX 79 46 35 48 67 49 47 50 66 51 48 52 51 53 65 54 84 55 49 56
REMARK SMILES IDX 50 57 64 59 85 60 52 61 36 62 37 63 45 64 38 65 40 66 46 67
REMARK SMILES IDX 39 68 41 69 42 70 43 71 44 72 68 73 69 74 77 75 70 76 72 77
REMARK SMILES IDX 78 78 71 79 73 80 74 81 75 82 76 83 53 84 54 85 62 86 55 87
REMARK SMILES IDX 57 88 63 89 56 90 58 91 59 92 60 93 61 94
REMARK H PARENT 19 6 11 16 24 28 83 47 51 58
REMARK Flexibility Score: inf
ROOT
ATOM      1  C   UNL A   1      34.375  21.145  24.790  1.00  0.00     0.023 C 
ENDROOT
BRANCH   1   2
ATOM      2  C   UNL A   1      33.306  20.599  25.734  1.00  0.00     0.116 C 
BRANCH   2   3
ATOM      3  N   UNL A   1      32.144  21.460  25.741  1.00  0.00    -0.356 N 
ATOM      4  O   UNL A   1      32.893  22.887  27.384  1.00  0.00    -0.275 OA
ATOM      5  C   UNL A   1      32.015  22.516  26.613  1.00  0.00     0.220 C 
ATOM      6  H   UNL A   1      31.418  21.284  25.099  1.00  0.00     0.163 HD
BRANCH   5   7
ATOM      7  C   UNL A   1      30.658  23.183  26.553  1.00  0.00     0.104 C 
BRANCH   7   8
ATOM      8  C   UNL A   1      30.616  24.317  25.525  1.00  0.00     0.010 C 
ATOM      9  C   UNL A   1      31.126  25.633  26.153  1.00  0.00     0.069 C 
ATOM     10  C   UNL A   1      31.266  23.874  24.191  1.00  0.00     0.069 C 
ATOM     11  C   UNL A   1      32.114  26.415  25.290  1.00  0.00     0.184 C 
ATOM     12  C   UNL A   1      32.243  24.870  23.567  1.00  0.00     0.184 C 
ATOM     13  C   UNL A   1      33.500  25.764  25.449  1.00  0.00     0.071 C 
ATOM     14  N   UNL A   1      31.873  26.231  23.873  1.00  0.00    -0.330 N 
ATOM     15  C   UNL A   1      33.597  24.768  24.295  1.00  0.00     0.071 C 
ATOM     16  H   UNL A   1      32.393  26.885  23.288  1.00  0.00     0.348 HD
BRANCH  14  17
ATOM     17  C   UNL A   1      30.969  27.051  23.086  1.00  0.00     0.268 C 
BRANCH  17  18
ATOM     18  C   UNL A   1      29.894  28.053  23.617  1.00  0.00     0.070 C 
ATOM     19  C   UNL A   1      28.440  27.576  23.497  1.00  0.00     0.014 C 
ATOM     20  C   UNL A   1      30.162  29.518  23.265  1.00  0.00     0.169 C 
ATOM     21  C   UNL A   1      27.377  28.627  23.183  1.00  0.00     0.029 C 
ATOM     22  O   UNL A   1      29.022  30.355  23.443  1.00  0.00    -0.381 OA
ATOM     23  C   UNL A   1      27.929  29.930  22.643  1.00  0.00     0.160 C 
ENDBRANCH  17  18
ENDBRANCH  14  17
ENDBRANCH   7   8
ENDBRANCH   5   7
ENDBRANCH   2   3
ENDBRANCH   1   2
BRANCH   1  24
ATOM     24  C   UNL A   1      35.614  21.707  25.491  1.00  0.00     0.023 C 
BRANCH  24  25
ATOM     25  C   UNL A   1      36.910  21.616  24.690  1.00  0.00     0.116 C 
BRANCH  25  26
ATOM     26  N   UNL A   1      37.760  20.517  25.121  1.00  0.00    -0.352 N 
ATOM     27  C   UNL A   1      38.981  20.547  25.747  1.00  0.00     0.251 C 
ATOM     28  H   UNL A   1      37.407  19.616  24.934  1.00  0.00     0.163 HD
ATOM     29  O   UNL A   1      39.619  19.502  25.885  1.00  0.00    -0.269 OA
BRANCH  27  30
ATOM     30  C   UNL A   1      39.543  21.825  26.235  1.00  0.00     0.039 A 
ATOM     31  C   UNL A   1      40.660  21.791  27.075  1.00  0.00     0.014 A 
ATOM     32  C   UNL A   1      38.978  23.050  25.875  1.00  0.00     0.014 A 
ATOM     33  C   UNL A   1      41.248  22.986  27.498  1.00  0.00     0.010 A 
ATOM     34  C   UNL A   1      39.612  24.239  26.232  1.00  0.00     0.010 A 
ATOM     35  C   UNL A   1      40.753  24.222  27.049  1.00  0.00    -0.014 A 
BRANCH  35  36
ATOM     36  C   UNL A   1      41.427  25.499  27.406  1.00  0.00     0.031 A 
ATOM     37  C   UNL A   1      40.695  26.559  28.185  1.00  0.00     0.074 A 
ATOM     38  C   UNL A   1      42.677  25.738  26.958  1.00  0.00     0.049 A 
ATOM     39  N   UNL A   1      41.103  27.751  28.538  1.00  0.00    -0.248 NA
ATOM     40  C   UNL A   1      39.317  26.252  28.600  1.00  0.00     0.031 C 
ATOM     41  C   UNL A   1      43.469  24.825  26.133  1.00  0.00     0.029 A 
ATOM     42  N   UNL A   1      43.490  26.835  27.111  1.00  0.00    -0.354 N 
ATOM     43  C   UNL A   1      40.027  28.348  29.183  1.00  0.00     0.074 A 
ATOM     44  C   UNL A   1      38.935  27.399  29.144  1.00  0.00     0.031 C 
ATOM     45  C   UNL A   1      44.653  25.395  25.856  1.00  0.00     0.029 A 
ATOM     46  C   UNL A   1      44.692  26.726  26.451  1.00  0.00     0.049 A 
ATOM     47  H   UNL A   1      43.236  27.624  27.643  1.00  0.00     0.167 HD
ATOM     48  C   UNL A   1      39.958  29.561  29.779  1.00  0.00     0.034 A 
ATOM     49  C   UNL A   1      45.707  27.604  26.325  1.00  0.00     0.034 A 
ATOM     50  C   UNL A   1      41.055  30.491  29.846  1.00  0.00     0.049 A 
ATOM     51  C   UNL A   1      45.615  28.938  27.015  1.00  0.00     0.074 A 
ATOM     52  C   UNL A   1      41.108  31.710  30.499  1.00  0.00     0.029 A 
ATOM     53  N   UNL A   1      42.282  30.316  29.229  1.00  0.00    -0.354 N 
ATOM     54  N   UNL A   1      44.644  29.419  27.753  1.00  0.00    -0.248 NA
ATOM     55  C   UNL A   1      46.772  29.835  26.888  1.00  0.00     0.031 C 
ATOM     56  C   UNL A   1      42.357  32.287  30.247  1.00  0.00     0.029 A 
ATOM     57  C   UNL A   1      43.096  31.408  29.473  1.00  0.00     0.049 A 
ATOM     58  H   UNL A   1      42.539  29.528  28.696  1.00  0.00     0.167 HD
ATOM     59  C   UNL A   1      45.088  30.656  28.207  1.00  0.00     0.074 A 
ATOM     60  C   UNL A   1      46.423  30.840  27.678  1.00  0.00     0.031 C 
ATOM     61  C   UNL A   1      44.443  31.562  28.983  1.00  0.00     0.034 A 
BRANCH  48  62
ATOM     62  C   UNL A   1      38.661  29.943  30.447  1.00  0.00     0.023 A 
ATOM     63  C   UNL A   1      38.386  29.482  31.751  1.00  0.00     0.012 A 
ATOM     64  C   UNL A   1      37.747  30.808  29.814  1.00  0.00     0.148 A 
ATOM     65  C   UNL A   1      37.205  29.842  32.399  1.00  0.00     0.002 A 
ATOM     66  C   UNL A   1      36.595  31.202  30.485  1.00  0.00     0.091 A 
ATOM     67  F   UNL A   1      38.016  31.223  28.569  1.00  0.00    -0.205 F 
ATOM     68  C   UNL A   1      36.315  30.709  31.770  1.00  0.00     0.022 A 
BRANCH  66  69
ATOM     69  S   UNL A   1      35.427  32.381  29.798  1.00  0.00     0.127 S 
ATOM     70  O   UNL A   1      34.401  32.423  30.840  1.00  0.00    -0.237 OA
ATOM     71  O   UNL A   1      36.240  33.593  29.694  1.00  0.00    -0.237 OA
ATOM     72  O   UNL A   1      34.997  31.826  28.522  1.00  0.00    -0.744 OA
ENDBRANCH  66  69
ENDBRANCH  48  62
BRANCH  49  73
ATOM     73  C   UNL A   1      46.925  27.229  25.551  1.00  0.00     0.023 A 
ATOM     74  C   UNL A   1      47.907  26.416  26.150  1.00  0.00     0.012 A 
ATOM     75  C   UNL A   1      47.107  27.658  24.222  1.00  0.00     0.148 A 
ATOM     76  C   UNL A   1      49.063  26.066  25.454  1.00  0.00     0.002 A 
ATOM     77  C   UNL A   1      48.233  27.258  23.513  1.00  0.00     0.091 A 
ATOM     78  F   UNL A   1      46.166  28.438  23.673  1.00  0.00    -0.205 F 
ATOM     79  C   UNL A   1      49.223  26.477  24.133  1.00  0.00     0.022 A 
BRANCH  77  80
ATOM     80  S   UNL A   1      48.457  27.629  21.771  1.00  0.00     0.127 S 
ATOM     81  O   UNL A   1      48.717  26.304  21.213  1.00  0.00    -0.237 OA
ATOM     82  O   UNL A   1      47.159  28.203  21.416  1.00  0.00    -0.237 OA
ATOM     83  O   UNL A   1      49.567  28.569  21.707  1.00  0.00    -0.744 OA
ENDBRANCH  77  80
ENDBRANCH  49  73
BRANCH  61  84
ATOM     84  C   UNL A   1      45.182  32.823  29.352  1.00  0.00     0.023 A 
ATOM     85  C   UNL A   1      45.994  32.854  30.503  1.00  0.00     0.012 A 
ATOM     86  C   UNL A   1      45.123  33.956  28.517  1.00  0.00     0.148 A 
ATOM     87  C   UNL A   1      46.710  34.004  30.834  1.00  0.00     0.002 A 
ATOM     88  C   UNL A   1      45.880  35.081  28.824  1.00  0.00     0.091 A 
ATOM     89  F   UNL A   1      44.331  33.914  27.436  1.00  0.00    -0.205 F 
ATOM     90  C   UNL A   1      46.663  35.111  29.990  1.00  0.00     0.022 A 
BRANCH  88  91
ATOM     91  S   UNL A   1      45.959  36.514  27.746  1.00  0.00     0.127 S 
ATOM     92  O   UNL A   1      46.859  37.396  28.489  1.00  0.00    -0.237 OA
ATOM     93  O   UNL A   1      46.531  35.950  26.523  1.00  0.00    -0.237 OA
ATOM     94  O   UNL A   1      44.590  36.994  27.610  1.00  0.00    -0.744 OA
ENDBRANCH  88  91
ENDBRANCH  61  84
ENDBRANCH  35  36
ENDBRANCH  27  30
ENDBRANCH  25  26
ENDBRANCH  24  25
ENDBRANCH   1  24
TORSDOF 17
ENDMDL
MODEL 2
REMARK VINA RESULT:     -12.7      1.454      7.733
REMARK SMILES O=C(C[C@H]1C[C@H]2CC[C@@H](C1)[N@H+]2C[C@@H]1CCCOC1)NCCCCNC(=O)c1ccc(-c2c3nc(c(-c4cccc(S(=O)(=O)[O-])c4F)c4ccc([nH]4)c(-c4cccc(S(=O)(=O)[O-])c4F)c4nc(c(-c5cccc(S(=O)(=O)[O-])c5F)c5ccc2[nH]5)C=C4)C=C3)cc1
REMARK SMILES IDX 21 1 20 2 19 3 1 4 2 5 3 7 4 8 5 9 10 10 6 11 9 12 7 13
REMARK SMILES IDX 11 14 8 15 12 17 13 18 14 19 18 20 15 21 17 22 16 23 22 24
REMARK SMILES IDX 23 25 24 26 25 27 26 29 27 30 28 31 89 32 29 33 88 34 30 35
REMARK SMILES IDX 31 36 32 37 82 38 33 39 87 40 81 41 83 42 34 43 86 44 80 45
REMARK SMILES IDX 79 46 35 48 67 49 47 50 66 51 48 52 51 53 65 54 84 55 49 56
REMARK SMILES IDX 50 57 64 59 85 60 52 61 36 62 37 63 45 64 38 65 40 66 46 67
REMARK SMILES IDX 39 68 41 69 42 70 43 71 44 72 68 73 69 74 77 75 70 76 72 77
REMARK SMILES IDX 78 78 71 79 73 80 74 81 75 82 76 83 53 84 54 85 62 86 55 87
REMARK SMILES IDX 57 88 63 89 56 90 58 91 59 92 60 93 61 94
REMARK H PARENT 19 6 11 16 24 28 83 47 51 58
REMARK Flexibility Score: inf
ROOT
ATOM      1  C   UNL A   1      35.592  20.500  25.033  1.00  0.00     0.023 C 
ENDROOT
BRANCH   1   2
ATOM      2  C   UNL A   1      34.158  20.699  24.549  1.00  0.00     0.116 C 
BRANCH   2   3
ATOM      3  N   UNL A   1      33.976  22.035  24.027  1.00  0.00    -0.356 N 
ATOM      4  O   UNL A   1      32.002  21.611  22.923  1.00  0.00    -0.275 OA
ATOM      5  C   UNL A   1      32.924  22.368  23.207  1.00  0.00     0.220 C 
ATOM      6  H   UNL A   1      34.629  22.732  24.268  1.00  0.00     0.163 HD
BRANCH   5   7
ATOM      7  C   UNL A   1      33.014  23.774  22.653  1.00  0.00     0.104 C 
BRANCH   7   8
ATOM      8  C   UNL A   1      32.471  24.817  23.634  1.00  0.00     0.010 C 
ATOM      9  C   UNL A   1      31.014  24.481  24.026  1.00  0.00     0.069 C 
ATOM     10  C   UNL A   1      33.473  25.060  24.790  1.00  0.00     0.069 C 
ATOM     11  C   UNL A   1      30.713  24.580  25.520  1.00  0.00     0.184 C 
ATOM     12  C   UNL A   1      32.872  25.085  26.194  1.00  0.00     0.184 C 
ATOM     13  C   UNL A   1      31.226  23.294  26.194  1.00  0.00     0.071 C 
ATOM     14  N   UNL A   1      31.520  25.588  26.179  1.00  0.00    -0.330 N 
ATOM     15  C   UNL A   1      32.636  23.637  26.665  1.00  0.00     0.071 C 
ATOM     16  H   UNL A   1      31.205  25.801  27.125  1.00  0.00     0.348 HD
BRANCH  14  17
ATOM     17  C   UNL A   1      31.144  26.985  26.296  1.00  0.00     0.268 C 
BRANCH  17  18
ATOM     18  C   UNL A   1      31.416  28.129  25.266  1.00  0.00     0.070 C 
ATOM     19  C   UNL A   1      30.696  27.981  23.919  1.00  0.00     0.014 C 
ATOM     20  C   UNL A   1      32.870  28.604  25.213  1.00  0.00     0.169 C 
ATOM     21  C   UNL A   1      31.434  28.454  22.669  1.00  0.00     0.029 C 
ATOM     22  O   UNL A   1      33.165  29.376  24.051  1.00  0.00    -0.381 OA
ATOM     23  C   UNL A   1      32.924  28.643  22.860  1.00  0.00     0.160 C 
ENDBRANCH  17  18
ENDBRANCH  14  17
ENDBRANCH   7   8
ENDBRANCH   5   7
ENDBRANCH   2   3
ENDBRANCH   1   2
BRANCH   1  24
ATOM     24  C   UNL A   1      36.309  21.790  25.441  1.00  0.00     0.023 C 
BRANCH  24  25
ATOM     25  C   UNL A   1      37.764  21.894  24.993  1.00  0.00     0.116 C 
BRANCH  25  26
ATOM     26  N   UNL A   1      38.626  20.931  25.661  1.00  0.00    -0.352 N 
ATOM     27  C   UNL A   1      39.732  21.143  26.446  1.00  0.00     0.251 C 
ATOM     28  H   UNL A   1      38.380  19.986  25.530  1.00  0.00     0.163 HD
ATOM     29  O   UNL A   1      40.425  20.185  26.790  1.00  0.00    -0.269 OA
BRANCH  27  30
ATOM     30  C   UNL A   1      40.109  22.512  26.860  1.00  0.00     0.039 A 
ATOM     31  C   UNL A   1      41.108  22.673  27.824  1.00  0.00     0.014 A 
ATOM     32  C   UNL A   1      39.484  23.634  26.309  1.00  0.00     0.014 A 
ATOM     33  C   UNL A   1      41.525  23.956  28.185  1.00  0.00     0.010 A 
ATOM     34  C   UNL A   1      39.956  24.910  26.612  1.00  0.00     0.010 A 
ATOM     35  C   UNL A   1      40.980  25.087  27.554  1.00  0.00    -0.014 A 
BRANCH  35  36
ATOM     36  C   UNL A   1      41.483  26.454  27.852  1.00  0.00     0.031 A 
ATOM     37  C   UNL A   1      42.905  26.833  27.534  1.00  0.00     0.074 A 
ATOM     38  C   UNL A   1      40.681  27.336  28.485  1.00  0.00     0.049 A 
ATOM     39  N   UNL A   1      43.531  27.956  27.772  1.00  0.00    -0.248 NA
ATOM     40  C   UNL A   1      43.741  25.808  26.888  1.00  0.00     0.031 C 
ATOM     41  C   UNL A   1      39.306  27.070  28.915  1.00  0.00     0.029 A 
ATOM     42  N   UNL A   1      40.915  28.623  28.903  1.00  0.00    -0.354 N 
ATOM     43  C   UNL A   1      44.838  27.765  27.338  1.00  0.00     0.074 A 
ATOM     44  C   UNL A   1      44.924  26.404  26.854  1.00  0.00     0.031 C 
ATOM     45  C   UNL A   1      38.819  28.160  29.530  1.00  0.00     0.029 A 
ATOM     46  C   UNL A   1      39.854  29.187  29.572  1.00  0.00     0.049 A 
ATOM     47  H   UNL A   1      41.762  29.097  28.738  1.00  0.00     0.167 HD
ATOM     48  C   UNL A   1      45.866  28.646  27.318  1.00  0.00     0.034 A 
ATOM     49  C   UNL A   1      39.729  30.390  30.166  1.00  0.00     0.034 A 
ATOM     50  C   UNL A   1      45.771  30.009  27.771  1.00  0.00     0.049 A 
ATOM     51  C   UNL A   1      40.880  31.359  30.111  1.00  0.00     0.074 A 
ATOM     52  C   UNL A   1      46.733  31.001  27.714  1.00  0.00     0.029 A 
ATOM     53  N   UNL A   1      44.656  30.568  28.375  1.00  0.00    -0.354 N 
ATOM     54  N   UNL A   1      42.058  31.209  29.556  1.00  0.00    -0.248 NA
ATOM     55  C   UNL A   1      40.671  32.676  30.730  1.00  0.00     0.031 C 
ATOM     56  C   UNL A   1      46.211  32.151  28.316  1.00  0.00     0.029 A 
ATOM     57  C   UNL A   1      44.910  31.887  28.710  1.00  0.00     0.049 A 
ATOM     58  H   UNL A   1      43.808  30.096  28.541  1.00  0.00     0.167 HD
ATOM     59  C   UNL A   1      42.716  32.422  29.726  1.00  0.00     0.074 A 
ATOM     60  C   UNL A   1      41.797  33.302  30.417  1.00  0.00     0.031 C 
ATOM     61  C   UNL A   1      43.972  32.771  29.354  1.00  0.00     0.034 A 
BRANCH  48  62
ATOM     62  C   UNL A   1      47.182  28.177  26.750  1.00  0.00     0.023 A 
ATOM     63  C   UNL A   1      48.224  27.803  27.623  1.00  0.00     0.012 A 
ATOM     64  C   UNL A   1      47.365  28.044  25.360  1.00  0.00     0.148 A 
ATOM     65  C   UNL A   1      49.441  27.342  27.121  1.00  0.00     0.002 A 
ATOM     66  C   UNL A   1      48.563  27.538  24.869  1.00  0.00     0.091 A 
ATOM     67  F   UNL A   1      46.370  28.420  24.545  1.00  0.00    -0.205 F 
ATOM     68  C   UNL A   1      49.607  27.201  25.746  1.00  0.00     0.022 A 
BRANCH  66  69
ATOM     69  S   UNL A   1      48.846  27.237  23.120  1.00  0.00     0.127 S 
ATOM     70  O   UNL A   1      50.307  27.229  23.054  1.00  0.00    -0.237 OA
ATOM     71  O   UNL A   1      48.219  25.929  22.930  1.00  0.00    -0.237 OA
ATOM     72  O   UNL A   1      48.196  28.331  22.414  1.00  0.00    -0.744 OA
ENDBRANCH  66  69
ENDBRANCH  48  62
BRANCH  49  73
ATOM     73  C   UNL A   1      38.445  30.768  30.824  1.00  0.00     0.023 A 
ATOM     74  C   UNL A   1      38.232  30.434  32.176  1.00  0.00     0.012 A 
ATOM     75  C   UNL A   1      37.445  31.469  30.124  1.00  0.00     0.148 A 
ATOM     76  C   UNL A   1      37.034  30.761  32.809  1.00  0.00     0.002 A 
ATOM     77  C   UNL A   1      36.277  31.844  30.777  1.00  0.00     0.091 A 
ATOM     78  F   UNL A   1      37.663  31.769  28.836  1.00  0.00    -0.205 F 
ATOM     79  C   UNL A   1      36.060  31.474  32.114  1.00  0.00     0.022 A 
BRANCH  77  80
ATOM     80  S   UNL A   1      35.028  32.875  30.001  1.00  0.00     0.127 S 
ATOM     81  O   UNL A   1      34.440  31.956  29.031  1.00  0.00    -0.237 OA
ATOM     82  O   UNL A   1      34.167  33.209  31.136  1.00  0.00    -0.237 OA
ATOM     83  O   UNL A   1      35.747  34.011  29.440  1.00  0.00    -0.744 OA
ENDBRANCH  77  80
ENDBRANCH  49  73
BRANCH  61  84
ATOM     84  C   UNL A   1      44.423  34.181  29.640  1.00  0.00     0.023 A 
ATOM     85  C   UNL A   1      44.915  34.519  30.916  1.00  0.00     0.012 A 
ATOM     86  C   UNL A   1      44.423  35.152  28.620  1.00  0.00     0.148 A 
ATOM     87  C   UNL A   1      45.369  35.811  31.181  1.00  0.00     0.002 A 
ATOM     88  C   UNL A   1      44.925  36.423  28.875  1.00  0.00     0.091 A 
ATOM     89  F   UNL A   1      43.935  34.816  27.417  1.00  0.00    -0.205 F 
ATOM     90  C   UNL A   1      45.385  36.758  30.160  1.00  0.00     0.022 A 
BRANCH  88  91
ATOM     91  S   UNL A   1      45.077  37.675  27.598  1.00  0.00     0.127 S 
ATOM     92  O   UNL A   1      43.713  37.732  27.073  1.00  0.00    -0.237 OA
ATOM     93  O   UNL A   1      45.485  38.852  28.366  1.00  0.00    -0.237 OA
ATOM     94  O   UNL A   1      46.083  37.182  26.666  1.00  0.00    -0.744 OA
ENDBRANCH  88  91
ENDBRANCH  61  84
ENDBRANCH  35  36
ENDBRANCH  27  30
ENDBRANCH  25  26
ENDBRANCH  24  25
ENDBRANCH   1  24
TORSDOF 17
ENDMDL
MODEL 3
REMARK VINA RESULT:     -12.7      1.732      7.700
REMARK SMILES O=C(C[C@H]1C[C@H]2CC[C@@H](C1)[N@H+]2C[C@@H]1CCCOC1)NCCCCNC(=O)c1ccc(-c2c3nc(c(-c4cccc(S(=O)(=O)[O-])c4F)c4ccc([nH]4)c(-c4cccc(S(=O)(=O)[O-])c4F)c4nc(c(-c5cccc(S(=O)(=O)[O-])c5F)c5ccc2[nH]5)C=C4)C=C3)cc1
REMARK SMILES IDX 21 1 20 2 19 3 1 4 2 5 3 7 4 8 5 9 10 10 6 11 9 12 7 13
REMARK SMILES IDX 11 14 8 15 12 17 13 18 14 19 18 20 15 21 17 22 16 23 22 24
REMARK SMILES IDX 23 25 24 26 25 27 26 29 27 30 28 31 89 32 29 33 88 34 30 35
REMARK SMILES IDX 31 36 32 37 82 38 33 39 87 40 81 41 83 42 34 43 86 44 80 45
REMARK SMILES IDX 79 46 35 48 67 49 47 50 66 51 48 52 51 53 65 54 84 55 49 56
REMARK SMILES IDX 50 57 64 59 85 60 52 61 36 62 37 63 45 64 38 65 40 66 46 67
REMARK SMILES IDX 39 68 41 69 42 70 43 71 44 72 68 73 69 74 77 75 70 76 72 77
REMARK SMILES IDX 78 78 71 79 73 80 74 81 75 82 76 83 53 84 54 85 62 86 55 87
REMARK SMILES IDX 57 88 63 89 56 90 58 91 59 92 60 93 61 94
REMARK H PARENT 19 6 11 16 24 28 83 47 51 58
REMARK Flexibility Score: inf
ROOT
ATOM      1  C   UNL A   1      34.485  20.954  24.560  1.00  0.00     0.023 C 
ENDROOT
BRANCH   1   2
ATOM      2  C   UNL A   1      33.066  21.459  24.807  1.00  0.00     0.116 C 
BRANCH   2   3
ATOM      3  N   UNL A   1      33.088  22.718  25.516  1.00  0.00    -0.356 N 
ATOM      4  O   UNL A   1      30.809  22.909  25.771  1.00  0.00    -0.275 OA
ATOM      5  C   UNL A   1      31.938  23.368  25.899  1.00  0.00     0.220 C 
ATOM      6  H   UNL A   1      33.958  23.126  25.733  1.00  0.00     0.163 HD
BRANCH   5   7
ATOM      7  C   UNL A   1      32.190  24.740  26.487  1.00  0.00     0.104 C 
BRANCH   7   8
ATOM      8  C   UNL A   1      31.498  25.848  25.687  1.00  0.00     0.010 C 
ATOM      9  C   UNL A   1      31.375  27.132  26.538  1.00  0.00     0.069 C 
ATOM     10  C   UNL A   1      32.135  25.991  24.282  1.00  0.00     0.069 C 
ATOM     11  C   UNL A   1      31.768  28.420  25.817  1.00  0.00     0.184 C 
ATOM     12  C   UNL A   1      32.439  27.421  23.835  1.00  0.00     0.184 C 
ATOM     13  C   UNL A   1      33.304  28.519  25.827  1.00  0.00     0.071 C 
ATOM     14  N   UNL A   1      31.495  28.358  24.394  1.00  0.00    -0.330 N 
ATOM     15  C   UNL A   1      33.744  27.889  24.508  1.00  0.00     0.071 C 
ATOM     16  H   UNL A   1      31.571  29.263  23.930  1.00  0.00     0.348 HD
BRANCH  14  17
ATOM     17  C   UNL A   1      30.231  28.735  23.789  1.00  0.00     0.268 C 
BRANCH  17  18
ATOM     18  C   UNL A   1      29.884  30.087  23.084  1.00  0.00     0.070 C 
ATOM     19  C   UNL A   1      29.091  31.086  23.937  1.00  0.00     0.014 C 
ATOM     20  C   UNL A   1      29.453  29.947  21.621  1.00  0.00     0.169 C 
ATOM     21  C   UNL A   1      28.052  31.950  23.228  1.00  0.00     0.029 C 
ATOM     22  O   UNL A   1      28.815  31.116  21.112  1.00  0.00    -0.381 OA
ATOM     23  C   UNL A   1      27.653  31.447  21.857  1.00  0.00     0.160 C 
ENDBRANCH  17  18
ENDBRANCH  14  17
ENDBRANCH   7   8
ENDBRANCH   5   7
ENDBRANCH   2   3
ENDBRANCH   1   2
BRANCH   1  24
ATOM     24  C   UNL A   1      35.440  21.143  25.742  1.00  0.00     0.023 C 
BRANCH  24  25
ATOM     25  C   UNL A   1      36.842  21.619  25.372  1.00  0.00     0.116 C 
BRANCH  25  26
ATOM     26  N   UNL A   1      37.865  20.624  25.658  1.00  0.00    -0.352 N 
ATOM     27  C   UNL A   1      39.156  20.794  26.094  1.00  0.00     0.251 C 
ATOM     28  H   UNL A   1      37.591  19.689  25.516  1.00  0.00     0.163 HD
ATOM     29  O   UNL A   1      39.920  19.829  26.122  1.00  0.00    -0.269 OA
BRANCH  27  30
ATOM     30  C   UNL A   1      39.639  22.130  26.506  1.00  0.00     0.039 A 
ATOM     31  C   UNL A   1      40.702  22.212  27.409  1.00  0.00     0.014 A 
ATOM     32  C   UNL A   1      39.052  23.298  26.012  1.00  0.00     0.014 A 
ATOM     33  C   UNL A   1      41.218  23.460  27.766  1.00  0.00     0.010 A 
ATOM     34  C   UNL A   1      39.618  24.537  26.306  1.00  0.00     0.010 A 
ATOM     35  C   UNL A   1      40.706  24.634  27.187  1.00  0.00    -0.014 A 
BRANCH  35  36
ATOM     36  C   UNL A   1      41.309  25.962  27.475  1.00  0.00     0.031 A 
ATOM     37  C   UNL A   1      42.721  26.270  27.056  1.00  0.00     0.074 A 
ATOM     38  C   UNL A   1      40.609  26.869  28.190  1.00  0.00     0.049 A 
ATOM     39  N   UNL A   1      43.427  27.350  27.269  1.00  0.00    -0.248 NA
ATOM     40  C   UNL A   1      43.444  25.218  26.323  1.00  0.00     0.031 C 
ATOM     41  C   UNL A   1      39.259  26.670  28.720  1.00  0.00     0.029 A 
ATOM     42  N   UNL A   1      40.949  28.130  28.618  1.00  0.00    -0.354 N 
ATOM     43  C   UNL A   1      44.684  27.097  26.730  1.00  0.00     0.074 A 
ATOM     44  C   UNL A   1      44.653  25.748  26.210  1.00  0.00     0.031 C 
ATOM     45  C   UNL A   1      38.884  27.767  29.396  1.00  0.00     0.029 A 
ATOM     46  C   UNL A   1      39.977  28.734  29.380  1.00  0.00     0.049 A 
ATOM     47  H   UNL A   1      41.807  28.560  28.398  1.00  0.00     0.167 HD
ATOM     48  C   UNL A   1      45.756  27.920  26.650  1.00  0.00     0.034 A 
ATOM     49  C   UNL A   1      39.968  29.925  30.010  1.00  0.00     0.034 A 
ATOM     50  C   UNL A   1      45.774  29.273  27.140  1.00  0.00     0.049 A 
ATOM     51  C   UNL A   1      41.164  30.830  29.887  1.00  0.00     0.074 A 
ATOM     52  C   UNL A   1      46.785  30.212  27.031  1.00  0.00     0.029 A 
ATOM     53  N   UNL A   1      44.744  29.877  27.842  1.00  0.00    -0.354 N 
ATOM     54  N   UNL A   1      42.286  30.630  29.238  1.00  0.00    -0.248 NA
ATOM     55  C   UNL A   1      41.080  32.139  30.550  1.00  0.00     0.031 C 
ATOM     56  C   UNL A   1      46.379  31.372  27.698  1.00  0.00     0.029 A 
ATOM     57  C   UNL A   1      45.098  31.170  28.186  1.00  0.00     0.049 A 
ATOM     58  H   UNL A   1      43.885  29.449  28.063  1.00  0.00     0.167 HD
ATOM     59  C   UNL A   1      43.024  31.799  29.383  1.00  0.00     0.074 A 
ATOM     60  C   UNL A   1      42.213  32.710  30.164  1.00  0.00     0.031 C 
ATOM     61  C   UNL A   1      44.265  32.087  28.921  1.00  0.00     0.034 A 
BRANCH  48  62
ATOM     62  C   UNL A   1      46.995  27.394  25.970  1.00  0.00     0.023 A 
ATOM     63  C   UNL A   1      47.169  27.596  24.585  1.00  0.00     0.012 A 
ATOM     64  C   UNL A   1      48.013  26.759  26.707  1.00  0.00     0.148 A 
ATOM     65  C   UNL A   1      48.318  27.141  23.938  1.00  0.00     0.002 A 
ATOM     66  C   UNL A   1      49.176  26.352  26.065  1.00  0.00     0.091 A 
ATOM     67  F   UNL A   1      47.823  26.559  28.019  1.00  0.00    -0.205 F 
ATOM     68  C   UNL A   1      49.325  26.528  24.679  1.00  0.00     0.022 A 
BRANCH  66  69
ATOM     69  S   UNL A   1      50.568  25.630  26.942  1.00  0.00     0.127 S 
ATOM     70  O   UNL A   1      50.917  26.700  27.875  1.00  0.00    -0.237 OA
ATOM     71  O   UNL A   1      49.960  24.453  27.564  1.00  0.00    -0.237 OA
ATOM     72  O   UNL A   1      51.572  25.333  25.930  1.00  0.00    -0.744 OA
ENDBRANCH  66  69
ENDBRANCH  48  62
BRANCH  49  73
ATOM     73  C   UNL A   1      38.763  30.355  30.776  1.00  0.00     0.023 A 
ATOM     74  C   UNL A   1      38.675  30.072  32.152  1.00  0.00     0.012 A 
ATOM     75  C   UNL A   1      37.714  31.057  30.151  1.00  0.00     0.148 A 
ATOM     76  C   UNL A   1      37.551  30.449  32.886  1.00  0.00     0.002 A 
ATOM     77  C   UNL A   1      36.623  31.482  30.900  1.00  0.00     0.091 A 
ATOM     78  F   UNL A   1      37.811  31.309  28.838  1.00  0.00    -0.205 F 
ATOM     79  C   UNL A   1      36.529  31.162  32.264  1.00  0.00     0.022 A 
BRANCH  77  80
ATOM     80  S   UNL A   1      35.326  32.517  30.213  1.00  0.00     0.127 S 
ATOM     81  O   UNL A   1      36.073  33.708  29.814  1.00  0.00    -0.237 OA
ATOM     82  O   UNL A   1      34.839  31.694  29.105  1.00  0.00    -0.237 OA
ATOM     83  O   UNL A   1      34.362  32.708  31.287  1.00  0.00    -0.744 OA
ENDBRANCH  77  80
ENDBRANCH  49  73
BRANCH  61  84
ATOM     84  C   UNL A   1      44.818  33.462  29.204  1.00  0.00     0.023 A 
ATOM     85  C   UNL A   1      45.501  33.714  30.410  1.00  0.00     0.012 A 
ATOM     86  C   UNL A   1      44.719  34.483  28.239  1.00  0.00     0.148 A 
ATOM     87  C   UNL A   1      46.048  34.971  30.666  1.00  0.00     0.002 A 
ATOM     88  C   UNL A   1      45.310  35.718  28.478  1.00  0.00     0.091 A 
ATOM     89  F   UNL A   1      44.049  34.230  27.105  1.00  0.00    -0.205 F 
ATOM     90  C   UNL A   1      45.963  35.968  29.696  1.00  0.00     0.022 A 
BRANCH  88  91
ATOM     91  S   UNL A   1      45.338  37.028  27.250  1.00  0.00     0.127 S 
ATOM     92  O   UNL A   1      46.133  38.052  27.926  1.00  0.00    -0.237 OA
ATOM     93  O   UNL A   1      46.009  36.380  26.122  1.00  0.00    -0.237 OA
ATOM     94  O   UNL A   1      43.946  37.381  27.005  1.00  0.00    -0.744 OA
ENDBRANCH  88  91
ENDBRANCH  61  84
ENDBRANCH  35  36
ENDBRANCH  27  30
ENDBRANCH  25  26
ENDBRANCH  24  25
ENDBRANCH   1  24
TORSDOF 17
ENDMDL
