MODEL 1
REMARK VINA RESULT:     -11.6      0.000      0.000
REMARK SMILES O=C(NCCCCNC(=O)c1cc(S[C@H]2CCOC2=O)cs1)c1ccc(-c2c3nc(c(-c4cccc(S(=O)(=O)[O-])c4F)c4ccc([nH]4)c(-c4cccc(S(=O)(=O)[O-])c4F)c4nc(c(-c5cccc(S(=O)(=O)[O-])c5F)c5ccc2[nH]5)C=C4)C=C3)cc1
REMARK SMILES IDX 5 1 4 2 3 3 1 4 2 5 23 7 24 8 85 9 25 10 84 11 26 12 27 13
REMARK SMILES IDX 28 14 78 15 29 16 83 17 77 18 79 19 30 20 82 21 76 22 75 23
REMARK SMILES IDX 31 25 63 26 43 27 62 28 44 29 47 30 61 31 80 32 45 33 46 34
REMARK SMILES IDX 60 36 81 37 48 38 32 39 33 40 41 41 34 42 36 43 42 44 35 45
REMARK SMILES IDX 37 46 38 47 39 48 40 49 64 50 65 51 73 52 66 53 68 54 74 55
REMARK SMILES IDX 67 56 69 57 70 58 71 59 72 60 49 61 50 62 58 63 51 64 53 65
REMARK SMILES IDX 59 66 52 67 54 68 55 69 56 70 57 71 6 72 7 73 8 74 9 75
REMARK SMILES IDX 10 77 11 78 12 79 22 80 13 81 21 82 14 83 15 84 16 85 19 86
REMARK SMILES IDX 17 87 18 88 20 89
REMARK H PARENT 3 6 79 24 47 35 8 76
REMARK Flexibility Score: inf
ROOT
ATOM      1  C   UNL A   1      38.062  19.810  24.682  1.00  0.00     0.023 C 
ENDROOT
BRANCH   1   2
ATOM      2  C   UNL A   1      39.050  20.199  25.772  1.00  0.00     0.116 C 
BRANCH   2   3
ATOM      3  N   UNL A   1      40.110  19.219  25.957  1.00  0.00    -0.352 N 
ATOM      4  O   UNL A   1      42.225  18.479  26.195  1.00  0.00    -0.269 OA
ATOM      5  C   UNL A   1      41.448  19.427  26.211  1.00  0.00     0.251 C 
ATOM      6  H   UNL A   1      39.833  18.276  25.891  1.00  0.00     0.163 HD
BRANCH   5   7
ATOM      7  C   UNL A   1      41.931  20.801  26.466  1.00  0.00     0.039 A 
ATOM      8  C   UNL A   1      42.144  21.238  27.775  1.00  0.00     0.014 A 
ATOM      9  C   UNL A   1      42.135  21.672  25.393  1.00  0.00     0.014 A 
ATOM     10  C   UNL A   1      42.383  22.584  28.021  1.00  0.00     0.010 A 
ATOM     11  C   UNL A   1      42.484  23.003  25.640  1.00  0.00     0.010 A 
ATOM     12  C   UNL A   1      42.575  23.480  26.957  1.00  0.00    -0.014 A 
BRANCH  12  13
ATOM     13  C   UNL A   1      42.955  24.884  27.259  1.00  0.00     0.031 A 
ATOM     14  C   UNL A   1      42.001  25.835  27.928  1.00  0.00     0.074 A 
ATOM     15  C   UNL A   1      44.191  25.298  26.915  1.00  0.00     0.049 A 
ATOM     16  N   UNL A   1      42.195  27.084  28.269  1.00  0.00    -0.248 NA
ATOM     17  C   UNL A   1      40.659  25.330  28.253  1.00  0.00     0.031 C 
ATOM     18  C   UNL A   1      45.188  24.478  26.222  1.00  0.00     0.029 A 
ATOM     19  N   UNL A   1      44.820  26.502  27.094  1.00  0.00    -0.354 N 
ATOM     20  C   UNL A   1      40.992  27.528  28.807  1.00  0.00     0.074 A 
ATOM     21  C   UNL A   1      40.071  26.413  28.743  1.00  0.00     0.031 C 
ATOM     22  C   UNL A   1      46.309  25.192  26.054  1.00  0.00     0.029 A 
ATOM     23  C   UNL A   1      46.088  26.539  26.563  1.00  0.00     0.049 A 
ATOM     24  H   UNL A   1      44.405  27.266  27.556  1.00  0.00     0.167 HD
ATOM     25  C   UNL A   1      40.689  28.748  29.314  1.00  0.00     0.034 A 
ATOM     26  C   UNL A   1      46.970  27.551  26.463  1.00  0.00     0.034 A 
ATOM     27  C   UNL A   1      41.619  29.845  29.391  1.00  0.00     0.049 A 
ATOM     28  C   UNL A   1      46.607  28.889  27.037  1.00  0.00     0.074 A 
ATOM     29  C   UNL A   1      41.427  31.097  29.950  1.00  0.00     0.029 A 
ATOM     30  N   UNL A   1      42.907  29.834  28.876  1.00  0.00    -0.354 N 
ATOM     31  N   UNL A   1      45.511  29.247  27.659  1.00  0.00    -0.248 NA
ATOM     32  C   UNL A   1      47.612  29.953  26.922  1.00  0.00     0.031 C 
ATOM     33  C   UNL A   1      42.583  31.855  29.737  1.00  0.00     0.029 A 
ATOM     34  C   UNL A   1      43.514  31.062  29.086  1.00  0.00     0.049 A 
ATOM     35  H   UNL A   1      43.328  29.065  28.428  1.00  0.00     0.167 HD
ATOM     36  C   UNL A   1      45.703  30.570  28.035  1.00  0.00     0.074 A 
ATOM     37  C   UNL A   1      47.034  30.939  27.593  1.00  0.00     0.031 C 
ATOM     38  C   UNL A   1      44.851  31.407  28.676  1.00  0.00     0.034 A 
BRANCH  25  39
ATOM     39  C   UNL A   1      39.293  28.966  29.845  1.00  0.00     0.023 A 
ATOM     40  C   UNL A   1      38.960  28.543  31.147  1.00  0.00     0.012 A 
ATOM     41  C   UNL A   1      38.331  29.654  29.078  1.00  0.00     0.148 A 
ATOM     42  C   UNL A   1      37.685  28.768  31.666  1.00  0.00     0.002 A 
ATOM     43  C   UNL A   1      37.076  29.916  29.618  1.00  0.00     0.091 A 
ATOM     44  F   UNL A   1      38.657  30.037  27.835  1.00  0.00    -0.205 F 
ATOM     45  C   UNL A   1      36.747  29.462  30.906  1.00  0.00     0.022 A 
BRANCH  43  46
ATOM     46  S   UNL A   1      35.827  30.873  28.751  1.00  0.00     0.127 S 
ATOM     47  O   UNL A   1      35.150  29.837  27.972  1.00  0.00    -0.237 OA
ATOM     48  O   UNL A   1      35.036  31.419  29.856  1.00  0.00    -0.237 OA
ATOM     49  O   UNL A   1      36.551  31.869  27.973  1.00  0.00    -0.744 OA
ENDBRANCH  43  46
ENDBRANCH  25  39
BRANCH  26  50
ATOM     50  C   UNL A   1      48.285  27.320  25.805  1.00  0.00     0.023 A 
ATOM     51  C   UNL A   1      49.379  26.868  26.564  1.00  0.00     0.012 A 
ATOM     52  C   UNL A   1      48.440  27.505  24.416  1.00  0.00     0.148 A 
ATOM     53  C   UNL A   1      50.614  26.633  25.959  1.00  0.00     0.002 A 
ATOM     54  C   UNL A   1      49.653  27.210  23.810  1.00  0.00     0.091 A 
ATOM     55  F   UNL A   1      47.386  27.945  23.713  1.00  0.00    -0.205 F 
ATOM     56  C   UNL A   1      50.748  26.793  24.582  1.00  0.00     0.022 A 
BRANCH  54  57
ATOM     57  S   UNL A   1      49.871  27.248  22.028  1.00  0.00     0.127 S 
ATOM     58  O   UNL A   1      48.847  26.307  21.582  1.00  0.00    -0.237 OA
ATOM     59  O   UNL A   1      49.595  28.652  21.721  1.00  0.00    -0.237 OA
ATOM     60  O   UNL A   1      51.249  26.843  21.790  1.00  0.00    -0.744 OA
ENDBRANCH  54  57
ENDBRANCH  26  50
BRANCH  38  61
ATOM     61  C   UNL A   1      45.344  32.798  28.978  1.00  0.00     0.023 A 
ATOM     62  C   UNL A   1      46.090  33.046  30.147  1.00  0.00     0.012 A 
ATOM     63  C   UNL A   1      45.114  33.850  28.069  1.00  0.00     0.148 A 
ATOM     64  C   UNL A   1      46.568  34.326  30.426  1.00  0.00     0.002 A 
ATOM     65  C   UNL A   1      45.639  35.110  28.326  1.00  0.00     0.091 A 
ATOM     66  F   UNL A   1      44.385  33.599  26.972  1.00  0.00    -0.205 F 
ATOM     67  C   UNL A   1      46.352  35.354  29.510  1.00  0.00     0.022 A 
BRANCH  65  68
ATOM     68  S   UNL A   1      45.497  36.469  27.160  1.00  0.00     0.127 S 
ATOM     69  O   UNL A   1      46.205  37.539  27.862  1.00  0.00    -0.237 OA
ATOM     70  O   UNL A   1      46.193  35.943  25.987  1.00  0.00    -0.237 OA
ATOM     71  O   UNL A   1      44.069  36.688  26.969  1.00  0.00    -0.744 OA
ENDBRANCH  65  68
ENDBRANCH  38  61
ENDBRANCH  12  13
ENDBRANCH   5   7
ENDBRANCH   2   3
ENDBRANCH   1   2
BRANCH   1  72
ATOM     72  C   UNL A   1      36.598  20.061  25.024  1.00  0.00     0.023 C 
BRANCH  72  73
ATOM     73  C   UNL A   1      36.272  21.493  25.434  1.00  0.00     0.116 C 
BRANCH  73  74
ATOM     74  N   UNL A   1      35.468  21.568  26.642  1.00  0.00    -0.351 N 
ATOM     75  C   UNL A   1      34.112  21.355  26.784  1.00  0.00     0.261 C 
ATOM     76  H   UNL A   1      35.954  21.797  27.467  1.00  0.00     0.163 HD
ATOM     77  O   UNL A   1      33.588  21.637  27.860  1.00  0.00    -0.268 OA
BRANCH  75  78
ATOM     78  C   UNL A   1      33.398  20.816  25.647  1.00  0.00     0.093 A 
ATOM     79  C   UNL A   1      33.020  19.504  25.417  1.00  0.00     0.040 A 
ATOM     80  S   UNL A   1      32.930  21.837  24.364  1.00  0.00    -0.137 S 
ATOM     81  C   UNL A   1      32.556  19.299  24.092  1.00  0.00     0.020 A 
ATOM     82  C   UNL A   1      32.415  20.499  23.426  1.00  0.00     0.080 A 
BRANCH  81  83
ATOM     83  S   UNL A   1      32.183  17.764  23.315  1.00  0.00    -0.110 SA
BRANCH  83  84
ATOM     84  C   UNL A   1      33.431  16.559  23.833  1.00  0.00     0.165 C 
ATOM     85  C   UNL A   1      34.819  17.105  24.089  1.00  0.00     0.068 C 
ATOM     86  C   UNL A   1      33.081  15.835  25.104  1.00  0.00     0.319 C 
ATOM     87  C   UNL A   1      35.339  16.208  25.188  1.00  0.00     0.234 C 
ATOM     88  O   UNL A   1      34.197  15.711  25.884  1.00  0.00    -0.465 OA
ATOM     89  O   UNL A   1      31.989  15.389  25.418  1.00  0.00    -0.251 OA
ENDBRANCH  83  84
ENDBRANCH  81  83
ENDBRANCH  75  78
ENDBRANCH  73  74
ENDBRANCH  72  73
ENDBRANCH   1  72
TORSDOF 16
ENDMDL
MODEL 2
REMARK VINA RESULT:     -11.5      6.756     11.864
REMARK SMILES O=C(NCCCCNC(=O)c1cc(S[C@H]2CCOC2=O)cs1)c1ccc(-c2c3nc(c(-c4cccc(S(=O)(=O)[O-])c4F)c4ccc([nH]4)c(-c4cccc(S(=O)(=O)[O-])c4F)c4nc(c(-c5cccc(S(=O)(=O)[O-])c5F)c5ccc2[nH]5)C=C4)C=C3)cc1
REMARK SMILES IDX 5 1 4 2 3 3 1 4 2 5 23 7 24 8 85 9 25 10 84 11 26 12 27 13
REMARK SMILES IDX 28 14 78 15 29 16 83 17 77 18 79 19 30 20 82 21 76 22 75 23
REMARK SMILES IDX 31 25 63 26 43 27 62 28 44 29 47 30 61 31 80 32 45 33 46 34
REMARK SMILES IDX 60 36 81 37 48 38 32 39 33 40 41 41 34 42 36 43 42 44 35 45
REMARK SMILES IDX 37 46 38 47 39 48 40 49 64 50 65 51 73 52 66 53 68 54 74 55
REMARK SMILES IDX 67 56 69 57 70 58 71 59 72 60 49 61 50 62 58 63 51 64 53 65
REMARK SMILES IDX 59 66 52 67 54 68 55 69 56 70 57 71 6 72 7 73 8 74 9 75
REMARK SMILES IDX 10 77 11 78 12 79 22 80 13 81 21 82 14 83 15 84 16 85 19 86
REMARK SMILES IDX 17 87 18 88 20 89
REMARK H PARENT 3 6 79 24 47 35 8 76
REMARK Flexibility Score: inf
ROOT
ATOM      1  C   UNL A   1      31.589  32.042  26.788  1.00  0.00     0.023 C 
ENDROOT
BRANCH   1   2
ATOM      2  C   UNL A   1      32.827  32.760  27.309  1.00  0.00     0.116 C 
BRANCH   2   3
ATOM      3  N   UNL A   1      32.559  34.131  27.720  1.00  0.00    -0.352 N 
ATOM      4  O   UNL A   1      32.673  35.955  29.038  1.00  0.00    -0.269 OA
ATOM      5  C   UNL A   1      33.126  34.854  28.746  1.00  0.00     0.251 C 
ATOM      6  H   UNL A   1      31.878  34.608  27.191  1.00  0.00     0.163 HD
BRANCH   5   7
ATOM      7  C   UNL A   1      34.255  34.272  29.504  1.00  0.00     0.039 A 
ATOM      8  C   UNL A   1      35.569  34.501  29.091  1.00  0.00     0.014 A 
ATOM      9  C   UNL A   1      33.998  33.460  30.611  1.00  0.00     0.014 A 
ATOM     10  C   UNL A   1      36.607  33.779  29.667  1.00  0.00     0.010 A 
ATOM     11  C   UNL A   1      35.059  32.821  31.260  1.00  0.00     0.010 A 
ATOM     12  C   UNL A   1      36.369  32.945  30.771  1.00  0.00    -0.014 A 
BRANCH  12  13
ATOM     13  C   UNL A   1      37.522  32.290  31.440  1.00  0.00     0.031 A 
ATOM     14  C   UNL A   1      38.282  31.169  30.788  1.00  0.00     0.074 A 
ATOM     15  C   UNL A   1      37.880  32.727  32.665  1.00  0.00     0.049 A 
ATOM     16  N   UNL A   1      39.318  30.510  31.242  1.00  0.00    -0.248 NA
ATOM     17  C   UNL A   1      37.824  30.722  29.465  1.00  0.00     0.031 C 
ATOM     18  C   UNL A   1      37.190  33.780  33.416  1.00  0.00     0.029 A 
ATOM     19  N   UNL A   1      38.902  32.345  33.494  1.00  0.00    -0.354 N 
ATOM     20  C   UNL A   1      39.611  29.544  30.285  1.00  0.00     0.074 A 
ATOM     21  C   UNL A   1      38.637  29.701  29.225  1.00  0.00     0.031 C 
ATOM     22  C   UNL A   1      37.819  33.975  34.582  1.00  0.00     0.029 A 
ATOM     23  C   UNL A   1      38.912  33.018  34.693  1.00  0.00     0.049 A 
ATOM     24  H   UNL A   1      39.564  31.656  33.255  1.00  0.00     0.167 HD
ATOM     25  C   UNL A   1      40.603  28.621  30.287  1.00  0.00     0.034 A 
ATOM     26  C   UNL A   1      39.690  32.865  35.781  1.00  0.00     0.034 A 
ATOM     27  C   UNL A   1      41.579  28.486  31.338  1.00  0.00     0.049 A 
ATOM     28  C   UNL A   1      40.783  31.837  35.752  1.00  0.00     0.074 A 
ATOM     29  C   UNL A   1      42.664  27.628  31.399  1.00  0.00     0.029 A 
ATOM     30  N   UNL A   1      41.579  29.211  32.521  1.00  0.00    -0.354 N 
ATOM     31  N   UNL A   1      41.122  31.024  34.781  1.00  0.00    -0.248 NA
ATOM     32  C   UNL A   1      41.617  31.724  36.954  1.00  0.00     0.031 C 
ATOM     33  C   UNL A   1      43.294  27.804  32.635  1.00  0.00     0.029 A 
ATOM     34  C   UNL A   1      42.631  28.805  33.327  1.00  0.00     0.049 A 
ATOM     35  H   UNL A   1      40.928  29.911  32.754  1.00  0.00     0.167 HD
ATOM     36  C   UNL A   1      42.227  30.321  35.245  1.00  0.00     0.074 A 
ATOM     37  C   UNL A   1      42.515  30.826  36.573  1.00  0.00     0.031 C 
ATOM     38  C   UNL A   1      42.932  29.340  34.630  1.00  0.00     0.034 A 
BRANCH  25  39
ATOM     39  C   UNL A   1      40.700  27.684  29.108  1.00  0.00     0.023 A 
ATOM     40  C   UNL A   1      39.874  26.544  29.043  1.00  0.00     0.012 A 
ATOM     41  C   UNL A   1      41.562  27.972  28.030  1.00  0.00     0.148 A 
ATOM     42  C   UNL A   1      39.927  25.687  27.944  1.00  0.00     0.002 A 
ATOM     43  C   UNL A   1      41.576  27.138  26.916  1.00  0.00     0.091 A 
ATOM     44  F   UNL A   1      42.353  29.052  28.113  1.00  0.00    -0.205 F 
ATOM     45  C   UNL A   1      40.770  25.989  26.878  1.00  0.00     0.022 A 
BRANCH  43  46
ATOM     46  S   UNL A   1      42.566  27.485  25.458  1.00  0.00     0.127 S 
ATOM     47  O   UNL A   1      42.309  26.301  24.640  1.00  0.00    -0.237 OA
ATOM     48  O   UNL A   1      41.953  28.717  24.956  1.00  0.00    -0.237 OA
ATOM     49  O   UNL A   1      43.936  27.637  25.927  1.00  0.00    -0.744 OA
ENDBRANCH  43  46
ENDBRANCH  25  39
BRANCH  26  50
ATOM     50  C   UNL A   1      39.463  33.722  36.976  1.00  0.00     0.023 A 
ATOM     51  C   UNL A   1      39.856  35.073  36.953  1.00  0.00     0.012 A 
ATOM     52  C   UNL A   1      38.816  33.212  38.119  1.00  0.00     0.148 A 
ATOM     53  C   UNL A   1      39.638  35.894  38.059  1.00  0.00     0.002 A 
ATOM     54  C   UNL A   1      38.545  34.050  39.192  1.00  0.00     0.091 A 
ATOM     55  F   UNL A   1      38.458  31.920  38.121  1.00  0.00    -0.205 F 
ATOM     56  C   UNL A   1      38.973  35.386  39.173  1.00  0.00     0.022 A 
BRANCH  54  57
ATOM     57  S   UNL A   1      37.568  33.519  40.602  1.00  0.00     0.127 S 
ATOM     58  O   UNL A   1      38.428  32.500  41.195  1.00  0.00    -0.237 OA
ATOM     59  O   UNL A   1      37.456  34.758  41.373  1.00  0.00    -0.237 OA
ATOM     60  O   UNL A   1      36.308  33.041  40.051  1.00  0.00    -0.744 OA
ENDBRANCH  54  57
ENDBRANCH  26  50
BRANCH  38  61
ATOM     61  C   UNL A   1      44.113  28.769  35.372  1.00  0.00     0.023 A 
ATOM     62  C   UNL A   1      45.400  29.302  35.167  1.00  0.00     0.012 A 
ATOM     63  C   UNL A   1      43.932  27.739  36.316  1.00  0.00     0.148 A 
ATOM     64  C   UNL A   1      46.497  28.793  35.863  1.00  0.00     0.002 A 
ATOM     65  C   UNL A   1      45.019  27.274  37.046  1.00  0.00     0.091 A 
ATOM     66  F   UNL A   1      42.702  27.231  36.482  1.00  0.00    -0.205 F 
ATOM     67  C   UNL A   1      46.304  27.789  36.809  1.00  0.00     0.022 A 
BRANCH  65  68
ATOM     68  S   UNL A   1      44.853  26.054  38.352  1.00  0.00     0.127 S 
ATOM     69  O   UNL A   1      44.336  24.900  37.619  1.00  0.00    -0.237 OA
ATOM     70  O   UNL A   1      46.232  25.913  38.820  1.00  0.00    -0.237 OA
ATOM     71  O   UNL A   1      43.939  26.631  39.329  1.00  0.00    -0.744 OA
ENDBRANCH  65  68
ENDBRANCH  38  61
ENDBRANCH  12  13
ENDBRANCH   5   7
ENDBRANCH   2   3
ENDBRANCH   1   2
BRANCH   1  72
ATOM     72  C   UNL A   1      31.696  30.523  26.758  1.00  0.00     0.023 C 
BRANCH  72  73
ATOM     73  C   UNL A   1      33.061  29.984  26.343  1.00  0.00     0.116 C 
BRANCH  73  74
ATOM     74  N   UNL A   1      33.208  29.863  24.903  1.00  0.00    -0.351 N 
ATOM     75  C   UNL A   1      33.191  28.720  24.132  1.00  0.00     0.261 C 
ATOM     76  H   UNL A   1      33.335  30.708  24.413  1.00  0.00     0.163 HD
ATOM     77  O   UNL A   1      33.508  28.811  22.947  1.00  0.00    -0.268 OA
BRANCH  75  78
ATOM     78  C   UNL A   1      32.803  27.485  24.777  1.00  0.00     0.093 A 
ATOM     79  C   UNL A   1      33.622  26.500  25.304  1.00  0.00     0.040 A 
ATOM     80  S   UNL A   1      31.154  27.086  24.948  1.00  0.00    -0.137 S 
ATOM     81  C   UNL A   1      32.906  25.321  25.636  1.00  0.00     0.020 A 
ATOM     82  C   UNL A   1      31.545  25.522  25.532  1.00  0.00     0.080 A 
BRANCH  81  83
ATOM     83  S   UNL A   1      33.571  23.767  26.126  1.00  0.00    -0.110 SA
BRANCH  83  84
ATOM     84  C   UNL A   1      33.005  22.520  24.942  1.00  0.00     0.165 C 
ATOM     85  C   UNL A   1      33.986  21.414  24.617  1.00  0.00     0.068 C 
ATOM     86  C   UNL A   1      31.763  21.792  25.378  1.00  0.00     0.319 C 
ATOM     87  C   UNL A   1      33.088  20.229  24.353  1.00  0.00     0.234 C 
ATOM     88  O   UNL A   1      31.881  20.463  25.077  1.00  0.00    -0.465 OA
ATOM     89  O   UNL A   1      30.773  22.277  25.899  1.00  0.00    -0.251 OA
ENDBRANCH  83  84
ENDBRANCH  81  83
ENDBRANCH  75  78
ENDBRANCH  73  74
ENDBRANCH  72  73
ENDBRANCH   1  72
TORSDOF 16
ENDMDL
MODEL 3
REMARK VINA RESULT:     -11.4      6.649      9.938
REMARK SMILES O=C(NCCCCNC(=O)c1cc(S[C@H]2CCOC2=O)cs1)c1ccc(-c2c3nc(c(-c4cccc(S(=O)(=O)[O-])c4F)c4ccc([nH]4)c(-c4cccc(S(=O)(=O)[O-])c4F)c4nc(c(-c5cccc(S(=O)(=O)[O-])c5F)c5ccc2[nH]5)C=C4)C=C3)cc1
REMARK SMILES IDX 5 1 4 2 3 3 1 4 2 5 23 7 24 8 85 9 25 10 84 11 26 12 27 13
REMARK SMILES IDX 28 14 78 15 29 16 83 17 77 18 79 19 30 20 82 21 76 22 75 23
REMARK SMILES IDX 31 25 63 26 43 27 62 28 44 29 47 30 61 31 80 32 45 33 46 34
REMARK SMILES IDX 60 36 81 37 48 38 32 39 33 40 41 41 34 42 36 43 42 44 35 45
REMARK SMILES IDX 37 46 38 47 39 48 40 49 64 50 65 51 73 52 66 53 68 54 74 55
REMARK SMILES IDX 67 56 69 57 70 58 71 59 72 60 49 61 50 62 58 63 51 64 53 65
REMARK SMILES IDX 59 66 52 67 54 68 55 69 56 70 57 71 6 72 7 73 8 74 9 75
REMARK SMILES IDX 10 77 11 78 12 79 22 80 13 81 21 82 14 83 15 84 16 85 19 86
REMARK SMILES IDX 17 87 18 88 20 89
REMARK H PARENT 3 6 79 24 47 35 8 76
REMARK Flexibility Score: inf
ROOT
ATOM      1  C   UNL A   1      32.806  28.321  26.282  1.00  0.00     0.023 C 
ENDROOT
BRANCH   1   2
ATOM      2  C   UNL A   1      33.662  29.464  25.754  1.00  0.00     0.116 C 
BRANCH   2   3
ATOM      3  N   UNL A   1      33.176  30.775  26.160  1.00  0.00    -0.352 N 
ATOM      4  O   UNL A   1      32.980  32.592  27.479  1.00  0.00    -0.269 OA
ATOM      5  C   UNL A   1      33.605  31.576  27.195  1.00  0.00     0.251 C 
ATOM      6  H   UNL A   1      32.438  31.140  25.619  1.00  0.00     0.163 HD
BRANCH   5   7
ATOM      7  C   UNL A   1      34.799  31.177  27.972  1.00  0.00     0.039 A 
ATOM      8  C   UNL A   1      35.931  31.993  27.987  1.00  0.00     0.014 A 
ATOM      9  C   UNL A   1      34.800  29.960  28.658  1.00  0.00     0.014 A 
ATOM     10  C   UNL A   1      37.117  31.515  28.530  1.00  0.00     0.010 A 
ATOM     11  C   UNL A   1      35.966  29.530  29.300  1.00  0.00     0.010 A 
ATOM     12  C   UNL A   1      37.145  30.287  29.211  1.00  0.00    -0.014 A 
BRANCH  12  13
ATOM     13  C   UNL A   1      38.399  29.869  29.889  1.00  0.00     0.031 A 
ATOM     14  C   UNL A   1      38.770  30.382  31.253  1.00  0.00     0.074 A 
ATOM     15  C   UNL A   1      39.213  29.005  29.249  1.00  0.00     0.049 A 
ATOM     16  N   UNL A   1      39.821  30.096  31.978  1.00  0.00    -0.248 NA
ATOM     17  C   UNL A   1      37.853  31.342  31.885  1.00  0.00     0.031 C 
ATOM     18  C   UNL A   1      38.979  28.472  27.903  1.00  0.00     0.029 A 
ATOM     19  N   UNL A   1      40.395  28.427  29.632  1.00  0.00    -0.354 N 
ATOM     20  C   UNL A   1      39.719  30.869  33.129  1.00  0.00     0.074 A 
ATOM     21  C   UNL A   1      38.500  31.642  33.004  1.00  0.00     0.031 C 
ATOM     22  C   UNL A   1      39.971  27.630  27.584  1.00  0.00     0.029 A 
ATOM     23  C   UNL A   1      40.944  27.616  28.668  1.00  0.00     0.049 A 
ATOM     24  H   UNL A   1      40.810  28.579  30.512  1.00  0.00     0.167 HD
ATOM     25  C   UNL A   1      40.557  30.922  34.192  1.00  0.00     0.034 A 
ATOM     26  C   UNL A   1      42.117  26.957  28.637  1.00  0.00     0.034 A 
ATOM     27  C   UNL A   1      41.756  30.134  34.316  1.00  0.00     0.049 A 
ATOM     28  C   UNL A   1      43.022  27.032  29.832  1.00  0.00     0.074 A 
ATOM     29  C   UNL A   1      42.634  30.066  35.385  1.00  0.00     0.029 A 
ATOM     30  N   UNL A   1      42.262  29.296  33.333  1.00  0.00    -0.354 N 
ATOM     31  N   UNL A   1      42.840  27.666  30.963  1.00  0.00    -0.248 NA
ATOM     32  C   UNL A   1      44.279  26.277  29.757  1.00  0.00     0.031 C 
ATOM     33  C   UNL A   1      43.690  29.219  35.032  1.00  0.00     0.029 A 
ATOM     34  C   UNL A   1      43.449  28.722  33.762  1.00  0.00     0.049 A 
ATOM     35  H   UNL A   1      41.839  29.131  32.460  1.00  0.00     0.167 HD
ATOM     36  C   UNL A   1      43.946  27.366  31.748  1.00  0.00     0.074 A 
ATOM     37  C   UNL A   1      44.779  26.470  30.970  1.00  0.00     0.031 C 
ATOM     38  C   UNL A   1      44.250  27.803  32.995  1.00  0.00     0.034 A 
BRANCH  25  39
ATOM     39  C   UNL A   1      40.204  31.854  35.326  1.00  0.00     0.023 A 
ATOM     40  C   UNL A   1      40.786  33.136  35.391  1.00  0.00     0.012 A 
ATOM     41  C   UNL A   1      39.242  31.485  36.288  1.00  0.00     0.148 A 
ATOM     42  C   UNL A   1      40.444  34.023  36.413  1.00  0.00     0.002 A 
ATOM     43  C   UNL A   1      38.871  32.390  37.277  1.00  0.00     0.091 A 
ATOM     44  F   UNL A   1      38.708  30.256  36.221  1.00  0.00    -0.205 F 
ATOM     45  C   UNL A   1      39.481  33.654  37.348  1.00  0.00     0.022 A 
BRANCH  43  46
ATOM     46  S   UNL A   1      37.583  32.041  38.478  1.00  0.00     0.127 S 
ATOM     47  O   UNL A   1      36.584  33.054  38.142  1.00  0.00    -0.237 OA
ATOM     48  O   UNL A   1      37.201  30.671  38.131  1.00  0.00    -0.237 OA
ATOM     49  O   UNL A   1      38.203  32.185  39.788  1.00  0.00    -0.744 OA
ENDBRANCH  43  46
ENDBRANCH  25  39
BRANCH  26  50
ATOM     50  C   UNL A   1      42.483  26.160  27.435  1.00  0.00     0.023 A 
ATOM     51  C   UNL A   1      43.251  26.748  26.413  1.00  0.00     0.012 A 
ATOM     52  C   UNL A   1      42.110  24.806  27.324  1.00  0.00     0.148 A 
ATOM     53  C   UNL A   1      43.616  26.010  25.286  1.00  0.00     0.002 A 
ATOM     54  C   UNL A   1      42.529  24.060  26.231  1.00  0.00     0.091 A 
ATOM     55  F   UNL A   1      41.372  24.269  28.306  1.00  0.00    -0.205 F 
ATOM     56  C   UNL A   1      43.265  24.665  25.200  1.00  0.00     0.022 A 
BRANCH  54  57
ATOM     57  S   UNL A   1      42.247  22.291  26.110  1.00  0.00     0.127 S 
ATOM     58  O   UNL A   1      43.032  21.943  24.929  1.00  0.00    -0.237 OA
ATOM     59  O   UNL A   1      42.797  21.812  27.380  1.00  0.00    -0.237 OA
ATOM     60  O   UNL A   1      40.806  22.128  25.982  1.00  0.00    -0.744 OA
ENDBRANCH  54  57
ENDBRANCH  26  50
BRANCH  38  61
ATOM     61  C   UNL A   1      45.521  27.287  33.618  1.00  0.00     0.023 A 
ATOM     62  C   UNL A   1      46.689  28.073  33.595  1.00  0.00     0.012 A 
ATOM     63  C   UNL A   1      45.539  26.041  34.276  1.00  0.00     0.148 A 
ATOM     64  C   UNL A   1      47.866  27.613  34.186  1.00  0.00     0.002 A 
ATOM     65  C   UNL A   1      46.698  25.613  34.910  1.00  0.00     0.091 A 
ATOM     66  F   UNL A   1      44.422  25.298  34.270  1.00  0.00    -0.205 F 
ATOM     67  C   UNL A   1      47.866  26.390  34.853  1.00  0.00     0.022 A 
BRANCH  65  68
ATOM     68  S   UNL A   1      46.767  24.100  35.875  1.00  0.00     0.127 S 
ATOM     69  O   UNL A   1      47.288  23.146  34.897  1.00  0.00    -0.237 OA
ATOM     70  O   UNL A   1      47.704  24.455  36.940  1.00  0.00    -0.237 OA
ATOM     71  O   UNL A   1      45.405  23.847  36.326  1.00  0.00    -0.744 OA
ENDBRANCH  65  68
ENDBRANCH  38  61
ENDBRANCH  12  13
ENDBRANCH   5   7
ENDBRANCH   2   3
ENDBRANCH   1   2
BRANCH   1  72
ATOM     72  C   UNL A   1      33.438  26.940  26.162  1.00  0.00     0.023 C 
BRANCH  72  73
ATOM     73  C   UNL A   1      32.935  26.105  24.989  1.00  0.00     0.116 C 
BRANCH  73  74
ATOM     74  N   UNL A   1      33.601  26.427  23.738  1.00  0.00    -0.351 N 
ATOM     75  C   UNL A   1      33.075  27.036  22.619  1.00  0.00     0.261 C 
ATOM     76  H   UNL A   1      34.553  26.179  23.684  1.00  0.00     0.163 HD
ATOM     77  O   UNL A   1      33.757  27.063  21.595  1.00  0.00    -0.268 OA
BRANCH  75  78
ATOM     78  C   UNL A   1      31.748  27.601  22.727  1.00  0.00     0.093 A 
ATOM     79  C   UNL A   1      31.388  28.937  22.780  1.00  0.00     0.040 A 
ATOM     80  S   UNL A   1      30.386  26.581  22.825  1.00  0.00    -0.137 S 
ATOM     81  C   UNL A   1      30.026  29.117  23.133  1.00  0.00     0.020 A 
ATOM     82  C   UNL A   1      29.354  27.912  23.143  1.00  0.00     0.080 A 
BRANCH  81  83
ATOM     83  S   UNL A   1      29.211  30.628  23.521  1.00  0.00    -0.110 SA
BRANCH  83  84
ATOM     84  C   UNL A   1      29.107  31.610  22.003  1.00  0.00     0.165 C 
ATOM     85  C   UNL A   1      28.278  31.021  20.883  1.00  0.00     0.068 C 
ATOM     86  C   UNL A   1      28.524  32.981  22.209  1.00  0.00     0.319 C 
ATOM     87  C   UNL A   1      27.715  32.244  20.197  1.00  0.00     0.234 C 
ATOM     88  O   UNL A   1      27.678  33.280  21.177  1.00  0.00    -0.465 OA
ATOM     89  O   UNL A   1      28.762  33.750  23.126  1.00  0.00    -0.251 OA
ENDBRANCH  83  84
ENDBRANCH  81  83
ENDBRANCH  75  78
ENDBRANCH  73  74
ENDBRANCH  72  73
ENDBRANCH   1  72
TORSDOF 16
ENDMDL
