MODEL 1
REMARK VINA RESULT:     -12.0      0.000      0.000
REMARK SMILES Cc1ccc(O)c(C(=O)NCc2ccc(C(=O)NCCCCNC(=O)c3ccc(-c4c5nc(c(-c6cccc(S(=O)(=O)[O-])c6F)c6ccc([nH]6)c(-c6cccc(S(=O)(=O)[O-])c6F)c6nc(c(-c7cccc(S(=O)(=O)[O-])c7F)c7ccc4[nH]7)C=C6)C=C5)cc3)o2)c1
REMARK SMILES IDX 20 1 19 2 18 3 16 4 17 5 15 7 12 8 13 9 89 10 14 11 11 12
REMARK SMILES IDX 10 13 8 14 9 15 7 17 1 18 2 19 3 20 90 21 4 22 5 23 6 24
REMARK SMILES IDX 21 26 22 27 23 28 24 29 25 31 26 32 27 33 88 34 28 35 87 36
REMARK SMILES IDX 29 37 30 38 31 39 81 40 32 41 86 42 80 43 82 44 33 45 85 46
REMARK SMILES IDX 79 47 78 48 34 50 66 51 46 52 65 53 47 54 50 55 64 56 83 57
REMARK SMILES IDX 48 58 49 59 63 61 84 62 51 63 35 64 36 65 44 66 37 67 39 68
REMARK SMILES IDX 45 69 38 70 40 71 41 72 42 73 43 74 67 75 68 76 76 77 69 78
REMARK SMILES IDX 71 79 77 80 70 81 72 82 73 83 74 84 75 85 52 86 53 87 61 88
REMARK SMILES IDX 54 89 56 90 62 91 55 92 57 93 58 94 59 95 60 96
REMARK H PARENT 18 6 10 16 6 25 23 30 82 49 50 60
REMARK Flexibility Score: inf
ROOT
ATOM      1  C   UNL A   1      31.835  27.171  26.542  1.00  0.00     0.023 C 
ENDROOT
BRANCH   1   2
ATOM      2  C   UNL A   1      31.181  26.076  25.702  1.00  0.00     0.116 C 
BRANCH   2   3
ATOM      3  N   UNL A   1      30.305  25.252  26.505  1.00  0.00    -0.349 N 
ATOM      4  C   UNL A   1      30.256  23.895  26.704  1.00  0.00     0.286 C 
ATOM      5  O   UNL A   1      29.390  23.505  27.497  1.00  0.00    -0.266 OA
ATOM      6  H   UNL A   1      29.618  25.756  26.998  1.00  0.00     0.163 HD
BRANCH   4   7
ATOM      7  C   UNL A   1      31.169  22.978  26.044  1.00  0.00     0.191 A 
ATOM      8  C   UNL A   1      32.029  22.067  24.207  1.00  0.00     0.124 A 
ATOM      9  C   UNL A   1      32.677  21.485  25.271  1.00  0.00     0.048 A 
ATOM     10  O   UNL A   1      31.105  22.952  24.670  1.00  0.00    -0.454 OA
ATOM     11  C   UNL A   1      32.160  22.096  26.438  1.00  0.00     0.056 A 
BRANCH   8  12
ATOM     12  C   UNL A   1      32.164  21.988  22.733  1.00  0.00     0.191 C 
BRANCH  12  13
ATOM     13  N   UNL A   1      32.721  23.242  22.267  1.00  0.00    -0.345 N 
ATOM     14  C   UNL A   1      33.813  23.999  22.580  1.00  0.00     0.255 C 
ATOM     15  O   UNL A   1      33.942  25.050  21.941  1.00  0.00    -0.269 OA
ATOM     16  H   UNL A   1      32.179  23.647  21.552  1.00  0.00     0.164 HD
BRANCH  14  17
ATOM     17  C   UNL A   1      34.858  23.681  23.605  1.00  0.00     0.081 A 
ATOM     18  C   UNL A   1      37.447  21.033  24.566  1.00  0.00     0.044 C 
ATOM     19  C   UNL A   1      36.612  22.280  24.602  1.00  0.00    -0.050 A 
ATOM     20  C   UNL A   1      36.747  23.182  25.658  1.00  0.00     0.007 A 
ATOM     21  C   UNL A   1      35.676  22.546  23.584  1.00  0.00     0.021 A 
ATOM     22  C   UNL A   1      35.950  24.321  25.704  1.00  0.00     0.047 A 
ATOM     23  C   UNL A   1      35.012  24.561  24.697  1.00  0.00     0.128 A 
BRANCH  23  24
ATOM     24  O   UNL A   1      34.266  25.701  24.869  1.00  0.00    -0.507 OA
ATOM     25  H   UNL A   1      34.402  26.240  25.624  1.00  0.00     0.293 HD
ENDBRANCH  23  24
ENDBRANCH  14  17
ENDBRANCH  12  13
ENDBRANCH   8  12
ENDBRANCH   4   7
ENDBRANCH   2   3
ENDBRANCH   1   2
BRANCH   1  26
ATOM     26  C   UNL A   1      31.491  28.590  26.078  1.00  0.00     0.023 C 
BRANCH  26  27
ATOM     27  C   UNL A   1      32.689  29.524  25.920  1.00  0.00     0.116 C 
BRANCH  27  28
ATOM     28  N   UNL A   1      32.403  30.898  26.311  1.00  0.00    -0.352 N 
ATOM     29  C   UNL A   1      33.120  31.708  27.159  1.00  0.00     0.251 C 
ATOM     30  H   UNL A   1      31.593  31.297  25.918  1.00  0.00     0.163 HD
ATOM     31  O   UNL A   1      32.683  32.807  27.484  1.00  0.00    -0.269 OA
BRANCH  29  32
ATOM     32  C   UNL A   1      34.404  31.217  27.699  1.00  0.00     0.039 A 
ATOM     33  C   UNL A   1      35.442  32.127  27.907  1.00  0.00     0.014 A 
ATOM     34  C   UNL A   1      34.553  29.874  28.056  1.00  0.00     0.014 A 
ATOM     35  C   UNL A   1      36.612  31.700  28.536  1.00  0.00     0.010 A 
ATOM     36  C   UNL A   1      35.684  29.471  28.755  1.00  0.00     0.010 A 
ATOM     37  C   UNL A   1      36.727  30.378  29.000  1.00  0.00    -0.014 A 
BRANCH  37  38
ATOM     38  C   UNL A   1      37.923  29.932  29.759  1.00  0.00     0.031 A 
ATOM     39  C   UNL A   1      38.184  30.461  31.143  1.00  0.00     0.074 A 
ATOM     40  C   UNL A   1      38.818  29.115  29.169  1.00  0.00     0.049 A 
ATOM     41  N   UNL A   1      39.193  30.220  31.940  1.00  0.00    -0.248 NA
ATOM     42  C   UNL A   1      37.199  31.407  31.695  1.00  0.00     0.031 C 
ATOM     43  C   UNL A   1      38.721  28.599  27.801  1.00  0.00     0.029 A 
ATOM     44  N   UNL A   1      39.998  28.590  29.636  1.00  0.00    -0.354 N 
ATOM     45  C   UNL A   1      38.982  31.004  33.067  1.00  0.00     0.074 A 
ATOM     46  C   UNL A   1      37.772  31.761  32.836  1.00  0.00     0.031 C 
ATOM     47  C   UNL A   1      39.790  27.827  27.544  1.00  0.00     0.029 A 
ATOM     48  C   UNL A   1      40.664  27.819  28.713  1.00  0.00     0.049 A 
ATOM     49  H   UNL A   1      40.336  28.752  30.547  1.00  0.00     0.167 HD
ATOM     50  C   UNL A   1      39.713  31.069  34.205  1.00  0.00     0.034 A 
ATOM     51  C   UNL A   1      41.849  27.184  28.793  1.00  0.00     0.034 A 
ATOM     52  C   UNL A   1      40.898  30.291  34.445  1.00  0.00     0.049 A 
ATOM     53  C   UNL A   1      42.628  27.250  30.079  1.00  0.00     0.074 A 
ATOM     54  C   UNL A   1      41.660  30.218  35.597  1.00  0.00     0.029 A 
ATOM     55  N   UNL A   1      41.503  29.462  33.513  1.00  0.00    -0.354 N 
ATOM     56  N   UNL A   1      42.328  27.871  31.193  1.00  0.00    -0.248 NA
ATOM     57  C   UNL A   1      43.891  26.500  30.131  1.00  0.00     0.031 C 
ATOM     58  C   UNL A   1      42.747  29.374  35.350  1.00  0.00     0.029 A 
ATOM     59  C   UNL A   1      42.638  28.887  34.058  1.00  0.00     0.049 A 
ATOM     60  H   UNL A   1      41.174  29.306  32.598  1.00  0.00     0.167 HD
ATOM     61  C   UNL A   1      43.343  27.556  32.090  1.00  0.00     0.074 A 
ATOM     62  C   UNL A   1      44.255  26.672  31.394  1.00  0.00     0.031 C 
ATOM     63  C   UNL A   1      43.512  27.970  33.371  1.00  0.00     0.034 A 
BRANCH  50  64
ATOM     64  C   UNL A   1      39.228  31.986  35.299  1.00  0.00     0.023 A 
ATOM     65  C   UNL A   1      38.268  31.523  36.223  1.00  0.00     0.012 A 
ATOM     66  C   UNL A   1      39.760  33.281  35.448  1.00  0.00     0.148 A 
ATOM     67  C   UNL A   1      37.817  32.347  37.253  1.00  0.00     0.002 A 
ATOM     68  C   UNL A   1      39.343  34.079  36.506  1.00  0.00     0.091 A 
ATOM     69  F   UNL A   1      40.656  33.710  34.548  1.00  0.00    -0.205 F 
ATOM     70  C   UNL A   1      38.362  33.619  37.400  1.00  0.00     0.022 A 
BRANCH  68  71
ATOM     71  S   UNL A   1      40.042  35.700  36.833  1.00  0.00     0.127 S 
ATOM     72  O   UNL A   1      39.632  36.444  35.642  1.00  0.00    -0.237 OA
ATOM     73  O   UNL A   1      39.352  36.089  38.063  1.00  0.00    -0.237 OA
ATOM     74  O   UNL A   1      41.476  35.499  36.978  1.00  0.00    -0.744 OA
ENDBRANCH  68  71
ENDBRANCH  50  64
BRANCH  51  75
ATOM     75  C   UNL A   1      42.350  26.385  27.638  1.00  0.00     0.023 A 
ATOM     76  C   UNL A   1      43.217  26.984  26.703  1.00  0.00     0.012 A 
ATOM     77  C   UNL A   1      41.987  25.036  27.470  1.00  0.00     0.148 A 
ATOM     78  C   UNL A   1      43.683  26.264  25.602  1.00  0.00     0.002 A 
ATOM     79  C   UNL A   1      42.501  24.308  26.404  1.00  0.00     0.091 A 
ATOM     80  F   UNL A   1      41.155  24.487  28.366  1.00  0.00    -0.205 F 
ATOM     81  C   UNL A   1      43.333  24.925  25.457  1.00  0.00     0.022 A 
BRANCH  79  82
ATOM     82  S   UNL A   1      42.210  22.546  26.211  1.00  0.00     0.127 S 
ATOM     83  O   UNL A   1      42.930  22.258  24.974  1.00  0.00    -0.237 OA
ATOM     84  O   UNL A   1      42.827  22.006  27.423  1.00  0.00    -0.237 OA
ATOM     85  O   UNL A   1      40.763  22.389  26.153  1.00  0.00    -0.744 OA
ENDBRANCH  79  82
ENDBRANCH  51  75
BRANCH  63  86
ATOM     86  C   UNL A   1      44.704  27.441  34.126  1.00  0.00     0.023 A 
ATOM     87  C   UNL A   1      45.926  28.140  34.095  1.00  0.00     0.012 A 
ATOM     88  C   UNL A   1      44.585  26.287  34.926  1.00  0.00     0.148 A 
ATOM     89  C   UNL A   1      47.025  27.677  34.819  1.00  0.00     0.002 A 
ATOM     90  C   UNL A   1      45.668  25.862  35.687  1.00  0.00     0.091 A 
ATOM     91  F   UNL A   1      43.419  25.628  34.928  1.00  0.00    -0.205 F 
ATOM     92  C   UNL A   1      46.892  26.547  35.624  1.00  0.00     0.022 A 
BRANCH  90  93
ATOM     93  S   UNL A   1      45.560  24.479  36.827  1.00  0.00     0.127 S 
ATOM     94  O   UNL A   1      46.870  24.523  37.473  1.00  0.00    -0.237 OA
ATOM     95  O   UNL A   1      44.443  24.873  37.686  1.00  0.00    -0.237 OA
ATOM     96  O   UNL A   1      45.308  23.300  36.009  1.00  0.00    -0.744 OA
ENDBRANCH  90  93
ENDBRANCH  63  86
ENDBRANCH  37  38
ENDBRANCH  29  32
ENDBRANCH  27  28
ENDBRANCH  26  27
ENDBRANCH   1  26
TORSDOF 18
ENDMDL
MODEL 2
REMARK VINA RESULT:     -11.8      2.586      8.104
REMARK SMILES Cc1ccc(O)c(C(=O)NCc2ccc(C(=O)NCCCCNC(=O)c3ccc(-c4c5nc(c(-c6cccc(S(=O)(=O)[O-])c6F)c6ccc([nH]6)c(-c6cccc(S(=O)(=O)[O-])c6F)c6nc(c(-c7cccc(S(=O)(=O)[O-])c7F)c7ccc4[nH]7)C=C6)C=C5)cc3)o2)c1
REMARK SMILES IDX 20 1 19 2 18 3 16 4 17 5 15 7 12 8 13 9 89 10 14 11 11 12
REMARK SMILES IDX 10 13 8 14 9 15 7 17 1 18 2 19 3 20 90 21 4 22 5 23 6 24
REMARK SMILES IDX 21 26 22 27 23 28 24 29 25 31 26 32 27 33 88 34 28 35 87 36
REMARK SMILES IDX 29 37 30 38 31 39 81 40 32 41 86 42 80 43 82 44 33 45 85 46
REMARK SMILES IDX 79 47 78 48 34 50 66 51 46 52 65 53 47 54 50 55 64 56 83 57
REMARK SMILES IDX 48 58 49 59 63 61 84 62 51 63 35 64 36 65 44 66 37 67 39 68
REMARK SMILES IDX 45 69 38 70 40 71 41 72 42 73 43 74 67 75 68 76 76 77 69 78
REMARK SMILES IDX 71 79 77 80 70 81 72 82 73 83 74 84 75 85 52 86 53 87 61 88
REMARK SMILES IDX 54 89 56 90 62 91 55 92 57 93 58 94 59 95 60 96
REMARK H PARENT 18 6 10 16 6 25 23 30 82 49 50 60
REMARK Flexibility Score: inf
ROOT
ATOM      1  C   UNL A   1      32.170  30.089  26.853  1.00  0.00     0.023 C 
ENDROOT
BRANCH   1   2
ATOM      2  C   UNL A   1      32.371  29.522  25.450  1.00  0.00     0.116 C 
BRANCH   2   3
ATOM      3  N   UNL A   1      31.299  29.923  24.565  1.00  0.00    -0.349 N 
ATOM      4  C   UNL A   1      30.469  29.198  23.747  1.00  0.00     0.286 C 
ATOM      5  O   UNL A   1      29.617  29.854  23.137  1.00  0.00    -0.266 OA
ATOM      6  H   UNL A   1      31.135  30.894  24.545  1.00  0.00     0.163 HD
BRANCH   4   7
ATOM      7  C   UNL A   1      30.572  27.755  23.618  1.00  0.00     0.191 A 
ATOM      8  C   UNL A   1      31.554  25.934  22.803  1.00  0.00     0.124 A 
ATOM      9  C   UNL A   1      30.515  25.496  23.590  1.00  0.00     0.048 A 
ATOM     10  O   UNL A   1      31.578  27.294  22.801  1.00  0.00    -0.454 OA
ATOM     11  C   UNL A   1      29.917  26.654  24.144  1.00  0.00     0.056 A 
BRANCH   8  12
ATOM     12  C   UNL A   1      32.642  25.269  22.047  1.00  0.00     0.191 C 
BRANCH  12  13
ATOM     13  N   UNL A   1      32.357  23.849  22.007  1.00  0.00    -0.345 N 
ATOM     14  C   UNL A   1      32.725  22.761  22.744  1.00  0.00     0.255 C 
ATOM     15  O   UNL A   1      32.261  21.675  22.373  1.00  0.00    -0.269 OA
ATOM     16  H   UNL A   1      31.751  23.611  21.269  1.00  0.00     0.164 HD
BRANCH  14  17
ATOM     17  C   UNL A   1      33.621  22.753  23.944  1.00  0.00     0.081 A 
ATOM     18  C   UNL A   1      33.572  22.401  27.753  1.00  0.00     0.044 C 
ATOM     19  C   UNL A   1      34.076  22.593  26.352  1.00  0.00    -0.050 A 
ATOM     20  C   UNL A   1      35.430  22.838  26.125  1.00  0.00     0.007 A 
ATOM     21  C   UNL A   1      33.191  22.544  25.259  1.00  0.00     0.021 A 
ATOM     22  C   UNL A   1      35.888  23.047  24.828  1.00  0.00     0.047 A 
ATOM     23  C   UNL A   1      34.995  23.015  23.755  1.00  0.00     0.128 A 
BRANCH  23  24
ATOM     24  O   UNL A   1      35.562  23.264  22.530  1.00  0.00    -0.507 OA
ATOM     25  H   UNL A   1      35.112  23.801  21.906  1.00  0.00     0.293 HD
ENDBRANCH  23  24
ENDBRANCH  14  17
ENDBRANCH  12  13
ENDBRANCH   8  12
ENDBRANCH   4   7
ENDBRANCH   2   3
ENDBRANCH   1   2
BRANCH   1  26
ATOM     26  C   UNL A   1      31.878  31.594  26.873  1.00  0.00     0.023 C 
BRANCH  26  27
ATOM     27  C   UNL A   1      33.032  32.467  27.359  1.00  0.00     0.116 C 
BRANCH  27  28
ATOM     28  N   UNL A   1      32.642  33.848  27.608  1.00  0.00    -0.352 N 
ATOM     29  C   UNL A   1      33.142  34.717  28.549  1.00  0.00     0.251 C 
ATOM     30  H   UNL A   1      31.931  34.206  27.028  1.00  0.00     0.163 HD
ATOM     31  O   UNL A   1      32.625  35.817  28.715  1.00  0.00    -0.269 OA
BRANCH  29  32
ATOM     32  C   UNL A   1      34.285  34.289  29.380  1.00  0.00     0.039 A 
ATOM     33  C   UNL A   1      34.040  33.566  30.548  1.00  0.00     0.014 A 
ATOM     34  C   UNL A   1      35.595  34.551  28.967  1.00  0.00     0.014 A 
ATOM     35  C   UNL A   1      35.115  33.046  31.271  1.00  0.00     0.010 A 
ATOM     36  C   UNL A   1      36.658  33.962  29.642  1.00  0.00     0.010 A 
ATOM     37  C   UNL A   1      36.430  33.207  30.803  1.00  0.00    -0.014 A 
BRANCH  37  38
ATOM     38  C   UNL A   1      37.577  32.577  31.505  1.00  0.00     0.031 A 
ATOM     39  C   UNL A   1      38.313  31.427  30.874  1.00  0.00     0.074 A 
ATOM     40  C   UNL A   1      37.904  32.988  32.746  1.00  0.00     0.049 A 
ATOM     41  N   UNL A   1      39.309  30.726  31.351  1.00  0.00    -0.248 NA
ATOM     42  C   UNL A   1      37.854  30.986  29.546  1.00  0.00     0.031 C 
ATOM     43  C   UNL A   1      37.213  34.038  33.500  1.00  0.00     0.029 A 
ATOM     44  N   UNL A   1      38.885  32.557  33.604  1.00  0.00    -0.354 N 
ATOM     45  C   UNL A   1      39.572  29.746  30.403  1.00  0.00     0.074 A 
ATOM     46  C   UNL A   1      38.607  29.915  29.340  1.00  0.00     0.031 C 
ATOM     47  C   UNL A   1      37.798  34.175  34.701  1.00  0.00     0.029 A 
ATOM     48  C   UNL A   1      38.880  33.203  34.819  1.00  0.00     0.049 A 
ATOM     49  H   UNL A   1      39.531  31.851  33.372  1.00  0.00     0.167 HD
ATOM     50  C   UNL A   1      40.548  28.807  30.399  1.00  0.00     0.034 A 
ATOM     51  C   UNL A   1      39.652  33.026  35.908  1.00  0.00     0.034 A 
ATOM     52  C   UNL A   1      41.527  28.663  31.443  1.00  0.00     0.049 A 
ATOM     53  C   UNL A   1      40.748  31.995  35.869  1.00  0.00     0.074 A 
ATOM     54  C   UNL A   1      42.609  27.802  31.493  1.00  0.00     0.029 A 
ATOM     55  N   UNL A   1      41.537  29.385  32.625  1.00  0.00    -0.354 N 
ATOM     56  N   UNL A   1      41.083  31.186  34.894  1.00  0.00    -0.248 NA
ATOM     57  C   UNL A   1      41.593  31.876  37.065  1.00  0.00     0.031 C 
ATOM     58  C   UNL A   1      43.252  27.978  32.722  1.00  0.00     0.029 A 
ATOM     59  C   UNL A   1      42.596  28.979  33.420  1.00  0.00     0.049 A 
ATOM     60  H   UNL A   1      40.886  30.084  32.866  1.00  0.00     0.167 HD
ATOM     61  C   UNL A   1      42.199  30.489  35.343  1.00  0.00     0.074 A 
ATOM     62  C   UNL A   1      42.495  30.989  36.671  1.00  0.00     0.031 C 
ATOM     63  C   UNL A   1      42.909  29.517  34.719  1.00  0.00     0.034 A 
BRANCH  50  64
ATOM     64  C   UNL A   1      40.632  27.886  29.210  1.00  0.00     0.023 A 
ATOM     65  C   UNL A   1      39.777  26.767  29.131  1.00  0.00     0.012 A 
ATOM     66  C   UNL A   1      41.514  28.155  28.146  1.00  0.00     0.148 A 
ATOM     67  C   UNL A   1      39.824  25.911  28.032  1.00  0.00     0.002 A 
ATOM     68  C   UNL A   1      41.521  27.326  27.031  1.00  0.00     0.091 A 
ATOM     69  F   UNL A   1      42.334  29.211  28.247  1.00  0.00    -0.205 F 
ATOM     70  C   UNL A   1      40.688  26.196  26.979  1.00  0.00     0.022 A 
BRANCH  68  71
ATOM     71  S   UNL A   1      42.536  27.651  25.586  1.00  0.00     0.127 S 
ATOM     72  O   UNL A   1      41.983  28.922  25.118  1.00  0.00    -0.237 OA
ATOM     73  O   UNL A   1      43.875  27.746  26.166  1.00  0.00    -0.237 OA
ATOM     74  O   UNL A   1      42.339  26.520  24.692  1.00  0.00    -0.744 OA
ENDBRANCH  68  71
ENDBRANCH  50  64
BRANCH  51  75
ATOM     75  C   UNL A   1      39.453  33.882  37.113  1.00  0.00     0.023 A 
ATOM     76  C   UNL A   1      39.896  35.220  37.096  1.00  0.00     0.012 A 
ATOM     77  C   UNL A   1      38.815  33.386  38.265  1.00  0.00     0.148 A 
ATOM     78  C   UNL A   1      39.740  36.035  38.217  1.00  0.00     0.002 A 
ATOM     79  C   UNL A   1      38.611  34.220  39.357  1.00  0.00     0.091 A 
ATOM     80  F   UNL A   1      38.408  32.109  38.264  1.00  0.00    -0.205 F 
ATOM     81  C   UNL A   1      39.090  35.539  39.344  1.00  0.00     0.022 A 
BRANCH  79  82
ATOM     82  S   UNL A   1      37.669  33.707  40.798  1.00  0.00     0.127 S 
ATOM     83  O   UNL A   1      38.590  32.774  41.441  1.00  0.00    -0.237 OA
ATOM     84  O   UNL A   1      37.486  34.977  41.504  1.00  0.00    -0.237 OA
ATOM     85  O   UNL A   1      36.439  33.127  40.279  1.00  0.00    -0.744 OA
ENDBRANCH  79  82
ENDBRANCH  51  75
BRANCH  63  86
ATOM     86  C   UNL A   1      44.106  28.952  35.440  1.00  0.00     0.023 A 
ATOM     87  C   UNL A   1      45.373  29.545  35.277  1.00  0.00     0.012 A 
ATOM     88  C   UNL A   1      43.955  27.875  36.336  1.00  0.00     0.148 A 
ATOM     89  C   UNL A   1      46.480  29.050  35.966  1.00  0.00     0.002 A 
ATOM     90  C   UNL A   1      45.051  27.423  37.061  1.00  0.00     0.091 A 
ATOM     91  F   UNL A   1      42.745  27.314  36.464  1.00  0.00    -0.205 F 
ATOM     92  C   UNL A   1      46.317  28.000  36.866  1.00  0.00     0.022 A 
BRANCH  90  93
ATOM     93  S   UNL A   1      44.917  26.144  38.314  1.00  0.00     0.127 S 
ATOM     94  O   UNL A   1      46.314  25.749  38.487  1.00  0.00    -0.237 OA
ATOM     95  O   UNL A   1      44.346  26.878  39.444  1.00  0.00    -0.237 OA
ATOM     96  O   UNL A   1      44.044  25.120  37.755  1.00  0.00    -0.744 OA
ENDBRANCH  90  93
ENDBRANCH  63  86
ENDBRANCH  37  38
ENDBRANCH  29  32
ENDBRANCH  27  28
ENDBRANCH  26  27
ENDBRANCH   1  26
TORSDOF 18
ENDMDL
MODEL 3
REMARK VINA RESULT:     -11.8      5.584     11.597
REMARK SMILES Cc1ccc(O)c(C(=O)NCc2ccc(C(=O)NCCCCNC(=O)c3ccc(-c4c5nc(c(-c6cccc(S(=O)(=O)[O-])c6F)c6ccc([nH]6)c(-c6cccc(S(=O)(=O)[O-])c6F)c6nc(c(-c7cccc(S(=O)(=O)[O-])c7F)c7ccc4[nH]7)C=C6)C=C5)cc3)o2)c1
REMARK SMILES IDX 20 1 19 2 18 3 16 4 17 5 15 7 12 8 13 9 89 10 14 11 11 12
REMARK SMILES IDX 10 13 8 14 9 15 7 17 1 18 2 19 3 20 90 21 4 22 5 23 6 24
REMARK SMILES IDX 21 26 22 27 23 28 24 29 25 31 26 32 27 33 88 34 28 35 87 36
REMARK SMILES IDX 29 37 30 38 31 39 81 40 32 41 86 42 80 43 82 44 33 45 85 46
REMARK SMILES IDX 79 47 78 48 34 50 66 51 46 52 65 53 47 54 50 55 64 56 83 57
REMARK SMILES IDX 48 58 49 59 63 61 84 62 51 63 35 64 36 65 44 66 37 67 39 68
REMARK SMILES IDX 45 69 38 70 40 71 41 72 42 73 43 74 67 75 68 76 76 77 69 78
REMARK SMILES IDX 71 79 77 80 70 81 72 82 73 83 74 84 75 85 52 86 53 87 61 88
REMARK SMILES IDX 54 89 56 90 62 91 55 92 57 93 58 94 59 95 60 96
REMARK H PARENT 18 6 10 16 6 25 23 30 82 49 50 60
REMARK Flexibility Score: inf
ROOT
ATOM      1  C   UNL A   1      42.363  19.783  27.224  1.00  0.00     0.023 C 
ENDROOT
BRANCH   1   2
ATOM      2  C   UNL A   1      42.651  19.264  25.818  1.00  0.00     0.116 C 
BRANCH   2   3
ATOM      3  N   UNL A   1      44.008  18.774  25.708  1.00  0.00    -0.349 N 
ATOM      4  C   UNL A   1      45.177  19.393  25.344  1.00  0.00     0.286 C 
ATOM      5  O   UNL A   1      46.190  18.685  25.390  1.00  0.00    -0.266 OA
ATOM      6  H   UNL A   1      44.111  17.821  25.936  1.00  0.00     0.163 HD
BRANCH   4   7
ATOM      7  C   UNL A   1      45.226  20.789  24.948  1.00  0.00     0.191 A 
ATOM      8  C   UNL A   1      45.743  22.914  25.350  1.00  0.00     0.124 A 
ATOM      9  C   UNL A   1      45.189  22.880  24.092  1.00  0.00     0.048 A 
ATOM     10  O   UNL A   1      45.747  21.660  25.877  1.00  0.00    -0.454 OA
ATOM     11  C   UNL A   1      44.901  21.521  23.819  1.00  0.00     0.056 A 
BRANCH   8  12
ATOM     12  C   UNL A   1      46.368  23.967  26.187  1.00  0.00     0.191 C 
BRANCH  12  13
ATOM     13  N   UNL A   1      45.967  25.255  25.660  1.00  0.00    -0.345 N 
ATOM     14  C   UNL A   1      46.607  26.315  25.087  1.00  0.00     0.255 C 
ATOM     15  O   UNL A   1      45.890  27.272  24.768  1.00  0.00    -0.269 OA
ATOM     16  H   UNL A   1      44.996  25.402  25.733  1.00  0.00     0.164 HD
BRANCH  14  17
ATOM     17  C   UNL A   1      48.074  26.430  24.808  1.00  0.00     0.081 A 
ATOM     18  C   UNL A   1      51.507  25.577  26.265  1.00  0.00     0.044 C 
ATOM     19  C   UNL A   1      50.450  26.102  25.338  1.00  0.00    -0.050 A 
ATOM     20  C   UNL A   1      50.815  26.788  24.179  1.00  0.00     0.007 A 
ATOM     21  C   UNL A   1      49.086  25.923  25.632  1.00  0.00     0.021 A 
ATOM     22  C   UNL A   1      49.833  27.300  23.338  1.00  0.00     0.047 A 
ATOM     23  C   UNL A   1      48.482  27.132  23.654  1.00  0.00     0.128 A 
BRANCH  23  24
ATOM     24  O   UNL A   1      47.610  27.707  22.763  1.00  0.00    -0.507 OA
ATOM     25  H   UNL A   1      47.894  27.907  21.892  1.00  0.00     0.293 HD
ENDBRANCH  23  24
ENDBRANCH  14  17
ENDBRANCH  12  13
ENDBRANCH   8  12
ENDBRANCH   4   7
ENDBRANCH   2   3
ENDBRANCH   1   2
BRANCH   1  26
ATOM     26  C   UNL A   1      42.478  21.307  27.352  1.00  0.00     0.023 C 
BRANCH  26  27
ATOM     27  C   UNL A   1      41.851  22.098  26.207  1.00  0.00     0.116 C 
BRANCH  27  28
ATOM     28  N   UNL A   1      40.443  21.787  25.997  1.00  0.00    -0.352 N 
ATOM     29  C   UNL A   1      39.351  22.587  26.234  1.00  0.00     0.251 C 
ATOM     30  H   UNL A   1      40.250  20.890  25.638  1.00  0.00     0.163 HD
ATOM     31  O   UNL A   1      38.216  22.137  26.117  1.00  0.00    -0.269 OA
BRANCH  29  32
ATOM     32  C   UNL A   1      39.568  23.982  26.665  1.00  0.00     0.039 A 
ATOM     33  C   UNL A   1      39.384  24.311  28.009  1.00  0.00     0.014 A 
ATOM     34  C   UNL A   1      40.010  24.943  25.751  1.00  0.00     0.014 A 
ATOM     35  C   UNL A   1      39.710  25.594  28.451  1.00  0.00     0.010 A 
ATOM     36  C   UNL A   1      40.412  26.192  26.210  1.00  0.00     0.010 A 
ATOM     37  C   UNL A   1      40.263  26.533  27.563  1.00  0.00    -0.014 A 
BRANCH  37  38
ATOM     38  C   UNL A   1      40.708  27.868  28.036  1.00  0.00     0.031 A 
ATOM     39  C   UNL A   1      42.172  28.213  28.069  1.00  0.00     0.074 A 
ATOM     40  C   UNL A   1      39.799  28.740  28.515  1.00  0.00     0.049 A 
ATOM     41  N   UNL A   1      42.751  29.309  28.486  1.00  0.00    -0.248 NA
ATOM     42  C   UNL A   1      43.112  27.183  27.596  1.00  0.00     0.031 C 
ATOM     43  C   UNL A   1      38.358  28.492  28.615  1.00  0.00     0.029 A 
ATOM     44  N   UNL A   1      39.953  30.004  29.029  1.00  0.00    -0.354 N 
ATOM     45  C   UNL A   1      44.117  29.089  28.359  1.00  0.00     0.074 A 
ATOM     46  C   UNL A   1      44.284  27.740  27.864  1.00  0.00     0.031 C 
ATOM     47  C   UNL A   1      37.761  29.572  29.147  1.00  0.00     0.029 A 
ATOM     48  C   UNL A   1      38.776  30.573  29.458  1.00  0.00     0.049 A 
ATOM     49  H   UNL A   1      40.823  30.460  29.086  1.00  0.00     0.167 HD
ATOM     50  C   UNL A   1      45.141  29.941  28.603  1.00  0.00     0.034 A 
ATOM     51  C   UNL A   1      38.541  31.763  30.045  1.00  0.00     0.034 A 
ATOM     52  C   UNL A   1      44.969  31.292  29.064  1.00  0.00     0.049 A 
ATOM     53  C   UNL A   1      39.693  32.702  30.281  1.00  0.00     0.074 A 
ATOM     54  C   UNL A   1      45.935  32.263  29.258  1.00  0.00     0.029 A 
ATOM     55  N   UNL A   1      43.755  31.860  29.418  1.00  0.00    -0.354 N 
ATOM     56  N   UNL A   1      40.963  32.535  30.002  1.00  0.00    -0.248 NA
ATOM     57  C   UNL A   1      39.376  34.007  30.879  1.00  0.00     0.031 C 
ATOM     58  C   UNL A   1      45.310  33.407  29.764  1.00  0.00     0.029 A 
ATOM     59  C   UNL A   1      43.949  33.162  29.845  1.00  0.00     0.049 A 
ATOM     60  H   UNL A   1      42.884  31.404  29.373  1.00  0.00     0.167 HD
ATOM     61  C   UNL A   1      41.590  33.725  30.355  1.00  0.00     0.074 A 
ATOM     62  C   UNL A   1      40.555  34.611  30.847  1.00  0.00     0.031 C 
ATOM     63  C   UNL A   1      42.905  34.051  30.288  1.00  0.00     0.034 A 
BRANCH  50  64
ATOM     64  C   UNL A   1      46.540  29.450  28.337  1.00  0.00     0.023 A 
ATOM     65  C   UNL A   1      47.183  29.792  27.129  1.00  0.00     0.012 A 
ATOM     66  C   UNL A   1      47.240  28.700  29.302  1.00  0.00     0.148 A 
ATOM     67  C   UNL A   1      48.484  29.364  26.869  1.00  0.00     0.002 A 
ATOM     68  C   UNL A   1      48.553  28.318  29.057  1.00  0.00     0.091 A 
ATOM     69  F   UNL A   1      46.607  28.367  30.435  1.00  0.00    -0.205 F 
ATOM     70  C   UNL A   1      49.172  28.637  27.836  1.00  0.00     0.022 A 
BRANCH  68  71
ATOM     71  S   UNL A   1      49.555  27.452  30.270  1.00  0.00     0.127 S 
ATOM     72  O   UNL A   1      49.469  28.352  31.419  1.00  0.00    -0.237 OA
ATOM     73  O   UNL A   1      48.827  26.193  30.425  1.00  0.00    -0.237 OA
ATOM     74  O   UNL A   1      50.879  27.320  29.679  1.00  0.00    -0.744 OA
ENDBRANCH  68  71
ENDBRANCH  50  64
BRANCH  51  75
ATOM     75  C   UNL A   1      37.149  32.158  30.404  1.00  0.00     0.023 A 
ATOM     76  C   UNL A   1      36.670  31.912  31.706  1.00  0.00     0.012 A 
ATOM     77  C   UNL A   1      36.305  32.790  29.471  1.00  0.00     0.148 A 
ATOM     78  C   UNL A   1      35.365  32.253  32.060  1.00  0.00     0.002 A 
ATOM     79  C   UNL A   1      35.026  33.180  29.848  1.00  0.00     0.091 A 
ATOM     80  F   UNL A   1      36.777  33.009  28.236  1.00  0.00    -0.205 F 
ATOM     81  C   UNL A   1      34.546  32.895  31.136  1.00  0.00     0.022 A 
BRANCH  79  82
ATOM     82  S   UNL A   1      33.950  34.128  28.766  1.00  0.00     0.127 S 
ATOM     83  O   UNL A   1      33.516  33.112  27.811  1.00  0.00    -0.237 OA
ATOM     84  O   UNL A   1      32.915  34.582  29.696  1.00  0.00    -0.237 OA
ATOM     85  O   UNL A   1      34.778  35.195  28.223  1.00  0.00    -0.744 OA
ENDBRANCH  79  82
ENDBRANCH  51  75
BRANCH  63  86
ATOM     86  C   UNL A   1      43.304  35.440  30.715  1.00  0.00     0.023 A 
ATOM     87  C   UNL A   1      43.719  35.679  32.040  1.00  0.00     0.012 A 
ATOM     88  C   UNL A   1      43.336  36.493  29.779  1.00  0.00     0.148 A 
ATOM     89  C   UNL A   1      44.123  36.954  32.436  1.00  0.00     0.002 A 
ATOM     90  C   UNL A   1      43.791  37.747  30.167  1.00  0.00     0.091 A 
ATOM     91  F   UNL A   1      42.921  36.248  28.528  1.00  0.00    -0.205 F 
ATOM     92  C   UNL A   1      44.171  37.983  31.499  1.00  0.00     0.022 A 
BRANCH  90  93
ATOM     93  S   UNL A   1      43.983  39.104  29.007  1.00  0.00     0.127 S 
ATOM     94  O   UNL A   1      44.669  38.449  27.894  1.00  0.00    -0.237 OA
ATOM     95  O   UNL A   1      42.594  39.475  28.734  1.00  0.00    -0.237 OA
ATOM     96  O   UNL A   1      44.757  40.124  29.703  1.00  0.00    -0.744 OA
ENDBRANCH  90  93
ENDBRANCH  63  86
ENDBRANCH  37  38
ENDBRANCH  29  32
ENDBRANCH  27  28
ENDBRANCH  26  27
ENDBRANCH   1  26
TORSDOF 18
ENDMDL
