MODEL 1
REMARK VINA RESULT:     -12.7      0.000      0.000
REMARK SMILES COc1cc2c(CC(=O)NCCCCNC(=O)c3ccc(-c4c5nc(c(-c6cccc(S(=O)(=O)[O-])c6F)c6ccc([nH]6)c(-c6cccc(S(=O)(=O)[O-])c6F)c6nc(c(-c7cccc(S(=O)(=O)[O-])c7F)c7ccc4[nH]7)C=C6)C=C5)cc3)c(C)n(C(=O)c3ccc(Cl)cc3)c2cc1Cl
REMARK SMILES IDX 12 1 11 2 10 3 8 4 9 5 7 7 6 8 3 9 4 10 95 11 5 12 94 13
REMARK SMILES IDX 96 14 93 15 81 16 83 17 82 18 2 19 1 20 84 21 85 22 86 23
REMARK SMILES IDX 87 24 92 25 88 26 91 27 89 28 90 29 13 30 14 31 15 32 16 33
REMARK SMILES IDX 17 35 18 36 19 37 80 38 20 39 79 40 21 41 22 42 23 43 73 44
REMARK SMILES IDX 24 45 78 46 72 47 74 48 25 49 77 50 71 51 70 52 26 54 58 55
REMARK SMILES IDX 38 56 57 57 39 58 42 59 56 60 75 61 40 62 41 63 55 65 76 66
REMARK SMILES IDX 43 67 27 68 28 69 36 70 29 71 31 72 37 73 30 74 32 75 33 76
REMARK SMILES IDX 34 77 35 78 59 79 60 80 68 81 61 82 63 83 69 84 62 85 64 86
REMARK SMILES IDX 65 87 66 88 67 89 44 90 45 91 53 92 46 93 48 94 54 95 47 96
REMARK SMILES IDX 49 97 50 98 51 99 52 100
REMARK H PARENT 10 6 15 34 74 53 42 64
REMARK Flexibility Score: inf
ROOT
ATOM      1  C   UNL A   1      34.275  29.297  27.319  1.00  0.00     0.023 C 
ENDROOT
BRANCH   1   2
ATOM      2  C   UNL A   1      33.369  28.171  26.829  1.00  0.00     0.116 C 
BRANCH   2   3
ATOM      3  N   UNL A   1      33.656  27.790  25.463  1.00  0.00    -0.356 N 
ATOM      4  C   UNL A   1      33.597  26.546  24.901  1.00  0.00     0.224 C 
ATOM      5  O   UNL A   1      33.846  26.431  23.698  1.00  0.00    -0.275 OA
ATOM      6  H   UNL A   1      33.927  28.521  24.861  1.00  0.00     0.163 HD
BRANCH   4   7
ATOM      7  C   UNL A   1      33.157  25.351  25.733  1.00  0.00     0.138 C 
BRANCH   7   8
ATOM      8  C   UNL A   1      33.434  24.023  25.084  1.00  0.00    -0.009 A 
ATOM      9  C   UNL A   1      36.931  22.588  25.739  1.00  0.00     0.138 A 
ATOM     10  C   UNL A   1      35.872  23.501  25.852  1.00  0.00     0.058 A 
ATOM     11  C   UNL A   1      36.769  21.452  24.954  1.00  0.00     0.085 A 
ATOM     12  C   UNL A   1      34.643  23.278  25.183  1.00  0.00     0.008 A 
ATOM     13  C   UNL A   1      35.581  21.247  24.244  1.00  0.00     0.051 A 
ATOM     14  Cl  UNL A   1      37.933  20.179  24.851  1.00  0.00    -0.080 Cl
ATOM     15  C   UNL A   1      34.490  22.125  24.410  1.00  0.00     0.058 A 
ATOM     16  C   UNL A   1      32.582  23.317  24.238  1.00  0.00     0.028 A 
ATOM     17  N   UNL A   1      33.155  22.064  23.974  1.00  0.00    -0.280 N 
ATOM     18  C   UNL A   1      31.244  23.763  23.729  1.00  0.00     0.065 C 
BRANCH   9  19
ATOM     19  O   UNL A   1      38.032  22.885  26.497  1.00  0.00    -0.495 OA
ATOM     20  C   UNL A   1      38.368  24.271  26.527  1.00  0.00     0.278 C 
ENDBRANCH   9  19
BRANCH  17  21
ATOM     21  C   UNL A   1      32.504  20.937  23.386  1.00  0.00     0.262 C 
ATOM     22  O   UNL A   1      31.874  21.088  22.339  1.00  0.00    -0.268 OA
BRANCH  21  23
ATOM     23  C   UNL A   1      32.542  19.564  23.919  1.00  0.00     0.040 A 
ATOM     24  C   UNL A   1      32.529  19.320  25.298  1.00  0.00     0.015 A 
ATOM     25  C   UNL A   1      32.681  18.512  23.006  1.00  0.00     0.015 A 
ATOM     26  C   UNL A   1      32.761  18.021  25.763  1.00  0.00     0.021 A 
ATOM     27  C   UNL A   1      32.897  17.217  23.478  1.00  0.00     0.021 A 
ATOM     28  C   UNL A   1      32.962  16.981  24.852  1.00  0.00     0.041 A 
ATOM     29  Cl  UNL A   1      33.326  15.399  25.419  1.00  0.00    -0.084 Cl
ENDBRANCH  21  23
ENDBRANCH  17  21
ENDBRANCH   7   8
ENDBRANCH   4   7
ENDBRANCH   2   3
ENDBRANCH   1   2
BRANCH   1  30
ATOM     30  C   UNL A   1      33.629  30.685  27.261  1.00  0.00     0.023 C 
BRANCH  30  31
ATOM     31  C   UNL A   1      34.525  31.822  27.765  1.00  0.00     0.116 C 
BRANCH  31  32
ATOM     32  N   UNL A   1      34.541  31.962  29.207  1.00  0.00    -0.352 N 
ATOM     33  C   UNL A   1      35.468  31.682  30.175  1.00  0.00     0.251 C 
ATOM     34  H   UNL A   1      33.707  32.340  29.568  1.00  0.00     0.163 HD
ATOM     35  O   UNL A   1      35.243  32.152  31.294  1.00  0.00    -0.269 OA
BRANCH  33  36
ATOM     36  C   UNL A   1      36.639  30.786  29.985  1.00  0.00     0.039 A 
ATOM     37  C   UNL A   1      36.632  29.413  30.215  1.00  0.00     0.014 A 
ATOM     38  C   UNL A   1      37.862  31.413  29.675  1.00  0.00     0.014 A 
ATOM     39  C   UNL A   1      37.821  28.715  30.298  1.00  0.00     0.010 A 
ATOM     40  C   UNL A   1      39.059  30.709  29.722  1.00  0.00     0.010 A 
ATOM     41  C   UNL A   1      39.035  29.376  30.106  1.00  0.00    -0.014 A 
BRANCH  41  42
ATOM     42  C   UNL A   1      40.238  28.571  30.249  1.00  0.00     0.031 A 
ATOM     43  C   UNL A   1      40.832  28.618  31.613  1.00  0.00     0.074 A 
ATOM     44  C   UNL A   1      40.779  27.853  29.246  1.00  0.00     0.049 A 
ATOM     45  N   UNL A   1      41.936  29.187  31.974  1.00  0.00    -0.248 NA
ATOM     46  C   UNL A   1      40.009  28.132  32.731  1.00  0.00     0.031 C 
ATOM     47  C   UNL A   1      40.207  27.534  27.937  1.00  0.00     0.029 A 
ATOM     48  N   UNL A   1      41.947  27.155  29.246  1.00  0.00    -0.354 N 
ATOM     49  C   UNL A   1      42.056  28.933  33.338  1.00  0.00     0.074 A 
ATOM     50  C   UNL A   1      40.777  28.435  33.777  1.00  0.00     0.031 C 
ATOM     51  C   UNL A   1      40.907  26.516  27.383  1.00  0.00     0.029 A 
ATOM     52  C   UNL A   1      42.052  26.218  28.225  1.00  0.00     0.049 A 
ATOM     53  H   UNL A   1      42.658  27.303  29.911  1.00  0.00     0.167 HD
ATOM     54  C   UNL A   1      43.265  28.928  33.962  1.00  0.00     0.034 A 
ATOM     55  C   UNL A   1      42.981  25.234  28.138  1.00  0.00     0.034 A 
ATOM     56  C   UNL A   1      44.273  29.608  33.199  1.00  0.00     0.049 A 
ATOM     57  C   UNL A   1      44.130  25.661  28.970  1.00  0.00     0.074 A 
ATOM     58  C   UNL A   1      44.443  30.897  32.734  1.00  0.00     0.029 A 
ATOM     59  N   UNL A   1      45.142  28.828  32.478  1.00  0.00    -0.354 N 
ATOM     60  N   UNL A   1      44.885  26.684  28.682  1.00  0.00    -0.248 NA
ATOM     61  C   UNL A   1      44.185  25.205  30.349  1.00  0.00     0.031 C 
ATOM     62  C   UNL A   1      45.034  30.744  31.446  1.00  0.00     0.029 A 
ATOM     63  C   UNL A   1      45.234  29.379  31.229  1.00  0.00     0.049 A 
ATOM     64  H   UNL A   1      45.611  28.024  32.799  1.00  0.00     0.167 HD
ATOM     65  C   UNL A   1      45.159  27.267  29.911  1.00  0.00     0.074 A 
ATOM     66  C   UNL A   1      44.788  26.260  30.903  1.00  0.00     0.031 C 
ATOM     67  C   UNL A   1      45.391  28.607  30.018  1.00  0.00     0.034 A 
BRANCH  54  68
ATOM     68  C   UNL A   1      43.622  27.985  35.081  1.00  0.00     0.023 A 
ATOM     69  C   UNL A   1      44.134  28.536  36.276  1.00  0.00     0.012 A 
ATOM     70  C   UNL A   1      43.752  26.588  34.906  1.00  0.00     0.148 A 
ATOM     71  C   UNL A   1      44.771  27.737  37.233  1.00  0.00     0.002 A 
ATOM     72  C   UNL A   1      44.321  25.790  35.890  1.00  0.00     0.091 A 
ATOM     73  F   UNL A   1      43.456  26.034  33.727  1.00  0.00    -0.205 F 
ATOM     74  C   UNL A   1      44.856  26.362  37.045  1.00  0.00     0.022 A 
BRANCH  72  75
ATOM     75  S   UNL A   1      44.434  24.008  35.695  1.00  0.00     0.127 S 
ATOM     76  O   UNL A   1      45.377  23.898  34.586  1.00  0.00    -0.237 OA
ATOM     77  O   UNL A   1      44.955  23.598  36.999  1.00  0.00    -0.237 OA
ATOM     78  O   UNL A   1      43.073  23.561  35.430  1.00  0.00    -0.744 OA
ENDBRANCH  72  75
ENDBRANCH  54  68
BRANCH  55  79
ATOM     79  C   UNL A   1      42.874  23.846  27.619  1.00  0.00     0.023 A 
ATOM     80  C   UNL A   1      41.666  23.138  27.799  1.00  0.00     0.012 A 
ATOM     81  C   UNL A   1      43.811  23.329  26.698  1.00  0.00     0.148 A 
ATOM     82  C   UNL A   1      41.376  21.992  27.050  1.00  0.00     0.002 A 
ATOM     83  C   UNL A   1      43.523  22.181  25.961  1.00  0.00     0.091 A 
ATOM     84  F   UNL A   1      44.941  24.010  26.471  1.00  0.00    -0.205 F 
ATOM     85  C   UNL A   1      42.299  21.520  26.122  1.00  0.00     0.022 A 
BRANCH  83  86
ATOM     86  S   UNL A   1      44.661  21.517  24.736  1.00  0.00     0.127 S 
ATOM     87  O   UNL A   1      44.137  20.165  24.536  1.00  0.00    -0.237 OA
ATOM     88  O   UNL A   1      44.458  22.424  23.610  1.00  0.00    -0.237 OA
ATOM     89  O   UNL A   1      45.980  21.561  25.355  1.00  0.00    -0.744 OA
ENDBRANCH  83  86
ENDBRANCH  55  79
BRANCH  67  90
ATOM     90  C   UNL A   1      45.558  29.402  28.751  1.00  0.00     0.023 A 
ATOM     91  C   UNL A   1      44.452  29.808  27.973  1.00  0.00     0.012 A 
ATOM     92  C   UNL A   1      46.827  29.932  28.469  1.00  0.00     0.148 A 
ATOM     93  C   UNL A   1      44.613  30.729  26.933  1.00  0.00     0.002 A 
ATOM     94  C   UNL A   1      46.975  30.875  27.461  1.00  0.00     0.091 A 
ATOM     95  F   UNL A   1      47.857  29.541  29.234  1.00  0.00    -0.205 F 
ATOM     96  C   UNL A   1      45.872  31.274  26.688  1.00  0.00     0.022 A 
BRANCH  94  97
ATOM     97  S   UNL A   1      48.538  31.703  27.163  1.00  0.00     0.127 S 
ATOM     98  O   UNL A   1      49.384  30.603  26.705  1.00  0.00    -0.237 OA
ATOM     99  O   UNL A   1      48.181  32.673  26.127  1.00  0.00    -0.237 OA
ATOM    100  O   UNL A   1      48.932  32.299  28.434  1.00  0.00    -0.744 OA
ENDBRANCH  94  97
ENDBRANCH  67  90
ENDBRANCH  41  42
ENDBRANCH  33  36
ENDBRANCH  31  32
ENDBRANCH  30  31
ENDBRANCH   1  30
TORSDOF 18
ENDMDL
MODEL 2
REMARK VINA RESULT:     -12.4      3.845      8.457
REMARK SMILES COc1cc2c(CC(=O)NCCCCNC(=O)c3ccc(-c4c5nc(c(-c6cccc(S(=O)(=O)[O-])c6F)c6ccc([nH]6)c(-c6cccc(S(=O)(=O)[O-])c6F)c6nc(c(-c7cccc(S(=O)(=O)[O-])c7F)c7ccc4[nH]7)C=C6)C=C5)cc3)c(C)n(C(=O)c3ccc(Cl)cc3)c2cc1Cl
REMARK SMILES IDX 12 1 11 2 10 3 8 4 9 5 7 7 6 8 3 9 4 10 95 11 5 12 94 13
REMARK SMILES IDX 96 14 93 15 81 16 83 17 82 18 2 19 1 20 84 21 85 22 86 23
REMARK SMILES IDX 87 24 92 25 88 26 91 27 89 28 90 29 13 30 14 31 15 32 16 33
REMARK SMILES IDX 17 35 18 36 19 37 80 38 20 39 79 40 21 41 22 42 23 43 73 44
REMARK SMILES IDX 24 45 78 46 72 47 74 48 25 49 77 50 71 51 70 52 26 54 58 55
REMARK SMILES IDX 38 56 57 57 39 58 42 59 56 60 75 61 40 62 41 63 55 65 76 66
REMARK SMILES IDX 43 67 27 68 28 69 36 70 29 71 31 72 37 73 30 74 32 75 33 76
REMARK SMILES IDX 34 77 35 78 59 79 60 80 68 81 61 82 63 83 69 84 62 85 64 86
REMARK SMILES IDX 65 87 66 88 67 89 44 90 45 91 53 92 46 93 48 94 54 95 47 96
REMARK SMILES IDX 49 97 50 98 51 99 52 100
REMARK H PARENT 10 6 15 34 74 53 42 64
REMARK Flexibility Score: inf
ROOT
ATOM      1  C   UNL A   1      35.026  22.430  23.642  1.00  0.00     0.023 C 
ENDROOT
BRANCH   1   2
ATOM      2  C   UNL A   1      33.788  23.310  23.490  1.00  0.00     0.116 C 
BRANCH   2   3
ATOM      3  N   UNL A   1      33.996  24.393  22.553  1.00  0.00    -0.356 N 
ATOM      4  C   UNL A   1      33.161  25.435  22.266  1.00  0.00     0.224 C 
ATOM      5  O   UNL A   1      33.537  26.286  21.456  1.00  0.00    -0.275 OA
ATOM      6  H   UNL A   1      34.848  24.377  22.060  1.00  0.00     0.163 HD
BRANCH   4   7
ATOM      7  C   UNL A   1      31.833  25.574  22.995  1.00  0.00     0.138 C 
BRANCH   7   8
ATOM      8  C   UNL A   1      31.724  26.821  23.830  1.00  0.00    -0.009 A 
ATOM      9  C   UNL A   1      29.226  29.431  22.541  1.00  0.00     0.138 A 
ATOM     10  C   UNL A   1      29.918  28.211  22.561  1.00  0.00     0.058 A 
ATOM     11  C   UNL A   1      29.480  30.374  23.530  1.00  0.00     0.085 A 
ATOM     12  C   UNL A   1      30.865  27.927  23.575  1.00  0.00     0.008 A 
ATOM     13  C   UNL A   1      30.453  30.129  24.506  1.00  0.00     0.051 A 
ATOM     14  Cl  UNL A   1      28.593  31.846  23.708  1.00  0.00    -0.080 Cl
ATOM     15  C   UNL A   1      31.099  28.878  24.571  1.00  0.00     0.058 A 
ATOM     16  C   UNL A   1      32.474  27.132  24.961  1.00  0.00     0.028 A 
ATOM     17  N   UNL A   1      31.962  28.310  25.525  1.00  0.00    -0.280 N 
ATOM     18  C   UNL A   1      33.602  26.333  25.542  1.00  0.00     0.065 C 
BRANCH   9  19
ATOM     19  O   UNL A   1      28.285  29.544  21.552  1.00  0.00    -0.495 OA
ATOM     20  C   UNL A   1      28.296  30.797  20.871  1.00  0.00     0.278 C 
ENDBRANCH   9  19
BRANCH  17  21
ATOM     21  C   UNL A   1      32.250  28.828  26.824  1.00  0.00     0.262 C 
ATOM     22  O   UNL A   1      31.738  28.294  27.809  1.00  0.00    -0.268 OA
BRANCH  21  23
ATOM     23  C   UNL A   1      33.152  29.958  27.104  1.00  0.00     0.040 A 
ATOM     24  C   UNL A   1      34.516  29.757  27.345  1.00  0.00     0.015 A 
ATOM     25  C   UNL A   1      32.586  31.234  27.210  1.00  0.00     0.015 A 
ATOM     26  C   UNL A   1      35.295  30.828  27.795  1.00  0.00     0.021 A 
ATOM     27  C   UNL A   1      33.373  32.300  27.646  1.00  0.00     0.021 A 
ATOM     28  C   UNL A   1      34.716  32.088  27.961  1.00  0.00     0.041 A 
ATOM     29  Cl  UNL A   1      35.650  33.389  28.590  1.00  0.00    -0.084 Cl
ENDBRANCH  21  23
ENDBRANCH  17  21
ENDBRANCH   7   8
ENDBRANCH   4   7
ENDBRANCH   2   3
ENDBRANCH   1   2
BRANCH   1  30
ATOM     30  C   UNL A   1      34.883  21.333  24.702  1.00  0.00     0.023 C 
BRANCH  30  31
ATOM     31  C   UNL A   1      36.080  21.210  25.652  1.00  0.00     0.116 C 
BRANCH  31  32
ATOM     32  N   UNL A   1      37.037  20.195  25.262  1.00  0.00    -0.352 N 
ATOM     33  C   UNL A   1      38.370  20.006  25.511  1.00  0.00     0.251 C 
ATOM     34  H   UNL A   1      36.645  19.490  24.699  1.00  0.00     0.163 HD
ATOM     35  O   UNL A   1      38.825  18.896  25.219  1.00  0.00    -0.269 OA
BRANCH  33  36
ATOM     36  C   UNL A   1      39.293  21.062  26.002  1.00  0.00     0.039 A 
ATOM     37  C   UNL A   1      40.410  20.830  26.802  1.00  0.00     0.014 A 
ATOM     38  C   UNL A   1      38.919  22.394  25.735  1.00  0.00     0.014 A 
ATOM     39  C   UNL A   1      41.034  21.880  27.448  1.00  0.00     0.010 A 
ATOM     40  C   UNL A   1      39.564  23.457  26.355  1.00  0.00     0.010 A 
ATOM     41  C   UNL A   1      40.575  23.185  27.266  1.00  0.00    -0.014 A 
BRANCH  41  42
ATOM     42  C   UNL A   1      41.266  24.223  28.016  1.00  0.00     0.031 A 
ATOM     43  C   UNL A   1      40.480  25.476  28.169  1.00  0.00     0.074 A 
ATOM     44  C   UNL A   1      42.506  24.076  28.521  1.00  0.00     0.049 A 
ATOM     45  N   UNL A   1      40.703  26.621  27.609  1.00  0.00    -0.248 NA
ATOM     46  C   UNL A   1      39.198  25.393  28.884  1.00  0.00     0.031 C 
ATOM     47  C   UNL A   1      43.308  22.857  28.643  1.00  0.00     0.029 A 
ATOM     48  N   UNL A   1      43.278  25.010  29.142  1.00  0.00    -0.354 N 
ATOM     49  C   UNL A   1      39.705  27.468  28.086  1.00  0.00     0.074 A 
ATOM     50  C   UNL A   1      38.723  26.628  28.722  1.00  0.00     0.031 C 
ATOM     51  C   UNL A   1      44.323  23.078  29.511  1.00  0.00     0.029 A 
ATOM     52  C   UNL A   1      44.328  24.480  29.884  1.00  0.00     0.049 A 
ATOM     53  H   UNL A   1      43.107  25.977  29.070  1.00  0.00     0.167 HD
ATOM     54  C   UNL A   1      39.872  28.818  28.130  1.00  0.00     0.034 A 
ATOM     55  C   UNL A   1      45.085  25.153  30.785  1.00  0.00     0.034 A 
ATOM     56  C   UNL A   1      40.936  29.262  27.274  1.00  0.00     0.049 A 
ATOM     57  C   UNL A   1      44.975  26.591  30.443  1.00  0.00     0.074 A 
ATOM     58  C   UNL A   1      41.186  29.208  25.918  1.00  0.00     0.029 A 
ATOM     59  N   UNL A   1      42.140  29.542  27.870  1.00  0.00    -0.354 N 
ATOM     60  N   UNL A   1      45.452  27.107  29.345  1.00  0.00    -0.248 NA
ATOM     61  C   UNL A   1      43.963  27.382  31.124  1.00  0.00     0.031 C 
ATOM     62  C   UNL A   1      42.588  28.972  25.815  1.00  0.00     0.029 A 
ATOM     63  C   UNL A   1      43.111  28.949  27.109  1.00  0.00     0.049 A 
ATOM     64  H   UNL A   1      42.279  30.069  28.689  1.00  0.00     0.167 HD
ATOM     65  C   UNL A   1      44.505  28.048  28.967  1.00  0.00     0.074 A 
ATOM     66  C   UNL A   1      43.666  28.243  30.147  1.00  0.00     0.031 C 
ATOM     67  C   UNL A   1      44.316  28.366  27.654  1.00  0.00     0.034 A 
BRANCH  54  68
ATOM     68  C   UNL A   1      39.324  29.690  29.229  1.00  0.00     0.023 A 
ATOM     69  C   UNL A   1      38.657  30.879  28.863  1.00  0.00     0.012 A 
ATOM     70  C   UNL A   1      39.687  29.546  30.588  1.00  0.00     0.148 A 
ATOM     71  C   UNL A   1      38.394  31.885  29.799  1.00  0.00     0.002 A 
ATOM     72  C   UNL A   1      39.361  30.515  31.526  1.00  0.00     0.091 A 
ATOM     73  F   UNL A   1      40.477  28.535  30.962  1.00  0.00    -0.205 F 
ATOM     74  C   UNL A   1      38.737  31.700  31.134  1.00  0.00     0.022 A 
BRANCH  72  75
ATOM     75  S   UNL A   1      39.769  30.307  33.263  1.00  0.00     0.127 S 
ATOM     76  O   UNL A   1      41.206  30.568  33.256  1.00  0.00    -0.237 OA
ATOM     77  O   UNL A   1      38.951  31.345  33.889  1.00  0.00    -0.237 OA
ATOM     78  O   UNL A   1      39.364  28.947  33.596  1.00  0.00    -0.744 OA
ENDBRANCH  72  75
ENDBRANCH  54  68
BRANCH  55  79
ATOM     79  C   UNL A   1      45.687  24.706  32.067  1.00  0.00     0.023 A 
ATOM     80  C   UNL A   1      46.872  25.325  32.522  1.00  0.00     0.012 A 
ATOM     81  C   UNL A   1      44.963  23.913  32.984  1.00  0.00     0.148 A 
ATOM     82  C   UNL A   1      47.289  25.207  33.853  1.00  0.00     0.002 A 
ATOM     83  C   UNL A   1      45.388  23.790  34.306  1.00  0.00     0.091 A 
ATOM     84  F   UNL A   1      43.810  23.359  32.592  1.00  0.00    -0.205 F 
ATOM     85  C   UNL A   1      46.541  24.450  34.748  1.00  0.00     0.022 A 
BRANCH  83  86
ATOM     86  S   UNL A   1      44.469  22.837  35.524  1.00  0.00     0.127 S 
ATOM     87  O   UNL A   1      44.582  21.477  34.995  1.00  0.00    -0.237 OA
ATOM     88  O   UNL A   1      45.234  23.084  36.743  1.00  0.00    -0.237 OA
ATOM     89  O   UNL A   1      43.114  23.374  35.507  1.00  0.00    -0.744 OA
ENDBRANCH  83  86
ENDBRANCH  55  79
BRANCH  67  90
ATOM     90  C   UNL A   1      45.301  27.839  26.645  1.00  0.00     0.023 A 
ATOM     91  C   UNL A   1      46.496  28.526  26.340  1.00  0.00     0.012 A 
ATOM     92  C   UNL A   1      45.122  26.531  26.171  1.00  0.00     0.148 A 
ATOM     93  C   UNL A   1      47.495  27.913  25.577  1.00  0.00     0.002 A 
ATOM     94  C   UNL A   1      46.132  25.912  25.446  1.00  0.00     0.091 A 
ATOM     95  F   UNL A   1      43.985  25.896  26.489  1.00  0.00    -0.205 F 
ATOM     96  C   UNL A   1      47.319  26.601  25.143  1.00  0.00     0.022 A 
BRANCH  94  97
ATOM     97  S   UNL A   1      46.025  24.191  24.954  1.00  0.00     0.127 S 
ATOM     98  O   UNL A   1      47.075  24.097  23.941  1.00  0.00    -0.237 OA
ATOM     99  O   UNL A   1      46.318  23.493  26.207  1.00  0.00    -0.237 OA
ATOM    100  O   UNL A   1      44.668  23.992  24.459  1.00  0.00    -0.744 OA
ENDBRANCH  94  97
ENDBRANCH  67  90
ENDBRANCH  41  42
ENDBRANCH  33  36
ENDBRANCH  31  32
ENDBRANCH  30  31
ENDBRANCH   1  30
TORSDOF 18
ENDMDL
MODEL 3
REMARK VINA RESULT:     -12.3      2.335      3.973
REMARK SMILES COc1cc2c(CC(=O)NCCCCNC(=O)c3ccc(-c4c5nc(c(-c6cccc(S(=O)(=O)[O-])c6F)c6ccc([nH]6)c(-c6cccc(S(=O)(=O)[O-])c6F)c6nc(c(-c7cccc(S(=O)(=O)[O-])c7F)c7ccc4[nH]7)C=C6)C=C5)cc3)c(C)n(C(=O)c3ccc(Cl)cc3)c2cc1Cl
REMARK SMILES IDX 12 1 11 2 10 3 8 4 9 5 7 7 6 8 3 9 4 10 95 11 5 12 94 13
REMARK SMILES IDX 96 14 93 15 81 16 83 17 82 18 2 19 1 20 84 21 85 22 86 23
REMARK SMILES IDX 87 24 92 25 88 26 91 27 89 28 90 29 13 30 14 31 15 32 16 33
REMARK SMILES IDX 17 35 18 36 19 37 80 38 20 39 79 40 21 41 22 42 23 43 73 44
REMARK SMILES IDX 24 45 78 46 72 47 74 48 25 49 77 50 71 51 70 52 26 54 58 55
REMARK SMILES IDX 38 56 57 57 39 58 42 59 56 60 75 61 40 62 41 63 55 65 76 66
REMARK SMILES IDX 43 67 27 68 28 69 36 70 29 71 31 72 37 73 30 74 32 75 33 76
REMARK SMILES IDX 34 77 35 78 59 79 60 80 68 81 61 82 63 83 69 84 62 85 64 86
REMARK SMILES IDX 65 87 66 88 67 89 44 90 45 91 53 92 46 93 48 94 54 95 47 96
REMARK SMILES IDX 49 97 50 98 51 99 52 100
REMARK H PARENT 10 6 15 34 74 53 42 64
REMARK Flexibility Score: inf
ROOT
ATOM      1  C   UNL A   1      31.519  27.471  26.880  1.00  0.00     0.023 C 
ENDROOT
BRANCH   1   2
ATOM      2  C   UNL A   1      30.949  26.301  26.084  1.00  0.00     0.116 C 
BRANCH   2   3
ATOM      3  N   UNL A   1      30.867  25.090  26.872  1.00  0.00    -0.356 N 
ATOM      4  C   UNL A   1      31.117  23.806  26.478  1.00  0.00     0.224 C 
ATOM      5  O   UNL A   1      31.026  22.904  27.315  1.00  0.00    -0.275 OA
ATOM      6  H   UNL A   1      30.596  25.205  27.812  1.00  0.00     0.163 HD
BRANCH   4   7
ATOM      7  C   UNL A   1      31.574  23.518  25.055  1.00  0.00     0.138 C 
BRANCH   7   8
ATOM      8  C   UNL A   1      32.940  22.894  24.970  1.00  0.00    -0.009 A 
ATOM      9  C   UNL A   1      32.968  19.074  24.620  1.00  0.00     0.138 A 
ATOM     10  C   UNL A   1      32.402  20.354  24.720  1.00  0.00     0.058 A 
ATOM     11  C   UNL A   1      34.352  18.940  24.628  1.00  0.00     0.085 A 
ATOM     12  C   UNL A   1      33.220  21.506  24.824  1.00  0.00     0.008 A 
ATOM     13  C   UNL A   1      35.170  20.064  24.786  1.00  0.00     0.051 A 
ATOM     14  Cl  UNL A   1      35.175  17.444  24.362  1.00  0.00    -0.080 Cl
ATOM     15  C   UNL A   1      34.608  21.356  24.816  1.00  0.00     0.058 A 
ATOM     16  C   UNL A   1      34.163  23.554  25.067  1.00  0.00     0.028 A 
ATOM     17  N   UNL A   1      35.187  22.638  24.786  1.00  0.00    -0.280 N 
ATOM     18  C   UNL A   1      34.381  25.009  25.358  1.00  0.00     0.065 C 
BRANCH   9  19
ATOM     19  O   UNL A   1      32.067  18.057  24.448  1.00  0.00    -0.495 OA
ATOM     20  C   UNL A   1      32.167  17.014  25.416  1.00  0.00     0.278 C 
ENDBRANCH   9  19
BRANCH  17  21
ATOM     21  C   UNL A   1      36.553  22.946  24.509  1.00  0.00     0.262 C 
ATOM     22  O   UNL A   1      36.875  23.266  23.364  1.00  0.00    -0.268 OA
BRANCH  21  23
ATOM     23  C   UNL A   1      37.640  22.942  25.502  1.00  0.00     0.040 A 
ATOM     24  C   UNL A   1      37.960  24.092  26.235  1.00  0.00     0.015 A 
ATOM     25  C   UNL A   1      38.404  21.776  25.630  1.00  0.00     0.015 A 
ATOM     26  C   UNL A   1      39.116  24.100  27.021  1.00  0.00     0.021 A 
ATOM     27  C   UNL A   1      39.548  21.788  26.428  1.00  0.00     0.021 A 
ATOM     28  C   UNL A   1      39.913  22.956  27.100  1.00  0.00     0.041 A 
ATOM     29  Cl  UNL A   1      41.377  22.987  28.002  1.00  0.00    -0.084 Cl
ENDBRANCH  21  23
ENDBRANCH  17  21
ENDBRANCH   7   8
ENDBRANCH   4   7
ENDBRANCH   2   3
ENDBRANCH   1   2
BRANCH   1  30
ATOM     30  C   UNL A   1      32.272  28.497  26.026  1.00  0.00     0.023 C 
BRANCH  30  31
ATOM     31  C   UNL A   1      33.647  28.893  26.577  1.00  0.00     0.116 C 
BRANCH  31  32
ATOM     32  N   UNL A   1      33.609  30.001  27.510  1.00  0.00    -0.352 N 
ATOM     33  C   UNL A   1      34.568  30.805  28.064  1.00  0.00     0.251 C 
ATOM     34  H   UNL A   1      32.697  30.223  27.808  1.00  0.00     0.163 HD
ATOM     35  O   UNL A   1      34.161  31.817  28.641  1.00  0.00    -0.269 OA
BRANCH  33  36
ATOM     36  C   UNL A   1      36.019  30.485  28.096  1.00  0.00     0.039 A 
ATOM     37  C   UNL A   1      36.578  29.293  27.643  1.00  0.00     0.014 A 
ATOM     38  C   UNL A   1      36.850  31.415  28.752  1.00  0.00     0.014 A 
ATOM     39  C   UNL A   1      37.878  28.962  27.976  1.00  0.00     0.010 A 
ATOM     40  C   UNL A   1      38.169  31.103  29.060  1.00  0.00     0.010 A 
ATOM     41  C   UNL A   1      38.652  29.844  28.732  1.00  0.00    -0.014 A 
BRANCH  41  42
ATOM     42  C   UNL A   1      39.995  29.398  29.068  1.00  0.00     0.031 A 
ATOM     43  C   UNL A   1      40.180  29.091  30.513  1.00  0.00     0.074 A 
ATOM     44  C   UNL A   1      40.988  29.277  28.167  1.00  0.00     0.049 A 
ATOM     45  N   UNL A   1      40.871  29.759  31.378  1.00  0.00    -0.248 NA
ATOM     46  C   UNL A   1      39.353  28.023  31.094  1.00  0.00     0.031 C 
ATOM     47  C   UNL A   1      40.911  29.328  26.706  1.00  0.00     0.029 A 
ATOM     48  N   UNL A   1      42.295  28.971  28.391  1.00  0.00    -0.354 N 
ATOM     49  C   UNL A   1      40.744  29.058  32.575  1.00  0.00     0.074 A 
ATOM     50  C   UNL A   1      39.676  28.109  32.384  1.00  0.00     0.031 C 
ATOM     51  C   UNL A   1      42.050  28.816  26.183  1.00  0.00     0.029 A 
ATOM     52  C   UNL A   1      42.983  28.545  27.261  1.00  0.00     0.049 A 
ATOM     53  H   UNL A   1      42.717  29.045  29.278  1.00  0.00     0.167 HD
ATOM     54  C   UNL A   1      41.679  29.145  33.560  1.00  0.00     0.034 A 
ATOM     55  C   UNL A   1      44.203  27.952  27.246  1.00  0.00     0.034 A 
ATOM     56  C   UNL A   1      42.515  30.304  33.414  1.00  0.00     0.049 A 
ATOM     57  C   UNL A   1      44.873  28.330  28.512  1.00  0.00     0.074 A 
ATOM     58  C   UNL A   1      42.301  31.667  33.404  1.00  0.00     0.029 A 
ATOM     59  N   UNL A   1      43.757  30.111  32.865  1.00  0.00    -0.354 N 
ATOM     60  N   UNL A   1      45.240  29.549  28.796  1.00  0.00    -0.248 NA
ATOM     61  C   UNL A   1      44.759  27.426  29.645  1.00  0.00     0.031 C 
ATOM     62  C   UNL A   1      43.198  32.168  32.416  1.00  0.00     0.029 A 
ATOM     63  C   UNL A   1      43.937  31.090  31.925  1.00  0.00     0.049 A 
ATOM     64  H   UNL A   1      44.398  29.403  33.101  1.00  0.00     0.167 HD
ATOM     65  C   UNL A   1      44.972  29.682  30.150  1.00  0.00     0.074 A 
ATOM     66  C   UNL A   1      44.774  28.320  30.639  1.00  0.00     0.031 C 
ATOM     67  C   UNL A   1      44.656  30.896  30.688  1.00  0.00     0.034 A 
BRANCH  54  68
ATOM     68  C   UNL A   1      42.079  27.986  34.435  1.00  0.00     0.023 A 
ATOM     69  C   UNL A   1      41.896  28.113  35.829  1.00  0.00     0.012 A 
ATOM     70  C   UNL A   1      42.885  26.915  33.984  1.00  0.00     0.148 A 
ATOM     71  C   UNL A   1      42.512  27.235  36.728  1.00  0.00     0.002 A 
ATOM     72  C   UNL A   1      43.435  26.004  34.875  1.00  0.00     0.091 A 
ATOM     73  F   UNL A   1      43.244  26.848  32.699  1.00  0.00    -0.205 F 
ATOM     74  C   UNL A   1      43.274  26.173  36.251  1.00  0.00     0.022 A 
BRANCH  72  75
ATOM     75  S   UNL A   1      44.410  24.609  34.301  1.00  0.00     0.127 S 
ATOM     76  O   UNL A   1      44.887  24.051  35.562  1.00  0.00    -0.237 OA
ATOM     77  O   UNL A   1      43.403  23.808  33.606  1.00  0.00    -0.237 OA
ATOM     78  O   UNL A   1      45.424  25.181  33.425  1.00  0.00    -0.744 OA
ENDBRANCH  72  75
ENDBRANCH  54  68
BRANCH  55  79
ATOM     79  C   UNL A   1      44.747  26.883  26.370  1.00  0.00     0.023 A 
ATOM     80  C   UNL A   1      45.816  27.187  25.499  1.00  0.00     0.012 A 
ATOM     81  C   UNL A   1      44.445  25.522  26.595  1.00  0.00     0.148 A 
ATOM     82  C   UNL A   1      46.592  26.177  24.920  1.00  0.00     0.002 A 
ATOM     83  C   UNL A   1      45.214  24.518  26.006  1.00  0.00     0.091 A 
ATOM     84  F   UNL A   1      43.471  25.207  27.456  1.00  0.00    -0.205 F 
ATOM     85  C   UNL A   1      46.299  24.843  25.183  1.00  0.00     0.022 A 
BRANCH  83  86
ATOM     86  S   UNL A   1      44.904  22.772  26.307  1.00  0.00     0.127 S 
ATOM     87  O   UNL A   1      43.677  22.545  25.542  1.00  0.00    -0.237 OA
ATOM     88  O   UNL A   1      46.098  22.149  25.743  1.00  0.00    -0.237 OA
ATOM     89  O   UNL A   1      44.742  22.641  27.749  1.00  0.00    -0.744 OA
ENDBRANCH  83  86
ENDBRANCH  55  79
BRANCH  67  90
ATOM     90  C   UNL A   1      44.817  32.119  29.825  1.00  0.00     0.023 A 
ATOM     91  C   UNL A   1      43.788  32.570  28.972  1.00  0.00     0.012 A 
ATOM     92  C   UNL A   1      45.932  32.941  30.049  1.00  0.00     0.148 A 
ATOM     93  C   UNL A   1      43.872  33.823  28.356  1.00  0.00     0.002 A 
ATOM     94  C   UNL A   1      45.994  34.199  29.466  1.00  0.00     0.091 A 
ATOM     95  F   UNL A   1      46.888  32.494  30.877  1.00  0.00    -0.205 F 
ATOM     96  C   UNL A   1      44.968  34.643  28.615  1.00  0.00     0.022 A 
BRANCH  94  97
ATOM     97  S   UNL A   1      47.314  35.353  29.844  1.00  0.00     0.127 S 
ATOM     98  O   UNL A   1      48.504  34.588  29.474  1.00  0.00    -0.237 OA
ATOM     99  O   UNL A   1      47.007  36.475  28.955  1.00  0.00    -0.237 OA
ATOM    100  O   UNL A   1      47.192  35.661  31.264  1.00  0.00    -0.744 OA
ENDBRANCH  94  97
ENDBRANCH  67  90
ENDBRANCH  41  42
ENDBRANCH  33  36
ENDBRANCH  31  32
ENDBRANCH  30  31
ENDBRANCH   1  30
TORSDOF 18
ENDMDL
