MODEL 1
REMARK VINA RESULT:     -13.1      0.000      0.000
REMARK SMILES C[C@H]1[C@H](C(=O)NCCCCNC(=O)c2ccc(-c3c4nc(c(-c5cccc(S(=O)(=O)[O-])c5F)c5ccc([nH]5)c(-c5cccc(S(=O)(=O)[O-])c5F)c5nc(c(-c6cccc(S(=O)(=O)[O-])c6F)c6ccc3[nH]6)C=C5)C=C4)cc2)CC[N@@H+]1[C@@H](c1ccccc1)c1ccco1
REMARK SMILES IDX 9 1 8 2 7 3 6 4 4 5 5 6 3 8 1 9 2 10 79 11 77 12 78 13 80 15
REMARK SMILES IDX 81 16 82 17 86 18 83 19 85 20 84 21 87 22 88 23 91 24 89 25
REMARK SMILES IDX 90 26 10 27 11 28 12 29 13 31 14 32 15 33 76 34 16 35 75 36
REMARK SMILES IDX 17 37 18 38 19 39 69 40 20 41 74 42 68 43 70 44 21 45 73 46
REMARK SMILES IDX 67 47 66 48 22 50 54 51 34 52 53 53 35 54 38 55 52 56 71 57
REMARK SMILES IDX 36 58 37 59 51 61 72 62 39 63 23 64 24 65 32 66 25 67 27 68
REMARK SMILES IDX 33 69 26 70 28 71 29 72 30 73 31 74 55 75 56 76 64 77 57 78
REMARK SMILES IDX 59 79 65 80 58 81 60 82 61 83 62 84 63 85 40 86 41 87 49 88
REMARK SMILES IDX 42 89 44 90 50 91 43 92 45 93 46 94 47 95 48 96
REMARK H PARENT 6 7 79 14 11 30 70 49 38 60
REMARK Flexibility Score: inf
ROOT
ATOM      1  C   UNL A   1      31.388  30.224  25.386  1.00  0.00     0.023 C 
ENDROOT
BRANCH   1   2
ATOM      2  C   UNL A   1      31.228  28.795  24.845  1.00  0.00     0.023 C 
BRANCH   2   3
ATOM      3  C   UNL A   1      31.385  27.669  25.874  1.00  0.00     0.116 C 
BRANCH   3   4
ATOM      4  N   UNL A   1      32.698  27.055  25.844  1.00  0.00    -0.356 N 
ATOM      5  C   UNL A   1      33.099  25.762  25.732  1.00  0.00     0.229 C 
ATOM      6  O   UNL A   1      34.318  25.585  25.602  1.00  0.00    -0.275 OA
ATOM      7  H   UNL A   1      33.440  27.697  25.918  1.00  0.00     0.163 HD
BRANCH   5   8
ATOM      8  C   UNL A   1      32.182  24.535  25.706  1.00  0.00     0.142 C 
ATOM      9  C   UNL A   1      30.751  24.221  23.668  1.00  0.00     0.076 C 
ATOM     10  C   UNL A   1      32.022  23.757  24.391  1.00  0.00     0.194 C 
ATOM     11  N   UNL A   1      31.862  22.320  24.749  1.00  0.00    -0.319 N 
ATOM     12  C   UNL A   1      32.473  23.473  26.750  1.00  0.00     0.081 C 
ATOM     13  C   UNL A   1      31.737  22.251  26.201  1.00  0.00     0.264 C 
ATOM     14  H   UNL A   1      31.004  21.931  24.358  1.00  0.00     0.349 HD
BRANCH  11  15
ATOM     15  C   UNL A   1      32.824  21.407  24.081  1.00  0.00     0.283 C 
BRANCH  15  16
ATOM     16  C   UNL A   1      34.332  21.606  24.263  1.00  0.00     0.017 A 
ATOM     17  C   UNL A   1      34.958  22.598  23.488  1.00  0.00     0.010 A 
ATOM     18  C   UNL A   1      35.163  20.750  25.004  1.00  0.00     0.010 A 
ATOM     19  C   UNL A   1      36.342  22.751  23.508  1.00  0.00     0.001 A 
ATOM     20  C   UNL A   1      36.537  20.969  25.101  1.00  0.00     0.001 A 
ATOM     21  C   UNL A   1      37.126  21.980  24.357  1.00  0.00     0.000 A 
ENDBRANCH  15  16
BRANCH  15  22
ATOM     22  C   UNL A   1      32.492  19.927  24.146  1.00  0.00     0.165 A 
ATOM     23  C   UNL A   1      32.524  18.918  23.200  1.00  0.00     0.052 A 
ATOM     24  O   UNL A   1      32.414  19.362  25.395  1.00  0.00    -0.463 OA
ATOM     25  C   UNL A   1      32.602  17.693  23.915  1.00  0.00     0.042 A 
ATOM     26  C   UNL A   1      32.541  18.023  25.247  1.00  0.00     0.195 A 
ENDBRANCH  15  22
ENDBRANCH  11  15
ENDBRANCH   5   8
ENDBRANCH   3   4
ENDBRANCH   2   3
ENDBRANCH   1   2
BRANCH   1  27
ATOM     27  C   UNL A   1      32.446  30.434  26.471  1.00  0.00     0.116 C 
BRANCH  27  28
ATOM     28  N   UNL A   1      32.442  31.769  27.049  1.00  0.00    -0.352 N 
ATOM     29  C   UNL A   1      33.462  32.491  27.642  1.00  0.00     0.251 C 
ATOM     30  H   UNL A   1      31.575  32.234  27.013  1.00  0.00     0.163 HD
ATOM     31  O   UNL A   1      33.276  33.628  28.031  1.00  0.00    -0.269 OA
BRANCH  29  32
ATOM     32  C   UNL A   1      34.761  31.833  27.890  1.00  0.00     0.039 A 
ATOM     33  C   UNL A   1      35.883  32.654  28.042  1.00  0.00     0.014 A 
ATOM     34  C   UNL A   1      34.850  30.458  28.097  1.00  0.00     0.014 A 
ATOM     35  C   UNL A   1      37.061  32.114  28.550  1.00  0.00     0.010 A 
ATOM     36  C   UNL A   1      35.994  29.938  28.686  1.00  0.00     0.010 A 
ATOM     37  C   UNL A   1      37.092  30.770  28.949  1.00  0.00    -0.014 A 
BRANCH  37  38
ATOM     38  C   UNL A   1      38.232  30.236  29.729  1.00  0.00     0.031 A 
ATOM     39  C   UNL A   1      38.451  30.692  31.139  1.00  0.00     0.074 A 
ATOM     40  C   UNL A   1      39.122  29.438  29.104  1.00  0.00     0.049 A 
ATOM     41  N   UNL A   1      39.419  30.388  31.959  1.00  0.00    -0.248 NA
ATOM     42  C   UNL A   1      37.476  31.651  31.687  1.00  0.00     0.031 C 
ATOM     43  C   UNL A   1      39.052  29.033  27.695  1.00  0.00     0.029 A 
ATOM     44  N   UNL A   1      40.273  28.846  29.556  1.00  0.00    -0.354 N 
ATOM     45  C   UNL A   1      39.193  31.142  33.104  1.00  0.00     0.074 A 
ATOM     46  C   UNL A   1      38.020  31.950  32.856  1.00  0.00     0.031 C 
ATOM     47  C   UNL A   1      40.102  28.250  27.405  1.00  0.00     0.029 A 
ATOM     48  C   UNL A   1      40.933  28.114  28.594  1.00  0.00     0.049 A 
ATOM     49  H   UNL A   1      40.597  28.936  30.481  1.00  0.00     0.167 HD
ATOM     50  C   UNL A   1      39.884  31.133  34.267  1.00  0.00     0.034 A 
ATOM     51  C   UNL A   1      42.079  27.410  28.671  1.00  0.00     0.034 A 
ATOM     52  C   UNL A   1      41.023  30.288  34.499  1.00  0.00     0.049 A 
ATOM     53  C   UNL A   1      42.779  27.349  30.001  1.00  0.00     0.074 A 
ATOM     54  C   UNL A   1      41.753  30.120  35.660  1.00  0.00     0.029 A 
ATOM     55  N   UNL A   1      41.599  29.467  33.538  1.00  0.00    -0.354 N 
ATOM     56  N   UNL A   1      42.455  27.936  31.128  1.00  0.00    -0.248 NA
ATOM     57  C   UNL A   1      43.974  26.499  30.086  1.00  0.00     0.031 C 
ATOM     58  C   UNL A   1      42.781  29.208  35.397  1.00  0.00     0.029 A 
ATOM     59  C   UNL A   1      42.677  28.790  34.078  1.00  0.00     0.049 A 
ATOM     60  H   UNL A   1      41.286  29.379  32.609  1.00  0.00     0.167 HD
ATOM     61  C   UNL A   1      43.384  27.506  32.066  1.00  0.00     0.074 A 
ATOM     62  C   UNL A   1      44.270  26.587  31.377  1.00  0.00     0.031 C 
ATOM     63  C   UNL A   1      43.508  27.848  33.372  1.00  0.00     0.034 A 
BRANCH  50  64
ATOM     64  C   UNL A   1      39.389  32.021  35.379  1.00  0.00     0.023 A 
ATOM     65  C   UNL A   1      38.416  31.533  36.277  1.00  0.00     0.012 A 
ATOM     66  C   UNL A   1      39.891  33.325  35.551  1.00  0.00     0.148 A 
ATOM     67  C   UNL A   1      37.918  32.341  37.298  1.00  0.00     0.002 A 
ATOM     68  C   UNL A   1      39.421  34.110  36.599  1.00  0.00     0.091 A 
ATOM     69  F   UNL A   1      40.798  33.782  34.676  1.00  0.00    -0.205 F 
ATOM     70  C   UNL A   1      38.426  33.625  37.464  1.00  0.00     0.022 A 
BRANCH  68  71
ATOM     71  S   UNL A   1      40.060  35.753  36.945  1.00  0.00     0.127 S 
ATOM     72  O   UNL A   1      39.343  36.096  38.172  1.00  0.00    -0.237 OA
ATOM     73  O   UNL A   1      41.489  35.494  37.126  1.00  0.00    -0.237 OA
ATOM     74  O   UNL A   1      39.732  36.566  35.782  1.00  0.00    -0.744 OA
ENDBRANCH  68  71
ENDBRANCH  50  64
BRANCH  51  75
ATOM     75  C   UNL A   1      42.569  26.640  27.490  1.00  0.00     0.023 A 
ATOM     76  C   UNL A   1      43.405  27.276  26.551  1.00  0.00     0.012 A 
ATOM     77  C   UNL A   1      42.256  25.278  27.313  1.00  0.00     0.148 A 
ATOM     78  C   UNL A   1      43.896  26.580  25.445  1.00  0.00     0.002 A 
ATOM     79  C   UNL A   1      42.791  24.576  26.237  1.00  0.00     0.091 A 
ATOM     80  F   UNL A   1      41.451  24.689  28.209  1.00  0.00    -0.205 F 
ATOM     81  C   UNL A   1      43.599  25.229  25.294  1.00  0.00     0.022 A 
BRANCH  79  82
ATOM     82  S   UNL A   1      42.571  22.804  26.039  1.00  0.00     0.127 S 
ATOM     83  O   UNL A   1      41.117  22.676  26.077  1.00  0.00    -0.237 OA
ATOM     84  O   UNL A   1      43.177  22.565  24.728  1.00  0.00    -0.237 OA
ATOM     85  O   UNL A   1      43.293  22.195  27.149  1.00  0.00    -0.744 OA
ENDBRANCH  79  82
ENDBRANCH  51  75
BRANCH  63  86
ATOM     86  C   UNL A   1      44.625  27.207  34.147  1.00  0.00     0.023 A 
ATOM     87  C   UNL A   1      45.902  27.801  34.153  1.00  0.00     0.012 A 
ATOM     88  C   UNL A   1      44.383  26.066  34.936  1.00  0.00     0.148 A 
ATOM     89  C   UNL A   1      46.932  27.251  34.913  1.00  0.00     0.002 A 
ATOM     90  C   UNL A   1      45.399  25.554  35.731  1.00  0.00     0.091 A 
ATOM     91  F   UNL A   1      43.165  25.506  34.897  1.00  0.00    -0.205 F 
ATOM     92  C   UNL A   1      46.678  26.138  35.712  1.00  0.00     0.022 A 
BRANCH  90  93
ATOM     93  S   UNL A   1      45.133  24.191  36.868  1.00  0.00     0.127 S 
ATOM     94  O   UNL A   1      46.467  24.011  37.436  1.00  0.00    -0.237 OA
ATOM     95  O   UNL A   1      44.145  24.746  37.793  1.00  0.00    -0.237 OA
ATOM     96  O   UNL A   1      44.643  23.084  36.057  1.00  0.00    -0.744 OA
ENDBRANCH  90  93
ENDBRANCH  63  86
ENDBRANCH  37  38
ENDBRANCH  29  32
ENDBRANCH  27  28
ENDBRANCH   1  27
TORSDOF 17
ENDMDL
MODEL 2
REMARK VINA RESULT:     -13.1      0.696      1.837
REMARK SMILES C[C@H]1[C@H](C(=O)NCCCCNC(=O)c2ccc(-c3c4nc(c(-c5cccc(S(=O)(=O)[O-])c5F)c5ccc([nH]5)c(-c5cccc(S(=O)(=O)[O-])c5F)c5nc(c(-c6cccc(S(=O)(=O)[O-])c6F)c6ccc3[nH]6)C=C5)C=C4)cc2)CC[N@@H+]1[C@@H](c1ccccc1)c1ccco1
REMARK SMILES IDX 9 1 8 2 7 3 6 4 4 5 5 6 3 8 1 9 2 10 79 11 77 12 78 13 80 15
REMARK SMILES IDX 81 16 82 17 86 18 83 19 85 20 84 21 87 22 88 23 91 24 89 25
REMARK SMILES IDX 90 26 10 27 11 28 12 29 13 31 14 32 15 33 76 34 16 35 75 36
REMARK SMILES IDX 17 37 18 38 19 39 69 40 20 41 74 42 68 43 70 44 21 45 73 46
REMARK SMILES IDX 67 47 66 48 22 50 54 51 34 52 53 53 35 54 38 55 52 56 71 57
REMARK SMILES IDX 36 58 37 59 51 61 72 62 39 63 23 64 24 65 32 66 25 67 27 68
REMARK SMILES IDX 33 69 26 70 28 71 29 72 30 73 31 74 55 75 56 76 64 77 57 78
REMARK SMILES IDX 59 79 65 80 58 81 60 82 61 83 62 84 63 85 40 86 41 87 49 88
REMARK SMILES IDX 42 89 44 90 50 91 43 92 45 93 46 94 47 95 48 96
REMARK H PARENT 6 7 79 14 11 30 70 49 38 60
REMARK Flexibility Score: inf
ROOT
ATOM      1  C   UNL A   1      31.397  30.086  25.297  1.00  0.00     0.023 C 
ENDROOT
BRANCH   1   2
ATOM      2  C   UNL A   1      31.245  28.661  24.744  1.00  0.00     0.023 C 
BRANCH   2   3
ATOM      3  C   UNL A   1      31.783  27.536  25.636  1.00  0.00     0.116 C 
BRANCH   3   4
ATOM      4  N   UNL A   1      32.975  26.909  25.098  1.00  0.00    -0.356 N 
ATOM      5  C   UNL A   1      33.273  25.617  24.802  1.00  0.00     0.229 C 
ATOM      6  O   UNL A   1      34.351  25.433  24.221  1.00  0.00    -0.275 OA
ATOM      7  H   UNL A   1      33.707  27.540  24.911  1.00  0.00     0.163 HD
BRANCH   5   8
ATOM      8  C   UNL A   1      32.383  24.402  25.081  1.00  0.00     0.142 C 
ATOM      9  C   UNL A   1      31.657  23.041  23.100  1.00  0.00     0.076 C 
ATOM     10  C   UNL A   1      32.626  23.109  24.288  1.00  0.00     0.194 C 
ATOM     11  N   UNL A   1      32.329  21.972  25.204  1.00  0.00    -0.319 N 
ATOM     12  C   UNL A   1      32.306  23.959  26.529  1.00  0.00     0.081 C 
ATOM     13  C   UNL A   1      31.752  22.539  26.418  1.00  0.00     0.264 C 
ATOM     14  H   UNL A   1      31.628  21.346  24.807  1.00  0.00     0.349 HD
BRANCH  11  15
ATOM     15  C   UNL A   1      33.430  20.986  25.341  1.00  0.00     0.283 C 
BRANCH  15  16
ATOM     16  C   UNL A   1      33.375  19.657  24.581  1.00  0.00     0.017 A 
ATOM     17  C   UNL A   1      34.368  18.703  24.861  1.00  0.00     0.010 A 
ATOM     18  C   UNL A   1      32.524  19.398  23.494  1.00  0.00     0.010 A 
ATOM     19  C   UNL A   1      34.456  17.526  24.121  1.00  0.00     0.001 A 
ATOM     20  C   UNL A   1      32.549  18.176  22.821  1.00  0.00     0.001 A 
ATOM     21  C   UNL A   1      33.513  17.234  23.143  1.00  0.00     0.000 A 
ENDBRANCH  15  16
BRANCH  15  22
ATOM     22  C   UNL A   1      34.839  21.548  25.288  1.00  0.00     0.165 A 
ATOM     23  C   UNL A   1      35.683  21.860  24.237  1.00  0.00     0.052 A 
ATOM     24  O   UNL A   1      35.315  22.142  26.431  1.00  0.00    -0.463 OA
ATOM     25  C   UNL A   1      36.633  22.789  24.742  1.00  0.00     0.042 A 
ATOM     26  C   UNL A   1      36.356  22.932  26.079  1.00  0.00     0.195 A 
ENDBRANCH  15  22
ENDBRANCH  11  15
ENDBRANCH   5   8
ENDBRANCH   3   4
ENDBRANCH   2   3
ENDBRANCH   1   2
BRANCH   1  27
ATOM     27  C   UNL A   1      32.338  30.263  26.490  1.00  0.00     0.116 C 
BRANCH  27  28
ATOM     28  N   UNL A   1      32.337  31.606  27.049  1.00  0.00    -0.352 N 
ATOM     29  C   UNL A   1      33.361  32.338  27.622  1.00  0.00     0.251 C 
ATOM     30  H   UNL A   1      31.469  32.069  27.014  1.00  0.00     0.163 HD
ATOM     31  O   UNL A   1      33.176  33.480  27.996  1.00  0.00    -0.269 OA
BRANCH  29  32
ATOM     32  C   UNL A   1      34.663  31.686  27.868  1.00  0.00     0.039 A 
ATOM     33  C   UNL A   1      35.787  32.510  27.989  1.00  0.00     0.014 A 
ATOM     34  C   UNL A   1      34.756  30.316  28.102  1.00  0.00     0.014 A 
ATOM     35  C   UNL A   1      36.971  31.982  28.494  1.00  0.00     0.010 A 
ATOM     36  C   UNL A   1      35.907  29.808  28.688  1.00  0.00     0.010 A 
ATOM     37  C   UNL A   1      37.008  30.646  28.921  1.00  0.00    -0.014 A 
BRANCH  37  38
ATOM     38  C   UNL A   1      38.157  30.128  29.698  1.00  0.00     0.031 A 
ATOM     39  C   UNL A   1      38.378  30.593  31.105  1.00  0.00     0.074 A 
ATOM     40  C   UNL A   1      39.054  29.338  29.072  1.00  0.00     0.049 A 
ATOM     41  N   UNL A   1      39.353  30.303  31.922  1.00  0.00    -0.248 NA
ATOM     42  C   UNL A   1      37.394  31.542  31.653  1.00  0.00     0.031 C 
ATOM     43  C   UNL A   1      38.983  28.927  27.665  1.00  0.00     0.029 A 
ATOM     44  N   UNL A   1      40.214  28.762  29.521  1.00  0.00    -0.354 N 
ATOM     45  C   UNL A   1      39.123  31.060  33.065  1.00  0.00     0.074 A 
ATOM     46  C   UNL A   1      37.940  31.853  32.819  1.00  0.00     0.031 C 
ATOM     47  C   UNL A   1      40.040  28.155  27.373  1.00  0.00     0.029 A 
ATOM     48  C   UNL A   1      40.878  28.034  28.559  1.00  0.00     0.049 A 
ATOM     49  H   UNL A   1      40.541  28.860  30.444  1.00  0.00     0.167 HD
ATOM     50  C   UNL A   1      39.820  31.064  34.225  1.00  0.00     0.034 A 
ATOM     51  C   UNL A   1      42.032  27.343  28.634  1.00  0.00     0.034 A 
ATOM     52  C   UNL A   1      40.969  30.233  34.455  1.00  0.00     0.049 A 
ATOM     53  C   UNL A   1      42.739  27.296  29.961  1.00  0.00     0.074 A 
ATOM     54  C   UNL A   1      41.706  30.078  35.613  1.00  0.00     0.029 A 
ATOM     55  N   UNL A   1      41.551  29.415  33.495  1.00  0.00    -0.354 N 
ATOM     56  N   UNL A   1      42.413  27.884  31.087  1.00  0.00    -0.248 NA
ATOM     57  C   UNL A   1      43.945  26.461  30.044  1.00  0.00     0.031 C 
ATOM     58  C   UNL A   1      42.743  29.177  35.349  1.00  0.00     0.029 A 
ATOM     59  C   UNL A   1      42.639  28.753  34.032  1.00  0.00     0.049 A 
ATOM     60  H   UNL A   1      41.234  29.319  32.567  1.00  0.00     0.167 HD
ATOM     61  C   UNL A   1      43.352  27.468  32.022  1.00  0.00     0.074 A 
ATOM     62  C   UNL A   1      44.246  26.558  31.333  1.00  0.00     0.031 C 
ATOM     63  C   UNL A   1      43.477  27.818  33.326  1.00  0.00     0.034 A 
BRANCH  50  64
ATOM     64  C   UNL A   1      39.319  31.951  35.335  1.00  0.00     0.023 A 
ATOM     65  C   UNL A   1      38.322  31.471  36.212  1.00  0.00     0.012 A 
ATOM     66  C   UNL A   1      39.838  33.245  35.526  1.00  0.00     0.148 A 
ATOM     67  C   UNL A   1      37.819  32.278  37.230  1.00  0.00     0.002 A 
ATOM     68  C   UNL A   1      39.363  34.029  36.573  1.00  0.00     0.091 A 
ATOM     69  F   UNL A   1      40.768  33.695  34.672  1.00  0.00    -0.205 F 
ATOM     70  C   UNL A   1      38.345  33.553  37.416  1.00  0.00     0.022 A 
BRANCH  68  71
ATOM     71  S   UNL A   1      40.022  35.658  36.944  1.00  0.00     0.127 S 
ATOM     72  O   UNL A   1      39.674  36.399  35.732  1.00  0.00    -0.237 OA
ATOM     73  O   UNL A   1      39.254  36.037  38.130  1.00  0.00    -0.237 OA
ATOM     74  O   UNL A   1      41.448  35.473  37.175  1.00  0.00    -0.744 OA
ENDBRANCH  68  71
ENDBRANCH  50  64
BRANCH  51  75
ATOM     75  C   UNL A   1      42.526  26.575  27.454  1.00  0.00     0.023 A 
ATOM     76  C   UNL A   1      43.345  27.218  26.505  1.00  0.00     0.012 A 
ATOM     77  C   UNL A   1      42.234  25.206  27.287  1.00  0.00     0.148 A 
ATOM     78  C   UNL A   1      43.839  26.524  25.399  1.00  0.00     0.002 A 
ATOM     79  C   UNL A   1      42.773  24.506  26.212  1.00  0.00     0.091 A 
ATOM     80  F   UNL A   1      41.446  24.610  28.193  1.00  0.00    -0.205 F 
ATOM     81  C   UNL A   1      43.562  25.167  25.258  1.00  0.00     0.022 A 
BRANCH  79  82
ATOM     82  S   UNL A   1      42.580  22.730  26.026  1.00  0.00     0.127 S 
ATOM     83  O   UNL A   1      43.270  22.228  27.211  1.00  0.00    -0.237 OA
ATOM     84  O   UNL A   1      41.125  22.576  26.048  1.00  0.00    -0.237 OA
ATOM     85  O   UNL A   1      43.195  22.403  24.746  1.00  0.00    -0.744 OA
ENDBRANCH  79  82
ENDBRANCH  51  75
BRANCH  63  86
ATOM     86  C   UNL A   1      44.606  27.193  34.099  1.00  0.00     0.023 A 
ATOM     87  C   UNL A   1      45.890  27.767  34.046  1.00  0.00     0.012 A 
ATOM     88  C   UNL A   1      44.368  26.091  34.942  1.00  0.00     0.148 A 
ATOM     89  C   UNL A   1      46.933  27.234  34.802  1.00  0.00     0.002 A 
ATOM     90  C   UNL A   1      45.398  25.597  35.732  1.00  0.00     0.091 A 
ATOM     91  F   UNL A   1      43.142  25.549  34.958  1.00  0.00    -0.205 F 
ATOM     92  C   UNL A   1      46.683  26.160  35.654  1.00  0.00     0.022 A 
BRANCH  90  93
ATOM     93  S   UNL A   1      45.142  24.288  36.932  1.00  0.00     0.127 S 
ATOM     94  O   UNL A   1      46.476  24.152  37.514  1.00  0.00    -0.237 OA
ATOM     95  O   UNL A   1      44.144  24.875  37.825  1.00  0.00    -0.237 OA
ATOM     96  O   UNL A   1      44.669  23.137  36.175  1.00  0.00    -0.744 OA
ENDBRANCH  90  93
ENDBRANCH  63  86
ENDBRANCH  37  38
ENDBRANCH  29  32
ENDBRANCH  27  28
ENDBRANCH   1  27
TORSDOF 17
ENDMDL
MODEL 3
REMARK VINA RESULT:     -13.0      4.917     10.434
REMARK SMILES C[C@H]1[C@H](C(=O)NCCCCNC(=O)c2ccc(-c3c4nc(c(-c5cccc(S(=O)(=O)[O-])c5F)c5ccc([nH]5)c(-c5cccc(S(=O)(=O)[O-])c5F)c5nc(c(-c6cccc(S(=O)(=O)[O-])c6F)c6ccc3[nH]6)C=C5)C=C4)cc2)CC[N@@H+]1[C@@H](c1ccccc1)c1ccco1
REMARK SMILES IDX 9 1 8 2 7 3 6 4 4 5 5 6 3 8 1 9 2 10 79 11 77 12 78 13 80 15
REMARK SMILES IDX 81 16 82 17 86 18 83 19 85 20 84 21 87 22 88 23 91 24 89 25
REMARK SMILES IDX 90 26 10 27 11 28 12 29 13 31 14 32 15 33 76 34 16 35 75 36
REMARK SMILES IDX 17 37 18 38 19 39 69 40 20 41 74 42 68 43 70 44 21 45 73 46
REMARK SMILES IDX 67 47 66 48 22 50 54 51 34 52 53 53 35 54 38 55 52 56 71 57
REMARK SMILES IDX 36 58 37 59 51 61 72 62 39 63 23 64 24 65 32 66 25 67 27 68
REMARK SMILES IDX 33 69 26 70 28 71 29 72 30 73 31 74 55 75 56 76 64 77 57 78
REMARK SMILES IDX 59 79 65 80 58 81 60 82 61 83 62 84 63 85 40 86 41 87 49 88
REMARK SMILES IDX 42 89 44 90 50 91 43 92 45 93 46 94 47 95 48 96
REMARK H PARENT 6 7 79 14 11 30 70 49 38 60
REMARK Flexibility Score: inf
ROOT
ATOM      1  C   UNL A   1      35.773  21.042  25.302  1.00  0.00     0.023 C 
ENDROOT
BRANCH   1   2
ATOM      2  C   UNL A   1      34.912  21.383  26.528  1.00  0.00     0.023 C 
BRANCH   2   3
ATOM      3  C   UNL A   1      33.404  21.156  26.370  1.00  0.00     0.116 C 
BRANCH   3   4
ATOM      4  N   UNL A   1      32.608  22.205  26.977  1.00  0.00    -0.356 N 
ATOM      5  C   UNL A   1      32.144  23.390  26.502  1.00  0.00     0.229 C 
ATOM      6  O   UNL A   1      31.368  24.003  27.249  1.00  0.00    -0.275 OA
ATOM      7  H   UNL A   1      32.356  22.024  27.911  1.00  0.00     0.163 HD
BRANCH   5   8
ATOM      8  C   UNL A   1      32.459  23.995  25.131  1.00  0.00     0.142 C 
ATOM      9  C   UNL A   1      30.555  24.192  23.506  1.00  0.00     0.076 C 
ATOM     10  C   UNL A   1      31.444  24.958  24.495  1.00  0.00     0.194 C 
ATOM     11  N   UNL A   1      32.223  25.976  23.737  1.00  0.00    -0.319 N 
ATOM     12  C   UNL A   1      33.793  24.708  25.015  1.00  0.00     0.081 C 
ATOM     13  C   UNL A   1      33.618  25.547  23.750  1.00  0.00     0.264 C 
ATOM     14  H   UNL A   1      31.934  26.017  22.760  1.00  0.00     0.349 HD
BRANCH  11  15
ATOM     15  C   UNL A   1      31.917  27.384  24.100  1.00  0.00     0.283 C 
BRANCH  15  16
ATOM     16  C   UNL A   1      30.600  28.026  23.653  1.00  0.00     0.017 A 
ATOM     17  C   UNL A   1      30.556  29.428  23.563  1.00  0.00     0.010 A 
ATOM     18  C   UNL A   1      29.387  27.335  23.511  1.00  0.00     0.010 A 
ATOM     19  C   UNL A   1      29.361  30.088  23.286  1.00  0.00     0.001 A 
ATOM     20  C   UNL A   1      28.213  27.988  23.134  1.00  0.00     0.001 A 
ATOM     21  C   UNL A   1      28.204  29.369  23.012  1.00  0.00     0.000 A 
ENDBRANCH  15  16
BRANCH  15  22
ATOM     22  C   UNL A   1      32.222  27.784  25.533  1.00  0.00     0.165 A 
ATOM     23  C   UNL A   1      33.181  28.610  26.089  1.00  0.00     0.052 A 
ATOM     24  O   UNL A   1      31.241  27.551  26.465  1.00  0.00    -0.463 OA
ATOM     25  C   UNL A   1      32.691  28.998  27.365  1.00  0.00     0.042 A 
ATOM     26  C   UNL A   1      31.503  28.333  27.538  1.00  0.00     0.195 A 
ENDBRANCH  15  22
ENDBRANCH  11  15
ENDBRANCH   5   8
ENDBRANCH   3   4
ENDBRANCH   2   3
ENDBRANCH   1   2
BRANCH   1  27
ATOM     27  C   UNL A   1      37.097  21.795  25.161  1.00  0.00     0.116 C 
BRANCH  27  28
ATOM     28  N   UNL A   1      38.274  20.953  25.306  1.00  0.00    -0.352 N 
ATOM     29  C   UNL A   1      39.432  21.151  26.037  1.00  0.00     0.251 C 
ATOM     30  H   UNL A   1      38.243  20.107  24.805  1.00  0.00     0.163 HD
ATOM     31  O   UNL A   1      40.299  20.300  26.073  1.00  0.00    -0.269 OA
BRANCH  29  32
ATOM     32  C   UNL A   1      39.652  22.453  26.699  1.00  0.00     0.039 A 
ATOM     33  C   UNL A   1      40.620  22.510  27.707  1.00  0.00     0.014 A 
ATOM     34  C   UNL A   1      39.019  23.611  26.252  1.00  0.00     0.014 A 
ATOM     35  C   UNL A   1      41.062  23.749  28.161  1.00  0.00     0.010 A 
ATOM     36  C   UNL A   1      39.521  24.845  26.639  1.00  0.00     0.010 A 
ATOM     37  C   UNL A   1      40.570  24.921  27.568  1.00  0.00    -0.014 A 
BRANCH  37  38
ATOM     38  C   UNL A   1      41.202  26.232  27.838  1.00  0.00     0.031 A 
ATOM     39  C   UNL A   1      42.598  26.500  27.365  1.00  0.00     0.074 A 
ATOM     40  C   UNL A   1      40.544  27.117  28.616  1.00  0.00     0.049 A 
ATOM     41  N   UNL A   1      43.341  27.556  27.554  1.00  0.00    -0.248 NA
ATOM     42  C   UNL A   1      43.264  25.420  26.616  1.00  0.00     0.031 C 
ATOM     43  C   UNL A   1      39.224  26.895  29.219  1.00  0.00     0.029 A 
ATOM     44  N   UNL A   1      40.899  28.364  29.059  1.00  0.00    -0.354 N 
ATOM     45  C   UNL A   1      44.571  27.257  26.981  1.00  0.00     0.074 A 
ATOM     46  C   UNL A   1      44.489  25.905  26.477  1.00  0.00     0.031 C 
ATOM     47  C   UNL A   1      38.877  27.974  29.937  1.00  0.00     0.029 A 
ATOM     48  C   UNL A   1      39.953  28.953  29.869  1.00  0.00     0.049 A 
ATOM     49  H   UNL A   1      41.749  28.798  28.820  1.00  0.00     0.167 HD
ATOM     50  C   UNL A   1      45.658  28.054  26.861  1.00  0.00     0.034 A 
ATOM     51  C   UNL A   1      39.959  30.154  30.481  1.00  0.00     0.034 A 
ATOM     52  C   UNL A   1      45.697  29.409  27.336  1.00  0.00     0.049 A 
ATOM     53  C   UNL A   1      41.144  31.052  30.258  1.00  0.00     0.074 A 
ATOM     54  C   UNL A   1      46.702  30.347  27.196  1.00  0.00     0.029 A 
ATOM     55  N   UNL A   1      44.675  30.018  28.053  1.00  0.00    -0.354 N 
ATOM     56  N   UNL A   1      42.234  30.817  29.567  1.00  0.00    -0.248 NA
ATOM     57  C   UNL A   1      41.087  32.392  30.857  1.00  0.00     0.031 C 
ATOM     58  C   UNL A   1      46.294  31.519  27.841  1.00  0.00     0.029 A 
ATOM     59  C   UNL A   1      45.024  31.319  28.365  1.00  0.00     0.049 A 
ATOM     60  H   UNL A   1      43.826  29.587  28.303  1.00  0.00     0.167 HD
ATOM     61  C   UNL A   1      42.981  31.987  29.621  1.00  0.00     0.074 A 
ATOM     62  C   UNL A   1      42.204  32.938  30.393  1.00  0.00     0.031 C 
ATOM     63  C   UNL A   1      44.204  32.250  29.096  1.00  0.00     0.034 A 
BRANCH  50  64
ATOM     64  C   UNL A   1      46.858  27.492  26.143  1.00  0.00     0.023 A 
ATOM     65  C   UNL A   1      47.754  26.653  26.840  1.00  0.00     0.012 A 
ATOM     66  C   UNL A   1      47.094  27.773  24.784  1.00  0.00     0.148 A 
ATOM     67  C   UNL A   1      48.887  26.141  26.211  1.00  0.00     0.002 A 
ATOM     68  C   UNL A   1      48.204  27.222  24.151  1.00  0.00     0.091 A 
ATOM     69  F   UNL A   1      46.246  28.589  24.143  1.00  0.00    -0.205 F 
ATOM     70  C   UNL A   1      49.108  26.418  24.866  1.00  0.00     0.022 A 
BRANCH  68  71
ATOM     71  S   UNL A   1      48.542  27.458  22.403  1.00  0.00     0.127 S 
ATOM     72  O   UNL A   1      49.725  28.317  22.445  1.00  0.00    -0.237 OA
ATOM     73  O   UNL A   1      48.798  26.090  21.952  1.00  0.00    -0.237 OA
ATOM     74  O   UNL A   1      47.346  28.070  21.840  1.00  0.00    -0.744 OA
ENDBRANCH  68  71
ENDBRANCH  50  64
BRANCH  51  75
ATOM     75  C   UNL A   1      38.774  30.599  31.270  1.00  0.00     0.023 A 
ATOM     76  C   UNL A   1      38.775  30.434  32.670  1.00  0.00     0.012 A 
ATOM     77  C   UNL A   1      37.670  31.227  30.659  1.00  0.00     0.148 A 
ATOM     78  C   UNL A   1      37.691  30.857  33.440  1.00  0.00     0.002 A 
ATOM     79  C   UNL A   1      36.616  31.694  31.438  1.00  0.00     0.091 A 
ATOM     80  F   UNL A   1      37.679  31.369  29.325  1.00  0.00    -0.205 F 
ATOM     81  C   UNL A   1      36.617  31.496  32.827  1.00  0.00     0.022 A 
BRANCH  79  82
ATOM     82  S   UNL A   1      35.259  32.647  30.749  1.00  0.00     0.127 S 
ATOM     83  O   UNL A   1      34.897  31.852  29.578  1.00  0.00    -0.237 OA
ATOM     84  O   UNL A   1      34.282  32.620  31.838  1.00  0.00    -0.237 OA
ATOM     85  O   UNL A   1      35.809  33.968  30.474  1.00  0.00    -0.744 OA
ENDBRANCH  79  82
ENDBRANCH  51  75
BRANCH  63  86
ATOM     86  C   UNL A   1      44.763  33.628  29.318  1.00  0.00     0.023 A 
ATOM     87  C   UNL A   1      45.474  33.911  30.500  1.00  0.00     0.012 A 
ATOM     88  C   UNL A   1      44.657  34.611  28.315  1.00  0.00     0.148 A 
ATOM     89  C   UNL A   1      46.049  35.166  30.693  1.00  0.00     0.002 A 
ATOM     90  C   UNL A   1      45.277  35.841  28.492  1.00  0.00     0.091 A 
ATOM     91  F   UNL A   1      43.957  34.324  27.208  1.00  0.00    -0.205 F 
ATOM     92  C   UNL A   1      45.963  36.124  29.685  1.00  0.00     0.022 A 
BRANCH  90  93
ATOM     93  S   UNL A   1      45.306  37.093  27.207  1.00  0.00     0.127 S 
ATOM     94  O   UNL A   1      46.062  38.165  27.852  1.00  0.00    -0.237 OA
ATOM     95  O   UNL A   1      46.015  36.411  26.124  1.00  0.00    -0.237 OA
ATOM     96  O   UNL A   1      43.912  37.399  26.915  1.00  0.00    -0.744 OA
ENDBRANCH  90  93
ENDBRANCH  63  86
ENDBRANCH  37  38
ENDBRANCH  29  32
ENDBRANCH  27  28
ENDBRANCH   1  27
TORSDOF 17
ENDMDL
