MODEL 1
REMARK VINA RESULT:     -13.4      0.000      0.000
REMARK SMILES Cc1c(NC(=O)c2ccccc2NC(=O)[C@@H]2CCCO2)cccc1C(=O)NCCCCNC(=O)c1ccc(-c2c3nc(c(-c4cccc(S(=O)(=O)[O-])c4F)c4ccc([nH]4)c(-c4cccc(S(=O)(=O)[O-])c4F)c4nc(c(-c5cccc(S(=O)(=O)[O-])c5F)c5ccc2[nH]5)C=C4)C=C3)cc1
REMARK SMILES IDX 29 1 28 2 27 3 25 4 26 5 24 7 1 8 2 9 3 10 21 11 23 12 22 13
REMARK SMILES IDX 4 14 5 15 6 17 7 18 8 19 12 20 9 21 11 22 10 23 13 24 14 25
REMARK SMILES IDX 15 27 16 28 17 29 20 30 18 31 19 32 30 33 31 34 32 35 33 36
REMARK SMILES IDX 34 38 35 39 36 40 97 41 37 42 96 43 38 44 39 45 40 46 90 47
REMARK SMILES IDX 41 48 95 49 89 50 91 51 42 52 94 53 88 54 87 55 43 57 75 58
REMARK SMILES IDX 55 59 74 60 56 61 59 62 73 63 92 64 57 65 58 66 72 68 93 69
REMARK SMILES IDX 60 70 44 71 45 72 53 73 46 74 48 75 54 76 47 77 49 78 50 79
REMARK SMILES IDX 51 80 52 81 76 82 77 83 85 84 78 85 80 86 86 87 79 88 81 89
REMARK SMILES IDX 82 90 83 91 84 92 61 93 62 94 70 95 63 96 65 97 71 98 64 99
REMARK SMILES IDX 66 100 67 101 68 102 69 103
REMARK H PARENT 27 6 4 16 13 26 32 37 91 56 59 67
REMARK Flexibility Score: inf
ROOT
ATOM      1  C   UNL A   1      32.881  29.856  25.832  1.00  0.00     0.023 C 
ENDROOT
BRANCH   1   2
ATOM      2  C   UNL A   1      31.418  29.432  25.634  1.00  0.00     0.116 C 
BRANCH   2   3
ATOM      3  N   UNL A   1      31.053  29.487  24.234  1.00  0.00    -0.352 N 
ATOM      4  C   UNL A   1      31.049  28.632  23.166  1.00  0.00     0.251 C 
ATOM      5  O   UNL A   1      30.745  29.186  22.099  1.00  0.00    -0.269 OA
ATOM      6  H   UNL A   1      30.720  30.378  23.983  1.00  0.00     0.163 HD
BRANCH   4   7
ATOM      7  C   UNL A   1      31.276  27.134  23.135  1.00  0.00     0.044 A 
ATOM      8  C   UNL A   1      30.022  26.327  25.229  1.00  0.00     0.047 C 
ATOM      9  C   UNL A   1      30.766  26.092  23.943  1.00  0.00    -0.015 A 
ATOM     10  C   UNL A   1      31.158  24.740  23.693  1.00  0.00     0.045 A 
ATOM     11  C   UNL A   1      32.121  24.426  22.738  1.00  0.00     0.026 A 
ATOM     12  C   UNL A   1      32.255  26.763  22.177  1.00  0.00     0.014 A 
ATOM     13  C   UNL A   1      32.688  25.446  21.994  1.00  0.00     0.003 A 
BRANCH  10  14
ATOM     14  N   UNL A   1      30.587  23.746  24.504  1.00  0.00    -0.322 N 
ATOM     15  C   UNL A   1      31.132  22.763  25.293  1.00  0.00     0.257 C 
ATOM     16  H   UNL A   1      29.602  23.755  24.509  1.00  0.00     0.170 HD
ATOM     17  O   UNL A   1      30.359  22.002  25.881  1.00  0.00    -0.269 OA
BRANCH  15  18
ATOM     18  C   UNL A   1      32.593  22.593  25.522  1.00  0.00     0.063 A 
ATOM     19  C   UNL A   1      33.169  23.643  26.267  1.00  0.00     0.016 A 
ATOM     20  C   UNL A   1      33.416  21.557  25.014  1.00  0.00     0.054 A 
ATOM     21  C   UNL A   1      34.514  23.627  26.608  1.00  0.00     0.001 A 
ATOM     22  C   UNL A   1      34.730  21.499  25.487  1.00  0.00     0.027 A 
ATOM     23  C   UNL A   1      35.281  22.529  26.259  1.00  0.00     0.002 A 
BRANCH  20  24
ATOM     24  N   UNL A   1      32.910  20.680  24.027  1.00  0.00    -0.323 N 
ATOM     25  C   UNL A   1      32.677  19.341  23.894  1.00  0.00     0.253 C 
ATOM     26  H   UNL A   1      32.654  21.171  23.211  1.00  0.00     0.170 HD
ATOM     27  O   UNL A   1      32.161  18.975  22.831  1.00  0.00    -0.272 OA
BRANCH  25  28
ATOM     28  C   UNL A   1      33.091  18.323  24.956  1.00  0.00     0.207 C 
ATOM     29  C   UNL A   1      34.251  17.486  24.429  1.00  0.00     0.044 C 
ATOM     30  O   UNL A   1      32.074  17.371  25.318  1.00  0.00    -0.368 OA
ATOM     31  C   UNL A   1      34.141  16.238  25.258  1.00  0.00     0.032 C 
ATOM     32  C   UNL A   1      32.643  16.058  25.325  1.00  0.00     0.161 C 
ENDBRANCH  25  28
ENDBRANCH  20  24
ENDBRANCH  15  18
ENDBRANCH  10  14
ENDBRANCH   4   7
ENDBRANCH   2   3
ENDBRANCH   1   2
BRANCH   1  33
ATOM     33  C   UNL A   1      33.389  30.034  27.266  1.00  0.00     0.023 C 
BRANCH  33  34
ATOM     34  C   UNL A   1      34.564  30.975  27.453  1.00  0.00     0.116 C 
BRANCH  34  35
ATOM     35  N   UNL A   1      34.132  32.316  27.839  1.00  0.00    -0.352 N 
ATOM     36  C   UNL A   1      34.404  33.030  28.989  1.00  0.00     0.251 C 
ATOM     37  H   UNL A   1      33.562  32.779  27.183  1.00  0.00     0.163 HD
ATOM     38  O   UNL A   1      33.572  33.835  29.387  1.00  0.00    -0.269 OA
BRANCH  36  39
ATOM     39  C   UNL A   1      35.717  32.881  29.647  1.00  0.00     0.039 A 
ATOM     40  C   UNL A   1      36.910  33.312  29.050  1.00  0.00     0.014 A 
ATOM     41  C   UNL A   1      35.768  32.108  30.798  1.00  0.00     0.014 A 
ATOM     42  C   UNL A   1      38.123  32.819  29.532  1.00  0.00     0.010 A 
ATOM     43  C   UNL A   1      36.937  31.890  31.442  1.00  0.00     0.010 A 
ATOM     44  C   UNL A   1      38.092  32.039  30.681  1.00  0.00    -0.014 A 
BRANCH  44  45
ATOM     45  C   UNL A   1      39.103  31.102  31.129  1.00  0.00     0.031 A 
ATOM     46  C   UNL A   1      39.203  29.801  30.469  1.00  0.00     0.074 A 
ATOM     47  C   UNL A   1      40.173  31.738  31.672  1.00  0.00     0.049 A 
ATOM     48  N   UNL A   1      40.077  28.905  30.761  1.00  0.00    -0.248 NA
ATOM     49  C   UNL A   1      38.294  29.408  29.399  1.00  0.00     0.031 C 
ATOM     50  C   UNL A   1      41.583  31.428  31.508  1.00  0.00     0.029 A 
ATOM     51  N   UNL A   1      40.191  32.905  32.452  1.00  0.00    -0.354 N 
ATOM     52  C   UNL A   1      40.094  28.024  29.699  1.00  0.00     0.074 A 
ATOM     53  C   UNL A   1      38.849  28.257  29.013  1.00  0.00     0.031 C 
ATOM     54  C   UNL A   1      42.292  32.180  32.370  1.00  0.00     0.029 A 
ATOM     55  C   UNL A   1      41.333  32.828  33.255  1.00  0.00     0.049 A 
ATOM     56  H   UNL A   1      39.530  33.633  32.438  1.00  0.00     0.167 HD
ATOM     57  C   UNL A   1      41.259  27.373  29.417  1.00  0.00     0.034 A 
ATOM     58  C   UNL A   1      41.244  32.620  34.604  1.00  0.00     0.034 A 
ATOM     59  C   UNL A   1      42.276  27.686  30.449  1.00  0.00     0.049 A 
ATOM     60  C   UNL A   1      41.770  31.245  35.002  1.00  0.00     0.074 A 
ATOM     61  C   UNL A   1      43.397  28.499  30.456  1.00  0.00     0.029 A 
ATOM     62  N   UNL A   1      42.016  27.381  31.785  1.00  0.00    -0.354 N 
ATOM     63  N   UNL A   1      42.184  30.346  34.149  1.00  0.00    -0.248 NA
ATOM     64  C   UNL A   1      41.875  30.767  36.377  1.00  0.00     0.031 C 
ATOM     65  C   UNL A   1      43.725  28.785  31.815  1.00  0.00     0.029 A 
ATOM     66  C   UNL A   1      42.834  28.114  32.637  1.00  0.00     0.049 A 
ATOM     67  H   UNL A   1      41.342  26.730  32.086  1.00  0.00     0.167 HD
ATOM     68  C   UNL A   1      42.445  29.166  34.783  1.00  0.00     0.074 A 
ATOM     69  C   UNL A   1      42.326  29.511  36.191  1.00  0.00     0.031 C 
ATOM     70  C   UNL A   1      42.671  28.003  34.091  1.00  0.00     0.034 A 
BRANCH  57  71
ATOM     71  C   UNL A   1      41.619  26.683  28.098  1.00  0.00     0.023 A 
ATOM     72  C   UNL A   1      41.504  27.461  26.921  1.00  0.00     0.012 A 
ATOM     73  C   UNL A   1      41.998  25.332  27.889  1.00  0.00     0.148 A 
ATOM     74  C   UNL A   1      41.692  26.932  25.637  1.00  0.00     0.002 A 
ATOM     75  C   UNL A   1      42.194  24.799  26.609  1.00  0.00     0.091 A 
ATOM     76  F   UNL A   1      42.186  24.516  28.921  1.00  0.00    -0.205 F 
ATOM     77  C   UNL A   1      42.030  25.597  25.478  1.00  0.00     0.022 A 
BRANCH  75  78
ATOM     78  S   UNL A   1      42.644  23.072  26.328  1.00  0.00     0.127 S 
ATOM     79  O   UNL A   1      43.923  22.970  27.032  1.00  0.00    -0.237 OA
ATOM     80  O   UNL A   1      41.541  22.355  26.966  1.00  0.00    -0.237 OA
ATOM     81  O   UNL A   1      42.736  22.893  24.884  1.00  0.00    -0.744 OA
ENDBRANCH  75  78
ENDBRANCH  57  71
BRANCH  58  82
ATOM     82  C   UNL A   1      40.082  33.342  35.223  1.00  0.00     0.023 A 
ATOM     83  C   UNL A   1      38.853  32.638  35.251  1.00  0.00     0.012 A 
ATOM     84  C   UNL A   1      40.287  34.380  36.152  1.00  0.00     0.148 A 
ATOM     85  C   UNL A   1      37.931  32.844  36.280  1.00  0.00     0.002 A 
ATOM     86  C   UNL A   1      39.374  34.561  37.193  1.00  0.00     0.091 A 
ATOM     87  F   UNL A   1      41.418  35.093  36.072  1.00  0.00    -0.205 F 
ATOM     88  C   UNL A   1      38.217  33.768  37.279  1.00  0.00     0.022 A 
BRANCH  86  89
ATOM     89  S   UNL A   1      39.706  35.679  38.564  1.00  0.00     0.127 S 
ATOM     90  O   UNL A   1      39.554  36.981  37.927  1.00  0.00    -0.237 OA
ATOM     91  O   UNL A   1      38.656  35.336  39.519  1.00  0.00    -0.237 OA
ATOM     92  O   UNL A   1      41.052  35.337  39.014  1.00  0.00    -0.744 OA
ENDBRANCH  86  89
ENDBRANCH  58  82
BRANCH  70  93
ATOM     93  C   UNL A   1      42.738  26.623  34.720  1.00  0.00     0.023 A 
ATOM     94  C   UNL A   1      41.610  25.987  35.272  1.00  0.00     0.012 A 
ATOM     95  C   UNL A   1      43.924  25.848  34.631  1.00  0.00     0.148 A 
ATOM     96  C   UNL A   1      41.668  24.681  35.772  1.00  0.00     0.002 A 
ATOM     97  C   UNL A   1      43.938  24.509  35.004  1.00  0.00     0.091 A 
ATOM     98  F   UNL A   1      45.062  26.411  34.199  1.00  0.00    -0.205 F 
ATOM     99  C   UNL A   1      42.826  23.931  35.614  1.00  0.00     0.022 A 
BRANCH  97 100
ATOM    100  S   UNL A   1      45.316  23.443  34.553  1.00  0.00     0.127 S 
ATOM    101  O   UNL A   1      46.361  23.891  35.469  1.00  0.00    -0.237 OA
ATOM    102  O   UNL A   1      44.786  22.108  34.838  1.00  0.00    -0.237 OA
ATOM    103  O   UNL A   1      45.544  23.701  33.137  1.00  0.00    -0.744 OA
ENDBRANCH  97 100
ENDBRANCH  70  93
ENDBRANCH  44  45
ENDBRANCH  36  39
ENDBRANCH  34  35
ENDBRANCH  33  34
ENDBRANCH   1  33
TORSDOF 18
ENDMDL
MODEL 2
REMARK VINA RESULT:     -13.2      1.653      2.437
REMARK SMILES Cc1c(NC(=O)c2ccccc2NC(=O)[C@@H]2CCCO2)cccc1C(=O)NCCCCNC(=O)c1ccc(-c2c3nc(c(-c4cccc(S(=O)(=O)[O-])c4F)c4ccc([nH]4)c(-c4cccc(S(=O)(=O)[O-])c4F)c4nc(c(-c5cccc(S(=O)(=O)[O-])c5F)c5ccc2[nH]5)C=C4)C=C3)cc1
REMARK SMILES IDX 29 1 28 2 27 3 25 4 26 5 24 7 1 8 2 9 3 10 21 11 23 12 22 13
REMARK SMILES IDX 4 14 5 15 6 17 7 18 8 19 12 20 9 21 11 22 10 23 13 24 14 25
REMARK SMILES IDX 15 27 16 28 17 29 20 30 18 31 19 32 30 33 31 34 32 35 33 36
REMARK SMILES IDX 34 38 35 39 36 40 97 41 37 42 96 43 38 44 39 45 40 46 90 47
REMARK SMILES IDX 41 48 95 49 89 50 91 51 42 52 94 53 88 54 87 55 43 57 75 58
REMARK SMILES IDX 55 59 74 60 56 61 59 62 73 63 92 64 57 65 58 66 72 68 93 69
REMARK SMILES IDX 60 70 44 71 45 72 53 73 46 74 48 75 54 76 47 77 49 78 50 79
REMARK SMILES IDX 51 80 52 81 76 82 77 83 85 84 78 85 80 86 86 87 79 88 81 89
REMARK SMILES IDX 82 90 83 91 84 92 61 93 62 94 70 95 63 96 65 97 71 98 64 99
REMARK SMILES IDX 66 100 67 101 68 102 69 103
REMARK H PARENT 27 6 4 16 13 26 32 37 91 56 59 67
REMARK Flexibility Score: inf
ROOT
ATOM      1  C   UNL A   1      35.350  29.292  27.209  1.00  0.00     0.023 C 
ENDROOT
BRANCH   1   2
ATOM      2  C   UNL A   1      34.157  28.596  26.538  1.00  0.00     0.116 C 
BRANCH   2   3
ATOM      3  N   UNL A   1      34.023  29.022  25.160  1.00  0.00    -0.352 N 
ATOM      4  C   UNL A   1      33.387  28.581  24.033  1.00  0.00     0.251 C 
ATOM      5  O   UNL A   1      33.670  29.241  23.023  1.00  0.00    -0.269 OA
ATOM      6  H   UNL A   1      34.525  29.851  24.990  1.00  0.00     0.163 HD
BRANCH   4   7
ATOM      7  C   UNL A   1      32.352  27.483  23.882  1.00  0.00     0.044 A 
ATOM      8  C   UNL A   1      33.637  25.667  22.594  1.00  0.00     0.047 C 
ATOM      9  C   UNL A   1      32.448  26.171  23.363  1.00  0.00    -0.015 A 
ATOM     10  C   UNL A   1      31.291  25.332  23.334  1.00  0.00     0.045 A 
ATOM     11  C   UNL A   1      30.036  25.807  23.704  1.00  0.00     0.026 A 
ATOM     12  C   UNL A   1      31.053  27.922  24.245  1.00  0.00     0.014 A 
ATOM     13  C   UNL A   1      29.914  27.116  24.139  1.00  0.00     0.003 A 
BRANCH  10  14
ATOM     14  N   UNL A   1      31.458  24.026  22.843  1.00  0.00    -0.322 N 
ATOM     15  C   UNL A   1      31.990  22.887  23.395  1.00  0.00     0.257 C 
ATOM     16  H   UNL A   1      31.129  23.903  21.924  1.00  0.00     0.170 HD
ATOM     17  O   UNL A   1      32.027  21.872  22.694  1.00  0.00    -0.269 OA
BRANCH  15  18
ATOM     18  C   UNL A   1      32.477  22.789  24.798  1.00  0.00     0.063 A 
ATOM     19  C   UNL A   1      31.470  23.023  25.758  1.00  0.00     0.016 A 
ATOM     20  C   UNL A   1      33.812  22.567  25.218  1.00  0.00     0.054 A 
ATOM     21  C   UNL A   1      31.740  22.932  27.116  1.00  0.00     0.001 A 
ATOM     22  C   UNL A   1      34.020  22.348  26.583  1.00  0.00     0.027 A 
ATOM     23  C   UNL A   1      33.004  22.546  27.525  1.00  0.00     0.002 A 
BRANCH  20  24
ATOM     24  N   UNL A   1      34.864  22.635  24.276  1.00  0.00    -0.323 N 
ATOM     25  C   UNL A   1      36.229  22.586  24.286  1.00  0.00     0.253 C 
ATOM     26  H   UNL A   1      34.517  22.748  23.361  1.00  0.00     0.170 HD
ATOM     27  O   UNL A   1      36.790  22.644  23.185  1.00  0.00    -0.272 OA
BRANCH  25  28
ATOM     28  C   UNL A   1      37.043  22.539  25.579  1.00  0.00     0.207 C 
ATOM     29  C   UNL A   1      37.790  23.856  25.755  1.00  0.00     0.044 C 
ATOM     30  O   UNL A   1      38.059  21.521  25.622  1.00  0.00    -0.368 OA
ATOM     31  C   UNL A   1      38.925  23.456  26.655  1.00  0.00     0.032 C 
ATOM     32  C   UNL A   1      39.280  22.098  26.098  1.00  0.00     0.161 C 
ENDBRANCH  25  28
ENDBRANCH  20  24
ENDBRANCH  15  18
ENDBRANCH  10  14
ENDBRANCH   4   7
ENDBRANCH   2   3
ENDBRANCH   1   2
BRANCH   1  33
ATOM     33  C   UNL A   1      35.243  30.795  27.484  1.00  0.00     0.023 C 
BRANCH  33  34
ATOM     34  C   UNL A   1      34.095  31.237  28.373  1.00  0.00     0.116 C 
BRANCH  34  35
ATOM     35  N   UNL A   1      33.941  32.690  28.383  1.00  0.00    -0.352 N 
ATOM     36  C   UNL A   1      34.474  33.624  29.248  1.00  0.00     0.251 C 
ATOM     37  H   UNL A   1      33.374  33.057  27.666  1.00  0.00     0.163 HD
ATOM     38  O   UNL A   1      33.843  34.652  29.458  1.00  0.00    -0.269 OA
BRANCH  36  39
ATOM     39  C   UNL A   1      35.819  33.409  29.817  1.00  0.00     0.039 A 
ATOM     40  C   UNL A   1      36.991  33.685  29.099  1.00  0.00     0.014 A 
ATOM     41  C   UNL A   1      35.899  32.726  31.021  1.00  0.00     0.014 A 
ATOM     42  C   UNL A   1      38.194  33.124  29.528  1.00  0.00     0.010 A 
ATOM     43  C   UNL A   1      37.095  32.455  31.593  1.00  0.00     0.010 A 
ATOM     44  C   UNL A   1      38.192  32.441  30.737  1.00  0.00    -0.014 A 
BRANCH  44  45
ATOM     45  C   UNL A   1      39.156  31.455  31.185  1.00  0.00     0.031 A 
ATOM     46  C   UNL A   1      39.212  30.162  30.505  1.00  0.00     0.074 A 
ATOM     47  C   UNL A   1      40.241  32.036  31.758  1.00  0.00     0.049 A 
ATOM     48  N   UNL A   1      40.043  29.226  30.795  1.00  0.00    -0.248 NA
ATOM     49  C   UNL A   1      38.306  29.826  29.413  1.00  0.00     0.031 C 
ATOM     50  C   UNL A   1      41.640  31.670  31.612  1.00  0.00     0.029 A 
ATOM     51  N   UNL A   1      40.294  33.188  32.559  1.00  0.00    -0.354 N 
ATOM     52  C   UNL A   1      40.041  28.363  29.718  1.00  0.00     0.074 A 
ATOM     53  C   UNL A   1      38.820  28.660  29.016  1.00  0.00     0.031 C 
ATOM     54  C   UNL A   1      42.364  32.377  32.499  1.00  0.00     0.029 A 
ATOM     55  C   UNL A   1      41.418  33.049  33.379  1.00  0.00     0.049 A 
ATOM     56  H   UNL A   1      39.665  33.944  32.547  1.00  0.00     0.167 HD
ATOM     57  C   UNL A   1      41.183  27.668  29.445  1.00  0.00     0.034 A 
ATOM     58  C   UNL A   1      41.297  32.822  34.723  1.00  0.00     0.034 A 
ATOM     59  C   UNL A   1      42.194  27.920  30.499  1.00  0.00     0.049 A 
ATOM     60  C   UNL A   1      41.758  31.420  35.105  1.00  0.00     0.074 A 
ATOM     61  C   UNL A   1      43.347  28.685  30.538  1.00  0.00     0.029 A 
ATOM     62  N   UNL A   1      41.898  27.604  31.825  1.00  0.00    -0.354 N 
ATOM     63  N   UNL A   1      42.149  30.518  34.243  1.00  0.00    -0.248 NA
ATOM     64  C   UNL A   1      41.818  30.914  36.473  1.00  0.00     0.031 C 
ATOM     65  C   UNL A   1      43.664  28.934  31.908  1.00  0.00     0.029 A 
ATOM     66  C   UNL A   1      42.731  28.287  32.703  1.00  0.00     0.049 A 
ATOM     67  H   UNL A   1      41.192  26.977  32.102  1.00  0.00     0.167 HD
ATOM     68  C   UNL A   1      42.349  29.318  34.860  1.00  0.00     0.074 A 
ATOM     69  C   UNL A   1      42.220  29.644  36.272  1.00  0.00     0.031 C 
ATOM     70  C   UNL A   1      42.538  28.158  34.152  1.00  0.00     0.034 A 
BRANCH  57  71
ATOM     71  C   UNL A   1      41.536  26.986  28.119  1.00  0.00     0.023 A 
ATOM     72  C   UNL A   1      41.103  27.631  26.937  1.00  0.00     0.012 A 
ATOM     73  C   UNL A   1      42.195  25.745  27.919  1.00  0.00     0.148 A 
ATOM     74  C   UNL A   1      41.258  27.069  25.662  1.00  0.00     0.002 A 
ATOM     75  C   UNL A   1      42.358  25.182  26.648  1.00  0.00     0.091 A 
ATOM     76  F   UNL A   1      42.691  25.069  28.950  1.00  0.00    -0.205 F 
ATOM     77  C   UNL A   1      41.879  25.839  25.516  1.00  0.00     0.022 A 
BRANCH  75  78
ATOM     78  S   UNL A   1      43.166  23.588  26.382  1.00  0.00     0.127 S 
ATOM     79  O   UNL A   1      42.449  22.720  27.318  1.00  0.00    -0.237 OA
ATOM     80  O   UNL A   1      42.883  23.327  24.972  1.00  0.00    -0.237 OA
ATOM     81  O   UNL A   1      44.578  23.776  26.697  1.00  0.00    -0.744 OA
ENDBRANCH  75  78
ENDBRANCH  57  71
BRANCH  58  82
ATOM     82  C   UNL A   1      40.156  33.582  35.334  1.00  0.00     0.023 A 
ATOM     83  C   UNL A   1      38.889  32.949  35.289  1.00  0.00     0.012 A 
ATOM     84  C   UNL A   1      40.385  34.564  36.316  1.00  0.00     0.148 A 
ATOM     85  C   UNL A   1      37.943  33.162  36.296  1.00  0.00     0.002 A 
ATOM     86  C   UNL A   1      39.446  34.752  37.333  1.00  0.00     0.091 A 
ATOM     87  F   UNL A   1      41.556  35.214  36.306  1.00  0.00    -0.205 F 
ATOM     88  C   UNL A   1      38.245  34.024  37.345  1.00  0.00     0.022 A 
BRANCH  86  89
ATOM     89  S   UNL A   1      39.791  35.788  38.765  1.00  0.00     0.127 S 
ATOM     90  O   UNL A   1      41.172  35.428  39.064  1.00  0.00    -0.237 OA
ATOM     91  O   UNL A   1      39.610  37.137  38.234  1.00  0.00    -0.237 OA
ATOM     92  O   UNL A   1      38.796  35.403  39.760  1.00  0.00    -0.744 OA
ENDBRANCH  86  89
ENDBRANCH  58  82
BRANCH  70  93
ATOM     93  C   UNL A   1      42.536  26.766  34.757  1.00  0.00     0.023 A 
ATOM     94  C   UNL A   1      41.393  26.201  35.353  1.00  0.00     0.012 A 
ATOM     95  C   UNL A   1      43.659  25.911  34.601  1.00  0.00     0.148 A 
ATOM     96  C   UNL A   1      41.382  24.886  35.832  1.00  0.00     0.002 A 
ATOM     97  C   UNL A   1      43.596  24.568  34.954  1.00  0.00     0.091 A 
ATOM     98  F   UNL A   1      44.813  26.401  34.123  1.00  0.00    -0.205 F 
ATOM     99  C   UNL A   1      42.474  24.060  35.608  1.00  0.00     0.022 A 
BRANCH  97 100
ATOM    100  S   UNL A   1      44.871  23.417  34.422  1.00  0.00     0.127 S 
ATOM    101  O   UNL A   1      44.915  23.654  32.982  1.00  0.00    -0.237 OA
ATOM    102  O   UNL A   1      46.048  23.891  35.154  1.00  0.00    -0.237 OA
ATOM    103  O   UNL A   1      44.397  22.106  34.847  1.00  0.00    -0.744 OA
ENDBRANCH  97 100
ENDBRANCH  70  93
ENDBRANCH  44  45
ENDBRANCH  36  39
ENDBRANCH  34  35
ENDBRANCH  33  34
ENDBRANCH   1  33
TORSDOF 18
ENDMDL
MODEL 3
REMARK VINA RESULT:     -13.0      4.892      9.249
REMARK SMILES Cc1c(NC(=O)c2ccccc2NC(=O)[C@@H]2CCCO2)cccc1C(=O)NCCCCNC(=O)c1ccc(-c2c3nc(c(-c4cccc(S(=O)(=O)[O-])c4F)c4ccc([nH]4)c(-c4cccc(S(=O)(=O)[O-])c4F)c4nc(c(-c5cccc(S(=O)(=O)[O-])c5F)c5ccc2[nH]5)C=C4)C=C3)cc1
REMARK SMILES IDX 29 1 28 2 27 3 25 4 26 5 24 7 1 8 2 9 3 10 21 11 23 12 22 13
REMARK SMILES IDX 4 14 5 15 6 17 7 18 8 19 12 20 9 21 11 22 10 23 13 24 14 25
REMARK SMILES IDX 15 27 16 28 17 29 20 30 18 31 19 32 30 33 31 34 32 35 33 36
REMARK SMILES IDX 34 38 35 39 36 40 97 41 37 42 96 43 38 44 39 45 40 46 90 47
REMARK SMILES IDX 41 48 95 49 89 50 91 51 42 52 94 53 88 54 87 55 43 57 75 58
REMARK SMILES IDX 55 59 74 60 56 61 59 62 73 63 92 64 57 65 58 66 72 68 93 69
REMARK SMILES IDX 60 70 44 71 45 72 53 73 46 74 48 75 54 76 47 77 49 78 50 79
REMARK SMILES IDX 51 80 52 81 76 82 77 83 85 84 78 85 80 86 86 87 79 88 81 89
REMARK SMILES IDX 82 90 83 91 84 92 61 93 62 94 70 95 63 96 65 97 71 98 64 99
REMARK SMILES IDX 66 100 67 101 68 102 69 103
REMARK H PARENT 27 6 4 16 13 26 32 37 91 56 59 67
REMARK Flexibility Score: inf
ROOT
ATOM      1  C   UNL A   1      33.265  29.828  26.219  1.00  0.00     0.023 C 
ENDROOT
BRANCH   1   2
ATOM      2  C   UNL A   1      31.854  29.222  26.185  1.00  0.00     0.116 C 
BRANCH   2   3
ATOM      3  N   UNL A   1      31.242  29.421  24.888  1.00  0.00    -0.352 N 
ATOM      4  C   UNL A   1      31.013  28.676  23.764  1.00  0.00     0.251 C 
ATOM      5  O   UNL A   1      30.538  29.337  22.829  1.00  0.00    -0.269 OA
ATOM      6  H   UNL A   1      30.900  30.338  24.789  1.00  0.00     0.163 HD
BRANCH   4   7
ATOM      7  C   UNL A   1      31.179  27.185  23.551  1.00  0.00     0.044 A 
ATOM      8  C   UNL A   1      30.246  26.193  25.731  1.00  0.00     0.047 C 
ATOM      9  C   UNL A   1      30.767  26.076  24.325  1.00  0.00    -0.015 A 
ATOM     10  C   UNL A   1      31.066  24.750  23.885  1.00  0.00     0.045 A 
ATOM     11  C   UNL A   1      31.854  24.515  22.761  1.00  0.00     0.026 A 
ATOM     12  C   UNL A   1      31.980  26.895  22.416  1.00  0.00     0.014 A 
ATOM     13  C   UNL A   1      32.332  25.595  22.038  1.00  0.00     0.003 A 
BRANCH  10  14
ATOM     14  N   UNL A   1      30.596  23.689  24.677  1.00  0.00    -0.322 N 
ATOM     15  C   UNL A   1      31.236  22.678  25.350  1.00  0.00     0.257 C 
ATOM     16  H   UNL A   1      29.616  23.666  24.767  1.00  0.00     0.170 HD
ATOM     17  O   UNL A   1      30.538  21.857  25.953  1.00  0.00    -0.269 OA
BRANCH  15  18
ATOM     18  C   UNL A   1      32.715  22.541  25.441  1.00  0.00     0.063 A 
ATOM     19  C   UNL A   1      33.336  23.617  26.110  1.00  0.00     0.016 A 
ATOM     20  C   UNL A   1      33.508  21.513  24.873  1.00  0.00     0.054 A 
ATOM     21  C   UNL A   1      34.709  23.634  26.320  1.00  0.00     0.001 A 
ATOM     22  C   UNL A   1      34.862  21.491  25.219  1.00  0.00     0.027 A 
ATOM     23  C   UNL A   1      35.462  22.545  25.917  1.00  0.00     0.002 A 
BRANCH  20  24
ATOM     24  N   UNL A   1      32.929  20.609  23.954  1.00  0.00    -0.323 N 
ATOM     25  C   UNL A   1      32.675  19.268  23.884  1.00  0.00     0.253 C 
ATOM     26  H   UNL A   1      32.625  21.073  23.140  1.00  0.00     0.170 HD
ATOM     27  O   UNL A   1      32.087  18.871  22.871  1.00  0.00    -0.272 OA
BRANCH  25  28
ATOM     28  C   UNL A   1      33.149  18.283  24.953  1.00  0.00     0.207 C 
ATOM     29  C   UNL A   1      34.226  17.379  24.365  1.00  0.00     0.044 C 
ATOM     30  O   UNL A   1      32.137  17.389  25.449  1.00  0.00    -0.368 OA
ATOM     31  C   UNL A   1      34.149  16.175  25.260  1.00  0.00     0.032 C 
ATOM     32  C   UNL A   1      32.658  16.055  25.468  1.00  0.00     0.161 C 
ENDBRANCH  25  28
ENDBRANCH  20  24
ENDBRANCH  15  18
ENDBRANCH  10  14
ENDBRANCH   4   7
ENDBRANCH   2   3
ENDBRANCH   1   2
BRANCH   1  33
ATOM     33  C   UNL A   1      34.336  29.110  27.046  1.00  0.00     0.023 C 
BRANCH  33  34
ATOM     34  C   UNL A   1      35.253  29.992  27.872  1.00  0.00     0.116 C 
BRANCH  34  35
ATOM     35  N   UNL A   1      34.637  31.279  28.185  1.00  0.00    -0.352 N 
ATOM     36  C   UNL A   1      34.939  32.178  29.187  1.00  0.00     0.251 C 
ATOM     37  H   UNL A   1      33.895  31.543  27.593  1.00  0.00     0.163 HD
ATOM     38  O   UNL A   1      34.038  32.875  29.638  1.00  0.00    -0.269 OA
BRANCH  36  39
ATOM     39  C   UNL A   1      36.341  32.347  29.618  1.00  0.00     0.039 A 
ATOM     40  C   UNL A   1      37.061  31.323  30.249  1.00  0.00     0.014 A 
ATOM     41  C   UNL A   1      36.872  33.627  29.568  1.00  0.00     0.014 A 
ATOM     42  C   UNL A   1      38.220  31.648  30.955  1.00  0.00     0.010 A 
ATOM     43  C   UNL A   1      38.137  33.875  29.979  1.00  0.00     0.010 A 
ATOM     44  C   UNL A   1      38.682  32.955  30.868  1.00  0.00    -0.014 A 
BRANCH  44  45
ATOM     45  C   UNL A   1      39.576  33.629  31.791  1.00  0.00     0.031 A 
ATOM     46  C   UNL A   1      39.030  34.167  33.036  1.00  0.00     0.074 A 
ATOM     47  C   UNL A   1      40.851  33.176  31.677  1.00  0.00     0.049 A 
ATOM     48  N   UNL A   1      39.730  34.756  33.939  1.00  0.00    -0.248 NA
ATOM     49  C   UNL A   1      37.612  34.075  33.359  1.00  0.00     0.031 C 
ATOM     50  C   UNL A   1      41.805  32.899  32.738  1.00  0.00     0.029 A 
ATOM     51  N   UNL A   1      41.535  32.776  30.519  1.00  0.00    -0.354 N 
ATOM     52  C   UNL A   1      38.956  34.763  35.081  1.00  0.00     0.074 A 
ATOM     53  C   UNL A   1      37.614  34.536  34.612  1.00  0.00     0.031 C 
ATOM     54  C   UNL A   1      43.006  32.657  32.182  1.00  0.00     0.029 A 
ATOM     55  C   UNL A   1      42.894  32.988  30.769  1.00  0.00     0.049 A 
ATOM     56  H   UNL A   1      41.138  32.418  29.693  1.00  0.00     0.167 HD
ATOM     57  C   UNL A   1      39.588  34.739  36.290  1.00  0.00     0.034 A 
ATOM     58  C   UNL A   1      43.589  33.984  30.138  1.00  0.00     0.034 A 
ATOM     59  C   UNL A   1      41.054  34.837  36.097  1.00  0.00     0.049 A 
ATOM     60  C   UNL A   1      43.994  35.093  31.103  1.00  0.00     0.074 A 
ATOM     61  C   UNL A   1      42.082  33.913  36.183  1.00  0.00     0.029 A 
ATOM     62  N   UNL A   1      41.590  35.946  35.442  1.00  0.00    -0.354 N 
ATOM     63  N   UNL A   1      43.652  35.125  32.364  1.00  0.00    -0.248 NA
ATOM     64  C   UNL A   1      44.807  36.249  30.738  1.00  0.00     0.031 C 
ATOM     65  C   UNL A   1      43.198  34.427  35.456  1.00  0.00     0.029 A 
ATOM     66  C   UNL A   1      42.867  35.680  34.965  1.00  0.00     0.049 A 
ATOM     67  H   UNL A   1      41.123  36.806  35.333  1.00  0.00     0.167 HD
ATOM     68  C   UNL A   1      44.023  36.309  32.932  1.00  0.00     0.074 A 
ATOM     69  C   UNL A   1      44.828  36.937  31.896  1.00  0.00     0.031 C 
ATOM     70  C   UNL A   1      43.583  36.688  34.175  1.00  0.00     0.034 A 
BRANCH  57  71
ATOM     71  C   UNL A   1      38.964  34.350  37.633  1.00  0.00     0.023 A 
ATOM     72  C   UNL A   1      39.353  35.112  38.760  1.00  0.00     0.012 A 
ATOM     73  C   UNL A   1      38.081  33.274  37.912  1.00  0.00     0.148 A 
ATOM     74  C   UNL A   1      38.949  34.801  40.067  1.00  0.00     0.002 A 
ATOM     75  C   UNL A   1      37.670  32.963  39.214  1.00  0.00     0.091 A 
ATOM     76  F   UNL A   1      37.606  32.517  36.928  1.00  0.00    -0.205 F 
ATOM     77  C   UNL A   1      38.113  33.720  40.297  1.00  0.00     0.022 A 
BRANCH  75  78
ATOM     78  S   UNL A   1      36.573  31.576  39.586  1.00  0.00     0.127 S 
ATOM     79  O   UNL A   1      37.025  30.562  38.632  1.00  0.00    -0.237 OA
ATOM     80  O   UNL A   1      36.900  31.287  40.981  1.00  0.00    -0.237 OA
ATOM     81  O   UNL A   1      35.211  32.047  39.363  1.00  0.00    -0.744 OA
ENDBRANCH  75  78
ENDBRANCH  57  71
BRANCH  58  82
ATOM     82  C   UNL A   1      43.173  34.157  28.706  1.00  0.00     0.023 A 
ATOM     83  C   UNL A   1      42.512  35.370  28.390  1.00  0.00     0.012 A 
ATOM     84  C   UNL A   1      43.823  33.455  27.673  1.00  0.00     0.148 A 
ATOM     85  C   UNL A   1      42.642  35.951  27.126  1.00  0.00     0.002 A 
ATOM     86  C   UNL A   1      43.972  34.056  26.421  1.00  0.00     0.091 A 
ATOM     87  F   UNL A   1      44.381  32.272  27.960  1.00  0.00    -0.205 F 
ATOM     88  C   UNL A   1      43.416  35.318  26.159  1.00  0.00     0.022 A 
BRANCH  86  89
ATOM     89  S   UNL A   1      45.020  33.340  25.143  1.00  0.00     0.127 S 
ATOM     90  O   UNL A   1      44.073  33.161  24.050  1.00  0.00    -0.237 OA
ATOM     91  O   UNL A   1      46.018  34.385  24.926  1.00  0.00    -0.237 OA
ATOM     92  O   UNL A   1      45.558  32.120  25.735  1.00  0.00    -0.744 OA
ENDBRANCH  86  89
ENDBRANCH  58  82
BRANCH  70  93
ATOM     93  C   UNL A   1      43.763  38.074  34.769  1.00  0.00     0.023 A 
ATOM     94  C   UNL A   1      44.384  38.289  36.014  1.00  0.00     0.012 A 
ATOM     95  C   UNL A   1      43.449  39.230  34.007  1.00  0.00     0.148 A 
ATOM     96  C   UNL A   1      44.618  39.577  36.510  1.00  0.00     0.002 A 
ATOM     97  C   UNL A   1      43.807  40.500  34.445  1.00  0.00     0.091 A 
ATOM     98  F   UNL A   1      42.777  39.110  32.852  1.00  0.00    -0.205 F 
ATOM     99  C   UNL A   1      44.355  40.683  35.714  1.00  0.00     0.022 A 
BRANCH  97 100
ATOM    100  S   UNL A   1      43.743  41.909  33.329  1.00  0.00     0.127 S 
ATOM    101  O   UNL A   1      42.308  42.165  33.243  1.00  0.00    -0.237 OA
ATOM    102  O   UNL A   1      44.501  42.926  34.063  1.00  0.00    -0.237 OA
ATOM    103  O   UNL A   1      44.393  41.452  32.107  1.00  0.00    -0.744 OA
ENDBRANCH  97 100
ENDBRANCH  70  93
ENDBRANCH  44  45
ENDBRANCH  36  39
ENDBRANCH  34  35
ENDBRANCH  33  34
ENDBRANCH   1  33
TORSDOF 18
ENDMDL
