MODEL 1
REMARK VINA RESULT:     -12.8      0.000      0.000
REMARK SMILES Cc1ncccc1OC1(C(=O)NCCCCNC(=O)c2ccc(-c3c4nc(c(-c5cccc(S(=O)(=O)[O-])c5F)c5ccc([nH]5)c(-c5cccc(S(=O)(=O)[O-])c5F)c5nc(c(-c6cccc(S(=O)(=O)[O-])c6F)c6ccc3[nH]6)C=C5)C=C4)cc2)CCN(C(=O)c2ccc(O)nn2)CC1
REMARK SMILES IDX 15 1 14 2 13 3 12 4 10 5 11 6 9 8 83 9 96 10 84 11 95 12
REMARK SMILES IDX 85 13 86 14 87 15 8 16 7 17 1 18 2 19 3 20 4 21 6 22 5 23
REMARK SMILES IDX 88 24 89 25 94 26 90 27 93 28 91 29 92 30 16 32 17 33 18 34
REMARK SMILES IDX 19 36 20 37 21 38 82 39 22 40 81 41 23 42 24 43 25 44 75 45
REMARK SMILES IDX 26 46 80 47 74 48 76 49 27 50 79 51 73 52 72 53 28 55 60 56
REMARK SMILES IDX 40 57 59 58 41 59 44 60 58 61 77 62 42 63 43 64 57 66 78 67
REMARK SMILES IDX 45 68 29 69 30 70 38 71 31 72 33 73 39 74 32 75 34 76 35 77
REMARK SMILES IDX 36 78 37 79 61 80 62 81 70 82 63 83 65 84 71 85 64 86 66 87
REMARK SMILES IDX 67 88 68 89 69 90 46 91 47 92 55 93 48 94 50 95 56 96 49 97
REMARK SMILES IDX 51 98 52 99 53 100 54 101
REMARK H PARENT 12 7 92 31 17 35 76 54 44 65
REMARK Flexibility Score: inf
ROOT
ATOM      1  C   UNL A   1      37.810  20.773  25.359  1.00  0.00     0.023 C 
ENDROOT
BRANCH   1   2
ATOM      2  C   UNL A   1      37.359  21.846  24.369  1.00  0.00     0.023 C 
BRANCH   2   3
ATOM      3  C   UNL A   1      36.984  23.184  24.998  1.00  0.00     0.116 C 
BRANCH   3   4
ATOM      4  N   UNL A   1      36.255  23.044  26.241  1.00  0.00    -0.353 N 
ATOM      5  C   UNL A   1      34.917  22.905  26.504  1.00  0.00     0.264 C 
ATOM      6  O   UNL A   1      34.633  22.706  27.691  1.00  0.00    -0.270 OA
ATOM      7  H   UNL A   1      36.824  23.051  27.045  1.00  0.00     0.163 HD
BRANCH   5   8
ATOM      8  C   UNL A   1      33.811  22.995  25.378  1.00  0.00     0.190 C 
ATOM      9  C   UNL A   1      32.470  22.694  26.037  1.00  0.00     0.080 C 
ATOM     10  C   UNL A   1      34.030  24.305  24.628  1.00  0.00     0.080 C 
ATOM     11  C   UNL A   1      31.466  23.826  26.129  1.00  0.00     0.124 C 
ATOM     12  C   UNL A   1      32.898  25.317  24.621  1.00  0.00     0.124 C 
ATOM     13  N   UNL A   1      31.624  24.976  25.253  1.00  0.00    -0.337 N 
ATOM     14  C   UNL A   1      30.517  25.847  25.184  1.00  0.00     0.274 C 
ATOM     15  O   UNL A   1      29.496  25.696  25.852  1.00  0.00    -0.267 OA
BRANCH   8  16
ATOM     16  O   UNL A   1      34.197  21.893  24.513  1.00  0.00    -0.475 OA
BRANCH  16  17
ATOM     17  C   UNL A   1      33.594  20.725  24.170  1.00  0.00     0.142 A 
ATOM     18  C   UNL A   1      31.863  21.252  22.323  1.00  0.00     0.071 C 
ATOM     19  C   UNL A   1      32.594  20.365  23.261  1.00  0.00     0.079 A 
ATOM     20  N   UNL A   1      32.149  19.076  23.121  1.00  0.00    -0.258 NA
ATOM     21  C   UNL A   1      32.697  18.113  23.878  1.00  0.00     0.111 A 
ATOM     22  C   UNL A   1      34.134  19.672  24.928  1.00  0.00     0.050 A 
ATOM     23  C   UNL A   1      33.693  18.359  24.791  1.00  0.00     0.024 A 
ENDBRANCH  16  17
ENDBRANCH   8  16
BRANCH  14  24
ATOM     24  C   UNL A   1      30.609  27.037  24.309  1.00  0.00     0.151 A 
ATOM     25  C   UNL A   1      31.152  28.212  24.802  1.00  0.00     0.042 A 
ATOM     26  N   UNL A   1      30.220  26.881  23.018  1.00  0.00    -0.142 NA
ATOM     27  C   UNL A   1      31.331  29.259  23.907  1.00  0.00     0.072 A 
ATOM     28  N   UNL A   1      30.394  27.909  22.148  1.00  0.00    -0.112 NA
ATOM     29  C   UNL A   1      30.942  29.053  22.602  1.00  0.00     0.230 A 
BRANCH  29  30
ATOM     30  O   UNL A   1      31.114  30.024  21.669  1.00  0.00    -0.492 OA
ATOM     31  H   UNL A   1      31.042  29.817  20.758  1.00  0.00     0.295 HD
ENDBRANCH  29  30
ENDBRANCH  14  24
ENDBRANCH   5   8
ENDBRANCH   3   4
ENDBRANCH   2   3
ENDBRANCH   1   2
BRANCH   1  32
ATOM     32  C   UNL A   1      39.206  20.962  25.950  1.00  0.00     0.116 C 
BRANCH  32  33
ATOM     33  N   UNL A   1      40.057  19.783  25.853  1.00  0.00    -0.352 N 
ATOM     34  C   UNL A   1      41.426  19.701  25.981  1.00  0.00     0.251 C 
ATOM     35  H   UNL A   1      39.592  18.934  25.674  1.00  0.00     0.163 HD
ATOM     36  O   UNL A   1      41.998  18.628  25.806  1.00  0.00    -0.269 OA
BRANCH  34  37
ATOM     37  C   UNL A   1      42.201  20.922  26.292  1.00  0.00     0.039 A 
ATOM     38  C   UNL A   1      42.594  21.760  25.246  1.00  0.00     0.014 A 
ATOM     39  C   UNL A   1      42.485  21.266  27.616  1.00  0.00     0.014 A 
ATOM     40  C   UNL A   1      43.198  22.987  25.533  1.00  0.00     0.010 A 
ATOM     41  C   UNL A   1      43.019  22.518  27.902  1.00  0.00     0.010 A 
ATOM     42  C   UNL A   1      43.376  23.395  26.865  1.00  0.00    -0.014 A 
BRANCH  42  43
ATOM     43  C   UNL A   1      43.904  24.743  27.204  1.00  0.00     0.031 A 
ATOM     44  C   UNL A   1      42.989  25.795  27.769  1.00  0.00     0.074 A 
ATOM     45  C   UNL A   1      45.181  25.055  26.900  1.00  0.00     0.049 A 
ATOM     46  N   UNL A   1      43.243  27.048  28.043  1.00  0.00    -0.248 NA
ATOM     47  C   UNL A   1      41.596  25.396  28.030  1.00  0.00     0.031 C 
ATOM     48  C   UNL A   1      46.146  24.153  26.267  1.00  0.00     0.029 A 
ATOM     49  N   UNL A   1      45.878  26.229  27.051  1.00  0.00    -0.354 N 
ATOM     50  C   UNL A   1      42.039  27.597  28.467  1.00  0.00     0.074 A 
ATOM     51  C   UNL A   1      41.046  26.549  28.383  1.00  0.00     0.031 C 
ATOM     52  C   UNL A   1      47.306  24.805  26.087  1.00  0.00     0.029 A 
ATOM     53  C   UNL A   1      47.163  26.176  26.564  1.00  0.00     0.049 A 
ATOM     54  H   UNL A   1      45.493  27.033  27.469  1.00  0.00     0.167 HD
ATOM     55  C   UNL A   1      41.787  28.849  28.915  1.00  0.00     0.034 A 
ATOM     56  C   UNL A   1      48.119  27.126  26.504  1.00  0.00     0.034 A 
ATOM     57  C   UNL A   1      42.788  29.872  29.053  1.00  0.00     0.049 A 
ATOM     58  C   UNL A   1      47.830  28.491  27.069  1.00  0.00     0.074 A 
ATOM     59  C   UNL A   1      42.653  31.141  29.591  1.00  0.00     0.029 A 
ATOM     60  N   UNL A   1      44.109  29.746  28.653  1.00  0.00    -0.354 N 
ATOM     61  N   UNL A   1      46.729  28.939  27.620  1.00  0.00    -0.248 NA
ATOM     62  C   UNL A   1      48.928  29.470  27.040  1.00  0.00     0.031 C 
ATOM     63  C   UNL A   1      43.891  31.785  29.503  1.00  0.00     0.029 A 
ATOM     64  C   UNL A   1      44.800  30.912  28.928  1.00  0.00     0.049 A 
ATOM     65  H   UNL A   1      44.498  28.944  28.235  1.00  0.00     0.167 HD
ATOM     66  C   UNL A   1      47.011  30.235  28.037  1.00  0.00     0.074 A 
ATOM     67  C   UNL A   1      48.393  30.494  27.691  1.00  0.00     0.031 C 
ATOM     68  C   UNL A   1      46.194  31.134  28.637  1.00  0.00     0.034 A 
BRANCH  55  69
ATOM     69  C   UNL A   1      40.382  29.165  29.356  1.00  0.00     0.023 A 
ATOM     70  C   UNL A   1      39.448  29.630  28.408  1.00  0.00     0.012 A 
ATOM     71  C   UNL A   1      39.968  28.949  30.685  1.00  0.00     0.148 A 
ATOM     72  C   UNL A   1      38.135  29.909  28.782  1.00  0.00     0.002 A 
ATOM     73  C   UNL A   1      38.646  29.188  31.040  1.00  0.00     0.091 A 
ATOM     74  F   UNL A   1      40.876  28.528  31.578  1.00  0.00    -0.205 F 
ATOM     75  C   UNL A   1      37.731  29.679  30.093  1.00  0.00     0.022 A 
BRANCH  73  76
ATOM     76  S   UNL A   1      38.011  28.850  32.686  1.00  0.00     0.127 S 
ATOM     77  O   UNL A   1      36.644  29.358  32.584  1.00  0.00    -0.237 OA
ATOM     78  O   UNL A   1      38.115  27.392  32.764  1.00  0.00    -0.237 OA
ATOM     79  O   UNL A   1      38.881  29.569  33.606  1.00  0.00    -0.744 OA
ENDBRANCH  73  76
ENDBRANCH  55  69
BRANCH  56  80
ATOM     80  C   UNL A   1      49.466  26.792  25.960  1.00  0.00     0.023 A 
ATOM     81  C   UNL A   1      50.370  26.065  26.761  1.00  0.00     0.012 A 
ATOM     82  C   UNL A   1      49.846  27.160  24.656  1.00  0.00     0.148 A 
ATOM     83  C   UNL A   1      51.639  25.738  26.284  1.00  0.00     0.002 A 
ATOM     84  C   UNL A   1      51.093  26.783  24.167  1.00  0.00     0.091 A 
ATOM     85  F   UNL A   1      48.979  27.863  23.915  1.00  0.00    -0.205 F 
ATOM     86  C   UNL A   1      51.997  26.086  24.984  1.00  0.00     0.022 A 
BRANCH  84  87
ATOM     87  S   UNL A   1      51.584  27.076  22.464  1.00  0.00     0.127 S 
ATOM     88  O   UNL A   1      51.961  28.486  22.498  1.00  0.00    -0.237 OA
ATOM     89  O   UNL A   1      52.701  26.142  22.304  1.00  0.00    -0.237 OA
ATOM     90  O   UNL A   1      50.414  26.748  21.660  1.00  0.00    -0.744 OA
ENDBRANCH  84  87
ENDBRANCH  56  80
BRANCH  68  91
ATOM     91  C   UNL A   1      46.773  32.476  29.002  1.00  0.00     0.023 A 
ATOM     92  C   UNL A   1      47.340  32.669  30.277  1.00  0.00     0.012 A 
ATOM     93  C   UNL A   1      46.833  33.514  28.052  1.00  0.00     0.148 A 
ATOM     94  C   UNL A   1      47.935  33.884  30.610  1.00  0.00     0.002 A 
ATOM     95  C   UNL A   1      47.468  34.707  28.376  1.00  0.00     0.091 A 
ATOM     96  F   UNL A   1      46.269  33.317  26.852  1.00  0.00    -0.205 F 
ATOM     97  C   UNL A   1      48.010  34.898  29.657  1.00  0.00     0.022 A 
BRANCH  95  98
ATOM     98  S   UNL A   1      47.695  36.029  27.180  1.00  0.00     0.127 S 
ATOM     99  O   UNL A   1      46.352  36.605  27.114  1.00  0.00    -0.237 OA
ATOM    100  O   UNL A   1      48.690  36.876  27.837  1.00  0.00    -0.237 OA
ATOM    101  O   UNL A   1      48.162  35.387  25.959  1.00  0.00    -0.744 OA
ENDBRANCH  95  98
ENDBRANCH  68  91
ENDBRANCH  42  43
ENDBRANCH  34  37
ENDBRANCH  32  33
ENDBRANCH   1  32
TORSDOF 18
ENDMDL
MODEL 2
REMARK VINA RESULT:     -12.7      1.644      4.284
REMARK SMILES Cc1ncccc1OC1(C(=O)NCCCCNC(=O)c2ccc(-c3c4nc(c(-c5cccc(S(=O)(=O)[O-])c5F)c5ccc([nH]5)c(-c5cccc(S(=O)(=O)[O-])c5F)c5nc(c(-c6cccc(S(=O)(=O)[O-])c6F)c6ccc3[nH]6)C=C5)C=C4)cc2)CCN(C(=O)c2ccc(O)nn2)CC1
REMARK SMILES IDX 15 1 14 2 13 3 12 4 10 5 11 6 9 8 83 9 96 10 84 11 95 12
REMARK SMILES IDX 85 13 86 14 87 15 8 16 7 17 1 18 2 19 3 20 4 21 6 22 5 23
REMARK SMILES IDX 88 24 89 25 94 26 90 27 93 28 91 29 92 30 16 32 17 33 18 34
REMARK SMILES IDX 19 36 20 37 21 38 82 39 22 40 81 41 23 42 24 43 25 44 75 45
REMARK SMILES IDX 26 46 80 47 74 48 76 49 27 50 79 51 73 52 72 53 28 55 60 56
REMARK SMILES IDX 40 57 59 58 41 59 44 60 58 61 77 62 42 63 43 64 57 66 78 67
REMARK SMILES IDX 45 68 29 69 30 70 38 71 31 72 33 73 39 74 32 75 34 76 35 77
REMARK SMILES IDX 36 78 37 79 61 80 62 81 70 82 63 83 65 84 71 85 64 86 66 87
REMARK SMILES IDX 67 88 68 89 69 90 46 91 47 92 55 93 48 94 50 95 56 96 49 97
REMARK SMILES IDX 51 98 52 99 53 100 54 101
REMARK H PARENT 12 7 92 31 17 35 76 54 44 65
REMARK Flexibility Score: inf
ROOT
ATOM      1  C   UNL A   1      39.103  21.447  25.845  1.00  0.00     0.023 C 
ENDROOT
BRANCH   1   2
ATOM      2  C   UNL A   1      38.909  22.890  26.311  1.00  0.00     0.023 C 
BRANCH   2   3
ATOM      3  C   UNL A   1      37.539  23.486  26.001  1.00  0.00     0.116 C 
BRANCH   3   4
ATOM      4  N   UNL A   1      37.217  23.469  24.589  1.00  0.00    -0.353 N 
ATOM      5  C   UNL A   1      36.072  23.130  23.918  1.00  0.00     0.264 C 
ATOM      6  O   UNL A   1      36.100  23.326  22.698  1.00  0.00    -0.270 OA
ATOM      7  H   UNL A   1      37.958  23.752  24.004  1.00  0.00     0.163 HD
BRANCH   5   8
ATOM      8  C   UNL A   1      34.802  22.528  24.645  1.00  0.00     0.190 C 
ATOM      9  C   UNL A   1      33.642  22.602  23.660  1.00  0.00     0.080 C 
ATOM     10  C   UNL A   1      35.217  21.194  25.255  1.00  0.00     0.080 C 
ATOM     11  C   UNL A   1      33.087  21.294  23.132  1.00  0.00     0.124 C 
ATOM     12  C   UNL A   1      34.484  19.945  24.799  1.00  0.00     0.124 C 
ATOM     13  N   UNL A   1      33.365  20.068  23.864  1.00  0.00    -0.337 N 
ATOM     14  C   UNL A   1      32.596  18.947  23.492  1.00  0.00     0.274 C 
ATOM     15  O   UNL A   1      31.778  18.963  22.575  1.00  0.00    -0.267 OA
BRANCH   8  16
ATOM     16  O   UNL A   1      34.606  23.490  25.716  1.00  0.00    -0.475 OA
BRANCH  16  17
ATOM     17  C   UNL A   1      33.607  24.361  26.011  1.00  0.00     0.142 A 
ATOM     18  C   UNL A   1      31.597  22.983  26.876  1.00  0.00     0.071 C 
ATOM     19  C   UNL A   1      32.302  24.233  26.498  1.00  0.00     0.079 A 
ATOM     20  N   UNL A   1      31.477  25.309  26.698  1.00  0.00    -0.258 NA
ATOM     21  C   UNL A   1      31.936  26.541  26.425  1.00  0.00     0.111 A 
ATOM     22  C   UNL A   1      34.032  25.676  25.752  1.00  0.00     0.050 A 
ATOM     23  C   UNL A   1      33.203  26.775  25.955  1.00  0.00     0.024 A 
ENDBRANCH  16  17
ENDBRANCH   8  16
BRANCH  14  24
ATOM     24  C   UNL A   1      32.827  17.667  24.198  1.00  0.00     0.151 A 
ATOM     25  C   UNL A   1      32.153  17.401  25.378  1.00  0.00     0.042 A 
ATOM     26  N   UNL A   1      33.646  16.770  23.590  1.00  0.00    -0.142 NA
ATOM     27  C   UNL A   1      32.308  16.139  25.934  1.00  0.00     0.072 A 
ATOM     28  N   UNL A   1      33.797  15.538  24.141  1.00  0.00    -0.112 NA
ATOM     29  C   UNL A   1      33.133  15.252  25.277  1.00  0.00     0.230 A 
BRANCH  29  30
ATOM     30  O   UNL A   1      33.307  13.991  25.750  1.00  0.00    -0.492 OA
ATOM     31  H   UNL A   1      32.585  13.528  26.128  1.00  0.00     0.295 HD
ENDBRANCH  29  30
ENDBRANCH  14  24
ENDBRANCH   5   8
ENDBRANCH   3   4
ENDBRANCH   2   3
ENDBRANCH   1   2
BRANCH   1  32
ATOM     32  C   UNL A   1      39.750  20.506  26.860  1.00  0.00     0.116 C 
BRANCH  32  33
ATOM     33  N   UNL A   1      40.641  19.517  26.268  1.00  0.00    -0.352 N 
ATOM     34  C   UNL A   1      41.970  19.652  25.934  1.00  0.00     0.251 C 
ATOM     35  H   UNL A   1      40.241  18.636  26.084  1.00  0.00     0.163 HD
ATOM     36  O   UNL A   1      42.563  18.730  25.378  1.00  0.00    -0.269 OA
BRANCH  34  37
ATOM     37  C   UNL A   1      42.664  20.928  26.214  1.00  0.00     0.039 A 
ATOM     38  C   UNL A   1      42.918  21.807  25.158  1.00  0.00     0.014 A 
ATOM     39  C   UNL A   1      43.007  21.278  27.522  1.00  0.00     0.014 A 
ATOM     40  C   UNL A   1      43.440  23.076  25.426  1.00  0.00     0.010 A 
ATOM     41  C   UNL A   1      43.457  22.567  27.793  1.00  0.00     0.010 A 
ATOM     42  C   UNL A   1      43.672  23.482  26.750  1.00  0.00    -0.014 A 
BRANCH  42  43
ATOM     43  C   UNL A   1      44.112  24.864  27.077  1.00  0.00     0.031 A 
ATOM     44  C   UNL A   1      43.131  25.860  27.633  1.00  0.00     0.074 A 
ATOM     45  C   UNL A   1      45.366  25.256  26.768  1.00  0.00     0.049 A 
ATOM     46  N   UNL A   1      43.303  27.129  27.895  1.00  0.00    -0.248 NA
ATOM     47  C   UNL A   1      41.767  25.373  27.899  1.00  0.00     0.031 C 
ATOM     48  C   UNL A   1      46.387  24.413  26.142  1.00  0.00     0.029 A 
ATOM     49  N   UNL A   1      45.985  26.474  26.908  1.00  0.00    -0.354 N 
ATOM     50  C   UNL A   1      42.066  27.602  28.315  1.00  0.00     0.074 A 
ATOM     51  C   UNL A   1      41.143  26.491  28.242  1.00  0.00     0.031 C 
ATOM     52  C   UNL A   1      47.502  25.137  25.955  1.00  0.00     0.029 A 
ATOM     53  C   UNL A   1      47.270  26.501  26.419  1.00  0.00     0.049 A 
ATOM     54  H   UNL A   1      45.548  27.255  27.319  1.00  0.00     0.167 HD
ATOM     55  C   UNL A   1      41.733  28.839  28.753  1.00  0.00     0.034 A 
ATOM     56  C   UNL A   1      48.162  27.510  26.350  1.00  0.00     0.034 A 
ATOM     57  C   UNL A   1      42.665  29.927  28.881  1.00  0.00     0.049 A 
ATOM     58  C   UNL A   1      47.785  28.858  26.903  1.00  0.00     0.074 A 
ATOM     59  C   UNL A   1      42.448  31.188  29.407  1.00  0.00     0.029 A 
ATOM     60  N   UNL A   1      43.991  29.883  28.480  1.00  0.00    -0.354 N 
ATOM     61  N   UNL A   1      46.658  29.239  27.451  1.00  0.00    -0.248 NA
ATOM     62  C   UNL A   1      48.817  29.906  26.863  1.00  0.00     0.031 C 
ATOM     63  C   UNL A   1      43.642  31.911  29.312  1.00  0.00     0.029 A 
ATOM     64  C   UNL A   1      44.606  31.094  28.744  1.00  0.00     0.049 A 
ATOM     65  H   UNL A   1      44.431  29.104  28.068  1.00  0.00     0.167 HD
ATOM     66  C   UNL A   1      46.855  30.554  27.856  1.00  0.00     0.074 A 
ATOM     67  C   UNL A   1      48.217  30.899  27.506  1.00  0.00     0.031 C 
ATOM     68  C   UNL A   1      45.981  31.404  28.449  1.00  0.00     0.034 A 
BRANCH  55  69
ATOM     69  C   UNL A   1      40.311  29.067  29.193  1.00  0.00     0.023 A 
ATOM     70  C   UNL A   1      39.322  29.334  28.223  1.00  0.00     0.012 A 
ATOM     71  C   UNL A   1      39.940  28.960  30.547  1.00  0.00     0.148 A 
ATOM     72  C   UNL A   1      37.994  29.527  28.598  1.00  0.00     0.002 A 
ATOM     73  C   UNL A   1      38.606  29.111  30.908  1.00  0.00     0.091 A 
ATOM     74  F   UNL A   1      40.897  28.728  31.457  1.00  0.00    -0.205 F 
ATOM     75  C   UNL A   1      37.634  29.405  29.937  1.00  0.00     0.022 A 
BRANCH  73  76
ATOM     76  S   UNL A   1      38.031  28.897  32.596  1.00  0.00     0.127 S 
ATOM     77  O   UNL A   1      36.652  29.373  32.500  1.00  0.00    -0.237 OA
ATOM     78  O   UNL A   1      38.164  27.452  32.788  1.00  0.00    -0.237 OA
ATOM     79  O   UNL A   1      38.917  29.702  33.425  1.00  0.00    -0.744 OA
ENDBRANCH  73  76
ENDBRANCH  55  69
BRANCH  56  80
ATOM     80  C   UNL A   1      49.528  27.260  25.807  1.00  0.00     0.023 A 
ATOM     81  C   UNL A   1      50.533  26.781  26.671  1.00  0.00     0.012 A 
ATOM     82  C   UNL A   1      49.829  27.462  24.447  1.00  0.00     0.148 A 
ATOM     83  C   UNL A   1      51.822  26.538  26.197  1.00  0.00     0.002 A 
ATOM     84  C   UNL A   1      51.102  27.166  23.971  1.00  0.00     0.091 A 
ATOM     85  F   UNL A   1      48.864  27.930  23.645  1.00  0.00    -0.205 F 
ATOM     86  C   UNL A   1      52.105  26.719  24.846  1.00  0.00     0.022 A 
BRANCH  84  87
ATOM     87  S   UNL A   1      51.514  27.245  22.223  1.00  0.00     0.127 S 
ATOM     88  O   UNL A   1      50.325  26.662  21.609  1.00  0.00    -0.237 OA
ATOM     89  O   UNL A   1      51.673  28.686  22.013  1.00  0.00    -0.237 OA
ATOM     90  O   UNL A   1      52.746  26.482  22.079  1.00  0.00    -0.744 OA
ENDBRANCH  84  87
ENDBRANCH  56  80
BRANCH  68  91
ATOM     91  C   UNL A   1      46.473  32.783  28.801  1.00  0.00     0.023 A 
ATOM     92  C   UNL A   1      47.134  32.998  30.026  1.00  0.00     0.012 A 
ATOM     93  C   UNL A   1      46.355  33.843  27.881  1.00  0.00     0.148 A 
ATOM     94  C   UNL A   1      47.649  34.255  30.342  1.00  0.00     0.002 A 
ATOM     95  C   UNL A   1      46.911  35.081  28.183  1.00  0.00     0.091 A 
ATOM     96  F   UNL A   1      45.704  33.623  26.731  1.00  0.00    -0.205 F 
ATOM     97  C   UNL A   1      47.548  35.292  29.416  1.00  0.00     0.022 A 
BRANCH  95  98
ATOM     98  S   UNL A   1      46.912  36.444  27.012  1.00  0.00     0.127 S 
ATOM     99  O   UNL A   1      45.507  36.849  27.024  1.00  0.00    -0.237 OA
ATOM    100  O   UNL A   1      47.826  37.396  27.643  1.00  0.00    -0.237 OA
ATOM    101  O   UNL A   1      47.394  35.889  25.754  1.00  0.00    -0.744 OA
ENDBRANCH  95  98
ENDBRANCH  68  91
ENDBRANCH  42  43
ENDBRANCH  34  37
ENDBRANCH  32  33
ENDBRANCH   1  32
TORSDOF 18
ENDMDL
MODEL 3
REMARK VINA RESULT:     -12.5      5.735      9.600
REMARK SMILES Cc1ncccc1OC1(C(=O)NCCCCNC(=O)c2ccc(-c3c4nc(c(-c5cccc(S(=O)(=O)[O-])c5F)c5ccc([nH]5)c(-c5cccc(S(=O)(=O)[O-])c5F)c5nc(c(-c6cccc(S(=O)(=O)[O-])c6F)c6ccc3[nH]6)C=C5)C=C4)cc2)CCN(C(=O)c2ccc(O)nn2)CC1
REMARK SMILES IDX 15 1 14 2 13 3 12 4 10 5 11 6 9 8 83 9 96 10 84 11 95 12
REMARK SMILES IDX 85 13 86 14 87 15 8 16 7 17 1 18 2 19 3 20 4 21 6 22 5 23
REMARK SMILES IDX 88 24 89 25 94 26 90 27 93 28 91 29 92 30 16 32 17 33 18 34
REMARK SMILES IDX 19 36 20 37 21 38 82 39 22 40 81 41 23 42 24 43 25 44 75 45
REMARK SMILES IDX 26 46 80 47 74 48 76 49 27 50 79 51 73 52 72 53 28 55 60 56
REMARK SMILES IDX 40 57 59 58 41 59 44 60 58 61 77 62 42 63 43 64 57 66 78 67
REMARK SMILES IDX 45 68 29 69 30 70 38 71 31 72 33 73 39 74 32 75 34 76 35 77
REMARK SMILES IDX 36 78 37 79 61 80 62 81 70 82 63 83 65 84 71 85 64 86 66 87
REMARK SMILES IDX 67 88 68 89 69 90 46 91 47 92 55 93 48 94 50 95 56 96 49 97
REMARK SMILES IDX 51 98 52 99 53 100 54 101
REMARK H PARENT 12 7 92 31 17 35 76 54 44 65
REMARK Flexibility Score: inf
ROOT
ATOM      1  C   UNL A   1      33.679  31.526  27.982  1.00  0.00     0.023 C 
ENDROOT
BRANCH   1   2
ATOM      2  C   UNL A   1      34.841  30.570  27.715  1.00  0.00     0.023 C 
BRANCH   2   3
ATOM      3  C   UNL A   1      34.468  29.299  26.958  1.00  0.00     0.116 C 
BRANCH   3   4
ATOM      4  N   UNL A   1      33.314  28.623  27.516  1.00  0.00    -0.353 N 
ATOM      5  C   UNL A   1      32.274  27.956  26.925  1.00  0.00     0.264 C 
ATOM      6  O   UNL A   1      31.494  27.400  27.707  1.00  0.00    -0.270 OA
ATOM      7  H   UNL A   1      33.269  28.649  28.499  1.00  0.00     0.163 HD
BRANCH   5   8
ATOM      8  C   UNL A   1      32.075  27.898  25.357  1.00  0.00     0.190 C 
ATOM      9  C   UNL A   1      31.020  26.836  25.074  1.00  0.00     0.080 C 
ATOM     10  C   UNL A   1      31.884  29.330  24.870  1.00  0.00     0.080 C 
ATOM     11  C   UNL A   1      29.689  27.301  24.518  1.00  0.00     0.124 C 
ATOM     12  C   UNL A   1      30.586  29.671  24.159  1.00  0.00     0.124 C 
ATOM     13  N   UNL A   1      29.610  28.614  23.896  1.00  0.00    -0.337 N 
ATOM     14  C   UNL A   1      28.438  28.868  23.154  1.00  0.00     0.274 C 
ATOM     15  O   UNL A   1      27.506  28.071  23.069  1.00  0.00    -0.267 OA
BRANCH   8  16
ATOM     16  O   UNL A   1      33.381  27.429  24.923  1.00  0.00    -0.475 OA
BRANCH  16  17
ATOM     17  C   UNL A   1      33.807  26.282  24.334  1.00  0.00     0.142 A 
ATOM     18  C   UNL A   1      33.092  26.366  21.850  1.00  0.00     0.071 C 
ATOM     19  C   UNL A   1      33.722  25.749  23.043  1.00  0.00     0.079 A 
ATOM     20  N   UNL A   1      34.243  24.525  22.711  1.00  0.00    -0.258 NA
ATOM     21  C   UNL A   1      34.870  23.807  23.656  1.00  0.00     0.111 A 
ATOM     22  C   UNL A   1      34.482  25.486  25.276  1.00  0.00     0.050 A 
ATOM     23  C   UNL A   1      35.019  24.245  24.948  1.00  0.00     0.024 A 
ENDBRANCH  16  17
ENDBRANCH   8  16
BRANCH  14  24
ATOM     24  C   UNL A   1      28.293  30.184  22.493  1.00  0.00     0.151 A 
ATOM     25  C   UNL A   1      28.357  30.271  21.112  1.00  0.00     0.042 A 
ATOM     26  N   UNL A   1      28.019  31.246  23.293  1.00  0.00    -0.142 NA
ATOM     27  C   UNL A   1      28.090  31.505  20.535  1.00  0.00     0.072 A 
ATOM     28  N   UNL A   1      27.763  32.452  22.724  1.00  0.00    -0.112 NA
ATOM     29  C   UNL A   1      27.798  32.552  21.381  1.00  0.00     0.230 A 
BRANCH  29  30
ATOM     30  O   UNL A   1      27.500  33.780  20.882  1.00  0.00    -0.492 OA
ATOM     31  H   UNL A   1      27.051  34.406  21.417  1.00  0.00     0.295 HD
ENDBRANCH  29  30
ENDBRANCH  14  24
ENDBRANCH   5   8
ENDBRANCH   3   4
ENDBRANCH   2   3
ENDBRANCH   1   2
BRANCH   1  32
ATOM     32  C   UNL A   1      33.877  32.960  27.495  1.00  0.00     0.116 C 
BRANCH  32  33
ATOM     33  N   UNL A   1      33.177  33.960  28.292  1.00  0.00    -0.352 N 
ATOM     34  C   UNL A   1      33.452  34.380  29.574  1.00  0.00     0.251 C 
ATOM     35  H   UNL A   1      32.407  34.392  27.855  1.00  0.00     0.163 HD
ATOM     36  O   UNL A   1      32.716  35.193  30.128  1.00  0.00    -0.269 OA
BRANCH  34  37
ATOM     37  C   UNL A   1      34.615  33.814  30.290  1.00  0.00     0.039 A 
ATOM     38  C   UNL A   1      34.402  32.833  31.262  1.00  0.00     0.014 A 
ATOM     39  C   UNL A   1      35.914  34.208  29.960  1.00  0.00     0.014 A 
ATOM     40  C   UNL A   1      35.496  32.186  31.843  1.00  0.00     0.010 A 
ATOM     41  C   UNL A   1      36.999  33.512  30.485  1.00  0.00     0.010 A 
ATOM     42  C   UNL A   1      36.803  32.490  31.426  1.00  0.00    -0.014 A 
BRANCH  42  43
ATOM     43  C   UNL A   1      37.979  31.737  31.936  1.00  0.00     0.031 A 
ATOM     44  C   UNL A   1      38.632  32.139  33.231  1.00  0.00     0.074 A 
ATOM     45  C   UNL A   1      38.528  30.764  31.180  1.00  0.00     0.049 A 
ATOM     46  N   UNL A   1      39.713  31.664  33.791  1.00  0.00    -0.248 NA
ATOM     47  C   UNL A   1      38.005  33.243  33.978  1.00  0.00     0.031 C 
ATOM     48  C   UNL A   1      38.044  30.339  29.864  1.00  0.00     0.029 A 
ATOM     49  N   UNL A   1      39.634  29.978  31.394  1.00  0.00    -0.354 N 
ATOM     50  C   UNL A   1      39.921  32.433  34.930  1.00  0.00     0.074 A 
ATOM     51  C   UNL A   1      38.872  33.428  34.964  1.00  0.00     0.031 C 
ATOM     52  C   UNL A   1      38.847  29.372  29.392  1.00  0.00     0.029 A 
ATOM     53  C   UNL A   1      39.916  29.124  30.353  1.00  0.00     0.049 A 
ATOM     54  H   UNL A   1      40.174  30.022  32.216  1.00  0.00     0.167 HD
ATOM     55  C   UNL A   1      40.878  32.305  35.879  1.00  0.00     0.034 A 
ATOM     56  C   UNL A   1      40.923  28.244  30.189  1.00  0.00     0.034 A 
ATOM     57  C   UNL A   1      41.885  31.279  35.874  1.00  0.00     0.049 A 
ATOM     58  C   UNL A   1      41.937  28.078  31.290  1.00  0.00     0.074 A 
ATOM     59  C   UNL A   1      42.838  31.004  36.840  1.00  0.00     0.029 A 
ATOM     60  N   UNL A   1      42.071  30.358  34.855  1.00  0.00    -0.354 N 
ATOM     61  N   UNL A   1      42.017  28.704  32.438  1.00  0.00    -0.248 NA
ATOM     62  C   UNL A   1      42.977  27.057  31.089  1.00  0.00     0.031 C 
ATOM     63  C   UNL A   1      43.607  29.923  36.398  1.00  0.00     0.029 A 
ATOM     64  C   UNL A   1      43.123  29.515  35.166  1.00  0.00     0.049 A 
ATOM     65  H   UNL A   1      41.533  30.310  34.032  1.00  0.00     0.167 HD
ATOM     66  C   UNL A   1      43.088  28.129  33.113  1.00  0.00     0.074 A 
ATOM     67  C   UNL A   1      43.615  27.091  32.251  1.00  0.00     0.031 C 
ATOM     68  C   UNL A   1      43.598  28.443  34.328  1.00  0.00     0.034 A 
BRANCH  55  69
ATOM     69  C   UNL A   1      40.841  33.260  37.043  1.00  0.00     0.023 A 
ATOM     70  C   UNL A   1      39.974  32.999  38.124  1.00  0.00     0.012 A 
ATOM     71  C   UNL A   1      41.697  34.377  37.098  1.00  0.00     0.148 A 
ATOM     72  C   UNL A   1      39.934  33.852  39.224  1.00  0.00     0.002 A 
ATOM     73  C   UNL A   1      41.682  35.199  38.219  1.00  0.00     0.091 A 
ATOM     74  F   UNL A   1      42.499  34.622  36.051  1.00  0.00    -0.205 F 
ATOM     75  C   UNL A   1      40.794  34.945  39.277  1.00  0.00     0.022 A 
BRANCH  73  76
ATOM     76  S   UNL A   1      42.805  36.587  38.415  1.00  0.00     0.127 S 
ATOM     77  O   UNL A   1      44.070  35.907  38.690  1.00  0.00    -0.237 OA
ATOM     78  O   UNL A   1      42.734  37.231  37.102  1.00  0.00    -0.237 OA
ATOM     79  O   UNL A   1      42.269  37.384  39.509  1.00  0.00    -0.744 OA
ENDBRANCH  73  76
ENDBRANCH  55  69
BRANCH  56  80
ATOM     80  C   UNL A   1      40.975  27.392  28.967  1.00  0.00     0.023 A 
ATOM     81  C   UNL A   1      40.053  26.336  28.825  1.00  0.00     0.012 A 
ATOM     82  C   UNL A   1      41.903  27.635  27.937  1.00  0.00     0.148 A 
ATOM     83  C   UNL A   1      40.074  25.518  27.695  1.00  0.00     0.002 A 
ATOM     84  C   UNL A   1      41.883  26.850  26.789  1.00  0.00     0.091 A 
ATOM     85  F   UNL A   1      42.781  28.634  28.095  1.00  0.00    -0.205 F 
ATOM     86  C   UNL A   1      40.981  25.781  26.673  1.00  0.00     0.022 A 
BRANCH  84  87
ATOM     87  S   UNL A   1      42.927  27.201  25.369  1.00  0.00     0.127 S 
ATOM     88  O   UNL A   1      42.871  25.940  24.636  1.00  0.00    -0.237 OA
ATOM     89  O   UNL A   1      42.216  28.314  24.736  1.00  0.00    -0.237 OA
ATOM     90  O   UNL A   1      44.226  27.561  25.920  1.00  0.00    -0.744 OA
ENDBRANCH  84  87
ENDBRANCH  56  80
BRANCH  68  91
ATOM     91  C   UNL A   1      44.765  27.634  34.831  1.00  0.00     0.023 A 
ATOM     92  C   UNL A   1      46.076  28.123  34.666  1.00  0.00     0.012 A 
ATOM     93  C   UNL A   1      44.555  26.436  35.540  1.00  0.00     0.148 A 
ATOM     94  C   UNL A   1      47.163  27.417  35.178  1.00  0.00     0.002 A 
ATOM     95  C   UNL A   1      45.640  25.762  36.088  1.00  0.00     0.091 A 
ATOM     96  F   UNL A   1      43.302  25.978  35.668  1.00  0.00    -0.205 F 
ATOM     97  C   UNL A   1      46.945  26.245  35.899  1.00  0.00     0.022 A 
BRANCH  95  98
ATOM     98  S   UNL A   1      45.444  24.298  37.111  1.00  0.00     0.127 S 
ATOM     99  O   UNL A   1      46.830  23.992  37.463  1.00  0.00    -0.237 OA
ATOM    100  O   UNL A   1      44.630  24.799  38.219  1.00  0.00    -0.237 OA
ATOM    101  O   UNL A   1      44.776  23.311  36.273  1.00  0.00    -0.744 OA
ENDBRANCH  95  98
ENDBRANCH  68  91
ENDBRANCH  42  43
ENDBRANCH  34  37
ENDBRANCH  32  33
ENDBRANCH   1  32
TORSDOF 18
ENDMDL
