MODEL 1
REMARK VINA RESULT:     -12.5      0.000      0.000
REMARK SMILES C/C(=N\Nc1ccccc1C(=O)NCCCCNC(=O)c1ccc(-c2c3nc(c(-c4cccc(S(=O)(=O)[O-])c4F)c4ccc([nH]4)c(-c4cccc(S(=O)(=O)[O-])c4F)c4nc(c(-c5cccc(S(=O)(=O)[O-])c5F)c5ccc2[nH]5)C=C4)C=C3)cc1)c1ccc(S(C)(=O)=O)cc1
REMARK SMILES IDX 15 1 14 2 13 3 11 4 12 5 10 7 5 8 6 9 7 10 9 11 8 12 4 13
REMARK SMILES IDX 3 15 1 16 2 17 84 18 85 19 93 20 86 21 92 22 87 23 88 24
REMARK SMILES IDX 89 25 90 26 91 27 16 28 17 29 18 30 19 31 20 33 21 34 22 35
REMARK SMILES IDX 83 36 23 37 82 38 24 39 25 40 26 41 76 42 27 43 81 44 75 45
REMARK SMILES IDX 77 46 28 47 80 48 74 49 73 50 29 52 61 53 41 54 60 55 42 56
REMARK SMILES IDX 45 57 59 58 78 59 43 60 44 61 58 63 79 64 46 65 30 66 31 67
REMARK SMILES IDX 39 68 32 69 34 70 40 71 33 72 35 73 36 74 37 75 38 76 62 77
REMARK SMILES IDX 63 78 71 79 64 80 66 81 72 82 65 83 67 84 68 85 69 86 70 87
REMARK SMILES IDX 47 88 48 89 56 90 49 91 51 92 57 93 50 94 52 95 53 96 54 97
REMARK SMILES IDX 55 98
REMARK H PARENT 13 6 4 14 18 32 77 51 45 62
REMARK Flexibility Score: inf
ROOT
ATOM      1  C   UNL A   1      32.059  27.664  26.959  1.00  0.00     0.023 C 
ENDROOT
BRANCH   1   2
ATOM      2  C   UNL A   1      32.802  26.559  26.208  1.00  0.00     0.116 C 
BRANCH   2   3
ATOM      3  N   UNL A   1      32.217  25.240  26.360  1.00  0.00    -0.352 N 
ATOM      4  C   UNL A   1      32.789  24.009  26.128  1.00  0.00     0.253 C 
ATOM      5  O   UNL A   1      32.153  22.992  26.407  1.00  0.00    -0.269 OA
ATOM      6  H   UNL A   1      31.283  25.222  26.671  1.00  0.00     0.163 HD
BRANCH   4   7
ATOM      7  C   UNL A   1      34.098  23.858  25.439  1.00  0.00     0.064 A 
ATOM      8  C   UNL A   1      34.290  23.757  24.052  1.00  0.00     0.069 A 
ATOM      9  C   UNL A   1      35.602  23.502  23.585  1.00  0.00     0.028 A 
ATOM     10  C   UNL A   1      36.699  23.461  24.446  1.00  0.00     0.002 A 
ATOM     11  C   UNL A   1      35.218  23.857  26.297  1.00  0.00     0.016 A 
ATOM     12  C   UNL A   1      36.511  23.676  25.804  1.00  0.00     0.001 A 
BRANCH   8  13
ATOM     13  N   UNL A   1      33.351  24.077  23.047  1.00  0.00    -0.277 N 
ATOM     14  H   UNL A   1      33.209  23.409  22.338  1.00  0.00     0.190 HD
BRANCH  13  15
ATOM     15  N   UNL A   1      32.632  25.216  22.971  1.00  0.00    -0.180 NA
ATOM     16  C   UNL A   1      30.475  23.943  23.231  1.00  0.00     0.069 C 
ATOM     17  C   UNL A   1      31.334  25.181  23.083  1.00  0.00     0.065 C 
BRANCH  17  18
ATOM     18  C   UNL A   1      30.612  26.477  23.056  1.00  0.00    -0.002 A 
ATOM     19  C   UNL A   1      29.309  26.560  23.556  1.00  0.00     0.011 A 
ATOM     20  C   UNL A   1      31.237  27.604  22.515  1.00  0.00     0.011 A 
ATOM     21  C   UNL A   1      28.630  27.781  23.536  1.00  0.00     0.021 A 
ATOM     22  C   UNL A   1      30.567  28.826  22.498  1.00  0.00     0.021 A 
ATOM     23  C   UNL A   1      29.267  28.908  23.007  1.00  0.00     0.067 A 
BRANCH  23  24
ATOM     24  S   UNL A   1      28.464  30.496  23.099  1.00  0.00     0.175 S 
ATOM     25  C   UNL A   1      28.569  31.126  21.445  1.00  0.00     0.163 C 
ATOM     26  O   UNL A   1      27.076  30.239  23.419  1.00  0.00    -0.224 OA
ATOM     27  O   UNL A   1      29.287  31.333  23.954  1.00  0.00    -0.224 OA
ENDBRANCH  23  24
ENDBRANCH  17  18
ENDBRANCH  13  15
ENDBRANCH   8  13
ENDBRANCH   4   7
ENDBRANCH   2   3
ENDBRANCH   1   2
BRANCH   1  28
ATOM     28  C   UNL A   1      31.577  28.852  26.118  1.00  0.00     0.023 C 
BRANCH  28  29
ATOM     29  C   UNL A   1      32.601  29.944  25.810  1.00  0.00     0.116 C 
BRANCH  29  30
ATOM     30  N   UNL A   1      32.368  31.208  26.495  1.00  0.00    -0.352 N 
ATOM     31  C   UNL A   1      33.188  31.941  27.323  1.00  0.00     0.251 C 
ATOM     32  H   UNL A   1      31.479  31.603  26.340  1.00  0.00     0.163 HD
ATOM     33  O   UNL A   1      32.783  32.995  27.809  1.00  0.00    -0.269 OA
BRANCH  31  34
ATOM     34  C   UNL A   1      34.533  31.442  27.685  1.00  0.00     0.039 A 
ATOM     35  C   UNL A   1      35.561  32.374  27.856  1.00  0.00     0.014 A 
ATOM     36  C   UNL A   1      34.783  30.082  27.893  1.00  0.00     0.014 A 
ATOM     37  C   UNL A   1      36.797  31.960  28.361  1.00  0.00     0.010 A 
ATOM     38  C   UNL A   1      35.993  29.681  28.460  1.00  0.00     0.010 A 
ATOM     39  C   UNL A   1      36.999  30.621  28.734  1.00  0.00    -0.014 A 
BRANCH  39  40
ATOM     40  C   UNL A   1      38.199  30.222  29.519  1.00  0.00     0.031 A 
ATOM     41  C   UNL A   1      39.181  29.216  28.990  1.00  0.00     0.074 A 
ATOM     42  C   UNL A   1      38.344  30.701  30.772  1.00  0.00     0.049 A 
ATOM     43  N   UNL A   1      40.246  28.725  29.569  1.00  0.00    -0.248 NA
ATOM     44  C   UNL A   1      38.927  28.678  27.645  1.00  0.00     0.031 C 
ATOM     45  C   UNL A   1      37.415  31.620  31.438  1.00  0.00     0.029 A 
ATOM     46  N   UNL A   1      39.307  30.464  31.722  1.00  0.00    -0.354 N 
ATOM     47  C   UNL A   1      40.776  27.802  28.677  1.00  0.00     0.074 A 
ATOM     48  C   UNL A   1      39.899  27.783  27.524  1.00  0.00     0.031 C 
ATOM     49  C   UNL A   1      37.852  31.866  32.682  1.00  0.00     0.029 A 
ATOM     50  C   UNL A   1      39.071  31.100  32.920  1.00  0.00     0.049 A 
ATOM     51  H   UNL A   1      40.091  29.891  31.562  1.00  0.00     0.167 HD
ATOM     52  C   UNL A   1      41.903  27.058  28.794  1.00  0.00     0.034 A 
ATOM     53  C   UNL A   1      39.748  31.064  34.085  1.00  0.00     0.034 A 
ATOM     54  C   UNL A   1      42.792  27.102  29.925  1.00  0.00     0.049 A 
ATOM     55  C   UNL A   1      41.002  30.241  34.180  1.00  0.00     0.074 A 
ATOM     56  C   UNL A   1      44.009  26.463  30.087  1.00  0.00     0.029 A 
ATOM     57  N   UNL A   1      42.556  27.809  31.094  1.00  0.00    -0.354 N 
ATOM     58  N   UNL A   1      41.585  29.516  33.256  1.00  0.00    -0.248 NA
ATOM     59  C   UNL A   1      41.710  30.253  35.469  1.00  0.00     0.031 C 
ATOM     60  C   UNL A   1      44.496  26.760  31.364  1.00  0.00     0.029 A 
ATOM     61  C   UNL A   1      43.593  27.604  31.990  1.00  0.00     0.049 A 
ATOM     62  H   UNL A   1      41.768  28.374  31.263  1.00  0.00     0.167 HD
ATOM     63  C   UNL A   1      42.736  29.004  33.843  1.00  0.00     0.074 A 
ATOM     64  C   UNL A   1      42.786  29.528  35.193  1.00  0.00     0.031 C 
ATOM     65  C   UNL A   1      43.658  28.160  33.318  1.00  0.00     0.034 A 
BRANCH  52  66
ATOM     66  C   UNL A   1      42.277  26.167  27.638  1.00  0.00     0.023 A 
ATOM     67  C   UNL A   1      43.100  26.674  26.613  1.00  0.00     0.012 A 
ATOM     68  C   UNL A   1      41.879  24.816  27.602  1.00  0.00     0.148 A 
ATOM     69  C   UNL A   1      43.500  25.860  25.553  1.00  0.00     0.002 A 
ATOM     70  C   UNL A   1      42.315  24.000  26.565  1.00  0.00     0.091 A 
ATOM     71  F   UNL A   1      41.080  24.358  28.575  1.00  0.00    -0.205 F 
ATOM     72  C   UNL A   1      43.116  24.522  25.534  1.00  0.00     0.022 A 
BRANCH  70  73
ATOM     73  S   UNL A   1      41.936  22.245  26.487  1.00  0.00     0.127 S 
ATOM     74  O   UNL A   1      42.650  21.845  25.274  1.00  0.00    -0.237 OA
ATOM     75  O   UNL A   1      42.525  21.748  27.731  1.00  0.00    -0.237 OA
ATOM     76  O   UNL A   1      40.486  22.152  26.421  1.00  0.00    -0.744 OA
ENDBRANCH  70  73
ENDBRANCH  52  66
BRANCH  53  77
ATOM     77  C   UNL A   1      39.276  31.875  35.244  1.00  0.00     0.023 A 
ATOM     78  C   UNL A   1      38.402  31.294  36.184  1.00  0.00     0.012 A 
ATOM     79  C   UNL A   1      39.709  33.201  35.436  1.00  0.00     0.148 A 
ATOM     80  C   UNL A   1      37.946  32.029  37.279  1.00  0.00     0.002 A 
ATOM     81  C   UNL A   1      39.296  33.908  36.560  1.00  0.00     0.091 A 
ATOM     82  F   UNL A   1      40.527  33.741  34.522  1.00  0.00    -0.205 F 
ATOM     83  C   UNL A   1      38.401  33.330  37.473  1.00  0.00     0.022 A 
BRANCH  81  84
ATOM     84  S   UNL A   1      39.942  35.535  36.961  1.00  0.00     0.127 S 
ATOM     85  O   UNL A   1      39.535  36.315  35.795  1.00  0.00    -0.237 OA
ATOM     86  O   UNL A   1      39.223  35.851  38.196  1.00  0.00    -0.237 OA
ATOM     87  O   UNL A   1      41.377  35.352  37.136  1.00  0.00    -0.744 OA
ENDBRANCH  81  84
ENDBRANCH  53  77
BRANCH  65  88
ATOM     88  C   UNL A   1      44.808  27.747  34.199  1.00  0.00     0.023 A 
ATOM     89  C   UNL A   1      45.972  28.542  34.240  1.00  0.00     0.012 A 
ATOM     90  C   UNL A   1      44.713  26.616  35.035  1.00  0.00     0.148 A 
ATOM     91  C   UNL A   1      47.035  28.201  35.075  1.00  0.00     0.002 A 
ATOM     92  C   UNL A   1      45.759  26.310  35.900  1.00  0.00     0.091 A 
ATOM     93  F   UNL A   1      43.606  25.864  34.969  1.00  0.00    -0.205 F 
ATOM     94  C   UNL A   1      46.923  27.093  35.912  1.00  0.00     0.022 A 
BRANCH  92  95
ATOM     95  S   UNL A   1      45.671  24.957  37.079  1.00  0.00     0.127 S 
ATOM     96  O   UNL A   1      44.447  25.279  37.812  1.00  0.00    -0.237 OA
ATOM     97  O   UNL A   1      45.569  23.790  36.204  1.00  0.00    -0.237 OA
ATOM     98  O   UNL A   1      46.900  25.023  37.859  1.00  0.00    -0.744 OA
ENDBRANCH  92  95
ENDBRANCH  65  88
ENDBRANCH  39  40
ENDBRANCH  31  34
ENDBRANCH  29  30
ENDBRANCH  28  29
ENDBRANCH   1  28
TORSDOF 18
ENDMDL
MODEL 2
REMARK VINA RESULT:     -12.3      5.294     10.239
REMARK SMILES C/C(=N\Nc1ccccc1C(=O)NCCCCNC(=O)c1ccc(-c2c3nc(c(-c4cccc(S(=O)(=O)[O-])c4F)c4ccc([nH]4)c(-c4cccc(S(=O)(=O)[O-])c4F)c4nc(c(-c5cccc(S(=O)(=O)[O-])c5F)c5ccc2[nH]5)C=C4)C=C3)cc1)c1ccc(S(C)(=O)=O)cc1
REMARK SMILES IDX 15 1 14 2 13 3 11 4 12 5 10 7 5 8 6 9 7 10 9 11 8 12 4 13
REMARK SMILES IDX 3 15 1 16 2 17 84 18 85 19 93 20 86 21 92 22 87 23 88 24
REMARK SMILES IDX 89 25 90 26 91 27 16 28 17 29 18 30 19 31 20 33 21 34 22 35
REMARK SMILES IDX 83 36 23 37 82 38 24 39 25 40 26 41 76 42 27 43 81 44 75 45
REMARK SMILES IDX 77 46 28 47 80 48 74 49 73 50 29 52 61 53 41 54 60 55 42 56
REMARK SMILES IDX 45 57 59 58 78 59 43 60 44 61 58 63 79 64 46 65 30 66 31 67
REMARK SMILES IDX 39 68 32 69 34 70 40 71 33 72 35 73 36 74 37 75 38 76 62 77
REMARK SMILES IDX 63 78 71 79 64 80 66 81 72 82 65 83 67 84 68 85 69 86 70 87
REMARK SMILES IDX 47 88 48 89 56 90 49 91 51 92 57 93 50 94 52 95 53 96 54 97
REMARK SMILES IDX 55 98
REMARK H PARENT 13 6 4 14 18 32 77 51 45 62
REMARK Flexibility Score: inf
ROOT
ATOM      1  C   UNL A   1      35.972  23.449  23.849  1.00  0.00     0.023 C 
ENDROOT
BRANCH   1   2
ATOM      2  C   UNL A   1      34.838  24.300  24.419  1.00  0.00     0.116 C 
BRANCH   2   3
ATOM      3  N   UNL A   1      34.100  25.054  23.423  1.00  0.00    -0.352 N 
ATOM      4  C   UNL A   1      33.426  26.246  23.565  1.00  0.00     0.253 C 
ATOM      5  O   UNL A   1      32.935  26.777  22.568  1.00  0.00    -0.269 OA
ATOM      6  H   UNL A   1      34.077  24.658  22.522  1.00  0.00     0.163 HD
BRANCH   4   7
ATOM      7  C   UNL A   1      33.162  26.856  24.894  1.00  0.00     0.064 A 
ATOM      8  C   UNL A   1      32.072  26.567  25.730  1.00  0.00     0.069 A 
ATOM      9  C   UNL A   1      31.924  27.333  26.911  1.00  0.00     0.028 A 
ATOM     10  C   UNL A   1      32.878  28.273  27.307  1.00  0.00     0.002 A 
ATOM     11  C   UNL A   1      34.141  27.777  25.324  1.00  0.00     0.016 A 
ATOM     12  C   UNL A   1      34.009  28.469  26.530  1.00  0.00     0.001 A 
BRANCH   8  13
ATOM     13  N   UNL A   1      31.205  25.457  25.628  1.00  0.00    -0.277 N 
ATOM     14  H   UNL A   1      30.238  25.641  25.640  1.00  0.00     0.190 HD
BRANCH  13  15
ATOM     15  N   UNL A   1      31.583  24.166  25.517  1.00  0.00    -0.180 NA
ATOM     16  C   UNL A   1      30.493  23.979  23.255  1.00  0.00     0.069 C 
ATOM     17  C   UNL A   1      31.298  23.490  24.440  1.00  0.00     0.065 C 
BRANCH  17  18
ATOM     18  C   UNL A   1      31.802  22.097  24.356  1.00  0.00    -0.002 A 
ATOM     19  C   UNL A   1      32.115  21.396  25.526  1.00  0.00     0.011 A 
ATOM     20  C   UNL A   1      31.975  21.500  23.104  1.00  0.00     0.011 A 
ATOM     21  C   UNL A   1      32.585  20.083  25.448  1.00  0.00     0.021 A 
ATOM     22  C   UNL A   1      32.438  20.188  23.021  1.00  0.00     0.021 A 
ATOM     23  C   UNL A   1      32.741  19.487  24.193  1.00  0.00     0.067 A 
BRANCH  23  24
ATOM     24  S   UNL A   1      33.209  17.771  24.087  1.00  0.00     0.175 S 
ATOM     25  C   UNL A   1      34.974  17.796  24.259  1.00  0.00     0.163 C 
ATOM     26  O   UNL A   1      32.633  17.113  25.240  1.00  0.00    -0.224 OA
ATOM     27  O   UNL A   1      32.893  17.332  22.740  1.00  0.00    -0.224 OA
ENDBRANCH  23  24
ENDBRANCH  17  18
ENDBRANCH  13  15
ENDBRANCH   8  13
ENDBRANCH   4   7
ENDBRANCH   2   3
ENDBRANCH   1   2
BRANCH   1  28
ATOM     28  C   UNL A   1      35.946  21.957  24.203  1.00  0.00     0.023 C 
BRANCH  28  29
ATOM     29  C   UNL A   1      36.553  21.551  25.545  1.00  0.00     0.116 C 
BRANCH  29  30
ATOM     30  N   UNL A   1      37.716  20.679  25.448  1.00  0.00    -0.352 N 
ATOM     31  C   UNL A   1      39.009  20.861  25.884  1.00  0.00     0.251 C 
ATOM     32  H   UNL A   1      37.549  19.819  24.999  1.00  0.00     0.163 HD
ATOM     33  O   UNL A   1      39.849  19.985  25.690  1.00  0.00    -0.269 OA
BRANCH  31  34
ATOM     34  C   UNL A   1      39.415  22.128  26.531  1.00  0.00     0.039 A 
ATOM     35  C   UNL A   1      40.462  22.093  27.457  1.00  0.00     0.014 A 
ATOM     36  C   UNL A   1      38.807  23.346  26.211  1.00  0.00     0.014 A 
ATOM     37  C   UNL A   1      40.985  23.288  27.960  1.00  0.00     0.010 A 
ATOM     38  C   UNL A   1      39.373  24.540  26.662  1.00  0.00     0.010 A 
ATOM     39  C   UNL A   1      40.491  24.523  27.511  1.00  0.00    -0.014 A 
BRANCH  39  40
ATOM     40  C   UNL A   1      41.209  25.789  27.823  1.00  0.00     0.031 A 
ATOM     41  C   UNL A   1      40.527  26.920  28.537  1.00  0.00     0.074 A 
ATOM     42  C   UNL A   1      42.466  25.954  27.358  1.00  0.00     0.049 A 
ATOM     43  N   UNL A   1      40.995  28.104  28.837  1.00  0.00    -0.248 NA
ATOM     44  C   UNL A   1      39.132  26.704  28.953  1.00  0.00     0.031 C 
ATOM     45  C   UNL A   1      43.214  24.965  26.576  1.00  0.00     0.029 A 
ATOM     46  N   UNL A   1      43.328  27.019  27.450  1.00  0.00    -0.354 N 
ATOM     47  C   UNL A   1      39.952  28.785  29.451  1.00  0.00     0.074 A 
ATOM     48  C   UNL A   1      38.814  27.889  29.459  1.00  0.00     0.031 C 
ATOM     49  C   UNL A   1      44.415  25.469  26.261  1.00  0.00     0.029 A 
ATOM     50  C   UNL A   1      44.517  26.826  26.784  1.00  0.00     0.049 A 
ATOM     51  H   UNL A   1      43.114  27.844  27.943  1.00  0.00     0.167 HD
ATOM     52  C   UNL A   1      39.949  30.031  29.984  1.00  0.00     0.034 A 
ATOM     53  C   UNL A   1      45.568  27.650  26.602  1.00  0.00     0.034 A 
ATOM     54  C   UNL A   1      41.089  30.909  30.006  1.00  0.00     0.049 A 
ATOM     55  C   UNL A   1      45.541  29.022  27.218  1.00  0.00     0.074 A 
ATOM     56  C   UNL A   1      41.209  32.147  30.614  1.00  0.00     0.029 A 
ATOM     57  N   UNL A   1      42.300  30.654  29.381  1.00  0.00    -0.354 N 
ATOM     58  N   UNL A   1      44.610  29.577  27.955  1.00  0.00    -0.248 NA
ATOM     59  C   UNL A   1      46.722  29.871  27.002  1.00  0.00     0.031 C 
ATOM     60  C   UNL A   1      42.482  32.653  30.333  1.00  0.00     0.029 A 
ATOM     61  C   UNL A   1      43.164  31.721  29.569  1.00  0.00     0.049 A 
ATOM     62  H   UNL A   1      42.514  29.836  28.877  1.00  0.00     0.167 HD
ATOM     63  C   UNL A   1      45.099  30.829  28.307  1.00  0.00     0.074 A 
ATOM     64  C   UNL A   1      46.424  30.938  27.731  1.00  0.00     0.031 C 
ATOM     65  C   UNL A   1      44.497  31.808  29.027  1.00  0.00     0.034 A 
BRANCH  52  66
ATOM     66  C   UNL A   1      38.681  30.506  30.646  1.00  0.00     0.023 A 
ATOM     67  C   UNL A   1      38.529  30.354  32.038  1.00  0.00     0.012 A 
ATOM     68  C   UNL A   1      37.679  31.166  29.909  1.00  0.00     0.148 A 
ATOM     69  C   UNL A   1      37.386  30.824  32.685  1.00  0.00     0.002 A 
ATOM     70  C   UNL A   1      36.561  31.669  30.566  1.00  0.00     0.091 A 
ATOM     71  F   UNL A   1      37.832  31.284  28.582  1.00  0.00    -0.205 F 
ATOM     72  C   UNL A   1      36.409  31.489  31.951  1.00  0.00     0.022 A 
BRANCH  70  73
ATOM     73  S   UNL A   1      35.280  32.605  29.723  1.00  0.00     0.127 S 
ATOM     74  O   UNL A   1      36.045  33.730  29.186  1.00  0.00    -0.237 OA
ATOM     75  O   UNL A   1      34.813  31.651  28.717  1.00  0.00    -0.237 OA
ATOM     76  O   UNL A   1      34.298  32.944  30.742  1.00  0.00    -0.744 OA
ENDBRANCH  70  73
ENDBRANCH  52  66
BRANCH  53  77
ATOM     77  C   UNL A   1      46.760  27.178  25.840  1.00  0.00     0.023 A 
ATOM     78  C   UNL A   1      47.619  26.226  26.421  1.00  0.00     0.012 A 
ATOM     79  C   UNL A   1      47.029  27.642  24.538  1.00  0.00     0.148 A 
ATOM     80  C   UNL A   1      48.740  25.765  25.730  1.00  0.00     0.002 A 
ATOM     81  C   UNL A   1      48.115  27.137  23.834  1.00  0.00     0.091 A 
ATOM     82  F   UNL A   1      46.208  28.561  24.009  1.00  0.00    -0.205 F 
ATOM     83  C   UNL A   1      48.982  26.211  24.434  1.00  0.00     0.022 A 
BRANCH  81  84
ATOM     84  S   UNL A   1      48.419  27.550  22.112  1.00  0.00     0.127 S 
ATOM     85  O   UNL A   1      49.514  28.510  22.223  1.00  0.00    -0.237 OA
ATOM     86  O   UNL A   1      48.792  26.251  21.549  1.00  0.00    -0.237 OA
ATOM     87  O   UNL A   1      47.157  28.077  21.609  1.00  0.00    -0.744 OA
ENDBRANCH  81  84
ENDBRANCH  53  77
BRANCH  65  88
ATOM     88  C   UNL A   1      45.263  33.088  29.241  1.00  0.00     0.023 A 
ATOM     89  C   UNL A   1      46.092  33.220  30.373  1.00  0.00     0.012 A 
ATOM     90  C   UNL A   1      45.215  34.129  28.293  1.00  0.00     0.148 A 
ATOM     91  C   UNL A   1      46.839  34.380  30.574  1.00  0.00     0.002 A 
ATOM     92  C   UNL A   1      46.000  35.263  28.476  1.00  0.00     0.091 A 
ATOM     93  F   UNL A   1      44.407  33.992  27.232  1.00  0.00    -0.205 F 
ATOM     94  C   UNL A   1      46.801  35.395  29.620  1.00  0.00     0.022 A 
BRANCH  92  95
ATOM     95  S   UNL A   1      46.087  36.584  27.260  1.00  0.00     0.127 S 
ATOM     96  O   UNL A   1      44.706  37.064  27.242  1.00  0.00    -0.237 OA
ATOM     97  O   UNL A   1      47.045  37.504  27.871  1.00  0.00    -0.237 OA
ATOM     98  O   UNL A   1      46.547  35.963  26.025  1.00  0.00    -0.744 OA
ENDBRANCH  92  95
ENDBRANCH  65  88
ENDBRANCH  39  40
ENDBRANCH  31  34
ENDBRANCH  29  30
ENDBRANCH  28  29
ENDBRANCH   1  28
TORSDOF 18
ENDMDL
MODEL 3
REMARK VINA RESULT:     -12.3      4.877      8.067
REMARK SMILES C/C(=N\Nc1ccccc1C(=O)NCCCCNC(=O)c1ccc(-c2c3nc(c(-c4cccc(S(=O)(=O)[O-])c4F)c4ccc([nH]4)c(-c4cccc(S(=O)(=O)[O-])c4F)c4nc(c(-c5cccc(S(=O)(=O)[O-])c5F)c5ccc2[nH]5)C=C4)C=C3)cc1)c1ccc(S(C)(=O)=O)cc1
REMARK SMILES IDX 15 1 14 2 13 3 11 4 12 5 10 7 5 8 6 9 7 10 9 11 8 12 4 13
REMARK SMILES IDX 3 15 1 16 2 17 84 18 85 19 93 20 86 21 92 22 87 23 88 24
REMARK SMILES IDX 89 25 90 26 91 27 16 28 17 29 18 30 19 31 20 33 21 34 22 35
REMARK SMILES IDX 83 36 23 37 82 38 24 39 25 40 26 41 76 42 27 43 81 44 75 45
REMARK SMILES IDX 77 46 28 47 80 48 74 49 73 50 29 52 61 53 41 54 60 55 42 56
REMARK SMILES IDX 45 57 59 58 78 59 43 60 44 61 58 63 79 64 46 65 30 66 31 67
REMARK SMILES IDX 39 68 32 69 34 70 40 71 33 72 35 73 36 74 37 75 38 76 62 77
REMARK SMILES IDX 63 78 71 79 64 80 66 81 72 82 65 83 67 84 68 85 69 86 70 87
REMARK SMILES IDX 47 88 48 89 56 90 49 91 51 92 57 93 50 94 52 95 53 96 54 97
REMARK SMILES IDX 55 98
REMARK H PARENT 13 6 4 14 18 32 77 51 45 62
REMARK Flexibility Score: inf
ROOT
ATOM      1  C   UNL A   1      36.019  23.174  23.680  1.00  0.00     0.023 C 
ENDROOT
BRANCH   1   2
ATOM      2  C   UNL A   1      35.015  24.155  24.287  1.00  0.00     0.116 C 
BRANCH   2   3
ATOM      3  N   UNL A   1      34.190  24.842  23.311  1.00  0.00    -0.352 N 
ATOM      4  C   UNL A   1      33.454  25.996  23.460  1.00  0.00     0.253 C 
ATOM      5  O   UNL A   1      32.888  26.475  22.476  1.00  0.00    -0.269 OA
ATOM      6  H   UNL A   1      34.150  24.425  22.420  1.00  0.00     0.163 HD
BRANCH   4   7
ATOM      7  C   UNL A   1      33.215  26.620  24.788  1.00  0.00     0.064 A 
ATOM      8  C   UNL A   1      32.159  26.315  25.661  1.00  0.00     0.069 A 
ATOM      9  C   UNL A   1      32.028  27.096  26.834  1.00  0.00     0.028 A 
ATOM     10  C   UNL A   1      32.968  28.066  27.187  1.00  0.00     0.002 A 
ATOM     11  C   UNL A   1      34.182  27.572  25.173  1.00  0.00     0.016 A 
ATOM     12  C   UNL A   1      34.069  28.279  26.372  1.00  0.00     0.001 A 
BRANCH   8  13
ATOM     13  N   UNL A   1      31.320  25.181  25.603  1.00  0.00    -0.277 N 
ATOM     14  H   UNL A   1      30.350  25.339  25.654  1.00  0.00     0.190 HD
BRANCH  13  15
ATOM     15  N   UNL A   1      31.728  23.900  25.484  1.00  0.00    -0.180 NA
ATOM     16  C   UNL A   1      30.597  23.684  23.245  1.00  0.00     0.069 C 
ATOM     17  C   UNL A   1      31.438  23.217  24.413  1.00  0.00     0.065 C 
BRANCH  17  18
ATOM     18  C   UNL A   1      31.975  21.837  24.319  1.00  0.00    -0.002 A 
ATOM     19  C   UNL A   1      31.997  21.178  23.086  1.00  0.00     0.011 A 
ATOM     20  C   UNL A   1      32.441  21.198  25.472  1.00  0.00     0.011 A 
ATOM     21  C   UNL A   1      32.506  19.880  22.996  1.00  0.00     0.021 A 
ATOM     22  C   UNL A   1      32.956  19.905  25.388  1.00  0.00     0.021 A 
ATOM     23  C   UNL A   1      32.985  19.253  24.150  1.00  0.00     0.067 A 
BRANCH  23  24
ATOM     24  S   UNL A   1      33.760  17.654  24.025  1.00  0.00     0.175 S 
ATOM     25  C   UNL A   1      32.910  16.670  25.231  1.00  0.00     0.163 C 
ATOM     26  O   UNL A   1      33.453  17.148  22.704  1.00  0.00    -0.224 OA
ATOM     27  O   UNL A   1      35.134  17.818  24.464  1.00  0.00    -0.224 OA
ENDBRANCH  23  24
ENDBRANCH  17  18
ENDBRANCH  13  15
ENDBRANCH   8  13
ENDBRANCH   4   7
ENDBRANCH   2   3
ENDBRANCH   1   2
BRANCH   1  28
ATOM     28  C   UNL A   1      35.983  21.741  24.224  1.00  0.00     0.023 C 
BRANCH  28  29
ATOM     29  C   UNL A   1      36.634  21.498  25.585  1.00  0.00     0.116 C 
BRANCH  29  30
ATOM     30  N   UNL A   1      37.852  20.702  25.544  1.00  0.00    -0.352 N 
ATOM     31  C   UNL A   1      39.128  20.997  25.967  1.00  0.00     0.251 C 
ATOM     32  H   UNL A   1      37.745  19.806  25.151  1.00  0.00     0.163 HD
ATOM     33  O   UNL A   1      40.026  20.169  25.829  1.00  0.00    -0.269 OA
BRANCH  31  34
ATOM     34  C   UNL A   1      39.446  22.328  26.532  1.00  0.00     0.039 A 
ATOM     35  C   UNL A   1      40.412  22.406  27.539  1.00  0.00     0.014 A 
ATOM     36  C   UNL A   1      38.835  23.493  26.060  1.00  0.00     0.014 A 
ATOM     37  C   UNL A   1      40.861  23.656  27.977  1.00  0.00     0.010 A 
ATOM     38  C   UNL A   1      39.330  24.739  26.448  1.00  0.00     0.010 A 
ATOM     39  C   UNL A   1      40.374  24.832  27.383  1.00  0.00    -0.014 A 
BRANCH  39  40
ATOM     40  C   UNL A   1      41.030  26.143  27.640  1.00  0.00     0.031 A 
ATOM     41  C   UNL A   1      42.450  26.401  27.226  1.00  0.00     0.074 A 
ATOM     42  C   UNL A   1      40.363  27.074  28.353  1.00  0.00     0.049 A 
ATOM     43  N   UNL A   1      43.182  27.468  27.421  1.00  0.00    -0.248 NA
ATOM     44  C   UNL A   1      43.147  25.317  26.516  1.00  0.00     0.031 C 
ATOM     45  C   UNL A   1      39.007  26.917  28.888  1.00  0.00     0.029 A 
ATOM     46  N   UNL A   1      40.738  28.326  28.774  1.00  0.00    -0.354 N 
ATOM     47  C   UNL A   1      44.431  27.179  26.886  1.00  0.00     0.074 A 
ATOM     48  C   UNL A   1      44.366  25.824  26.378  1.00  0.00     0.031 C 
ATOM     49  C   UNL A   1      38.668  28.024  29.564  1.00  0.00     0.029 A 
ATOM     50  C   UNL A   1      39.788  28.958  29.543  1.00  0.00     0.049 A 
ATOM     51  H   UNL A   1      41.606  28.732  28.549  1.00  0.00     0.167 HD
ATOM     52  C   UNL A   1      45.523  27.977  26.801  1.00  0.00     0.034 A 
ATOM     53  C   UNL A   1      39.814  30.150  30.173  1.00  0.00     0.034 A 
ATOM     54  C   UNL A   1      45.576  29.335  27.276  1.00  0.00     0.049 A 
ATOM     55  C   UNL A   1      41.034  31.020  30.048  1.00  0.00     0.074 A 
ATOM     56  C   UNL A   1      46.604  30.253  27.140  1.00  0.00     0.029 A 
ATOM     57  N   UNL A   1      44.571  29.967  27.991  1.00  0.00    -0.354 N 
ATOM     58  N   UNL A   1      42.140  30.799  29.378  1.00  0.00    -0.248 NA
ATOM     59  C   UNL A   1      41.002  32.316  30.741  1.00  0.00     0.031 C 
ATOM     60  C   UNL A   1      46.232  31.429  27.798  1.00  0.00     0.029 A 
ATOM     61  C   UNL A   1      44.963  31.253  28.324  1.00  0.00     0.049 A 
ATOM     62  H   UNL A   1      43.706  29.561  28.228  1.00  0.00     0.167 HD
ATOM     63  C   UNL A   1      42.923  31.933  29.552  1.00  0.00     0.074 A 
ATOM     64  C   UNL A   1      42.152  32.854  30.362  1.00  0.00     0.031 C 
ATOM     65  C   UNL A   1      44.176  32.181  29.097  1.00  0.00     0.034 A 
BRANCH  52  66
ATOM     66  C   UNL A   1      46.743  27.422  26.114  1.00  0.00     0.023 A 
ATOM     67  C   UNL A   1      46.908  27.621  24.728  1.00  0.00     0.012 A 
ATOM     68  C   UNL A   1      47.758  26.773  26.844  1.00  0.00     0.148 A 
ATOM     69  C   UNL A   1      48.048  27.158  24.073  1.00  0.00     0.002 A 
ATOM     70  C   UNL A   1      48.911  26.351  26.192  1.00  0.00     0.091 A 
ATOM     71  F   UNL A   1      47.575  26.576  28.157  1.00  0.00    -0.205 F 
ATOM     72  C   UNL A   1      49.053  26.533  24.806  1.00  0.00     0.022 A 
BRANCH  70  73
ATOM     73  S   UNL A   1      50.295  25.600  27.057  1.00  0.00     0.127 S 
ATOM     74  O   UNL A   1      51.290  25.503  25.989  1.00  0.00    -0.237 OA
ATOM     75  O   UNL A   1      50.598  26.602  28.081  1.00  0.00    -0.237 OA
ATOM     76  O   UNL A   1      49.804  24.332  27.575  1.00  0.00    -0.744 OA
ENDBRANCH  70  73
ENDBRANCH  52  66
BRANCH  53  77
ATOM     77  C   UNL A   1      38.622  30.612  30.941  1.00  0.00     0.023 A 
ATOM     78  C   UNL A   1      38.568  30.394  32.331  1.00  0.00     0.012 A 
ATOM     79  C   UNL A   1      37.560  31.288  30.310  1.00  0.00     0.148 A 
ATOM     80  C   UNL A   1      37.466  30.817  33.074  1.00  0.00     0.002 A 
ATOM     81  C   UNL A   1      36.492  31.757  31.066  1.00  0.00     0.091 A 
ATOM     82  F   UNL A   1      37.622  31.470  28.983  1.00  0.00    -0.205 F 
ATOM     83  C   UNL A   1      36.435  31.508  32.445  1.00  0.00     0.022 A 
BRANCH  81  84
ATOM     84  S   UNL A   1      35.191  32.776  30.360  1.00  0.00     0.127 S 
ATOM     85  O   UNL A   1      34.641  31.893  29.335  1.00  0.00    -0.237 OA
ATOM     86  O   UNL A   1      34.320  32.998  31.515  1.00  0.00    -0.237 OA
ATOM     87  O   UNL A   1      35.857  33.978  29.876  1.00  0.00    -0.744 OA
ENDBRANCH  81  84
ENDBRANCH  53  77
BRANCH  65  88
ATOM     88  C   UNL A   1      44.800  33.505  29.457  1.00  0.00     0.023 A 
ATOM     89  C   UNL A   1      45.601  33.603  30.613  1.00  0.00     0.012 A 
ATOM     90  C   UNL A   1      44.651  34.629  28.622  1.00  0.00     0.148 A 
ATOM     91  C   UNL A   1      46.219  34.807  30.948  1.00  0.00     0.002 A 
ATOM     92  C   UNL A   1      45.309  35.814  28.937  1.00  0.00     0.091 A 
ATOM     93  F   UNL A   1      43.871  34.520  27.537  1.00  0.00    -0.205 F 
ATOM     94  C   UNL A   1      46.082  35.908  30.105  1.00  0.00     0.022 A 
BRANCH  92  95
ATOM     95  S   UNL A   1      45.267  37.256  27.867  1.00  0.00     0.127 S 
ATOM     96  O   UNL A   1      45.832  36.724  26.627  1.00  0.00    -0.237 OA
ATOM     97  O   UNL A   1      43.836  37.555  27.807  1.00  0.00    -0.237 OA
ATOM     98  O   UNL A   1      46.070  38.273  28.532  1.00  0.00    -0.744 OA
ENDBRANCH  92  95
ENDBRANCH  65  88
ENDBRANCH  39  40
ENDBRANCH  31  34
ENDBRANCH  29  30
ENDBRANCH  28  29
ENDBRANCH   1  28
TORSDOF 18
ENDMDL
