MODEL 1
REMARK VINA RESULT:     -12.2      0.000      0.000
REMARK SMILES CC[C@@](C)(NC(=O)c1cccc2ccccc12)C(=O)NCCCCNC(=O)c1ccc(-c2c3nc(c(-c4cccc(S(=O)(=O)[O-])c4F)c4ccc([nH]4)c(-c4cccc(S(=O)(=O)[O-])c4F)c4nc(c(-c5cccc(S(=O)(=O)[O-])c5F)c5ccc2[nH]5)C=C4)C=C3)cc1
REMARK SMILES IDX 23 1 22 2 21 3 20 4 18 5 19 6 3 8 4 9 2 10 1 11 5 12 6 13
REMARK SMILES IDX 7 15 8 16 9 17 17 18 10 19 12 20 16 21 11 22 13 23 15 24
REMARK SMILES IDX 14 25 24 26 25 27 26 28 27 30 28 31 29 32 90 33 30 34 89 35
REMARK SMILES IDX 31 36 32 37 33 38 83 39 34 40 88 41 82 42 84 43 35 44 87 45
REMARK SMILES IDX 81 46 80 47 36 49 68 50 48 51 67 52 49 53 52 54 66 55 85 56
REMARK SMILES IDX 50 57 51 58 65 60 86 61 53 62 37 63 38 64 46 65 39 66 41 67
REMARK SMILES IDX 47 68 40 69 42 70 43 71 44 72 45 73 69 74 70 75 78 76 71 77
REMARK SMILES IDX 73 78 79 79 72 80 74 81 75 82 76 83 77 84 54 85 55 86 63 87
REMARK SMILES IDX 56 88 58 89 64 90 57 91 59 92 60 93 61 94 62 95
REMARK H PARENT 20 7 5 14 25 29 84 48 52 59
REMARK Flexibility Score: inf
ROOT
ATOM      1  C   UNL A   1      37.745  19.863  24.759  1.00  0.00     0.023 C 
ENDROOT
BRANCH   1   2
ATOM      2  C   UNL A   1      36.309  20.322  24.995  1.00  0.00     0.023 C 
BRANCH   2   3
ATOM      3  C   UNL A   1      36.072  21.709  25.594  1.00  0.00     0.116 C 
BRANCH   3   4
ATOM      4  N   UNL A   1      35.197  21.825  26.748  1.00  0.00    -0.354 N 
ATOM      5  C   UNL A   1      33.934  22.327  26.924  1.00  0.00     0.245 C 
ATOM      6  O   UNL A   1      33.355  21.949  27.948  1.00  0.00    -0.272 OA
ATOM      7  H   UNL A   1      35.593  21.468  27.575  1.00  0.00     0.163 HD
BRANCH   5   8
ATOM      8  C   UNL A   1      33.222  23.242  25.879  1.00  0.00     0.116 C 
ATOM      9  C   UNL A   1      34.014  24.577  25.948  1.00  0.00     0.045 C 
BRANCH   8  10
ATOM     10  C   UNL A   1      33.281  22.738  24.407  1.00  0.00     0.035 C 
ATOM     11  C   UNL A   1      33.878  23.658  23.349  1.00  0.00     0.007 C 
ENDBRANCH   8  10
BRANCH   8  12
ATOM     12  N   UNL A   1      31.789  23.536  26.169  1.00  0.00    -0.338 N 
ATOM     13  C   UNL A   1      30.951  24.640  26.101  1.00  0.00     0.252 C 
ATOM     14  H   UNL A   1      31.312  22.737  26.492  1.00  0.00     0.164 HD
ATOM     15  O   UNL A   1      29.971  24.534  26.845  1.00  0.00    -0.269 OA
BRANCH  13  16
ATOM     16  C   UNL A   1      31.071  25.838  25.174  1.00  0.00     0.047 A 
ATOM     17  C   UNL A   1      30.716  25.717  23.829  1.00  0.00     0.014 A 
ATOM     18  C   UNL A   1      31.363  27.164  25.655  1.00  0.00    -0.006 A 
ATOM     19  C   UNL A   1      30.612  26.794  22.955  1.00  0.00     0.001 A 
ATOM     20  C   UNL A   1      31.239  28.263  24.747  1.00  0.00    -0.018 A 
ATOM     21  C   UNL A   1      31.755  27.513  26.976  1.00  0.00     0.009 A 
ATOM     22  C   UNL A   1      30.867  28.064  23.419  1.00  0.00     0.009 A 
ATOM     23  C   UNL A   1      31.453  29.585  25.158  1.00  0.00     0.009 A 
ATOM     24  C   UNL A   1      31.967  28.841  27.374  1.00  0.00     0.001 A 
ATOM     25  C   UNL A   1      31.810  29.876  26.467  1.00  0.00     0.001 A 
ENDBRANCH  13  16
ENDBRANCH   8  12
ENDBRANCH   5   8
ENDBRANCH   3   4
ENDBRANCH   2   3
ENDBRANCH   1   2
BRANCH   1  26
ATOM     26  C   UNL A   1      38.782  20.337  25.761  1.00  0.00     0.116 C 
BRANCH  26  27
ATOM     27  N   UNL A   1      39.857  19.377  25.947  1.00  0.00    -0.352 N 
ATOM     28  C   UNL A   1      41.185  19.603  26.202  1.00  0.00     0.251 C 
ATOM     29  H   UNL A   1      39.595  18.430  25.880  1.00  0.00     0.163 HD
ATOM     30  O   UNL A   1      41.976  18.658  26.167  1.00  0.00    -0.269 OA
BRANCH  28  31
ATOM     31  C   UNL A   1      41.675  20.968  26.500  1.00  0.00     0.039 A 
ATOM     32  C   UNL A   1      41.911  21.846  25.439  1.00  0.00     0.014 A 
ATOM     33  C   UNL A   1      41.923  21.380  27.813  1.00  0.00     0.014 A 
ATOM     34  C   UNL A   1      42.355  23.146  25.696  1.00  0.00     0.010 A 
ATOM     35  C   UNL A   1      42.290  22.698  28.072  1.00  0.00     0.010 A 
ATOM     36  C   UNL A   1      42.528  23.590  27.017  1.00  0.00    -0.014 A 
BRANCH  36  37
ATOM     37  C   UNL A   1      42.974  24.975  27.314  1.00  0.00     0.031 A 
ATOM     38  C   UNL A   1      42.027  25.951  27.961  1.00  0.00     0.074 A 
ATOM     39  C   UNL A   1      44.201  25.380  26.932  1.00  0.00     0.049 A 
ATOM     40  N   UNL A   1      42.209  27.216  28.243  1.00  0.00    -0.248 NA
ATOM     41  C   UNL A   1      40.688  25.450  28.312  1.00  0.00     0.031 C 
ATOM     42  C   UNL A   1      45.182  24.554  26.226  1.00  0.00     0.029 A 
ATOM     43  N   UNL A   1      44.823  26.597  27.056  1.00  0.00    -0.354 N 
ATOM     44  C   UNL A   1      41.003  27.668  28.768  1.00  0.00     0.074 A 
ATOM     45  C   UNL A   1      40.084  26.552  28.730  1.00  0.00     0.031 C 
ATOM     46  C   UNL A   1      46.280  25.287  25.980  1.00  0.00     0.029 A 
ATOM     47  C   UNL A   1      46.073  26.640  26.485  1.00  0.00     0.049 A 
ATOM     48  H   UNL A   1      44.412  27.368  27.512  1.00  0.00     0.167 HD
ATOM     49  C   UNL A   1      40.697  28.888  29.266  1.00  0.00     0.034 A 
ATOM     50  C   UNL A   1      46.951  27.657  26.374  1.00  0.00     0.034 A 
ATOM     51  C   UNL A   1      41.629  29.981  29.344  1.00  0.00     0.049 A 
ATOM     52  C   UNL A   1      46.606  28.990  26.980  1.00  0.00     0.074 A 
ATOM     53  C   UNL A   1      41.443  31.231  29.908  1.00  0.00     0.029 A 
ATOM     54  N   UNL A   1      42.921  29.956  28.842  1.00  0.00    -0.354 N 
ATOM     55  N   UNL A   1      45.515  29.352  27.610  1.00  0.00    -0.248 NA
ATOM     56  C   UNL A   1      47.626  30.044  26.895  1.00  0.00     0.031 C 
ATOM     57  C   UNL A   1      42.618  31.969  29.729  1.00  0.00     0.029 A 
ATOM     58  C   UNL A   1      43.544  31.170  29.078  1.00  0.00     0.049 A 
ATOM     59  H   UNL A   1      43.335  29.188  28.386  1.00  0.00     0.167 HD
ATOM     60  C   UNL A   1      45.730  30.661  28.026  1.00  0.00     0.074 A 
ATOM     61  C   UNL A   1      47.065  31.020  27.595  1.00  0.00     0.031 C 
ATOM     62  C   UNL A   1      44.892  31.495  28.690  1.00  0.00     0.034 A 
BRANCH  49  63
ATOM     63  C   UNL A   1      39.311  29.090  29.823  1.00  0.00     0.023 A 
ATOM     64  C   UNL A   1      38.995  28.585  31.101  1.00  0.00     0.012 A 
ATOM     65  C   UNL A   1      38.341  29.825  29.113  1.00  0.00     0.148 A 
ATOM     66  C   UNL A   1      37.728  28.772  31.648  1.00  0.00     0.002 A 
ATOM     67  C   UNL A   1      37.092  30.048  29.686  1.00  0.00     0.091 A 
ATOM     68  F   UNL A   1      38.650  30.281  27.892  1.00  0.00    -0.205 F 
ATOM     69  C   UNL A   1      36.781  29.513  30.946  1.00  0.00     0.022 A 
BRANCH  67  70
ATOM     70  S   UNL A   1      35.831  31.056  28.897  1.00  0.00     0.127 S 
ATOM     71  O   UNL A   1      36.642  32.093  28.257  1.00  0.00    -0.237 OA
ATOM     72  O   UNL A   1      35.218  30.105  27.966  1.00  0.00    -0.237 OA
ATOM     73  O   UNL A   1      34.956  31.514  29.962  1.00  0.00    -0.744 OA
ENDBRANCH  67  70
ENDBRANCH  49  63
BRANCH  50  74
ATOM     74  C   UNL A   1      48.269  27.430  25.716  1.00  0.00     0.023 A 
ATOM     75  C   UNL A   1      49.376  27.040  26.496  1.00  0.00     0.012 A 
ATOM     76  C   UNL A   1      48.426  27.565  24.322  1.00  0.00     0.148 A 
ATOM     77  C   UNL A   1      50.621  26.820  25.907  1.00  0.00     0.002 A 
ATOM     78  C   UNL A   1      49.655  27.290  23.734  1.00  0.00     0.091 A 
ATOM     79  F   UNL A   1      47.364  27.948  23.599  1.00  0.00    -0.205 F 
ATOM     80  C   UNL A   1      50.758  26.934  24.526  1.00  0.00     0.022 A 
BRANCH  78  81
ATOM     81  S   UNL A   1      49.885  27.283  21.952  1.00  0.00     0.127 S 
ATOM     82  O   UNL A   1      49.660  28.688  21.617  1.00  0.00    -0.237 OA
ATOM     83  O   UNL A   1      51.276  26.838  21.829  1.00  0.00    -0.237 OA
ATOM     84  O   UNL A   1      48.907  26.343  21.431  1.00  0.00    -0.744 OA
ENDBRANCH  78  81
ENDBRANCH  50  74
BRANCH  62  85
ATOM     85  C   UNL A   1      45.400  32.871  29.029  1.00  0.00     0.023 A 
ATOM     86  C   UNL A   1      46.107  33.082  30.230  1.00  0.00     0.012 A 
ATOM     87  C   UNL A   1      45.247  33.937  28.121  1.00  0.00     0.148 A 
ATOM     88  C   UNL A   1      46.625  34.339  30.536  1.00  0.00     0.002 A 
ATOM     89  C   UNL A   1      45.809  35.175  28.409  1.00  0.00     0.091 A 
ATOM     90  F   UNL A   1      44.556  33.721  26.992  1.00  0.00    -0.205 F 
ATOM     91  C   UNL A   1      46.487  35.382  29.621  1.00  0.00     0.022 A 
BRANCH  89  92
ATOM     92  S   UNL A   1      45.766  36.546  27.249  1.00  0.00     0.127 S 
ATOM     93  O   UNL A   1      46.492  37.581  27.985  1.00  0.00    -0.237 OA
ATOM     94  O   UNL A   1      46.484  35.999  26.097  1.00  0.00    -0.237 OA
ATOM     95  O   UNL A   1      44.357  36.823  27.008  1.00  0.00    -0.744 OA
ENDBRANCH  89  92
ENDBRANCH  62  85
ENDBRANCH  36  37
ENDBRANCH  28  31
ENDBRANCH  26  27
ENDBRANCH   1  26
TORSDOF 17
ENDMDL
MODEL 2
REMARK VINA RESULT:     -12.2      3.226      8.288
REMARK SMILES CC[C@@](C)(NC(=O)c1cccc2ccccc12)C(=O)NCCCCNC(=O)c1ccc(-c2c3nc(c(-c4cccc(S(=O)(=O)[O-])c4F)c4ccc([nH]4)c(-c4cccc(S(=O)(=O)[O-])c4F)c4nc(c(-c5cccc(S(=O)(=O)[O-])c5F)c5ccc2[nH]5)C=C4)C=C3)cc1
REMARK SMILES IDX 23 1 22 2 21 3 20 4 18 5 19 6 3 8 4 9 2 10 1 11 5 12 6 13
REMARK SMILES IDX 7 15 8 16 9 17 17 18 10 19 12 20 16 21 11 22 13 23 15 24
REMARK SMILES IDX 14 25 24 26 25 27 26 28 27 30 28 31 29 32 90 33 30 34 89 35
REMARK SMILES IDX 31 36 32 37 33 38 83 39 34 40 88 41 82 42 84 43 35 44 87 45
REMARK SMILES IDX 81 46 80 47 36 49 68 50 48 51 67 52 49 53 52 54 66 55 85 56
REMARK SMILES IDX 50 57 51 58 65 60 86 61 53 62 37 63 38 64 46 65 39 66 41 67
REMARK SMILES IDX 47 68 40 69 42 70 43 71 44 72 45 73 69 74 70 75 78 76 71 77
REMARK SMILES IDX 73 78 79 79 72 80 74 81 75 82 76 83 77 84 54 85 55 86 63 87
REMARK SMILES IDX 56 88 58 89 64 90 57 91 59 92 60 93 61 94 62 95
REMARK H PARENT 20 7 5 14 25 29 84 48 52 59
REMARK Flexibility Score: inf
ROOT
ATOM      1  C   UNL A   1      36.694  23.455  24.313  1.00  0.00     0.023 C 
ENDROOT
BRANCH   1   2
ATOM      2  C   UNL A   1      35.585  22.666  23.621  1.00  0.00     0.023 C 
BRANCH   2   3
ATOM      3  C   UNL A   1      34.556  21.936  24.486  1.00  0.00     0.116 C 
BRANCH   3   4
ATOM      4  N   UNL A   1      33.258  21.631  23.909  1.00  0.00    -0.354 N 
ATOM      5  C   UNL A   1      32.235  22.406  23.431  1.00  0.00     0.245 C 
ATOM      6  O   UNL A   1      31.433  21.824  22.692  1.00  0.00    -0.272 OA
ATOM      7  H   UNL A   1      33.076  20.666  23.847  1.00  0.00     0.163 HD
BRANCH   5   8
ATOM      8  C   UNL A   1      32.115  23.937  23.713  1.00  0.00     0.116 C 
ATOM      9  C   UNL A   1      30.635  24.267  23.373  1.00  0.00     0.045 C 
BRANCH   8  10
ATOM     10  C   UNL A   1      32.361  24.359  25.192  1.00  0.00     0.035 C 
ATOM     11  C   UNL A   1      31.272  25.145  25.912  1.00  0.00     0.007 C 
ENDBRANCH   8  10
BRANCH   8  12
ATOM     12  N   UNL A   1      32.990  24.805  22.874  1.00  0.00    -0.338 N 
ATOM     13  C   UNL A   1      32.921  26.078  22.324  1.00  0.00     0.252 C 
ATOM     14  H   UNL A   1      33.839  24.359  22.652  1.00  0.00     0.164 HD
ATOM     15  O   UNL A   1      33.670  26.213  21.352  1.00  0.00    -0.269 OA
BRANCH  13  16
ATOM     16  C   UNL A   1      32.137  27.270  22.848  1.00  0.00     0.047 A 
ATOM     17  C   UNL A   1      30.915  27.610  22.266  1.00  0.00     0.014 A 
ATOM     18  C   UNL A   1      32.504  27.969  24.053  1.00  0.00    -0.006 A 
ATOM     19  C   UNL A   1      30.042  28.557  22.792  1.00  0.00     0.001 A 
ATOM     20  C   UNL A   1      31.589  28.931  24.590  1.00  0.00    -0.018 A 
ATOM     21  C   UNL A   1      33.700  27.792  24.799  1.00  0.00     0.009 A 
ATOM     22  C   UNL A   1      30.379  29.209  23.957  1.00  0.00     0.009 A 
ATOM     23  C   UNL A   1      31.853  29.609  25.786  1.00  0.00     0.009 A 
ATOM     24  C   UNL A   1      33.952  28.479  25.995  1.00  0.00     0.001 A 
ATOM     25  C   UNL A   1      33.026  29.382  26.491  1.00  0.00     0.001 A 
ENDBRANCH  13  16
ENDBRANCH   8  12
ENDBRANCH   5   8
ENDBRANCH   3   4
ENDBRANCH   2   3
ENDBRANCH   1   2
BRANCH   1  26
ATOM     26  C   UNL A   1      36.863  23.221  25.803  1.00  0.00     0.116 C 
BRANCH  26  27
ATOM     27  N   UNL A   1      37.955  22.311  26.104  1.00  0.00    -0.352 N 
ATOM     28  C   UNL A   1      39.222  22.593  26.545  1.00  0.00     0.251 C 
ATOM     29  H   UNL A   1      37.757  21.355  25.972  1.00  0.00     0.163 HD
ATOM     30  O   UNL A   1      40.062  21.692  26.588  1.00  0.00    -0.269 OA
BRANCH  28  31
ATOM     31  C   UNL A   1      39.591  23.969  26.950  1.00  0.00     0.039 A 
ATOM     32  C   UNL A   1      39.433  24.343  28.287  1.00  0.00     0.014 A 
ATOM     33  C   UNL A   1      40.071  24.895  26.019  1.00  0.00     0.014 A 
ATOM     34  C   UNL A   1      39.793  25.630  28.697  1.00  0.00     0.010 A 
ATOM     35  C   UNL A   1      40.502  26.149  26.443  1.00  0.00     0.010 A 
ATOM     36  C   UNL A   1      40.351  26.538  27.782  1.00  0.00    -0.014 A 
BRANCH  36  37
ATOM     37  C   UNL A   1      40.765  27.901  28.202  1.00  0.00     0.031 A 
ATOM     38  C   UNL A   1      42.223  28.276  28.219  1.00  0.00     0.074 A 
ATOM     39  C   UNL A   1      39.839  28.776  28.643  1.00  0.00     0.049 A 
ATOM     40  N   UNL A   1      42.786  29.391  28.610  1.00  0.00    -0.248 NA
ATOM     41  C   UNL A   1      43.181  27.254  27.764  1.00  0.00     0.031 C 
ATOM     42  C   UNL A   1      38.404  28.506  28.750  1.00  0.00     0.029 A 
ATOM     43  N   UNL A   1      39.970  30.059  29.111  1.00  0.00    -0.354 N 
ATOM     44  C   UNL A   1      44.156  29.192  28.484  1.00  0.00     0.074 A 
ATOM     45  C   UNL A   1      44.343  27.837  28.016  1.00  0.00     0.031 C 
ATOM     46  C   UNL A   1      37.789  29.589  29.251  1.00  0.00     0.029 A 
ATOM     47  C   UNL A   1      38.785  30.619  29.526  1.00  0.00     0.049 A 
ATOM     48  H   UNL A   1      40.832  30.535  29.145  1.00  0.00     0.167 HD
ATOM     49  C   UNL A   1      45.165  30.067  28.704  1.00  0.00     0.034 A 
ATOM     50  C   UNL A   1      38.530  31.824  30.074  1.00  0.00     0.034 A 
ATOM     51  C   UNL A   1      44.971  31.428  29.125  1.00  0.00     0.049 A 
ATOM     52  C   UNL A   1      39.663  32.796  30.263  1.00  0.00     0.074 A 
ATOM     53  C   UNL A   1      45.921  32.420  29.295  1.00  0.00     0.029 A 
ATOM     54  N   UNL A   1      43.745  31.991  29.443  1.00  0.00    -0.354 N 
ATOM     55  N   UNL A   1      40.936  32.640  29.992  1.00  0.00    -0.248 NA
ATOM     56  C   UNL A   1      39.321  34.122  30.797  1.00  0.00     0.031 C 
ATOM     57  C   UNL A   1      45.271  33.576  29.736  1.00  0.00     0.029 A 
ATOM     58  C   UNL A   1      43.913  33.314  29.814  1.00  0.00     0.049 A 
ATOM     59  H   UNL A   1      42.881  31.518  29.410  1.00  0.00     0.167 HD
ATOM     60  C   UNL A   1      41.541  33.857  30.288  1.00  0.00     0.074 A 
ATOM     61  C   UNL A   1      40.490  34.745  30.739  1.00  0.00     0.031 C 
ATOM     62  C   UNL A   1      42.850  34.201  30.210  1.00  0.00     0.034 A 
BRANCH  49  63
ATOM     63  C   UNL A   1      46.571  29.595  28.437  1.00  0.00     0.023 A 
ATOM     64  C   UNL A   1      47.152  29.823  27.172  1.00  0.00     0.012 A 
ATOM     65  C   UNL A   1      47.339  28.981  29.447  1.00  0.00     0.148 A 
ATOM     66  C   UNL A   1      48.456  29.414  26.902  1.00  0.00     0.002 A 
ATOM     67  C   UNL A   1      48.656  28.618  29.184  1.00  0.00     0.091 A 
ATOM     68  F   UNL A   1      46.766  28.754  30.637  1.00  0.00    -0.205 F 
ATOM     69  C   UNL A   1      49.211  28.822  27.911  1.00  0.00     0.022 A 
BRANCH  67  70
ATOM     70  S   UNL A   1      49.737  27.921  30.440  1.00  0.00     0.127 S 
ATOM     71  O   UNL A   1      50.982  27.748  29.690  1.00  0.00    -0.237 OA
ATOM     72  O   UNL A   1      49.774  28.990  31.439  1.00  0.00    -0.237 OA
ATOM     73  O   UNL A   1      49.099  26.693  30.885  1.00  0.00    -0.744 OA
ENDBRANCH  67  70
ENDBRANCH  49  63
BRANCH  50  74
ATOM     74  C   UNL A   1      37.130  32.201  30.420  1.00  0.00     0.023 A 
ATOM     75  C   UNL A   1      36.665  32.004  31.736  1.00  0.00     0.012 A 
ATOM     76  C   UNL A   1      36.269  32.782  29.468  1.00  0.00     0.148 A 
ATOM     77  C   UNL A   1      35.360  32.349  32.088  1.00  0.00     0.002 A 
ATOM     78  C   UNL A   1      34.989  33.175  29.840  1.00  0.00     0.091 A 
ATOM     79  F   UNL A   1      36.727  32.950  28.219  1.00  0.00    -0.205 F 
ATOM     80  C   UNL A   1      34.526  32.943  31.145  1.00  0.00     0.022 A 
BRANCH  78  81
ATOM     81  S   UNL A   1      33.897  34.067  28.726  1.00  0.00     0.127 S 
ATOM     82  O   UNL A   1      34.797  35.078  28.173  1.00  0.00    -0.237 OA
ATOM     83  O   UNL A   1      33.502  33.017  27.785  1.00  0.00    -0.237 OA
ATOM     84  O   UNL A   1      32.813  34.569  29.554  1.00  0.00    -0.744 OA
ENDBRANCH  78  81
ENDBRANCH  50  74
BRANCH  62  85
ATOM     85  C   UNL A   1      43.225  35.612  30.584  1.00  0.00     0.023 A 
ATOM     86  C   UNL A   1      43.613  35.907  31.905  1.00  0.00     0.012 A 
ATOM     87  C   UNL A   1      43.268  36.626  29.607  1.00  0.00     0.148 A 
ATOM     88  C   UNL A   1      44.008  37.197  32.256  1.00  0.00     0.002 A 
ATOM     89  C   UNL A   1      43.711  37.898  29.952  1.00  0.00     0.091 A 
ATOM     90  F   UNL A   1      42.878  36.329  28.359  1.00  0.00    -0.205 F 
ATOM     91  C   UNL A   1      44.069  38.188  31.278  1.00  0.00     0.022 A 
BRANCH  89  92
ATOM     92  S   UNL A   1      43.914  39.208  28.741  1.00  0.00     0.127 S 
ATOM     93  O   UNL A   1      44.085  40.381  29.597  1.00  0.00    -0.237 OA
ATOM     94  O   UNL A   1      45.124  38.789  28.031  1.00  0.00    -0.237 OA
ATOM     95  O   UNL A   1      42.704  39.196  27.930  1.00  0.00    -0.744 OA
ENDBRANCH  89  92
ENDBRANCH  62  85
ENDBRANCH  36  37
ENDBRANCH  28  31
ENDBRANCH  26  27
ENDBRANCH   1  26
TORSDOF 17
ENDMDL
MODEL 3
REMARK VINA RESULT:     -12.1      6.339     11.522
REMARK SMILES CC[C@@](C)(NC(=O)c1cccc2ccccc12)C(=O)NCCCCNC(=O)c1ccc(-c2c3nc(c(-c4cccc(S(=O)(=O)[O-])c4F)c4ccc([nH]4)c(-c4cccc(S(=O)(=O)[O-])c4F)c4nc(c(-c5cccc(S(=O)(=O)[O-])c5F)c5ccc2[nH]5)C=C4)C=C3)cc1
REMARK SMILES IDX 23 1 22 2 21 3 20 4 18 5 19 6 3 8 4 9 2 10 1 11 5 12 6 13
REMARK SMILES IDX 7 15 8 16 9 17 17 18 10 19 12 20 16 21 11 22 13 23 15 24
REMARK SMILES IDX 14 25 24 26 25 27 26 28 27 30 28 31 29 32 90 33 30 34 89 35
REMARK SMILES IDX 31 36 32 37 33 38 83 39 34 40 88 41 82 42 84 43 35 44 87 45
REMARK SMILES IDX 81 46 80 47 36 49 68 50 48 51 67 52 49 53 52 54 66 55 85 56
REMARK SMILES IDX 50 57 51 58 65 60 86 61 53 62 37 63 38 64 46 65 39 66 41 67
REMARK SMILES IDX 47 68 40 69 42 70 43 71 44 72 45 73 69 74 70 75 78 76 71 77
REMARK SMILES IDX 73 78 79 79 72 80 74 81 75 82 76 83 77 84 54 85 55 86 63 87
REMARK SMILES IDX 56 88 58 89 64 90 57 91 59 92 60 93 61 94 62 95
REMARK H PARENT 20 7 5 14 25 29 84 48 52 59
REMARK Flexibility Score: inf
ROOT
ATOM      1  C   UNL A   1      31.578  32.065  26.902  1.00  0.00     0.023 C 
ENDROOT
BRANCH   1   2
ATOM      2  C   UNL A   1      31.752  30.551  26.820  1.00  0.00     0.023 C 
BRANCH   2   3
ATOM      3  C   UNL A   1      32.317  29.947  25.534  1.00  0.00     0.116 C 
BRANCH   3   4
ATOM      4  N   UNL A   1      31.424  29.770  24.401  1.00  0.00    -0.354 N 
ATOM      5  C   UNL A   1      31.000  28.672  23.700  1.00  0.00     0.245 C 
ATOM      6  O   UNL A   1      29.976  28.839  23.029  1.00  0.00    -0.272 OA
ATOM      7  H   UNL A   1      31.045  30.615  24.068  1.00  0.00     0.163 HD
BRANCH   5   8
ATOM      8  C   UNL A   1      31.692  27.276  23.792  1.00  0.00     0.116 C 
ATOM      9  C   UNL A   1      30.889  26.393  22.797  1.00  0.00     0.045 C 
BRANCH   8  10
ATOM     10  C   UNL A   1      33.184  27.245  23.346  1.00  0.00     0.035 C 
ATOM     11  C   UNL A   1      33.598  26.250  22.269  1.00  0.00     0.007 C 
ENDBRANCH   8  10
BRANCH   8  12
ATOM     12  N   UNL A   1      31.639  26.631  25.135  1.00  0.00    -0.338 N 
ATOM     13  C   UNL A   1      31.610  25.335  25.633  1.00  0.00     0.252 C 
ATOM     14  H   UNL A   1      31.619  27.298  25.859  1.00  0.00     0.164 HD
ATOM     15  O   UNL A   1      31.128  25.277  26.768  1.00  0.00    -0.269 OA
BRANCH  13  16
ATOM     16  C   UNL A   1      32.181  24.084  24.987  1.00  0.00     0.047 A 
ATOM     17  C   UNL A   1      31.347  23.228  24.266  1.00  0.00     0.014 A 
ATOM     18  C   UNL A   1      33.597  23.823  24.922  1.00  0.00    -0.006 A 
ATOM     19  C   UNL A   1      31.807  22.172  23.487  1.00  0.00     0.001 A 
ATOM     20  C   UNL A   1      34.055  22.740  24.106  1.00  0.00    -0.018 A 
ATOM     21  C   UNL A   1      34.620  24.556  25.584  1.00  0.00     0.009 A 
ATOM     22  C   UNL A   1      33.160  21.935  23.405  1.00  0.00     0.009 A 
ATOM     23  C   UNL A   1      35.419  22.462  23.951  1.00  0.00     0.009 A 
ATOM     24  C   UNL A   1      35.982  24.265  25.421  1.00  0.00     0.001 A 
ATOM     25  C   UNL A   1      36.381  23.223  24.600  1.00  0.00     0.001 A 
ENDBRANCH  13  16
ENDBRANCH   8  12
ENDBRANCH   5   8
ENDBRANCH   3   4
ENDBRANCH   2   3
ENDBRANCH   1   2
BRANCH   1  26
ATOM     26  C   UNL A   1      32.830  32.877  27.183  1.00  0.00     0.116 C 
BRANCH  26  27
ATOM     27  N   UNL A   1      32.531  34.207  27.686  1.00  0.00    -0.352 N 
ATOM     28  C   UNL A   1      33.075  34.872  28.754  1.00  0.00     0.251 C 
ATOM     29  H   UNL A   1      31.838  34.700  27.189  1.00  0.00     0.163 HD
ATOM     30  O   UNL A   1      32.573  35.935  29.124  1.00  0.00    -0.269 OA
BRANCH  28  31
ATOM     31  C   UNL A   1      34.243  34.316  29.473  1.00  0.00     0.039 A 
ATOM     32  C   UNL A   1      34.024  33.536  30.613  1.00  0.00     0.014 A 
ATOM     33  C   UNL A   1      35.549  34.574  29.047  1.00  0.00     0.014 A 
ATOM     34  C   UNL A   1      35.111  32.983  31.298  1.00  0.00     0.010 A 
ATOM     35  C   UNL A   1      36.625  33.960  29.683  1.00  0.00     0.010 A 
ATOM     36  C   UNL A   1      36.420  33.173  30.826  1.00  0.00    -0.014 A 
BRANCH  36  37
ATOM     37  C   UNL A   1      37.586  32.574  31.523  1.00  0.00     0.031 A 
ATOM     38  C   UNL A   1      38.329  31.423  30.900  1.00  0.00     0.074 A 
ATOM     39  C   UNL A   1      37.929  33.011  32.751  1.00  0.00     0.049 A 
ATOM     40  N   UNL A   1      39.329  30.728  31.378  1.00  0.00    -0.248 NA
ATOM     41  C   UNL A   1      37.870  30.971  29.575  1.00  0.00     0.031 C 
ATOM     42  C   UNL A   1      37.239  34.065  33.496  1.00  0.00     0.029 A 
ATOM     43  N   UNL A   1      38.926  32.603  33.602  1.00  0.00    -0.354 N 
ATOM     44  C   UNL A   1      39.595  29.741  30.436  1.00  0.00     0.074 A 
ATOM     45  C   UNL A   1      38.625  29.901  29.374  1.00  0.00     0.031 C 
ATOM     46  C   UNL A   1      37.833  34.220  34.691  1.00  0.00     0.029 A 
ATOM     47  C   UNL A   1      38.926  33.261  34.809  1.00  0.00     0.049 A 
ATOM     48  H   UNL A   1      39.580  31.905  33.369  1.00  0.00     0.167 HD
ATOM     49  C   UNL A   1      40.574  28.807  30.435  1.00  0.00     0.034 A 
ATOM     50  C   UNL A   1      39.713  33.105  35.892  1.00  0.00     0.034 A 
ATOM     51  C   UNL A   1      41.564  28.682  31.471  1.00  0.00     0.049 A 
ATOM     52  C   UNL A   1      40.826  32.093  35.848  1.00  0.00     0.074 A 
ATOM     53  C   UNL A   1      42.649  27.823  31.524  1.00  0.00     0.029 A 
ATOM     54  N   UNL A   1      41.591  29.432  32.636  1.00  0.00    -0.354 N 
ATOM     55  N   UNL A   1      41.155  31.272  34.880  1.00  0.00    -0.248 NA
ATOM     56  C   UNL A   1      41.700  32.012  37.026  1.00  0.00     0.031 C 
ATOM     57  C   UNL A   1      43.320  28.043  32.732  1.00  0.00     0.029 A 
ATOM     58  C   UNL A   1      42.670  29.056  33.417  1.00  0.00     0.049 A 
ATOM     59  H   UNL A   1      40.938  30.131  32.872  1.00  0.00     0.167 HD
ATOM     60  C   UNL A   1      42.292  30.603  35.317  1.00  0.00     0.074 A 
ATOM     61  C   UNL A   1      42.607  31.131  36.628  1.00  0.00     0.031 C 
ATOM     62  C   UNL A   1      43.001  29.628  34.696  1.00  0.00     0.034 A 
BRANCH  49  63
ATOM     63  C   UNL A   1      40.661  27.883  29.248  1.00  0.00     0.023 A 
ATOM     64  C   UNL A   1      39.821  26.751  29.186  1.00  0.00     0.012 A 
ATOM     65  C   UNL A   1      41.525  28.159  28.170  1.00  0.00     0.148 A 
ATOM     66  C   UNL A   1      39.865  25.890  28.092  1.00  0.00     0.002 A 
ATOM     67  C   UNL A   1      41.531  27.319  27.061  1.00  0.00     0.091 A 
ATOM     68  F   UNL A   1      42.331  29.227  28.253  1.00  0.00    -0.205 F 
ATOM     69  C   UNL A   1      40.712  26.180  27.026  1.00  0.00     0.022 A 
BRANCH  67  70
ATOM     70  S   UNL A   1      42.527  27.650  25.602  1.00  0.00     0.127 S 
ATOM     71  O   UNL A   1      43.876  27.685  26.170  1.00  0.00    -0.237 OA
ATOM     72  O   UNL A   1      42.250  26.477  24.770  1.00  0.00    -0.237 OA
ATOM     73  O   UNL A   1      42.044  28.908  25.060  1.00  0.00    -0.744 OA
ENDBRANCH  67  70
ENDBRANCH  49  63
BRANCH  50  74
ATOM     74  C   UNL A   1      39.515  33.976  37.085  1.00  0.00     0.023 A 
ATOM     75  C   UNL A   1      39.889  35.333  37.024  1.00  0.00     0.012 A 
ATOM     76  C   UNL A   1      38.927  33.479  38.266  1.00  0.00     0.148 A 
ATOM     77  C   UNL A   1      39.713  36.170  38.126  1.00  0.00     0.002 A 
ATOM     78  C   UNL A   1      38.703  34.332  39.340  1.00  0.00     0.091 A 
ATOM     79  F   UNL A   1      38.588  32.182  38.309  1.00  0.00    -0.205 F 
ATOM     80  C   UNL A   1      39.111  35.674  39.279  1.00  0.00     0.022 A 
BRANCH  78  81
ATOM     81  S   UNL A   1      37.814  33.809  40.812  1.00  0.00     0.127 S 
ATOM     82  O   UNL A   1      37.602  35.083  41.499  1.00  0.00    -0.237 OA
ATOM     83  O   UNL A   1      36.606  33.212  40.239  1.00  0.00    -0.237 OA
ATOM     84  O   UNL A   1      38.689  32.864  41.486  1.00  0.00    -0.744 OA
ENDBRANCH  78  81
ENDBRANCH  50  74
BRANCH  62  85
ATOM     85  C   UNL A   1      44.215  29.087  35.406  1.00  0.00     0.023 A 
ATOM     86  C   UNL A   1      45.480  29.659  35.168  1.00  0.00     0.012 A 
ATOM     87  C   UNL A   1      44.088  28.066  36.369  1.00  0.00     0.148 A 
ATOM     88  C   UNL A   1      46.605  29.201  35.852  1.00  0.00     0.002 A 
ATOM     89  C   UNL A   1      45.205  27.649  37.083  1.00  0.00     0.091 A 
ATOM     90  F   UNL A   1      42.878  27.522  36.568  1.00  0.00    -0.205 F 
ATOM     91  C   UNL A   1      46.465  28.206  36.817  1.00  0.00     0.022 A 
BRANCH  89  92
ATOM     92  S   UNL A   1      45.103  26.444  38.411  1.00  0.00     0.127 S 
ATOM     93  O   UNL A   1      45.301  25.188  37.689  1.00  0.00    -0.237 OA
ATOM     94  O   UNL A   1      46.221  26.835  39.272  1.00  0.00    -0.237 OA
ATOM     95  O   UNL A   1      43.788  26.618  39.012  1.00  0.00    -0.744 OA
ENDBRANCH  89  92
ENDBRANCH  62  85
ENDBRANCH  36  37
ENDBRANCH  28  31
ENDBRANCH  26  27
ENDBRANCH   1  26
TORSDOF 17
ENDMDL
