MODEL 1
REMARK VINA RESULT:     -13.5      0.000      0.000
REMARK SMILES O=C(NCCCCNC(=O)[C@H]1CC=CC[C@@H]1C(=O)NC1CCCCC1)c1ccc(-c2c3nc(c(-c4cccc(S(=O)(=O)[O-])c4F)c4ccc([nH]4)c(-c4cccc(S(=O)(=O)[O-])c4F)c4nc(c(-c5cccc(S(=O)(=O)[O-])c5F)c5ccc2[nH]5)C=C4)C=C3)cc1
REMARK SMILES IDX 5 1 4 2 3 3 1 4 2 5 26 7 27 8 88 9 28 10 87 11 29 12 30 13
REMARK SMILES IDX 31 14 81 15 32 16 86 17 80 18 82 19 33 20 85 21 79 22 78 23
REMARK SMILES IDX 34 25 66 26 46 27 65 28 47 29 50 30 64 31 83 32 48 33 49 34
REMARK SMILES IDX 63 36 84 37 51 38 35 39 36 40 44 41 37 42 39 43 45 44 38 45
REMARK SMILES IDX 40 46 41 47 42 48 43 49 67 50 68 51 76 52 69 53 71 54 77 55
REMARK SMILES IDX 70 56 72 57 73 58 74 59 75 60 52 61 53 62 61 63 54 64 56 65
REMARK SMILES IDX 62 66 55 67 57 68 58 69 59 70 60 71 6 72 7 73 8 74 9 75
REMARK SMILES IDX 10 77 11 78 12 79 16 80 13 81 15 82 14 83 17 84 18 85 19 86
REMARK SMILES IDX 20 88 21 89 25 90 22 91 24 92 23 93
REMARK H PARENT 3 6 82 24 50 35 8 76 19 87
REMARK Flexibility Score: inf
ROOT
ATOM      1  C   UNL A   1      35.697  22.778  26.509  1.00  0.00     0.023 C 
ENDROOT
BRANCH   1   2
ATOM      2  C   UNL A   1      36.702  21.149  25.625  1.00  0.00     0.116 C 
BRANCH   2   3
ATOM      3  N   UNL A   1      38.162  20.750  25.299  1.00  0.00    -0.352 N 
ATOM      4  O   UNL A   1      40.059  19.888  26.188  1.00  0.00    -0.269 OA
ATOM      5  C   UNL A   1      39.292  20.843  26.104  1.00  0.00     0.251 C 
ATOM      6  H   UNL A   1      38.310  20.382  24.398  1.00  0.00     0.163 HD
BRANCH   5   7
ATOM      7  C   UNL A   1      39.693  22.151  26.649  1.00  0.00     0.039 A 
ATOM      8  C   UNL A   1      39.219  23.349  26.122  1.00  0.00     0.014 A 
ATOM      9  C   UNL A   1      40.714  22.149  27.606  1.00  0.00     0.014 A 
ATOM     10  C   UNL A   1      39.919  24.526  26.396  1.00  0.00     0.010 A 
ATOM     11  C   UNL A   1      41.328  23.347  27.973  1.00  0.00     0.010 A 
ATOM     12  C   UNL A   1      40.969  24.543  27.339  1.00  0.00    -0.014 A 
BRANCH  12  13
ATOM     13  C   UNL A   1      41.587  25.833  27.753  1.00  0.00     0.031 A 
ATOM     14  C   UNL A   1      40.829  26.883  28.526  1.00  0.00     0.074 A 
ATOM     15  C   UNL A   1      42.849  26.072  27.343  1.00  0.00     0.049 A 
ATOM     16  N   UNL A   1      41.209  28.095  28.852  1.00  0.00    -0.248 NA
ATOM     17  C   UNL A   1      39.469  26.548  28.980  1.00  0.00     0.031 C 
ATOM     18  C   UNL A   1      43.655  25.150  26.536  1.00  0.00     0.029 A 
ATOM     19  N   UNL A   1      43.670  27.154  27.522  1.00  0.00    -0.354 N 
ATOM     20  C   UNL A   1      40.124  28.686  29.493  1.00  0.00     0.074 A 
ATOM     21  C   UNL A   1      39.069  27.693  29.522  1.00  0.00     0.031 C 
ATOM     22  C   UNL A   1      44.860  25.686  26.318  1.00  0.00     0.029 A 
ATOM     23  C   UNL A   1      44.880  27.026  26.882  1.00  0.00     0.049 A 
ATOM     24  H   UNL A   1      43.419  27.943  28.055  1.00  0.00     0.167 HD
ATOM     25  C   UNL A   1      40.023  29.937  30.007  1.00  0.00     0.034 A 
ATOM     26  C   UNL A   1      45.885  27.904  26.713  1.00  0.00     0.034 A 
ATOM     27  C   UNL A   1      41.098  30.900  29.998  1.00  0.00     0.049 A 
ATOM     28  C   UNL A   1      45.753  29.266  27.315  1.00  0.00     0.074 A 
ATOM     29  C   UNL A   1      41.124  32.167  30.554  1.00  0.00     0.029 A 
ATOM     30  N   UNL A   1      42.332  30.707  29.394  1.00  0.00    -0.354 N 
ATOM     31  N   UNL A   1      44.758  29.765  28.007  1.00  0.00    -0.248 NA
ATOM     32  C   UNL A   1      46.886  30.179  27.134  1.00  0.00     0.031 C 
ATOM     33  C   UNL A   1      42.361  32.750  30.262  1.00  0.00     0.029 A 
ATOM     34  C   UNL A   1      43.122  31.834  29.555  1.00  0.00     0.049 A 
ATOM     35  H   UNL A   1      42.606  29.889  28.920  1.00  0.00     0.167 HD
ATOM     36  C   UNL A   1      45.153  31.045  28.365  1.00  0.00     0.074 A 
ATOM     37  C   UNL A   1      46.491  31.231  27.837  1.00  0.00     0.031 C 
ATOM     38  C   UNL A   1      44.465  31.987  29.056  1.00  0.00     0.034 A 
BRANCH  25  39
ATOM     39  C   UNL A   1      38.720  30.351  30.653  1.00  0.00     0.023 A 
ATOM     40  C   UNL A   1      38.527  30.148  32.035  1.00  0.00     0.012 A 
ATOM     41  C   UNL A   1      37.730  31.036  29.917  1.00  0.00     0.148 A 
ATOM     42  C   UNL A   1      37.365  30.594  32.667  1.00  0.00     0.002 A 
ATOM     43  C   UNL A   1      36.593  31.515  30.560  1.00  0.00     0.091 A 
ATOM     44  F   UNL A   1      37.920  31.212  28.601  1.00  0.00    -0.205 F 
ATOM     45  C   UNL A   1      36.404  31.286  31.933  1.00  0.00     0.022 A 
BRANCH  43  46
ATOM     46  S   UNL A   1      35.335  32.488  29.723  1.00  0.00     0.127 S 
ATOM     47  O   UNL A   1      34.397  32.757  30.813  1.00  0.00    -0.237 OA
ATOM     48  O   UNL A   1      36.095  33.655  29.273  1.00  0.00    -0.237 OA
ATOM     49  O   UNL A   1      34.822  31.646  28.651  1.00  0.00    -0.744 OA
ENDBRANCH  43  46
ENDBRANCH  25  39
BRANCH  26  50
ATOM     50  C   UNL A   1      47.098  27.488  25.958  1.00  0.00     0.023 A 
ATOM     51  C   UNL A   1      48.040  26.643  26.572  1.00  0.00     0.012 A 
ATOM     52  C   UNL A   1      47.274  27.851  24.607  1.00  0.00     0.148 A 
ATOM     53  C   UNL A   1      49.148  26.182  25.861  1.00  0.00     0.002 A 
ATOM     54  C   UNL A   1      48.342  27.334  23.886  1.00  0.00     0.091 A 
ATOM     55  F   UNL A   1      46.370  28.664  24.043  1.00  0.00    -0.205 F 
ATOM     56  C   UNL A   1      49.290  26.514  24.516  1.00  0.00     0.022 A 
BRANCH  54  57
ATOM     57  S   UNL A   1      48.501  27.572  22.113  1.00  0.00     0.127 S 
ATOM     58  O   UNL A   1      48.654  26.200  21.640  1.00  0.00    -0.237 OA
ATOM     59  O   UNL A   1      47.223  28.203  21.776  1.00  0.00    -0.237 OA
ATOM     60  O   UNL A   1      49.658  28.441  21.938  1.00  0.00    -0.744 OA
ENDBRANCH  54  57
ENDBRANCH  26  50
BRANCH  38  61
ATOM     61  C   UNL A   1      45.167  33.293  29.310  1.00  0.00     0.023 A 
ATOM     62  C   UNL A   1      45.945  33.457  30.473  1.00  0.00     0.012 A 
ATOM     63  C   UNL A   1      45.087  34.341  28.374  1.00  0.00     0.148 A 
ATOM     64  C   UNL A   1      46.601  34.662  30.719  1.00  0.00     0.002 A 
ATOM     65  C   UNL A   1      45.785  35.520  28.601  1.00  0.00     0.091 A 
ATOM     66  F   UNL A   1      44.321  34.169  27.286  1.00  0.00    -0.205 F 
ATOM     67  C   UNL A   1      46.530  35.687  29.778  1.00  0.00     0.022 A 
BRANCH  65  68
ATOM     68  S   UNL A   1      45.824  36.854  27.400  1.00  0.00     0.127 S 
ATOM     69  O   UNL A   1      46.727  37.809  28.049  1.00  0.00    -0.237 OA
ATOM     70  O   UNL A   1      46.391  36.189  26.221  1.00  0.00    -0.237 OA
ATOM     71  O   UNL A   1      44.453  37.298  27.243  1.00  0.00    -0.744 OA
ENDBRANCH  65  68
ENDBRANCH  38  61
ENDBRANCH  12  13
ENDBRANCH   5   7
ENDBRANCH   2   3
ENDBRANCH   1   2
BRANCH   1  72
ATOM     72  C   UNL A   1      34.322  23.034  27.641  1.00  0.00     0.023 C 
BRANCH  72  73
ATOM     73  C   UNL A   1      33.071  22.132  27.941  1.00  0.00     0.116 C 
BRANCH  73  74
ATOM     74  N   UNL A   1      31.916  22.341  27.086  1.00  0.00    -0.356 N 
ATOM     75  C   UNL A   1      31.796  22.122  25.736  1.00  0.00     0.224 C 
ATOM     76  H   UNL A   1      31.111  22.688  27.535  1.00  0.00     0.163 HD
ATOM     77  O   UNL A   1      30.651  21.941  25.314  1.00  0.00    -0.275 OA
BRANCH  75  78
ATOM     78  C   UNL A   1      33.035  22.022  24.811  1.00  0.00     0.095 C 
ATOM     79  C   UNL A   1      33.402  20.544  24.557  1.00  0.00     0.041 C 
ATOM     80  C   UNL A   1      32.865  22.796  23.487  1.00  0.00     0.095 C 
ATOM     81  C   UNL A   1      32.539  19.886  23.524  1.00  0.00    -0.030 C 
ATOM     82  C   UNL A   1      32.148  22.047  22.349  1.00  0.00     0.041 C 
ATOM     83  C   UNL A   1      31.966  20.574  22.532  1.00  0.00    -0.030 C 
BRANCH  80  84
ATOM     84  C   UNL A   1      34.199  23.517  23.106  1.00  0.00     0.224 C 
ATOM     85  O   UNL A   1      35.039  22.952  22.403  1.00  0.00    -0.275 OA
ATOM     86  N   UNL A   1      34.518  24.780  23.626  1.00  0.00    -0.353 N 
ATOM     87  H   UNL A   1      35.470  25.001  23.734  1.00  0.00     0.163 HD
BRANCH  86  88
ATOM     88  C   UNL A   1      33.543  25.784  24.017  1.00  0.00     0.082 C 
ATOM     89  C   UNL A   1      33.382  26.423  25.863  1.00  0.00     0.025 C 
ATOM     90  C   UNL A   1      33.005  26.950  22.592  1.00  0.00     0.025 C 
ATOM     91  C   UNL A   1      32.058  27.805  26.262  1.00  0.00     0.002 C 
ATOM     92  C   UNL A   1      31.767  28.383  22.975  1.00  0.00     0.002 C 
ATOM     93  C   UNL A   1      31.406  28.906  24.799  1.00  0.00     0.000 C 
ENDBRANCH  86  88
ENDBRANCH  80  84
ENDBRANCH  75  78
ENDBRANCH  73  74
ENDBRANCH  72  73
ENDBRANCH   1  72
TORSDOF 16
ENDMDL
MODEL 2
REMARK VINA RESULT:     -13.5      5.314     10.272
REMARK SMILES O=C(NCCCCNC(=O)[C@H]1CC=CC[C@@H]1C(=O)NC1CCCCC1)c1ccc(-c2c3nc(c(-c4cccc(S(=O)(=O)[O-])c4F)c4ccc([nH]4)c(-c4cccc(S(=O)(=O)[O-])c4F)c4nc(c(-c5cccc(S(=O)(=O)[O-])c5F)c5ccc2[nH]5)C=C4)C=C3)cc1
REMARK SMILES IDX 5 1 4 2 3 3 1 4 2 5 26 7 27 8 88 9 28 10 87 11 29 12 30 13
REMARK SMILES IDX 31 14 81 15 32 16 86 17 80 18 82 19 33 20 85 21 79 22 78 23
REMARK SMILES IDX 34 25 66 26 46 27 65 28 47 29 50 30 64 31 83 32 48 33 49 34
REMARK SMILES IDX 63 36 84 37 51 38 35 39 36 40 44 41 37 42 39 43 45 44 38 45
REMARK SMILES IDX 40 46 41 47 42 48 43 49 67 50 68 51 76 52 69 53 71 54 77 55
REMARK SMILES IDX 70 56 72 57 73 58 74 59 75 60 52 61 53 62 61 63 54 64 56 65
REMARK SMILES IDX 62 66 55 67 57 68 58 69 59 70 60 71 6 72 7 73 8 74 9 75
REMARK SMILES IDX 10 77 11 78 12 79 16 80 13 81 15 82 14 83 17 84 18 85 19 86
REMARK SMILES IDX 20 88 21 89 25 90 22 91 24 92 23 93
REMARK H PARENT 3 6 82 24 50 35 8 76 19 87
REMARK Flexibility Score: inf
ROOT
ATOM      1  C   UNL A   1      33.906  28.740  25.209  1.00  0.00     0.023 C 
ENDROOT
BRANCH   1   2
ATOM      2  C   UNL A   1      32.602  30.170  26.043  1.00  0.00     0.116 C 
BRANCH   2   3
ATOM      3  N   UNL A   1      32.618  31.182  27.215  1.00  0.00    -0.352 N 
ATOM      4  O   UNL A   1      33.404  33.204  27.868  1.00  0.00    -0.269 OA
ATOM      5  C   UNL A   1      33.646  32.025  27.626  1.00  0.00     0.251 C 
ATOM      6  H   UNL A   1      31.788  31.235  27.742  1.00  0.00     0.163 HD
BRANCH   5   7
ATOM      7  C   UNL A   1      34.949  31.453  28.004  1.00  0.00     0.039 A 
ATOM      8  C   UNL A   1      35.081  30.142  28.452  1.00  0.00     0.014 A 
ATOM      9  C   UNL A   1      36.031  32.340  28.066  1.00  0.00     0.014 A 
ATOM     10  C   UNL A   1      36.231  29.789  29.161  1.00  0.00     0.010 A 
ATOM     11  C   UNL A   1      37.226  31.938  28.664  1.00  0.00     0.010 A 
ATOM     12  C   UNL A   1      37.325  30.674  29.259  1.00  0.00    -0.014 A 
BRANCH  12  13
ATOM     13  C   UNL A   1      38.609  30.221  29.861  1.00  0.00     0.031 A 
ATOM     14  C   UNL A   1      39.490  29.186  29.206  1.00  0.00     0.074 A 
ATOM     15  C   UNL A   1      38.931  30.717  31.072  1.00  0.00     0.049 A 
ATOM     16  N   UNL A   1      40.574  28.618  29.675  1.00  0.00    -0.248 NA
ATOM     17  C   UNL A   1      39.105  28.712  27.867  1.00  0.00     0.031 C 
ATOM     18  C   UNL A   1      38.119  31.677  31.826  1.00  0.00     0.029 A 
ATOM     19  N   UNL A   1      40.002  30.478  31.893  1.00  0.00    -0.354 N 
ATOM     20  C   UNL A   1      40.969  27.683  28.723  1.00  0.00     0.074 A 
ATOM     21  C   UNL A   1      40.012  27.767  27.638  1.00  0.00     0.031 C 
ATOM     22  C   UNL A   1      38.730  31.972  32.977  1.00  0.00     0.029 A 
ATOM     23  C   UNL A   1      39.925  31.150  33.090  1.00  0.00     0.049 A 
ATOM     24  H   UNL A   1      40.750  29.886  31.651  1.00  0.00     0.167 HD
ATOM     25  C   UNL A   1      42.030  26.838  28.754  1.00  0.00     0.034 A 
ATOM     26  C   UNL A   1      40.696  31.083  34.191  1.00  0.00     0.034 A 
ATOM     27  C   UNL A   1      42.992  26.794  29.828  1.00  0.00     0.049 A 
ATOM     28  C   UNL A   1      41.873  30.161  34.182  1.00  0.00     0.074 A 
ATOM     29  C   UNL A   1      44.141  26.028  29.925  1.00  0.00     0.029 A 
ATOM     30  N   UNL A   1      42.913  27.539  30.997  1.00  0.00    -0.354 N 
ATOM     31  N   UNL A   1      42.285  29.363  33.227  1.00  0.00    -0.248 NA
ATOM     32  C   UNL A   1      42.705  30.143  35.390  1.00  0.00     0.031 C 
ATOM     33  C   UNL A   1      44.739  26.288  31.163  1.00  0.00     0.029 A 
ATOM     34  C   UNL A   1      43.985  27.243  31.823  1.00  0.00     0.049 A 
ATOM     35  H   UNL A   1      42.199  28.183  31.207  1.00  0.00     0.167 HD
ATOM     36  C   UNL A   1      43.438  28.763  33.709  1.00  0.00     0.074 A 
ATOM     37  C   UNL A   1      43.674  29.313  35.029  1.00  0.00     0.031 C 
ATOM     38  C   UNL A   1      44.224  27.829  33.117  1.00  0.00     0.034 A 
BRANCH  25  39
ATOM     39  C   UNL A   1      42.243  25.900  27.587  1.00  0.00     0.023 A 
ATOM     40  C   UNL A   1      42.990  26.327  26.470  1.00  0.00     0.012 A 
ATOM     41  C   UNL A   1      41.795  24.562  27.640  1.00  0.00     0.148 A 
ATOM     42  C   UNL A   1      43.265  25.452  25.419  1.00  0.00     0.002 A 
ATOM     43  C   UNL A   1      42.108  23.684  26.609  1.00  0.00     0.091 A 
ATOM     44  F   UNL A   1      41.075  24.172  28.703  1.00  0.00    -0.205 F 
ATOM     45  C   UNL A   1      42.835  24.130  25.492  1.00  0.00     0.022 A 
BRANCH  43  46
ATOM     46  S   UNL A   1      41.671  21.940  26.645  1.00  0.00     0.127 S 
ATOM     47  O   UNL A   1      40.210  22.002  26.627  1.00  0.00    -0.237 OA
ATOM     48  O   UNL A   1      42.275  21.444  25.408  1.00  0.00    -0.237 OA
ATOM     49  O   UNL A   1      42.258  21.404  27.865  1.00  0.00    -0.744 OA
ENDBRANCH  43  46
ENDBRANCH  25  39
BRANCH  26  50
ATOM     50  C   UNL A   1      40.370  31.937  35.364  1.00  0.00     0.023 A 
ATOM     51  C   UNL A   1      41.060  33.148  35.552  1.00  0.00     0.012 A 
ATOM     52  C   UNL A   1      39.319  31.599  36.240  1.00  0.00     0.148 A 
ATOM     53  C   UNL A   1      40.723  34.000  36.604  1.00  0.00     0.002 A 
ATOM     54  C   UNL A   1      38.944  32.484  37.244  1.00  0.00     0.091 A 
ATOM     55  F   UNL A   1      38.679  30.437  36.049  1.00  0.00    -0.205 F 
ATOM     56  C   UNL A   1      39.657  33.675  37.438  1.00  0.00     0.022 A 
BRANCH  54  57
ATOM     57  S   UNL A   1      37.478  32.222  38.247  1.00  0.00     0.127 S 
ATOM     58  O   UNL A   1      36.501  33.076  37.578  1.00  0.00    -0.237 OA
ATOM     59  O   UNL A   1      37.252  30.784  38.087  1.00  0.00    -0.237 OA
ATOM     60  O   UNL A   1      37.853  32.618  39.598  1.00  0.00    -0.744 OA
ENDBRANCH  54  57
ENDBRANCH  26  50
BRANCH  38  61
ATOM     61  C   UNL A   1      45.434  27.373  33.886  1.00  0.00     0.023 A 
ATOM     62  C   UNL A   1      46.648  28.078  33.768  1.00  0.00     0.012 A 
ATOM     63  C   UNL A   1      45.353  26.269  34.755  1.00  0.00     0.148 A 
ATOM     64  C   UNL A   1      47.776  27.665  34.475  1.00  0.00     0.002 A 
ATOM     65  C   UNL A   1      46.467  25.894  35.495  1.00  0.00     0.091 A 
ATOM     66  F   UNL A   1      44.193  25.599  34.833  1.00  0.00    -0.205 F 
ATOM     67  C   UNL A   1      47.682  26.582  35.347  1.00  0.00     0.022 A 
BRANCH  65  68
ATOM     68  S   UNL A   1      46.408  24.572  36.709  1.00  0.00     0.127 S 
ATOM     69  O   UNL A   1      46.099  23.412  35.866  1.00  0.00    -0.237 OA
ATOM     70  O   UNL A   1      47.774  24.584  37.243  1.00  0.00    -0.237 OA
ATOM     71  O   UNL A   1      45.381  24.942  37.662  1.00  0.00    -0.744 OA
ENDBRANCH  65  68
ENDBRANCH  38  61
ENDBRANCH  12  13
ENDBRANCH   5   7
ENDBRANCH   2   3
ENDBRANCH   1   2
BRANCH   1  72
ATOM     72  C   UNL A   1      34.520  28.295  23.576  1.00  0.00     0.023 C 
BRANCH  72  73
ATOM     73  C   UNL A   1      33.841  28.423  22.165  1.00  0.00     0.116 C 
BRANCH  73  74
ATOM     74  N   UNL A   1      32.992  27.315  21.766  1.00  0.00    -0.356 N 
ATOM     75  C   UNL A   1      31.783  26.926  22.290  1.00  0.00     0.224 C 
ATOM     76  H   UNL A   1      33.328  26.768  21.019  1.00  0.00     0.163 HD
ATOM     77  O   UNL A   1      31.051  26.271  21.543  1.00  0.00    -0.275 OA
BRANCH  75  78
ATOM     78  C   UNL A   1      31.330  27.359  23.706  1.00  0.00     0.095 C 
ATOM     79  C   UNL A   1      30.398  28.588  23.624  1.00  0.00     0.041 C 
ATOM     80  C   UNL A   1      30.681  26.213  24.510  1.00  0.00     0.095 C 
ATOM     81  C   UNL A   1      28.990  28.242  23.245  1.00  0.00    -0.030 C 
ATOM     82  C   UNL A   1      29.179  25.980  24.270  1.00  0.00     0.041 C 
ATOM     83  C   UNL A   1      28.447  27.055  23.533  1.00  0.00    -0.030 C 
BRANCH  80  84
ATOM     84  C   UNL A   1      31.141  26.273  26.004  1.00  0.00     0.224 C 
ATOM     85  O   UNL A   1      30.497  26.918  26.834  1.00  0.00    -0.275 OA
ATOM     86  N   UNL A   1      32.338  25.675  26.421  1.00  0.00    -0.353 N 
ATOM     87  H   UNL A   1      32.801  26.071  27.194  1.00  0.00     0.163 HD
BRANCH  86  88
ATOM     88  C   UNL A   1      32.946  24.513  25.795  1.00  0.00     0.082 C 
ATOM     89  C   UNL A   1      34.125  24.660  24.235  1.00  0.00     0.025 C 
ATOM     90  C   UNL A   1      33.164  23.013  26.971  1.00  0.00     0.025 C 
ATOM     91  C   UNL A   1      34.913  23.030  23.501  1.00  0.00     0.002 C 
ATOM     92  C   UNL A   1      34.023  21.418  26.300  1.00  0.00     0.002 C 
ATOM     93  C   UNL A   1      35.018  21.461  24.645  1.00  0.00     0.000 C 
ENDBRANCH  86  88
ENDBRANCH  80  84
ENDBRANCH  75  78
ENDBRANCH  73  74
ENDBRANCH  72  73
ENDBRANCH   1  72
TORSDOF 16
ENDMDL
MODEL 3
REMARK VINA RESULT:     -13.5      1.399      3.064
REMARK SMILES O=C(NCCCCNC(=O)[C@H]1CC=CC[C@@H]1C(=O)NC1CCCCC1)c1ccc(-c2c3nc(c(-c4cccc(S(=O)(=O)[O-])c4F)c4ccc([nH]4)c(-c4cccc(S(=O)(=O)[O-])c4F)c4nc(c(-c5cccc(S(=O)(=O)[O-])c5F)c5ccc2[nH]5)C=C4)C=C3)cc1
REMARK SMILES IDX 5 1 4 2 3 3 1 4 2 5 26 7 27 8 88 9 28 10 87 11 29 12 30 13
REMARK SMILES IDX 31 14 81 15 32 16 86 17 80 18 82 19 33 20 85 21 79 22 78 23
REMARK SMILES IDX 34 25 66 26 46 27 65 28 47 29 50 30 64 31 83 32 48 33 49 34
REMARK SMILES IDX 63 36 84 37 51 38 35 39 36 40 44 41 37 42 39 43 45 44 38 45
REMARK SMILES IDX 40 46 41 47 42 48 43 49 67 50 68 51 76 52 69 53 71 54 77 55
REMARK SMILES IDX 70 56 72 57 73 58 74 59 75 60 52 61 53 62 61 63 54 64 56 65
REMARK SMILES IDX 62 66 55 67 57 68 58 69 59 70 60 71 6 72 7 73 8 74 9 75
REMARK SMILES IDX 10 77 11 78 12 79 16 80 13 81 15 82 14 83 17 84 18 85 19 86
REMARK SMILES IDX 20 88 21 89 25 90 22 91 24 92 23 93
REMARK H PARENT 3 6 82 24 50 35 8 76 19 87
REMARK Flexibility Score: inf
ROOT
ATOM      1  C   UNL A   1      35.580  22.623  25.381  1.00  0.00     0.023 C 
ENDROOT
BRANCH   1   2
ATOM      2  C   UNL A   1      36.790  20.902  25.499  1.00  0.00     0.116 C 
BRANCH   2   3
ATOM      3  N   UNL A   1      38.264  20.521  25.214  1.00  0.00    -0.352 N 
ATOM      4  O   UNL A   1      40.144  19.676  26.152  1.00  0.00    -0.269 OA
ATOM      5  C   UNL A   1      39.369  20.623  26.052  1.00  0.00     0.251 C 
ATOM      6  H   UNL A   1      38.443  20.160  24.315  1.00  0.00     0.163 HD
BRANCH   5   7
ATOM      7  C   UNL A   1      39.738  21.932  26.615  1.00  0.00     0.039 A 
ATOM      8  C   UNL A   1      39.214  23.124  26.124  1.00  0.00     0.014 A 
ATOM      9  C   UNL A   1      40.781  21.944  27.550  1.00  0.00     0.014 A 
ATOM     10  C   UNL A   1      39.881  24.317  26.408  1.00  0.00     0.010 A 
ATOM     11  C   UNL A   1      41.362  23.154  27.928  1.00  0.00     0.010 A 
ATOM     12  C   UNL A   1      40.950  24.351  27.328  1.00  0.00    -0.014 A 
BRANCH  12  13
ATOM     13  C   UNL A   1      41.535  25.651  27.756  1.00  0.00     0.031 A 
ATOM     14  C   UNL A   1      40.743  26.684  28.518  1.00  0.00     0.074 A 
ATOM     15  C   UNL A   1      42.798  25.917  27.367  1.00  0.00     0.049 A 
ATOM     16  N   UNL A   1      41.092  27.902  28.852  1.00  0.00    -0.248 NA
ATOM     17  C   UNL A   1      39.383  26.320  28.947  1.00  0.00     0.031 C 
ATOM     18  C   UNL A   1      43.637  25.014  26.572  1.00  0.00     0.029 A 
ATOM     19  N   UNL A   1      43.594  27.016  27.563  1.00  0.00    -0.354 N 
ATOM     20  C   UNL A   1      39.985  28.469  29.476  1.00  0.00     0.074 A 
ATOM     21  C   UNL A   1      38.950  27.455  29.486  1.00  0.00     0.031 C 
ATOM     22  C   UNL A   1      44.834  25.575  26.376  1.00  0.00     0.029 A 
ATOM     23  C   UNL A   1      44.817  26.914  26.943  1.00  0.00     0.049 A 
ATOM     24  H   UNL A   1      43.318  27.797  28.093  1.00  0.00     0.167 HD
ATOM     25  C   UNL A   1      39.849  29.717  29.991  1.00  0.00     0.034 A 
ATOM     26  C   UNL A   1      45.807  27.812  26.793  1.00  0.00     0.034 A 
ATOM     27  C   UNL A   1      40.904  30.701  30.003  1.00  0.00     0.049 A 
ATOM     28  C   UNL A   1      45.637  29.170  27.396  1.00  0.00     0.074 A 
ATOM     29  C   UNL A   1      40.895  31.967  30.563  1.00  0.00     0.029 A 
ATOM     30  N   UNL A   1      42.152  30.535  29.420  1.00  0.00    -0.354 N 
ATOM     31  N   UNL A   1      44.620  29.647  28.072  1.00  0.00    -0.248 NA
ATOM     32  C   UNL A   1      46.754  30.107  27.236  1.00  0.00     0.031 C 
ATOM     33  C   UNL A   1      42.125  32.576  30.293  1.00  0.00     0.029 A 
ATOM     34  C   UNL A   1      42.916  31.678  29.597  1.00  0.00     0.049 A 
ATOM     35  H   UNL A   1      42.451  29.724  28.949  1.00  0.00     0.167 HD
ATOM     36  C   UNL A   1      44.983  30.933  28.440  1.00  0.00     0.074 A 
ATOM     37  C   UNL A   1      46.325  31.148  27.936  1.00  0.00     0.031 C 
ATOM     38  C   UNL A   1      44.264  31.859  29.121  1.00  0.00     0.034 A 
BRANCH  25  39
ATOM     39  C   UNL A   1      38.528  30.102  30.617  1.00  0.00     0.023 A 
ATOM     40  C   UNL A   1      38.265  29.772  31.962  1.00  0.00     0.012 A 
ATOM     41  C   UNL A   1      37.589  30.882  29.907  1.00  0.00     0.148 A 
ATOM     42  C   UNL A   1      37.085  30.188  32.582  1.00  0.00     0.002 A 
ATOM     43  C   UNL A   1      36.434  31.328  30.543  1.00  0.00     0.091 A 
ATOM     44  F   UNL A   1      37.845  31.178  28.625  1.00  0.00    -0.205 F 
ATOM     45  C   UNL A   1      36.177  30.973  31.877  1.00  0.00     0.022 A 
BRANCH  43  46
ATOM     46  S   UNL A   1      35.240  32.412  29.749  1.00  0.00     0.127 S 
ATOM     47  O   UNL A   1      34.704  31.543  28.702  1.00  0.00    -0.237 OA
ATOM     48  O   UNL A   1      34.307  32.696  30.840  1.00  0.00    -0.237 OA
ATOM     49  O   UNL A   1      35.994  33.565  29.279  1.00  0.00    -0.744 OA
ENDBRANCH  43  46
ENDBRANCH  25  39
BRANCH  26  50
ATOM     50  C   UNL A   1      47.040  27.423  26.058  1.00  0.00     0.023 A 
ATOM     51  C   UNL A   1      47.998  26.612  26.692  1.00  0.00     0.012 A 
ATOM     52  C   UNL A   1      47.224  27.778  24.706  1.00  0.00     0.148 A 
ATOM     53  C   UNL A   1      49.127  26.175  26.000  1.00  0.00     0.002 A 
ATOM     54  C   UNL A   1      48.316  27.284  24.003  1.00  0.00     0.091 A 
ATOM     55  F   UNL A   1      46.304  28.559  24.122  1.00  0.00    -0.205 F 
ATOM     56  C   UNL A   1      49.277  26.497  24.654  1.00  0.00     0.022 A 
BRANCH  54  57
ATOM     57  S   UNL A   1      48.491  27.509  22.231  1.00  0.00     0.127 S 
ATOM     58  O   UNL A   1      49.693  28.332  22.152  1.00  0.00    -0.237 OA
ATOM     59  O   UNL A   1      48.655  26.130  21.764  1.00  0.00    -0.237 OA
ATOM     60  O   UNL A   1      47.253  28.141  21.793  1.00  0.00    -0.744 OA
ENDBRANCH  54  57
ENDBRANCH  26  50
BRANCH  38  61
ATOM     61  C   UNL A   1      44.935  33.178  29.390  1.00  0.00     0.023 A 
ATOM     62  C   UNL A   1      45.665  33.365  30.581  1.00  0.00     0.012 A 
ATOM     63  C   UNL A   1      44.874  34.217  28.442  1.00  0.00     0.148 A 
ATOM     64  C   UNL A   1      46.291  34.583  30.841  1.00  0.00     0.002 A 
ATOM     65  C   UNL A   1      45.544  35.409  28.685  1.00  0.00     0.091 A 
ATOM     66  F   UNL A   1      44.154  34.024  27.327  1.00  0.00    -0.205 F 
ATOM     67  C   UNL A   1      46.241  35.599  29.889  1.00  0.00     0.022 A 
BRANCH  65  68
ATOM     68  S   UNL A   1      45.608  36.733  27.474  1.00  0.00     0.127 S 
ATOM     69  O   UNL A   1      44.249  37.276  27.557  1.00  0.00    -0.237 OA
ATOM     70  O   UNL A   1      46.645  37.610  28.032  1.00  0.00    -0.237 OA
ATOM     71  O   UNL A   1      45.956  36.111  26.212  1.00  0.00    -0.744 OA
ENDBRANCH  65  68
ENDBRANCH  38  61
ENDBRANCH  12  13
ENDBRANCH   5   7
ENDBRANCH   2   3
ENDBRANCH   1   2
BRANCH   1  72
ATOM     72  C   UNL A   1      34.399  23.490  26.426  1.00  0.00     0.023 C 
BRANCH  72  73
ATOM     73  C   UNL A   1      33.427  24.679  26.092  1.00  0.00     0.116 C 
BRANCH  73  74
ATOM     74  N   UNL A   1      34.048  25.876  25.553  1.00  0.00    -0.356 N 
ATOM     75  C   UNL A   1      33.512  27.132  25.411  1.00  0.00     0.224 C 
ATOM     76  H   UNL A   1      34.978  25.773  25.247  1.00  0.00     0.163 HD
ATOM     77  O   UNL A   1      34.318  28.065  25.358  1.00  0.00    -0.275 OA
BRANCH  75  78
ATOM     78  C   UNL A   1      31.982  27.372  25.407  1.00  0.00     0.095 C 
ATOM     79  C   UNL A   1      31.440  27.434  26.852  1.00  0.00     0.041 C 
ATOM     80  C   UNL A   1      31.567  28.617  24.595  1.00  0.00     0.095 C 
ATOM     81  C   UNL A   1      31.677  28.756  27.519  1.00  0.00    -0.030 C 
ATOM     82  C   UNL A   1      31.620  29.963  25.341  1.00  0.00     0.041 C 
ATOM     83  C   UNL A   1      31.766  29.896  26.827  1.00  0.00    -0.030 C 
BRANCH  80  84
ATOM     84  C   UNL A   1      30.261  28.326  23.787  1.00  0.00     0.224 C 
ATOM     85  O   UNL A   1      29.472  29.234  23.520  1.00  0.00    -0.275 OA
ATOM     86  N   UNL A   1      29.906  27.018  23.425  1.00  0.00    -0.353 N 
ATOM     87  H   UNL A   1      28.948  26.816  23.327  1.00  0.00     0.163 HD
BRANCH  86  88
ATOM     88  C   UNL A   1      30.850  25.940  23.185  1.00  0.00     0.082 C 
ATOM     89  C   UNL A   1      30.578  24.133  23.897  1.00  0.00     0.025 C 
ATOM     90  C   UNL A   1      31.890  26.150  21.587  1.00  0.00     0.025 C 
ATOM     91  C   UNL A   1      31.899  22.755  23.477  1.00  0.00     0.002 C 
ATOM     92  C   UNL A   1      33.139  24.760  21.096  1.00  0.00     0.002 C 
ATOM     93  C   UNL A   1      33.050  23.021  21.934  1.00  0.00     0.000 C 
ENDBRANCH  86  88
ENDBRANCH  80  84
ENDBRANCH  75  78
ENDBRANCH  73  74
ENDBRANCH  72  73
ENDBRANCH   1  72
TORSDOF 16
ENDMDL
