MODEL 1
REMARK VINA RESULT:     -10.8      0.000      0.000
REMARK SMILES COCCCC(=O)N1CCCC[C@@H]1CCC(=O)NCCCCNC(=O)c1ccc(-c2c3nc(c(-c4cccc(S(=O)(=O)[O-])c4F)c4ccc([nH]4)c(-c4cccc(S(=O)(=O)[O-])c4F)c4nc(c(-c5cccc(S(=O)(=O)[O-])c5F)c5ccc2[nH]5)C=C4)C=C3)cc1
REMARK SMILES IDX 16 1 17 2 18 3 15 5 14 6 13 7 8 8 9 9 10 10 12 11 11 12 6 13
REMARK SMILES IDX 7 14 5 15 4 16 3 17 2 18 1 19 19 20 20 21 21 22 22 23 23 24
REMARK SMILES IDX 24 25 25 27 26 28 27 29 88 30 28 31 87 32 29 33 30 34 31 35
REMARK SMILES IDX 81 36 32 37 86 38 80 39 82 40 33 41 85 42 79 43 78 44 34 46
REMARK SMILES IDX 66 47 46 48 65 49 47 50 50 51 64 52 83 53 48 54 49 55 63 57
REMARK SMILES IDX 84 58 51 59 35 60 36 61 44 62 37 63 39 64 45 65 38 66 40 67
REMARK SMILES IDX 41 68 42 69 43 70 67 71 68 72 76 73 69 74 71 75 77 76 70 77
REMARK SMILES IDX 72 78 73 79 74 80 75 81 52 82 53 83 61 84 54 85 56 86 62 87
REMARK SMILES IDX 55 88 57 89 58 90 59 91 60 92
REMARK H PARENT 18 4 23 26 82 45 50 56
REMARK Flexibility Score: inf
ROOT
ATOM      1  C   UNL A   1      31.544  25.741  26.494  1.00  0.00     0.220 C 
ATOM      2  O   UNL A   1      30.756  24.797  26.400  1.00  0.00    -0.275 OA
ATOM      3  N   UNL A   1      31.073  26.923  26.976  1.00  0.00    -0.356 N 
ATOM      4  H   UNL A   1      30.141  26.888  27.290  1.00  0.00     0.163 HD
ENDROOT
BRANCH   1   5
ATOM      5  C   UNL A   1      32.991  25.576  26.058  1.00  0.00     0.102 C 
BRANCH   5   6
ATOM      6  C   UNL A   1      33.477  24.126  26.190  1.00  0.00     0.035 C 
BRANCH   6   7
ATOM      7  C   UNL A   1      34.721  23.855  25.332  1.00  0.00     0.085 C 
ATOM      8  N   UNL A   1      34.533  23.033  24.139  1.00  0.00    -0.340 N 
ATOM      9  C   UNL A   1      35.695  22.921  23.257  1.00  0.00     0.120 C 
ATOM     10  C   UNL A   1      36.957  22.517  24.036  1.00  0.00     0.022 C 
ATOM     11  C   UNL A   1      35.916  23.380  26.160  1.00  0.00     0.025 C 
ATOM     12  C   UNL A   1      37.173  23.360  25.294  1.00  0.00     0.004 C 
BRANCH   8  13
ATOM     13  C   UNL A   1      33.553  22.060  24.085  1.00  0.00     0.222 C 
ATOM     14  O   UNL A   1      32.760  21.963  23.152  1.00  0.00    -0.275 OA
BRANCH  13  15
ATOM     15  C   UNL A   1      33.667  21.000  25.170  1.00  0.00     0.102 C 
BRANCH  15  16
ATOM     16  C   UNL A   1      34.351  19.741  24.613  1.00  0.00     0.038 C 
BRANCH  16  17
ATOM     17  C   UNL A   1      33.531  18.465  24.814  1.00  0.00     0.160 C 
BRANCH  17  18
ATOM     18  O   UNL A   1      34.263  17.386  24.236  1.00  0.00    -0.385 OA
ATOM     19  C   UNL A   1      33.591  16.139  24.334  1.00  0.00     0.194 C 
ENDBRANCH  17  18
ENDBRANCH  16  17
ENDBRANCH  15  16
ENDBRANCH  13  15
ENDBRANCH   8  13
ENDBRANCH   6   7
ENDBRANCH   5   6
ENDBRANCH   1   5
BRANCH   3  20
ATOM     20  C   UNL A   1      31.699  28.230  27.109  1.00  0.00     0.116 C 
BRANCH  20  21
ATOM     21  C   UNL A   1      31.572  29.027  25.803  1.00  0.00     0.023 C 
BRANCH  21  22
ATOM     22  C   UNL A   1      31.940  30.499  25.893  1.00  0.00     0.023 C 
BRANCH  22  23
ATOM     23  C   UNL A   1      32.684  30.885  27.163  1.00  0.00     0.116 C 
BRANCH  23  24
ATOM     24  N   UNL A   1      32.778  32.324  27.400  1.00  0.00    -0.352 N 
ATOM     25  C   UNL A   1      33.881  33.045  27.814  1.00  0.00     0.251 C 
ATOM     26  H   UNL A   1      31.955  32.842  27.244  1.00  0.00     0.163 HD
ATOM     27  O   UNL A   1      33.807  34.247  28.015  1.00  0.00    -0.269 OA
BRANCH  25  28
ATOM     28  C   UNL A   1      35.138  32.307  28.066  1.00  0.00     0.039 A 
ATOM     29  C   UNL A   1      36.324  33.025  28.229  1.00  0.00     0.014 A 
ATOM     30  C   UNL A   1      35.097  30.932  28.304  1.00  0.00     0.014 A 
ATOM     31  C   UNL A   1      37.446  32.380  28.751  1.00  0.00     0.010 A 
ATOM     32  C   UNL A   1      36.182  30.319  28.914  1.00  0.00     0.010 A 
ATOM     33  C   UNL A   1      37.362  31.040  29.163  1.00  0.00    -0.014 A 
BRANCH  33  34
ATOM     34  C   UNL A   1      38.464  30.370  29.900  1.00  0.00     0.031 A 
ATOM     35  C   UNL A   1      38.816  30.820  31.291  1.00  0.00     0.074 A 
ATOM     36  C   UNL A   1      39.236  29.461  29.268  1.00  0.00     0.049 A 
ATOM     37  N   UNL A   1      39.828  30.469  32.039  1.00  0.00    -0.248 NA
ATOM     38  C   UNL A   1      37.938  31.832  31.903  1.00  0.00     0.031 C 
ATOM     39  C   UNL A   1      39.058  29.009  27.885  1.00  0.00     0.029 A 
ATOM     40  N   UNL A   1      40.350  28.780  29.694  1.00  0.00    -0.354 N 
ATOM     41  C   UNL A   1      39.739  31.251  33.184  1.00  0.00     0.074 A 
ATOM     42  C   UNL A   1      38.595  32.120  33.017  1.00  0.00     0.031 C 
ATOM     43  C   UNL A   1      40.022  28.126  27.581  1.00  0.00     0.029 A 
ATOM     44  C   UNL A   1      40.907  27.971  28.731  1.00  0.00     0.049 A 
ATOM     45  H   UNL A   1      40.716  28.864  30.604  1.00  0.00     0.167 HD
ATOM     46  C   UNL A   1      40.517  31.225  34.291  1.00  0.00     0.034 A 
ATOM     47  C   UNL A   1      42.011  27.197  28.766  1.00  0.00     0.034 A 
ATOM     48  C   UNL A   1      41.603  30.306  34.486  1.00  0.00     0.049 A 
ATOM     49  C   UNL A   1      42.820  27.137  30.033  1.00  0.00     0.074 A 
ATOM     50  C   UNL A   1      42.375  30.115  35.619  1.00  0.00     0.029 A 
ATOM     51  N   UNL A   1      42.071  29.421  33.527  1.00  0.00    -0.354 N 
ATOM     52  N   UNL A   1      42.618  27.760  31.169  1.00  0.00    -0.248 NA
ATOM     53  C   UNL A   1      43.991  26.247  30.037  1.00  0.00     0.031 C 
ATOM     54  C   UNL A   1      43.315  29.119  35.341  1.00  0.00     0.029 A 
ATOM     55  C   UNL A   1      43.125  28.684  34.039  1.00  0.00     0.049 A 
ATOM     56  H   UNL A   1      41.707  29.330  32.617  1.00  0.00     0.167 HD
ATOM     57  C   UNL A   1      43.616  27.317  32.029  1.00  0.00     0.074 A 
ATOM     58  C   UNL A   1      44.409  26.357  31.291  1.00  0.00     0.031 C 
ATOM     59  C   UNL A   1      43.865  27.689  33.309  1.00  0.00     0.034 A 
BRANCH  46  60
ATOM     60  C   UNL A   1      40.166  32.168  35.410  1.00  0.00     0.023 A 
ATOM     61  C   UNL A   1      40.850  33.396  35.517  1.00  0.00     0.012 A 
ATOM     62  C   UNL A   1      39.139  31.865  36.323  1.00  0.00     0.148 A 
ATOM     63  C   UNL A   1      40.542  34.293  36.538  1.00  0.00     0.002 A 
ATOM     64  C   UNL A   1      38.810  32.784  37.314  1.00  0.00     0.091 A 
ATOM     65  F   UNL A   1      38.518  30.681  36.221  1.00  0.00    -0.205 F 
ATOM     66  C   UNL A   1      39.516  33.992  37.428  1.00  0.00     0.022 A 
BRANCH  64  67
ATOM     67  S   UNL A   1      37.456  32.518  38.465  1.00  0.00     0.127 S 
ATOM     68  O   UNL A   1      36.307  32.956  37.673  1.00  0.00    -0.237 OA
ATOM     69  O   UNL A   1      37.524  31.074  38.695  1.00  0.00    -0.237 OA
ATOM     70  O   UNL A   1      37.761  33.331  39.633  1.00  0.00    -0.744 OA
ENDBRANCH  64  67
ENDBRANCH  46  60
BRANCH  47  71
ATOM     71  C   UNL A   1      42.372  26.359  27.588  1.00  0.00     0.023 A 
ATOM     72  C   UNL A   1      43.160  26.921  26.563  1.00  0.00     0.012 A 
ATOM     73  C   UNL A   1      41.977  25.012  27.486  1.00  0.00     0.148 A 
ATOM     74  C   UNL A   1      43.524  26.165  25.448  1.00  0.00     0.002 A 
ATOM     75  C   UNL A   1      42.387  24.249  26.398  1.00  0.00     0.091 A 
ATOM     76  F   UNL A   1      41.215  24.497  28.463  1.00  0.00    -0.205 F 
ATOM     77  C   UNL A   1      43.147  24.827  25.370  1.00  0.00     0.022 A 
BRANCH  75  78
ATOM     78  S   UNL A   1      42.060  22.485  26.287  1.00  0.00     0.127 S 
ATOM     79  O   UNL A   1      42.725  22.136  25.036  1.00  0.00    -0.237 OA
ATOM     80  O   UNL A   1      42.711  21.977  27.496  1.00  0.00    -0.237 OA
ATOM     81  O   UNL A   1      40.608  22.360  26.296  1.00  0.00    -0.744 OA
ENDBRANCH  75  78
ENDBRANCH  47  71
BRANCH  59  82
ATOM     82  C   UNL A   1      45.031  27.045  34.011  1.00  0.00     0.023 A 
ATOM     83  C   UNL A   1      46.309  27.627  33.907  1.00  0.00     0.012 A 
ATOM     84  C   UNL A   1      44.840  25.931  34.852  1.00  0.00     0.148 A 
ATOM     85  C   UNL A   1      47.386  27.097  34.615  1.00  0.00     0.002 A 
ATOM     86  C   UNL A   1      45.910  25.437  35.589  1.00  0.00     0.091 A 
ATOM     87  F   UNL A   1      43.618  25.384  34.922  1.00  0.00    -0.205 F 
ATOM     88  C   UNL A   1      47.184  26.013  35.466  1.00  0.00     0.022 A 
BRANCH  86  89
ATOM     89  S   UNL A   1      45.723  24.103  36.779  1.00  0.00     0.127 S 
ATOM     90  O   UNL A   1      46.965  24.210  37.543  1.00  0.00    -0.237 OA
ATOM     91  O   UNL A   1      44.520  24.505  37.509  1.00  0.00    -0.237 OA
ATOM     92  O   UNL A   1      45.574  22.884  35.996  1.00  0.00    -0.744 OA
ENDBRANCH  86  89
ENDBRANCH  59  82
ENDBRANCH  33  34
ENDBRANCH  25  28
ENDBRANCH  23  24
ENDBRANCH  22  23
ENDBRANCH  21  22
ENDBRANCH  20  21
ENDBRANCH   3  20
TORSDOF 21
ENDMDL
MODEL 2
REMARK VINA RESULT:     -10.7      5.137     10.615
REMARK SMILES COCCCC(=O)N1CCCC[C@@H]1CCC(=O)NCCCCNC(=O)c1ccc(-c2c3nc(c(-c4cccc(S(=O)(=O)[O-])c4F)c4ccc([nH]4)c(-c4cccc(S(=O)(=O)[O-])c4F)c4nc(c(-c5cccc(S(=O)(=O)[O-])c5F)c5ccc2[nH]5)C=C4)C=C3)cc1
REMARK SMILES IDX 16 1 17 2 18 3 15 5 14 6 13 7 8 8 9 9 10 10 12 11 11 12 6 13
REMARK SMILES IDX 7 14 5 15 4 16 3 17 2 18 1 19 19 20 20 21 21 22 22 23 23 24
REMARK SMILES IDX 24 25 25 27 26 28 27 29 88 30 28 31 87 32 29 33 30 34 31 35
REMARK SMILES IDX 81 36 32 37 86 38 80 39 82 40 33 41 85 42 79 43 78 44 34 46
REMARK SMILES IDX 66 47 46 48 65 49 47 50 50 51 64 52 83 53 48 54 49 55 63 57
REMARK SMILES IDX 84 58 51 59 35 60 36 61 44 62 37 63 39 64 45 65 38 66 40 67
REMARK SMILES IDX 41 68 42 69 43 70 67 71 68 72 76 73 69 74 71 75 77 76 70 77
REMARK SMILES IDX 72 78 73 79 74 80 75 81 52 82 53 83 61 84 54 85 56 86 62 87
REMARK SMILES IDX 55 88 57 89 58 90 59 91 60 92
REMARK H PARENT 18 4 23 26 82 45 50 56
REMARK Flexibility Score: inf
ROOT
ATOM      1  C   UNL A   1      31.395  22.829  25.049  1.00  0.00     0.220 C 
ATOM      2  O   UNL A   1      30.642  23.252  25.929  1.00  0.00    -0.275 OA
ATOM      3  N   UNL A   1      32.336  21.909  25.397  1.00  0.00    -0.356 N 
ATOM      4  H   UNL A   1      32.270  21.599  26.329  1.00  0.00     0.163 HD
ENDROOT
BRANCH   1   5
ATOM      5  C   UNL A   1      31.275  23.348  23.625  1.00  0.00     0.102 C 
BRANCH   5   6
ATOM      6  C   UNL A   1      30.630  24.739  23.565  1.00  0.00     0.035 C 
BRANCH   6   7
ATOM      7  C   UNL A   1      31.539  25.822  24.166  1.00  0.00     0.085 C 
ATOM      8  N   UNL A   1      31.103  27.208  24.010  1.00  0.00    -0.340 N 
ATOM      9  C   UNL A   1      31.899  28.206  24.725  1.00  0.00     0.120 C 
ATOM     10  C   UNL A   1      33.400  28.041  24.436  1.00  0.00     0.022 C 
ATOM     11  C   UNL A   1      33.006  25.644  23.773  1.00  0.00     0.025 C 
ATOM     12  C   UNL A   1      33.879  26.597  24.587  1.00  0.00     0.004 C 
BRANCH   8  13
ATOM     13  C   UNL A   1      30.348  27.604  22.923  1.00  0.00     0.222 C 
ATOM     14  O   UNL A   1      30.712  27.441  21.761  1.00  0.00    -0.275 OA
BRANCH  13  15
ATOM     15  C   UNL A   1      28.944  28.072  23.278  1.00  0.00     0.102 C 
BRANCH  15  16
ATOM     16  C   UNL A   1      28.556  29.288  22.419  1.00  0.00     0.038 C 
BRANCH  16  17
ATOM     17  C   UNL A   1      27.757  30.343  23.186  1.00  0.00     0.160 C 
BRANCH  17  18
ATOM     18  O   UNL A   1      28.530  31.540  23.207  1.00  0.00    -0.385 OA
ATOM     19  C   UNL A   1      28.523  32.231  21.967  1.00  0.00     0.194 C 
ENDBRANCH  17  18
ENDBRANCH  16  17
ENDBRANCH  15  16
ENDBRANCH  13  15
ENDBRANCH   8  13
ENDBRANCH   6   7
ENDBRANCH   5   6
ENDBRANCH   1   5
BRANCH   3  20
ATOM     20  C   UNL A   1      33.422  21.304  24.642  1.00  0.00     0.116 C 
BRANCH  20  21
ATOM     21  C   UNL A   1      34.682  21.179  25.510  1.00  0.00     0.023 C 
BRANCH  21  22
ATOM     22  C   UNL A   1      35.962  20.837  24.764  1.00  0.00     0.023 C 
BRANCH  22  23
ATOM     23  C   UNL A   1      37.225  21.415  25.387  1.00  0.00     0.116 C 
BRANCH  23  24
ATOM     24  N   UNL A   1      38.327  20.463  25.521  1.00  0.00    -0.352 N 
ATOM     25  C   UNL A   1      39.541  20.655  26.150  1.00  0.00     0.251 C 
ATOM     26  H   UNL A   1      38.185  19.578  25.113  1.00  0.00     0.163 HD
ATOM     27  O   UNL A   1      40.395  19.782  26.150  1.00  0.00    -0.269 OA
BRANCH  25  28
ATOM     28  C   UNL A   1      39.800  21.973  26.771  1.00  0.00     0.039 A 
ATOM     29  C   UNL A   1      40.839  22.093  27.696  1.00  0.00     0.014 A 
ATOM     30  C   UNL A   1      39.123  23.102  26.307  1.00  0.00     0.014 A 
ATOM     31  C   UNL A   1      41.282  23.364  28.064  1.00  0.00     0.010 A 
ATOM     32  C   UNL A   1      39.628  24.361  26.598  1.00  0.00     0.010 A 
ATOM     33  C   UNL A   1      40.725  24.506  27.463  1.00  0.00    -0.014 A 
BRANCH  33  34
ATOM     34  C   UNL A   1      41.291  25.863  27.674  1.00  0.00     0.031 A 
ATOM     35  C   UNL A   1      42.702  26.161  27.248  1.00  0.00     0.074 A 
ATOM     36  C   UNL A   1      40.589  26.779  28.375  1.00  0.00     0.049 A 
ATOM     37  N   UNL A   1      43.424  27.226  27.474  1.00  0.00    -0.248 NA
ATOM     38  C   UNL A   1      43.409  25.102  26.508  1.00  0.00     0.031 C 
ATOM     39  C   UNL A   1      39.247  26.580  28.928  1.00  0.00     0.029 A 
ATOM     40  N   UNL A   1      40.923  28.050  28.775  1.00  0.00    -0.354 N 
ATOM     41  C   UNL A   1      44.681  26.947  26.953  1.00  0.00     0.074 A 
ATOM     42  C   UNL A   1      44.634  25.599  26.430  1.00  0.00     0.031 C 
ATOM     43  C   UNL A   1      38.872  27.688  29.588  1.00  0.00     0.029 A 
ATOM     44  C   UNL A   1      39.955  28.664  29.536  1.00  0.00     0.049 A 
ATOM     45  H   UNL A   1      41.776  28.481  28.539  1.00  0.00     0.167 HD
ATOM     46  C   UNL A   1      45.767  27.751  26.882  1.00  0.00     0.034 A 
ATOM     47  C   UNL A   1      39.944  29.873  30.134  1.00  0.00     0.034 A 
ATOM     48  C   UNL A   1      45.785  29.116  27.330  1.00  0.00     0.049 A 
ATOM     49  C   UNL A   1      41.141  30.772  29.982  1.00  0.00     0.074 A 
ATOM     50  C   UNL A   1      46.794  30.052  27.193  1.00  0.00     0.029 A 
ATOM     51  N   UNL A   1      44.745  29.741  28.000  1.00  0.00    -0.354 N 
ATOM     52  N   UNL A   1      42.260  30.552  29.335  1.00  0.00    -0.248 NA
ATOM     53  C   UNL A   1      41.064  32.098  30.615  1.00  0.00     0.031 C 
ATOM     54  C   UNL A   1      46.366  31.243  27.788  1.00  0.00     0.029 A 
ATOM     55  C   UNL A   1      45.088  31.050  28.289  1.00  0.00     0.049 A 
ATOM     56  H   UNL A   1      43.888  29.316  28.235  1.00  0.00     0.167 HD
ATOM     57  C   UNL A   1      43.007  31.718  29.459  1.00  0.00     0.074 A 
ATOM     58  C   UNL A   1      42.205  32.650  30.224  1.00  0.00     0.031 C 
ATOM     59  C   UNL A   1      44.254  31.984  28.998  1.00  0.00     0.034 A 
BRANCH  46  60
ATOM     60  C   UNL A   1      47.001  27.197  26.223  1.00  0.00     0.023 A 
ATOM     61  C   UNL A   1      47.164  27.344  24.830  1.00  0.00     0.012 A 
ATOM     62  C   UNL A   1      48.013  26.575  26.978  1.00  0.00     0.148 A 
ATOM     63  C   UNL A   1      48.300  26.847  24.193  1.00  0.00     0.002 A 
ATOM     64  C   UNL A   1      49.162  26.120  26.340  1.00  0.00     0.091 A 
ATOM     65  F   UNL A   1      47.827  26.423  28.297  1.00  0.00    -0.205 F 
ATOM     66  C   UNL A   1      49.302  26.246  24.948  1.00  0.00     0.022 A 
BRANCH  64  67
ATOM     67  S   UNL A   1      50.540  25.395  27.236  1.00  0.00     0.127 S 
ATOM     68  O   UNL A   1      51.441  25.031  26.144  1.00  0.00    -0.237 OA
ATOM     69  O   UNL A   1      50.999  26.516  28.058  1.00  0.00    -0.237 OA
ATOM     70  O   UNL A   1      49.984  24.281  27.990  1.00  0.00    -0.744 OA
ENDBRANCH  64  67
ENDBRANCH  46  60
BRANCH  47  71
ATOM     71  C   UNL A   1      38.730  30.332  30.865  1.00  0.00     0.023 A 
ATOM     72  C   UNL A   1      38.643  30.112  32.254  1.00  0.00     0.012 A 
ATOM     73  C   UNL A   1      37.683  31.010  30.213  1.00  0.00     0.148 A 
ATOM     74  C   UNL A   1      37.524  30.534  32.975  1.00  0.00     0.002 A 
ATOM     75  C   UNL A   1      36.595  31.475  30.944  1.00  0.00     0.091 A 
ATOM     76  F   UNL A   1      37.775  31.198  28.888  1.00  0.00    -0.205 F 
ATOM     77  C   UNL A   1      36.506  31.225  32.322  1.00  0.00     0.022 A 
BRANCH  75  78
ATOM     78  S   UNL A   1      35.308  32.489  30.208  1.00  0.00     0.127 S 
ATOM     79  O   UNL A   1      34.428  32.732  31.348  1.00  0.00    -0.237 OA
ATOM     80  O   UNL A   1      36.063  33.657  29.750  1.00  0.00    -0.237 OA
ATOM     81  O   UNL A   1      34.750  31.683  29.130  1.00  0.00    -0.744 OA
ENDBRANCH  75  78
ENDBRANCH  47  71
BRANCH  59  82
ATOM     82  C   UNL A   1      44.832  33.344  29.286  1.00  0.00     0.023 A 
ATOM     83  C   UNL A   1      45.597  33.539  30.451  1.00  0.00     0.012 A 
ATOM     84  C   UNL A   1      44.703  34.392  28.354  1.00  0.00     0.148 A 
ATOM     85  C   UNL A   1      46.212  34.765  30.696  1.00  0.00     0.002 A 
ATOM     86  C   UNL A   1      45.356  35.598  28.584  1.00  0.00     0.091 A 
ATOM     87  F   UNL A   1      43.956  34.189  27.260  1.00  0.00    -0.205 F 
ATOM     88  C   UNL A   1      46.103  35.789  29.757  1.00  0.00     0.022 A 
BRANCH  86  89
ATOM     89  S   UNL A   1      45.348  36.939  27.388  1.00  0.00     0.127 S 
ATOM     90  O   UNL A   1      45.964  36.303  26.225  1.00  0.00    -0.237 OA
ATOM     91  O   UNL A   1      43.918  37.218  27.245  1.00  0.00    -0.237 OA
ATOM     92  O   UNL A   1      46.116  38.020  27.991  1.00  0.00    -0.744 OA
ENDBRANCH  86  89
ENDBRANCH  59  82
ENDBRANCH  33  34
ENDBRANCH  25  28
ENDBRANCH  23  24
ENDBRANCH  22  23
ENDBRANCH  21  22
ENDBRANCH  20  21
ENDBRANCH   3  20
TORSDOF 21
ENDMDL
MODEL 3
REMARK VINA RESULT:     -10.2      2.527      3.357
REMARK SMILES COCCCC(=O)N1CCCC[C@@H]1CCC(=O)NCCCCNC(=O)c1ccc(-c2c3nc(c(-c4cccc(S(=O)(=O)[O-])c4F)c4ccc([nH]4)c(-c4cccc(S(=O)(=O)[O-])c4F)c4nc(c(-c5cccc(S(=O)(=O)[O-])c5F)c5ccc2[nH]5)C=C4)C=C3)cc1
REMARK SMILES IDX 16 1 17 2 18 3 15 5 14 6 13 7 8 8 9 9 10 10 12 11 11 12 6 13
REMARK SMILES IDX 7 14 5 15 4 16 3 17 2 18 1 19 19 20 20 21 21 22 22 23 23 24
REMARK SMILES IDX 24 25 25 27 26 28 27 29 88 30 28 31 87 32 29 33 30 34 31 35
REMARK SMILES IDX 81 36 32 37 86 38 80 39 82 40 33 41 85 42 79 43 78 44 34 46
REMARK SMILES IDX 66 47 46 48 65 49 47 50 50 51 64 52 83 53 48 54 49 55 63 57
REMARK SMILES IDX 84 58 51 59 35 60 36 61 44 62 37 63 39 64 45 65 38 66 40 67
REMARK SMILES IDX 41 68 42 69 43 70 67 71 68 72 76 73 69 74 71 75 77 76 70 77
REMARK SMILES IDX 72 78 73 79 74 80 75 81 52 82 53 83 61 84 54 85 56 86 62 87
REMARK SMILES IDX 55 88 57 89 58 90 59 91 60 92
REMARK H PARENT 18 4 23 26 82 45 50 56
REMARK Flexibility Score: inf
ROOT
ATOM      1  C   UNL A   1      31.335  25.817  26.628  1.00  0.00     0.220 C 
ATOM      2  O   UNL A   1      30.380  25.041  26.560  1.00  0.00    -0.275 OA
ATOM      3  N   UNL A   1      31.109  27.070  27.110  1.00  0.00    -0.356 N 
ATOM      4  H   UNL A   1      30.195  27.214  27.446  1.00  0.00     0.163 HD
ENDROOT
BRANCH   1   5
ATOM      5  C   UNL A   1      32.714  25.378  26.161  1.00  0.00     0.102 C 
BRANCH   5   6
ATOM      6  C   UNL A   1      32.755  23.890  25.789  1.00  0.00     0.035 C 
BRANCH   6   7
ATOM      7  C   UNL A   1      34.185  23.406  25.506  1.00  0.00     0.085 C 
ATOM      8  N   UNL A   1      34.755  23.760  24.208  1.00  0.00    -0.340 N 
ATOM      9  C   UNL A   1      36.168  23.426  24.026  1.00  0.00     0.120 C 
ATOM     10  C   UNL A   1      36.453  21.961  24.396  1.00  0.00     0.022 C 
ATOM     11  C   UNL A   1      34.377  21.922  25.821  1.00  0.00     0.025 C 
ATOM     12  C   UNL A   1      35.861  21.565  25.749  1.00  0.00     0.004 C 
BRANCH   8  13
ATOM     13  C   UNL A   1      33.955  23.927  23.094  1.00  0.00     0.222 C 
ATOM     14  O   UNL A   1      33.388  22.993  22.534  1.00  0.00    -0.275 OA
BRANCH  13  15
ATOM     15  C   UNL A   1      33.671  25.380  22.743  1.00  0.00     0.102 C 
BRANCH  15  16
ATOM     16  C   UNL A   1      32.785  25.459  21.488  1.00  0.00     0.038 C 
BRANCH  16  17
ATOM     17  C   UNL A   1      31.539  26.326  21.680  1.00  0.00     0.160 C 
BRANCH  17  18
ATOM     18  O   UNL A   1      31.053  26.098  23.001  1.00  0.00    -0.385 OA
ATOM     19  C   UNL A   1      30.334  24.880  23.129  1.00  0.00     0.194 C 
ENDBRANCH  17  18
ENDBRANCH  16  17
ENDBRANCH  15  16
ENDBRANCH  13  15
ENDBRANCH   8  13
ENDBRANCH   6   7
ENDBRANCH   5   6
ENDBRANCH   1   5
BRANCH   3  20
ATOM     20  C   UNL A   1      31.975  28.234  27.218  1.00  0.00     0.116 C 
BRANCH  20  21
ATOM     21  C   UNL A   1      31.709  29.215  26.068  1.00  0.00     0.023 C 
BRANCH  21  22
ATOM     22  C   UNL A   1      32.360  30.582  26.206  1.00  0.00     0.023 C 
BRANCH  22  23
ATOM     23  C   UNL A   1      33.603  30.601  27.085  1.00  0.00     0.116 C 
BRANCH  23  24
ATOM     24  N   UNL A   1      33.709  31.764  27.964  1.00  0.00    -0.352 N 
ATOM     25  C   UNL A   1      34.732  32.077  28.837  1.00  0.00     0.251 C 
ATOM     26  H   UNL A   1      32.959  32.402  27.928  1.00  0.00     0.163 HD
ATOM     27  O   UNL A   1      34.671  33.067  29.549  1.00  0.00    -0.269 OA
BRANCH  25  28
ATOM     28  C   UNL A   1      35.876  31.143  28.928  1.00  0.00     0.039 A 
ATOM     29  C   UNL A   1      37.099  31.515  28.368  1.00  0.00     0.014 A 
ATOM     30  C   UNL A   1      35.768  29.992  29.710  1.00  0.00     0.014 A 
ATOM     31  C   UNL A   1      38.248  30.791  28.694  1.00  0.00     0.010 A 
ATOM     32  C   UNL A   1      36.924  29.336  30.110  1.00  0.00     0.010 A 
ATOM     33  C   UNL A   1      38.178  29.740  29.624  1.00  0.00    -0.014 A 
BRANCH  33  34
ATOM     34  C   UNL A   1      39.395  29.070  30.150  1.00  0.00     0.031 A 
ATOM     35  C   UNL A   1      40.095  29.630  31.357  1.00  0.00     0.074 A 
ATOM     36  C   UNL A   1      39.949  28.051  29.460  1.00  0.00     0.049 A 
ATOM     37  N   UNL A   1      41.242  29.285  31.878  1.00  0.00    -0.248 NA
ATOM     38  C   UNL A   1      39.440  30.758  32.041  1.00  0.00     0.031 C 
ATOM     39  C   UNL A   1      39.419  27.477  28.220  1.00  0.00     0.029 A 
ATOM     40  N   UNL A   1      41.101  27.338  29.685  1.00  0.00    -0.354 N 
ATOM     41  C   UNL A   1      41.471  30.181  32.915  1.00  0.00     0.074 A 
ATOM     42  C   UNL A   1      40.360  31.108  32.926  1.00  0.00     0.031 C 
ATOM     43  C   UNL A   1      40.240  26.501  27.798  1.00  0.00     0.029 A 
ATOM     44  C   UNL A   1      41.370  26.399  28.715  1.00  0.00     0.049 A 
ATOM     45  H   UNL A   1      41.681  27.486  30.466  1.00  0.00     0.167 HD
ATOM     46  C   UNL A   1      42.492  30.210  33.802  1.00  0.00     0.034 A 
ATOM     47  C   UNL A   1      42.414  25.556  28.575  1.00  0.00     0.034 A 
ATOM     48  C   UNL A   1      43.551  29.240  33.837  1.00  0.00     0.049 A 
ATOM     49  C   UNL A   1      43.503  25.566  29.613  1.00  0.00     0.074 A 
ATOM     50  C   UNL A   1      44.566  29.109  34.768  1.00  0.00     0.029 A 
ATOM     51  N   UNL A   1      43.731  28.233  32.901  1.00  0.00    -0.354 N 
ATOM     52  N   UNL A   1      43.612  26.311  30.686  1.00  0.00    -0.248 NA
ATOM     53  C   UNL A   1      44.598  24.599  29.439  1.00  0.00     0.031 C 
ATOM     54  C   UNL A   1      45.365  28.026  34.391  1.00  0.00     0.029 A 
ATOM     55  C   UNL A   1      44.844  27.478  33.229  1.00  0.00     0.049 A 
ATOM     56  H   UNL A   1      43.152  28.078  32.120  1.00  0.00     0.167 HD
ATOM     57  C   UNL A   1      44.769  25.886  31.329  1.00  0.00     0.074 A 
ATOM     58  C   UNL A   1      45.314  24.804  30.538  1.00  0.00     0.031 C 
ATOM     59  C   UNL A   1      45.339  26.365  32.462  1.00  0.00     0.034 A 
BRANCH  46  60
ATOM     60  C   UNL A   1      42.467  31.282  34.857  1.00  0.00     0.023 A 
ATOM     61  C   UNL A   1      41.813  31.031  36.080  1.00  0.00     0.012 A 
ATOM     62  C   UNL A   1      43.123  32.513  34.661  1.00  0.00     0.148 A 
ATOM     63  C   UNL A   1      41.780  32.002  37.079  1.00  0.00     0.002 A 
ATOM     64  C   UNL A   1      43.120  33.460  35.679  1.00  0.00     0.091 A 
ATOM     65  F   UNL A   1      43.717  32.742  33.482  1.00  0.00    -0.205 F 
ATOM     66  C   UNL A   1      42.442  33.210  36.884  1.00  0.00     0.022 A 
BRANCH  64  67
ATOM     67  S   UNL A   1      44.004  35.018  35.549  1.00  0.00     0.127 S 
ATOM     68  O   UNL A   1      43.667  35.654  36.822  1.00  0.00    -0.237 OA
ATOM     69  O   UNL A   1      45.395  34.577  35.438  1.00  0.00    -0.237 OA
ATOM     70  O   UNL A   1      43.481  35.675  34.360  1.00  0.00    -0.744 OA
ENDBRANCH  64  67
ENDBRANCH  46  60
BRANCH  47  71
ATOM     71  C   UNL A   1      42.439  24.582  27.448  1.00  0.00     0.023 A 
ATOM     72  C   UNL A   1      43.288  24.826  26.350  1.00  0.00     0.012 A 
ATOM     73  C   UNL A   1      41.664  23.407  27.466  1.00  0.00     0.148 A 
ATOM     74  C   UNL A   1      43.344  23.933  25.279  1.00  0.00     0.002 A 
ATOM     75  C   UNL A   1      41.763  22.495  26.420  1.00  0.00     0.091 A 
ATOM     76  F   UNL A   1      40.850  23.197  28.511  1.00  0.00    -0.205 F 
ATOM     77  C   UNL A   1      42.591  22.763  25.319  1.00  0.00     0.022 A 
BRANCH  75  78
ATOM     78  S   UNL A   1      40.932  20.902  26.456  1.00  0.00     0.127 S 
ATOM     79  O   UNL A   1      39.646  21.221  25.845  1.00  0.00    -0.237 OA
ATOM     80  O   UNL A   1      41.819  20.076  25.635  1.00  0.00    -0.237 OA
ATOM     81  O   UNL A   1      40.895  20.518  27.862  1.00  0.00    -0.744 OA
ENDBRANCH  75  78
ENDBRANCH  47  71
BRANCH  59  82
ATOM     82  C   UNL A   1      46.610  25.713  32.936  1.00  0.00     0.023 A 
ATOM     83  C   UNL A   1      47.850  26.288  32.598  1.00  0.00     0.012 A 
ATOM     84  C   UNL A   1      46.571  24.599  33.797  1.00  0.00     0.148 A 
ATOM     85  C   UNL A   1      49.037  25.751  33.095  1.00  0.00     0.002 A 
ATOM     86  C   UNL A   1      47.756  24.097  34.323  1.00  0.00     0.091 A 
ATOM     87  F   UNL A   1      45.380  24.059  34.091  1.00  0.00    -0.205 F 
ATOM     88  C   UNL A   1      48.989  24.666  33.967  1.00  0.00     0.022 A 
BRANCH  86  89
ATOM     89  S   UNL A   1      47.784  22.762  35.525  1.00  0.00     0.127 S 
ATOM     90  O   UNL A   1      47.336  21.627  34.720  1.00  0.00    -0.237 OA
ATOM     91  O   UNL A   1      49.196  22.719  35.908  1.00  0.00    -0.237 OA
ATOM     92  O   UNL A   1      46.882  23.165  36.596  1.00  0.00    -0.744 OA
ENDBRANCH  86  89
ENDBRANCH  59  82
ENDBRANCH  33  34
ENDBRANCH  25  28
ENDBRANCH  23  24
ENDBRANCH  22  23
ENDBRANCH  21  22
ENDBRANCH  20  21
ENDBRANCH   3  20
TORSDOF 21
ENDMDL
