MODEL 1
REMARK VINA RESULT:     -12.2      0.000      0.000
REMARK SMILES NS(=O)(=O)c1ccc(-n2nc(C(F)F)cc2-c2ccc(C(=O)NCCCCNC(=O)c3ccc(-c4c5nc(c(-c6cccc(S(=O)(=O)[O-])c6F)c6ccc([nH]6)c(-c6cccc(S(=O)(=O)[O-])c6F)c6nc(c(-c7cccc(S(=O)(=O)[O-])c7F)c7ccc4[nH]7)C=C6)C=C5)cc3)cc2)cc1
REMARK SMILES IDX 25 1 24 2 23 3 21 4 22 5 20 7 17 8 18 9 95 10 19 11 94 12
REMARK SMILES IDX 16 13 9 14 10 15 11 16 15 17 8 18 5 19 6 20 97 21 7 22 96 23
REMARK SMILES IDX 2 24 3 25 4 26 1 27 12 30 13 31 14 32 26 33 27 34 28 35
REMARK SMILES IDX 29 36 30 38 31 39 32 40 93 41 33 42 92 43 34 44 35 45 36 46
REMARK SMILES IDX 86 47 37 48 91 49 85 50 87 51 38 52 90 53 84 54 83 55 39 57
REMARK SMILES IDX 71 58 51 59 70 60 52 61 55 62 69 63 88 64 53 65 54 66 68 68
REMARK SMILES IDX 89 69 56 70 40 71 41 72 49 73 42 74 44 75 50 76 43 77 45 78
REMARK SMILES IDX 46 79 47 80 48 81 72 82 73 83 81 84 74 85 76 86 82 87 75 88
REMARK SMILES IDX 77 89 78 90 79 91 80 92 57 93 58 94 66 95 59 96 61 97 67 98
REMARK SMILES IDX 60 99 62 100 63 101 64 102 65 103
REMARK H PARENT 23 6 1 28 1 29 28 37 87 56 55 67
REMARK Flexibility Score: inf
ROOT
ATOM      1  C   UNL A   1      32.189  28.455  24.061  1.00  0.00     0.023 C 
ENDROOT
BRANCH   1   2
ATOM      2  C   UNL A   1      31.936  27.788  22.701  1.00  0.00     0.116 C 
BRANCH   2   3
ATOM      3  N   UNL A   1      30.969  26.716  22.830  1.00  0.00    -0.352 N 
ATOM      4  C   UNL A   1      31.077  25.417  23.255  1.00  0.00     0.251 C 
ATOM      5  O   UNL A   1      30.084  24.695  23.180  1.00  0.00    -0.269 OA
ATOM      6  H   UNL A   1      30.056  26.969  22.558  1.00  0.00     0.163 HD
BRANCH   4   7
ATOM      7  C   UNL A   1      32.331  24.846  23.821  1.00  0.00     0.039 A 
ATOM      8  C   UNL A   1      34.746  23.735  24.738  1.00  0.00     0.000 A 
ATOM      9  C   UNL A   1      34.509  23.855  23.365  1.00  0.00     0.011 A 
ATOM     10  C   UNL A   1      33.782  24.172  25.645  1.00  0.00     0.011 A 
ATOM     11  C   UNL A   1      33.302  24.398  22.912  1.00  0.00     0.014 A 
ATOM     12  C   UNL A   1      32.610  24.767  25.186  1.00  0.00     0.014 A 
BRANCH   8  13
ATOM     13  C   UNL A   1      36.016  23.248  25.248  1.00  0.00     0.075 A 
ATOM     14  N   UNL A   1      36.321  21.913  25.472  1.00  0.00    -0.233 N 
ATOM     15  N   UNL A   1      37.525  21.769  26.086  1.00  0.00    -0.166 NA
ATOM     16  C   UNL A   1      38.074  22.998  26.053  1.00  0.00     0.129 A 
ATOM     17  C   UNL A   1      37.145  23.959  25.592  1.00  0.00     0.060 A 
BRANCH  14  18
ATOM     18  C   UNL A   1      35.564  20.774  25.087  1.00  0.00     0.065 A 
ATOM     19  C   UNL A   1      34.111  18.569  24.198  1.00  0.00     0.082 A 
ATOM     20  C   UNL A   1      35.464  18.421  24.498  1.00  0.00     0.024 A 
ATOM     21  C   UNL A   1      33.473  19.806  24.362  1.00  0.00     0.024 A 
ATOM     22  C   UNL A   1      36.190  19.527  24.936  1.00  0.00     0.030 A 
ATOM     23  C   UNL A   1      34.194  20.907  24.838  1.00  0.00     0.030 A 
BRANCH  19  24
ATOM     24  S   UNL A   1      33.172  17.211  23.566  1.00  0.00     0.238 S 
ATOM     25  O   UNL A   1      32.399  16.642  24.637  1.00  0.00    -0.207 OA
ATOM     26  O   UNL A   1      34.043  16.418  22.722  1.00  0.00    -0.207 OA
BRANCH  24  27
ATOM     27  N   UNL A   1      32.053  17.913  22.526  1.00  0.00    -0.225 NA
ATOM     28  H   UNL A   1      31.580  18.680  23.004  1.00  0.00     0.137 HD
ATOM     29  H   UNL A   1      31.367  17.214  22.243  1.00  0.00     0.137 HD
ENDBRANCH  24  27
ENDBRANCH  19  24
ENDBRANCH  14  18
BRANCH  16  30
ATOM     30  C   UNL A   1      39.495  23.269  26.445  1.00  0.00     0.393 C 
ATOM     31  F   UNL A   1      39.613  24.298  27.326  1.00  0.00    -0.203 F 
ATOM     32  F   UNL A   1      40.064  22.181  27.040  1.00  0.00    -0.203 F 
ENDBRANCH  16  30
ENDBRANCH   8  13
ENDBRANCH   4   7
ENDBRANCH   2   3
ENDBRANCH   1   2
BRANCH   1  33
ATOM     33  C   UNL A   1      33.662  28.492  24.492  1.00  0.00     0.023 C 
BRANCH  33  34
ATOM     34  C   UNL A   1      33.874  28.694  25.988  1.00  0.00     0.116 C 
BRANCH  34  35
ATOM     35  N   UNL A   1      33.419  30.008  26.446  1.00  0.00    -0.352 N 
ATOM     36  C   UNL A   1      34.008  30.827  27.388  1.00  0.00     0.251 C 
ATOM     37  H   UNL A   1      32.594  30.349  26.031  1.00  0.00     0.163 HD
ATOM     38  O   UNL A   1      33.353  31.678  27.979  1.00  0.00    -0.269 OA
BRANCH  36  39
ATOM     39  C   UNL A   1      35.448  30.673  27.651  1.00  0.00     0.039 A 
ATOM     40  C   UNL A   1      36.255  31.768  27.965  1.00  0.00     0.014 A 
ATOM     41  C   UNL A   1      35.974  29.383  27.609  1.00  0.00     0.014 A 
ATOM     42  C   UNL A   1      37.583  31.539  28.318  1.00  0.00     0.010 A 
ATOM     43  C   UNL A   1      37.234  29.145  28.095  1.00  0.00     0.010 A 
ATOM     44  C   UNL A   1      38.059  30.220  28.401  1.00  0.00    -0.014 A 
BRANCH  44  45
ATOM     45  C   UNL A   1      39.374  29.935  28.967  1.00  0.00     0.031 A 
ATOM     46  C   UNL A   1      39.516  30.370  30.384  1.00  0.00     0.074 A 
ATOM     47  C   UNL A   1      40.289  29.156  28.348  1.00  0.00     0.049 A 
ATOM     48  N   UNL A   1      40.229  31.350  30.832  1.00  0.00    -0.248 NA
ATOM     49  C   UNL A   1      38.627  29.775  31.395  1.00  0.00     0.031 C 
ATOM     50  C   UNL A   1      40.135  28.410  27.092  1.00  0.00     0.029 A 
ATOM     51  N   UNL A   1      41.511  28.744  28.784  1.00  0.00    -0.354 N 
ATOM     52  C   UNL A   1      40.090  31.306  32.219  1.00  0.00     0.074 A 
ATOM     53  C   UNL A   1      38.925  30.504  32.473  1.00  0.00     0.031 C 
ATOM     54  C   UNL A   1      41.089  27.457  27.011  1.00  0.00     0.029 A 
ATOM     55  C   UNL A   1      42.016  27.632  28.112  1.00  0.00     0.049 A 
ATOM     56  H   UNL A   1      41.998  29.193  29.514  1.00  0.00     0.167 HD
ATOM     57  C   UNL A   1      41.119  31.677  33.031  1.00  0.00     0.034 A 
ATOM     58  C   UNL A   1      43.093  26.883  28.464  1.00  0.00     0.034 A 
ATOM     59  C   UNL A   1      42.121  32.407  32.288  1.00  0.00     0.049 A 
ATOM     60  C   UNL A   1      43.917  27.714  29.368  1.00  0.00     0.074 A 
ATOM     61  C   UNL A   1      42.128  33.546  31.507  1.00  0.00     0.029 A 
ATOM     62  N   UNL A   1      43.263  31.717  31.961  1.00  0.00    -0.354 N 
ATOM     63  N   UNL A   1      44.533  28.795  28.982  1.00  0.00    -0.248 NA
ATOM     64  C   UNL A   1      43.685  27.595  30.796  1.00  0.00     0.031 C 
ATOM     65  C   UNL A   1      43.005  33.240  30.424  1.00  0.00     0.029 A 
ATOM     66  C   UNL A   1      43.551  31.974  30.650  1.00  0.00     0.049 A 
ATOM     67  H   UNL A   1      43.783  31.139  32.564  1.00  0.00     0.167 HD
ATOM     68  C   UNL A   1      44.321  29.690  30.021  1.00  0.00     0.074 A 
ATOM     69  C   UNL A   1      43.899  28.864  31.153  1.00  0.00     0.031 C 
ATOM     70  C   UNL A   1      44.212  31.029  29.779  1.00  0.00     0.034 A 
BRANCH  57  71
ATOM     71  C   UNL A   1      41.461  31.038  34.366  1.00  0.00     0.023 A 
ATOM     72  C   UNL A   1      41.893  31.910  35.395  1.00  0.00     0.012 A 
ATOM     73  C   UNL A   1      41.670  29.656  34.581  1.00  0.00     0.148 A 
ATOM     74  C   UNL A   1      42.580  31.443  36.522  1.00  0.00     0.002 A 
ATOM     75  C   UNL A   1      42.287  29.190  35.738  1.00  0.00     0.091 A 
ATOM     76  F   UNL A   1      41.390  28.773  33.623  1.00  0.00    -0.205 F 
ATOM     77  C   UNL A   1      42.779  30.081  36.693  1.00  0.00     0.022 A 
BRANCH  75  78
ATOM     78  S   UNL A   1      42.534  27.432  36.034  1.00  0.00     0.127 S 
ATOM     79  O   UNL A   1      43.524  27.103  35.011  1.00  0.00    -0.237 OA
ATOM     80  O   UNL A   1      43.036  27.433  37.408  1.00  0.00    -0.237 OA
ATOM     81  O   UNL A   1      41.224  26.816  35.875  1.00  0.00    -0.744 OA
ENDBRANCH  75  78
ENDBRANCH  57  71
BRANCH  58  82
ATOM     82  C   UNL A   1      43.368  25.436  28.291  1.00  0.00     0.023 A 
ATOM     83  C   UNL A   1      42.585  24.489  28.986  1.00  0.00     0.012 A 
ATOM     84  C   UNL A   1      44.170  24.975  27.224  1.00  0.00     0.148 A 
ATOM     85  C   UNL A   1      42.563  23.142  28.602  1.00  0.00     0.002 A 
ATOM     86  C   UNL A   1      44.145  23.635  26.845  1.00  0.00     0.091 A 
ATOM     87  F   UNL A   1      44.879  25.868  26.520  1.00  0.00    -0.205 F 
ATOM     88  C   UNL A   1      43.333  22.718  27.523  1.00  0.00     0.022 A 
BRANCH  86  89
ATOM     89  S   UNL A   1      45.082  23.022  25.438  1.00  0.00     0.127 S 
ATOM     90  O   UNL A   1      44.593  21.647  25.324  1.00  0.00    -0.237 OA
ATOM     91  O   UNL A   1      44.646  23.919  24.372  1.00  0.00    -0.237 OA
ATOM     92  O   UNL A   1      46.485  23.127  25.820  1.00  0.00    -0.744 OA
ENDBRANCH  86  89
ENDBRANCH  58  82
BRANCH  70  93
ATOM     93  C   UNL A   1      44.600  31.539  28.413  1.00  0.00     0.023 A 
ATOM     94  C   UNL A   1      43.695  31.612  27.333  1.00  0.00     0.012 A 
ATOM     95  C   UNL A   1      45.872  32.118  28.272  1.00  0.00     0.148 A 
ATOM     96  C   UNL A   1      44.060  32.231  26.133  1.00  0.00     0.002 A 
ATOM     97  C   UNL A   1      46.214  32.774  27.098  1.00  0.00     0.091 A 
ATOM     98  F   UNL A   1      46.719  32.039  29.309  1.00  0.00    -0.205 F 
ATOM     99  C   UNL A   1      45.316  32.826  26.021  1.00  0.00     0.022 A 
BRANCH  97 100
ATOM    100  S   UNL A   1      47.764  33.663  26.946  1.00  0.00     0.127 S 
ATOM    101  O   UNL A   1      48.743  32.581  27.023  1.00  0.00    -0.237 OA
ATOM    102  O   UNL A   1      47.640  34.287  25.628  1.00  0.00    -0.237 OA
ATOM    103  O   UNL A   1      47.791  34.613  28.052  1.00  0.00    -0.744 OA
ENDBRANCH  97 100
ENDBRANCH  70  93
ENDBRANCH  44  45
ENDBRANCH  36  39
ENDBRANCH  34  35
ENDBRANCH  33  34
ENDBRANCH   1  33
TORSDOF 19
ENDMDL
MODEL 2
REMARK VINA RESULT:     -12.1      3.945      6.149
REMARK SMILES NS(=O)(=O)c1ccc(-n2nc(C(F)F)cc2-c2ccc(C(=O)NCCCCNC(=O)c3ccc(-c4c5nc(c(-c6cccc(S(=O)(=O)[O-])c6F)c6ccc([nH]6)c(-c6cccc(S(=O)(=O)[O-])c6F)c6nc(c(-c7cccc(S(=O)(=O)[O-])c7F)c7ccc4[nH]7)C=C6)C=C5)cc3)cc2)cc1
REMARK SMILES IDX 25 1 24 2 23 3 21 4 22 5 20 7 17 8 18 9 95 10 19 11 94 12
REMARK SMILES IDX 16 13 9 14 10 15 11 16 15 17 8 18 5 19 6 20 97 21 7 22 96 23
REMARK SMILES IDX 2 24 3 25 4 26 1 27 12 30 13 31 14 32 26 33 27 34 28 35
REMARK SMILES IDX 29 36 30 38 31 39 32 40 93 41 33 42 92 43 34 44 35 45 36 46
REMARK SMILES IDX 86 47 37 48 91 49 85 50 87 51 38 52 90 53 84 54 83 55 39 57
REMARK SMILES IDX 71 58 51 59 70 60 52 61 55 62 69 63 88 64 53 65 54 66 68 68
REMARK SMILES IDX 89 69 56 70 40 71 41 72 49 73 42 74 44 75 50 76 43 77 45 78
REMARK SMILES IDX 46 79 47 80 48 81 72 82 73 83 81 84 74 85 76 86 82 87 75 88
REMARK SMILES IDX 77 89 78 90 79 91 80 92 57 93 58 94 66 95 59 96 61 97 67 98
REMARK SMILES IDX 60 99 62 100 63 101 64 102 65 103
REMARK H PARENT 23 6 1 28 1 29 28 37 87 56 55 67
REMARK Flexibility Score: inf
ROOT
ATOM      1  C   UNL A   1      33.704  33.630  27.661  1.00  0.00     0.023 C 
ENDROOT
BRANCH   1   2
ATOM      2  C   UNL A   1      33.408  32.128  27.545  1.00  0.00     0.116 C 
BRANCH   2   3
ATOM      3  N   UNL A   1      34.338  31.360  28.348  1.00  0.00    -0.352 N 
ATOM      4  C   UNL A   1      34.688  30.034  28.345  1.00  0.00     0.251 C 
ATOM      5  O   UNL A   1      35.464  29.635  29.213  1.00  0.00    -0.269 OA
ATOM      6  H   UNL A   1      34.811  31.893  29.028  1.00  0.00     0.163 HD
BRANCH   4   7
ATOM      7  C   UNL A   1      34.191  29.061  27.333  1.00  0.00     0.039 A 
ATOM      8  C   UNL A   1      33.375  27.270  25.325  1.00  0.00     0.000 A 
ATOM      9  C   UNL A   1      34.544  28.020  25.160  1.00  0.00     0.011 A 
ATOM     10  C   UNL A   1      32.623  27.414  26.489  1.00  0.00     0.011 A 
ATOM     11  C   UNL A   1      34.942  28.918  26.156  1.00  0.00     0.014 A 
ATOM     12  C   UNL A   1      33.058  28.264  27.502  1.00  0.00     0.014 A 
BRANCH   8  13
ATOM     13  C   UNL A   1      32.970  26.272  24.350  1.00  0.00     0.075 A 
ATOM     14  N   UNL A   1      31.859  26.375  23.525  1.00  0.00    -0.233 N 
ATOM     15  N   UNL A   1      31.648  25.231  22.822  1.00  0.00    -0.166 NA
ATOM     16  C   UNL A   1      32.749  24.488  23.040  1.00  0.00     0.129 A 
ATOM     17  C   UNL A   1      33.571  25.074  24.031  1.00  0.00     0.060 A 
BRANCH  14  18
ATOM     18  C   UNL A   1      31.027  27.509  23.328  1.00  0.00     0.065 A 
ATOM     19  C   UNL A   1      29.354  29.679  22.819  1.00  0.00     0.082 A 
ATOM     20  C   UNL A   1      28.853  28.575  23.509  1.00  0.00     0.024 A 
ATOM     21  C   UNL A   1      30.691  29.715  22.402  1.00  0.00     0.024 A 
ATOM     22  C   UNL A   1      29.690  27.489  23.757  1.00  0.00     0.030 A 
ATOM     23  C   UNL A   1      31.541  28.640  22.684  1.00  0.00     0.030 A 
BRANCH  19  24
ATOM     24  S   UNL A   1      28.305  31.044  22.416  1.00  0.00     0.238 S 
ATOM     25  O   UNL A   1      27.287  31.162  23.426  1.00  0.00    -0.207 OA
ATOM     26  O   UNL A   1      27.999  30.973  21.001  1.00  0.00    -0.207 OA
BRANCH  24  27
ATOM     27  N   UNL A   1      29.281  32.400  22.599  1.00  0.00    -0.225 NA
ATOM     28  H   UNL A   1      30.231  32.106  22.828  1.00  0.00     0.137 HD
ATOM     29  H   UNL A   1      28.915  32.983  23.352  1.00  0.00     0.137 HD
ENDBRANCH  24  27
ENDBRANCH  19  24
ENDBRANCH  14  18
BRANCH  16  30
ATOM     30  C   UNL A   1      33.040  23.219  22.297  1.00  0.00     0.393 C 
ATOM     31  F   UNL A   1      32.027  22.315  22.381  1.00  0.00    -0.203 F 
ATOM     32  F   UNL A   1      33.242  23.454  20.969  1.00  0.00    -0.203 F 
ENDBRANCH  16  30
ENDBRANCH   8  13
ENDBRANCH   4   7
ENDBRANCH   2   3
ENDBRANCH   1   2
BRANCH   1  33
ATOM     33  C   UNL A   1      32.715  34.414  28.536  1.00  0.00     0.023 C 
BRANCH  33  34
ATOM     34  C   UNL A   1      33.338  35.570  29.308  1.00  0.00     0.116 C 
BRANCH  34  35
ATOM     35  N   UNL A   1      32.671  35.810  30.590  1.00  0.00    -0.352 N 
ATOM     36  C   UNL A   1      32.879  35.155  31.788  1.00  0.00     0.251 C 
ATOM     37  H   UNL A   1      31.994  36.524  30.599  1.00  0.00     0.163 HD
ATOM     38  O   UNL A   1      32.016  35.145  32.657  1.00  0.00    -0.269 OA
BRANCH  36  39
ATOM     39  C   UNL A   1      34.174  34.491  32.010  1.00  0.00     0.039 A 
ATOM     40  C   UNL A   1      34.364  33.140  31.713  1.00  0.00     0.014 A 
ATOM     41  C   UNL A   1      35.221  35.272  32.498  1.00  0.00     0.014 A 
ATOM     42  C   UNL A   1      35.643  32.603  31.835  1.00  0.00     0.010 A 
ATOM     43  C   UNL A   1      36.502  34.784  32.478  1.00  0.00     0.010 A 
ATOM     44  C   UNL A   1      36.713  33.439  32.198  1.00  0.00    -0.014 A 
BRANCH  44  45
ATOM     45  C   UNL A   1      38.090  32.961  32.132  1.00  0.00     0.031 A 
ATOM     46  C   UNL A   1      38.786  32.976  33.449  1.00  0.00     0.074 A 
ATOM     47  C   UNL A   1      38.608  32.356  31.040  1.00  0.00     0.049 A 
ATOM     48  N   UNL A   1      39.740  33.765  33.819  1.00  0.00    -0.248 NA
ATOM     49  C   UNL A   1      38.243  32.152  34.541  1.00  0.00     0.031 C 
ATOM     50  C   UNL A   1      37.915  31.998  29.795  1.00  0.00     0.029 A 
ATOM     51  N   UNL A   1      39.836  31.796  30.863  1.00  0.00    -0.354 N 
ATOM     52  C   UNL A   1      40.099  33.339  35.097  1.00  0.00     0.074 A 
ATOM     53  C   UNL A   1      39.002  32.540  35.568  1.00  0.00     0.031 C 
ATOM     54  C   UNL A   1      38.637  31.073  29.125  1.00  0.00     0.029 A 
ATOM     55  C   UNL A   1      39.910  30.899  29.797  1.00  0.00     0.049 A 
ATOM     56  H   UNL A   1      40.607  32.005  31.438  1.00  0.00     0.167 HD
ATOM     57  C   UNL A   1      41.391  33.432  35.521  1.00  0.00     0.034 A 
ATOM     58  C   UNL A   1      40.928  30.045  29.516  1.00  0.00     0.034 A 
ATOM     59  C   UNL A   1      42.152  34.305  34.658  1.00  0.00     0.049 A 
ATOM     60  C   UNL A   1      42.126  30.560  30.214  1.00  0.00     0.074 A 
ATOM     61  C   UNL A   1      42.038  35.616  34.240  1.00  0.00     0.029 A 
ATOM     62  N   UNL A   1      42.996  33.695  33.761  1.00  0.00    -0.354 N 
ATOM     63  N   UNL A   1      42.706  31.684  29.902  1.00  0.00    -0.248 NA
ATOM     64  C   UNL A   1      42.404  30.054  31.545  1.00  0.00     0.031 C 
ATOM     65  C   UNL A   1      42.420  35.596  32.866  1.00  0.00     0.029 A 
ATOM     66  C   UNL A   1      42.830  34.300  32.547  1.00  0.00     0.049 A 
ATOM     67  H   UNL A   1      43.612  32.954  33.958  1.00  0.00     0.167 HD
ATOM     68  C   UNL A   1      43.004  32.259  31.130  1.00  0.00     0.074 A 
ATOM     69  C   UNL A   1      42.903  31.163  32.095  1.00  0.00     0.031 C 
ATOM     70  C   UNL A   1      43.001  33.615  31.285  1.00  0.00     0.034 A 
BRANCH  57  71
ATOM     71  C   UNL A   1      42.095  32.433  36.423  1.00  0.00     0.023 A 
ATOM     72  C   UNL A   1      42.939  32.967  37.426  1.00  0.00     0.012 A 
ATOM     73  C   UNL A   1      42.216  31.047  36.170  1.00  0.00     0.148 A 
ATOM     74  C   UNL A   1      43.913  32.192  38.065  1.00  0.00     0.002 A 
ATOM     75  C   UNL A   1      43.135  30.263  36.861  1.00  0.00     0.091 A 
ATOM     76  F   UNL A   1      41.537  30.479  35.173  1.00  0.00    -0.205 F 
ATOM     77  C   UNL A   1      44.012  30.838  37.781  1.00  0.00     0.022 A 
BRANCH  75  78
ATOM     78  S   UNL A   1      43.280  28.494  36.565  1.00  0.00     0.127 S 
ATOM     79  O   UNL A   1      43.821  28.471  35.209  1.00  0.00    -0.237 OA
ATOM     80  O   UNL A   1      44.216  28.096  37.616  1.00  0.00    -0.237 OA
ATOM     81  O   UNL A   1      41.936  27.954  36.725  1.00  0.00    -0.744 OA
ENDBRANCH  75  78
ENDBRANCH  57  71
BRANCH  58  82
ATOM     82  C   UNL A   1      40.921  28.696  28.900  1.00  0.00     0.023 A 
ATOM     83  C   UNL A   1      39.875  27.798  29.200  1.00  0.00     0.012 A 
ATOM     84  C   UNL A   1      41.748  28.403  27.794  1.00  0.00     0.148 A 
ATOM     85  C   UNL A   1      39.629  26.675  28.399  1.00  0.00     0.002 A 
ATOM     86  C   UNL A   1      41.500  27.285  27.000  1.00  0.00     0.091 A 
ATOM     87  F   UNL A   1      42.713  29.271  27.464  1.00  0.00    -0.205 F 
ATOM     88  C   UNL A   1      40.433  26.427  27.291  1.00  0.00     0.022 A 
BRANCH  86  89
ATOM     89  S   UNL A   1      42.472  26.922  25.531  1.00  0.00     0.127 S 
ATOM     90  O   UNL A   1      43.806  26.712  26.095  1.00  0.00    -0.237 OA
ATOM     91  O   UNL A   1      41.821  25.714  25.031  1.00  0.00    -0.237 OA
ATOM     92  O   UNL A   1      42.361  28.100  24.681  1.00  0.00    -0.744 OA
ENDBRANCH  86  89
ENDBRANCH  58  82
BRANCH  70  93
ATOM     93  C   UNL A   1      42.943  34.474  30.047  1.00  0.00     0.023 A 
ATOM     94  C   UNL A   1      41.732  34.874  29.444  1.00  0.00     0.012 A 
ATOM     95  C   UNL A   1      44.147  35.027  29.582  1.00  0.00     0.148 A 
ATOM     96  C   UNL A   1      41.727  35.793  28.388  1.00  0.00     0.002 A 
ATOM     97  C   UNL A   1      44.135  35.975  28.568  1.00  0.00     0.091 A 
ATOM     98  F   UNL A   1      45.289  34.635  30.167  1.00  0.00    -0.205 F 
ATOM     99  C   UNL A   1      42.929  36.354  27.960  1.00  0.00     0.022 A 
BRANCH  97 100
ATOM    100  S   UNL A   1      45.635  36.820  28.065  1.00  0.00     0.127 S 
ATOM    101  O   UNL A   1      46.107  37.378  29.330  1.00  0.00    -0.237 OA
ATOM    102  O   UNL A   1      46.449  35.724  27.536  1.00  0.00    -0.237 OA
ATOM    103  O   UNL A   1      45.228  37.795  27.061  1.00  0.00    -0.744 OA
ENDBRANCH  97 100
ENDBRANCH  70  93
ENDBRANCH  44  45
ENDBRANCH  36  39
ENDBRANCH  34  35
ENDBRANCH  33  34
ENDBRANCH   1  33
TORSDOF 19
ENDMDL
MODEL 3
REMARK VINA RESULT:     -11.9      2.603      3.774
REMARK SMILES NS(=O)(=O)c1ccc(-n2nc(C(F)F)cc2-c2ccc(C(=O)NCCCCNC(=O)c3ccc(-c4c5nc(c(-c6cccc(S(=O)(=O)[O-])c6F)c6ccc([nH]6)c(-c6cccc(S(=O)(=O)[O-])c6F)c6nc(c(-c7cccc(S(=O)(=O)[O-])c7F)c7ccc4[nH]7)C=C6)C=C5)cc3)cc2)cc1
REMARK SMILES IDX 25 1 24 2 23 3 21 4 22 5 20 7 17 8 18 9 95 10 19 11 94 12
REMARK SMILES IDX 16 13 9 14 10 15 11 16 15 17 8 18 5 19 6 20 97 21 7 22 96 23
REMARK SMILES IDX 2 24 3 25 4 26 1 27 12 30 13 31 14 32 26 33 27 34 28 35
REMARK SMILES IDX 29 36 30 38 31 39 32 40 93 41 33 42 92 43 34 44 35 45 36 46
REMARK SMILES IDX 86 47 37 48 91 49 85 50 87 51 38 52 90 53 84 54 83 55 39 57
REMARK SMILES IDX 71 58 51 59 70 60 52 61 55 62 69 63 88 64 53 65 54 66 68 68
REMARK SMILES IDX 89 69 56 70 40 71 41 72 49 73 42 74 44 75 50 76 43 77 45 78
REMARK SMILES IDX 46 79 47 80 48 81 72 82 73 83 81 84 74 85 76 86 82 87 75 88
REMARK SMILES IDX 77 89 78 90 79 91 80 92 57 93 58 94 66 95 59 96 61 97 67 98
REMARK SMILES IDX 60 99 62 100 63 101 64 102 65 103
REMARK H PARENT 23 6 1 28 1 29 28 37 87 56 55 67
REMARK Flexibility Score: inf
ROOT
ATOM      1  C   UNL A   1      32.327  27.475  26.235  1.00  0.00     0.023 C 
ENDROOT
BRANCH   1   2
ATOM      2  C   UNL A   1      33.184  27.553  24.963  1.00  0.00     0.116 C 
BRANCH   2   3
ATOM      3  N   UNL A   1      32.352  27.486  23.779  1.00  0.00    -0.352 N 
ATOM      4  C   UNL A   1      31.946  26.439  22.991  1.00  0.00     0.251 C 
ATOM      5  O   UNL A   1      31.291  26.692  21.980  1.00  0.00    -0.269 OA
ATOM      6  H   UNL A   1      32.011  28.361  23.482  1.00  0.00     0.163 HD
BRANCH   4   7
ATOM      7  C   UNL A   1      32.239  25.015  23.311  1.00  0.00     0.039 A 
ATOM      8  C   UNL A   1      32.892  22.321  23.784  1.00  0.00     0.000 A 
ATOM      9  C   UNL A   1      33.509  23.016  22.740  1.00  0.00     0.011 A 
ATOM     10  C   UNL A   1      31.958  22.972  24.588  1.00  0.00     0.011 A 
ATOM     11  C   UNL A   1      33.175  24.353  22.500  1.00  0.00     0.014 A 
ATOM     12  C   UNL A   1      31.676  24.320  24.382  1.00  0.00     0.014 A 
BRANCH   8  13
ATOM     13  C   UNL A   1      33.268  20.957  24.114  1.00  0.00     0.075 A 
ATOM     14  N   UNL A   1      34.505  20.575  24.613  1.00  0.00    -0.233 N 
ATOM     15  N   UNL A   1      34.620  19.223  24.690  1.00  0.00    -0.166 NA
ATOM     16  C   UNL A   1      33.379  18.761  24.445  1.00  0.00     0.129 A 
ATOM     17  C   UNL A   1      32.521  19.803  24.025  1.00  0.00     0.060 A 
BRANCH  14  18
ATOM     18  C   UNL A   1      35.554  21.417  25.070  1.00  0.00     0.065 A 
ATOM     19  C   UNL A   1      37.622  22.988  26.081  1.00  0.00     0.082 A 
ATOM     20  C   UNL A   1      37.925  21.903  25.259  1.00  0.00     0.024 A 
ATOM     21  C   UNL A   1      36.292  23.306  26.383  1.00  0.00     0.024 A 
ATOM     22  C   UNL A   1      36.890  21.116  24.759  1.00  0.00     0.030 A 
ATOM     23  C   UNL A   1      35.251  22.537  25.851  1.00  0.00     0.030 A 
BRANCH  19  24
ATOM     24  S   UNL A   1      38.909  23.966  26.798  1.00  0.00     0.238 S 
ATOM     25  O   UNL A   1      38.373  24.692  27.917  1.00  0.00    -0.207 OA
ATOM     26  O   UNL A   1      39.634  24.611  25.721  1.00  0.00    -0.207 OA
BRANCH  24  27
ATOM     27  N   UNL A   1      39.978  22.848  27.455  1.00  0.00    -0.225 NA
ATOM     28  H   UNL A   1      39.476  21.988  27.678  1.00  0.00     0.137 HD
ATOM     29  H   UNL A   1      40.390  23.230  28.306  1.00  0.00     0.137 HD
ENDBRANCH  24  27
ENDBRANCH  19  24
ENDBRANCH  14  18
BRANCH  16  30
ATOM     30  C   UNL A   1      32.993  17.323  24.622  1.00  0.00     0.393 C 
ATOM     31  F   UNL A   1      33.354  16.546  23.566  1.00  0.00    -0.203 F 
ATOM     32  F   UNL A   1      33.584  16.781  25.725  1.00  0.00    -0.203 F 
ENDBRANCH  16  30
ENDBRANCH   8  13
ENDBRANCH   4   7
ENDBRANCH   2   3
ENDBRANCH   1   2
BRANCH   1  33
ATOM     33  C   UNL A   1      32.356  28.738  27.107  1.00  0.00     0.023 C 
BRANCH  33  34
ATOM     34  C   UNL A   1      33.754  29.194  27.507  1.00  0.00     0.116 C 
BRANCH  34  35
ATOM     35  N   UNL A   1      34.012  30.590  27.147  1.00  0.00    -0.352 N 
ATOM     36  C   UNL A   1      35.037  31.402  27.587  1.00  0.00     0.251 C 
ATOM     37  H   UNL A   1      33.377  30.998  26.515  1.00  0.00     0.163 HD
ATOM     38  O   UNL A   1      34.931  32.622  27.555  1.00  0.00    -0.269 OA
BRANCH  36  39
ATOM     39  C   UNL A   1      36.276  30.770  28.071  1.00  0.00     0.039 A 
ATOM     40  C   UNL A   1      36.689  29.520  27.607  1.00  0.00     0.014 A 
ATOM     41  C   UNL A   1      37.044  31.484  28.988  1.00  0.00     0.014 A 
ATOM     42  C   UNL A   1      37.928  29.032  28.015  1.00  0.00     0.010 A 
ATOM     43  C   UNL A   1      38.321  31.074  29.274  1.00  0.00     0.010 A 
ATOM     44  C   UNL A   1      38.749  29.827  28.834  1.00  0.00    -0.014 A 
BRANCH  44  45
ATOM     45  C   UNL A   1      40.129  29.441  29.107  1.00  0.00     0.031 A 
ATOM     46  C   UNL A   1      40.404  29.209  30.553  1.00  0.00     0.074 A 
ATOM     47  C   UNL A   1      41.006  29.106  28.135  1.00  0.00     0.049 A 
ATOM     48  N   UNL A   1      41.115  29.947  31.340  1.00  0.00    -0.248 NA
ATOM     49  C   UNL A   1      39.660  28.148  31.250  1.00  0.00     0.031 C 
ATOM     50  C   UNL A   1      40.752  28.988  26.694  1.00  0.00     0.029 A 
ATOM     51  N   UNL A   1      42.287  28.656  28.243  1.00  0.00    -0.354 N 
ATOM     52  C   UNL A   1      41.130  29.278  32.562  1.00  0.00     0.074 A 
ATOM     53  C   UNL A   1      40.039  28.345  32.514  1.00  0.00     0.031 C 
ATOM     54  C   UNL A   1      41.735  28.262  26.118  1.00  0.00     0.029 A 
ATOM     55  C   UNL A   1      42.768  28.011  27.104  1.00  0.00     0.049 A 
ATOM     56  H   UNL A   1      42.829  28.776  29.057  1.00  0.00     0.167 HD
ATOM     57  C   UNL A   1      42.224  29.340  33.374  1.00  0.00     0.034 A 
ATOM     58  C   UNL A   1      43.910  27.286  26.996  1.00  0.00     0.034 A 
ATOM     59  C   UNL A   1      43.102  30.412  32.967  1.00  0.00     0.049 A 
ATOM     60  C   UNL A   1      44.788  27.698  28.113  1.00  0.00     0.074 A 
ATOM     61  C   UNL A   1      42.971  31.775  32.788  1.00  0.00     0.029 A 
ATOM     62  N   UNL A   1      44.234  30.048  32.277  1.00  0.00    -0.354 N 
ATOM     63  N   UNL A   1      45.307  28.889  28.212  1.00  0.00    -0.248 NA
ATOM     64  C   UNL A   1      44.720  26.935  29.346  1.00  0.00     0.031 C 
ATOM     65  C   UNL A   1      43.738  32.065  31.620  1.00  0.00     0.029 A 
ATOM     66  C   UNL A   1      44.364  30.887  31.207  1.00  0.00     0.049 A 
ATOM     67  H   UNL A   1      44.843  29.312  32.512  1.00  0.00     0.167 HD
ATOM     68  C   UNL A   1      45.168  29.204  29.556  1.00  0.00     0.074 A 
ATOM     69  C   UNL A   1      44.911  27.925  30.220  1.00  0.00     0.031 C 
ATOM     70  C   UNL A   1      44.970  30.494  29.955  1.00  0.00     0.034 A 
BRANCH  57  71
ATOM     71  C   UNL A   1      42.739  28.207  34.245  1.00  0.00     0.023 A 
ATOM     72  C   UNL A   1      42.947  28.503  35.614  1.00  0.00     0.012 A 
ATOM     73  C   UNL A   1      43.300  27.000  33.768  1.00  0.00     0.148 A 
ATOM     74  C   UNL A   1      43.748  27.699  36.432  1.00  0.00     0.002 A 
ATOM     75  C   UNL A   1      44.034  26.165  34.604  1.00  0.00     0.091 A 
ATOM     76  F   UNL A   1      43.243  26.693  32.472  1.00  0.00    -0.205 F 
ATOM     77  C   UNL A   1      44.294  26.528  35.926  1.00  0.00     0.022 A 
BRANCH  75  78
ATOM     78  S   UNL A   1      44.730  24.614  34.015  1.00  0.00     0.127 S 
ATOM     79  O   UNL A   1      43.522  23.851  33.711  1.00  0.00    -0.237 OA
ATOM     80  O   UNL A   1      45.496  25.058  32.850  1.00  0.00    -0.237 OA
ATOM     81  O   UNL A   1      45.548  24.105  35.109  1.00  0.00    -0.744 OA
ENDBRANCH  75  78
ENDBRANCH  57  71
BRANCH  58  82
ATOM     82  C   UNL A   1      44.232  26.099  26.166  1.00  0.00     0.023 A 
ATOM     83  C   UNL A   1      45.421  26.082  25.406  1.00  0.00     0.012 A 
ATOM     84  C   UNL A   1      43.552  24.877  26.359  1.00  0.00     0.148 A 
ATOM     85  C   UNL A   1      45.941  24.884  24.898  1.00  0.00     0.002 A 
ATOM     86  C   UNL A   1      44.072  23.689  25.852  1.00  0.00     0.091 A 
ATOM     87  F   UNL A   1      42.451  24.867  27.121  1.00  0.00    -0.205 F 
ATOM     88  C   UNL A   1      45.273  23.686  25.133  1.00  0.00     0.022 A 
BRANCH  86  89
ATOM     89  S   UNL A   1      43.287  22.098  26.148  1.00  0.00     0.127 S 
ATOM     90  O   UNL A   1      42.080  22.199  25.327  1.00  0.00    -0.237 OA
ATOM     91  O   UNL A   1      44.294  21.168  25.647  1.00  0.00    -0.237 OA
ATOM     92  O   UNL A   1      43.031  22.043  27.582  1.00  0.00    -0.744 OA
ENDBRANCH  86  89
ENDBRANCH  58  82
BRANCH  70  93
ATOM     93  C   UNL A   1      45.182  31.593  28.943  1.00  0.00     0.023 A 
ATOM     94  C   UNL A   1      44.172  32.031  28.060  1.00  0.00     0.012 A 
ATOM     95  C   UNL A   1      46.386  32.312  29.006  1.00  0.00     0.148 A 
ATOM     96  C   UNL A   1      44.370  33.151  27.245  1.00  0.00     0.002 A 
ATOM     97  C   UNL A   1      46.560  33.452  28.233  1.00  0.00     0.091 A 
ATOM     98  F   UNL A   1      47.335  31.882  29.852  1.00  0.00    -0.205 F 
ATOM     99  C   UNL A   1      45.560  33.871  27.344  1.00  0.00     0.022 A 
BRANCH  97 100
ATOM    100  S   UNL A   1      48.016  34.484  28.412  1.00  0.00     0.127 S 
ATOM    101  O   UNL A   1      47.606  35.709  27.731  1.00  0.00    -0.237 OA
ATOM    102  O   UNL A   1      48.140  34.601  29.866  1.00  0.00    -0.237 OA
ATOM    103  O   UNL A   1      49.107  33.751  27.781  1.00  0.00    -0.744 OA
ENDBRANCH  97 100
ENDBRANCH  70  93
ENDBRANCH  44  45
ENDBRANCH  36  39
ENDBRANCH  34  35
ENDBRANCH  33  34
ENDBRANCH   1  33
TORSDOF 19
ENDMDL
