MODEL 1
REMARK VINA RESULT:     -11.9      0.000      0.000
REMARK SMILES O=C(CC[N@H+]1CCC[C@@H](C(=O)NCCCCNC(=O)c2ccc(-c3c4nc(c(-c5cccc(S(=O)(=O)[O-])c5F)c5ccc([nH]5)c(-c5cccc(S(=O)(=O)[O-])c5F)c5nc(c(-c6cccc(S(=O)(=O)[O-])c6F)c6ccc3[nH]6)C=C5)C=C4)cc2)C1)Nc1cccc(F)c1
REMARK SMILES IDX 14 1 13 2 12 3 10 4 11 5 9 7 5 8 6 9 83 10 7 12 8 13 4 14
REMARK SMILES IDX 3 15 2 16 1 17 84 18 85 20 86 21 91 22 87 23 89 24 88 25
REMARK SMILES IDX 90 26 15 27 16 28 17 29 18 30 19 32 20 33 21 34 82 35 22 36
REMARK SMILES IDX 81 37 23 38 24 39 25 40 75 41 26 42 80 43 74 44 76 45 27 46
REMARK SMILES IDX 79 47 73 48 72 49 28 51 60 52 40 53 59 54 41 55 44 56 58 57
REMARK SMILES IDX 77 58 42 59 43 60 57 62 78 63 45 64 29 65 30 66 38 67 31 68
REMARK SMILES IDX 33 69 39 70 32 71 34 72 35 73 36 74 37 75 61 76 62 77 70 78
REMARK SMILES IDX 63 79 65 80 71 81 64 82 66 83 67 84 68 85 69 86 46 87 47 88
REMARK SMILES IDX 55 89 48 90 50 91 56 92 49 93 51 94 52 95 53 96 54 97
REMARK H PARENT 12 6 5 11 84 19 17 31 76 50 44 61
REMARK Flexibility Score: inf
ROOT
ATOM      1  C   UNL A   1      31.357  27.847  26.317  1.00  0.00     0.023 C 
ENDROOT
BRANCH   1   2
ATOM      2  C   UNL A   1      30.594  26.648  25.763  1.00  0.00     0.116 C 
BRANCH   2   3
ATOM      3  N   UNL A   1      30.698  25.482  26.616  1.00  0.00    -0.356 N 
ATOM      4  C   UNL A   1      31.602  24.479  26.718  1.00  0.00     0.228 C 
ATOM      5  O   UNL A   1      31.422  23.683  27.649  1.00  0.00    -0.275 OA
ATOM      6  H   UNL A   1      29.955  25.402  27.257  1.00  0.00     0.163 HD
BRANCH   4   7
ATOM      7  C   UNL A   1      32.743  24.201  25.737  1.00  0.00     0.133 C 
ATOM      8  N   UNL A   1      33.074  23.189  23.429  1.00  0.00    -0.334 N 
ATOM      9  C   UNL A   1      34.278  23.974  23.221  1.00  0.00     0.262 C 
ATOM     10  C   UNL A   1      32.161  23.434  24.542  1.00  0.00     0.275 C 
ATOM     11  H   UNL A   1      33.555  22.529  24.040  1.00  0.00     0.348 HD
ATOM     12  C   UNL A   1      34.780  24.740  24.444  1.00  0.00     0.062 C 
ATOM     13  C   UNL A   1      33.632  25.334  25.253  1.00  0.00     0.025 C 
BRANCH   8  14
ATOM     14  C   UNL A   1      32.593  22.403  22.291  1.00  0.00     0.272 C 
BRANCH  14  15
ATOM     15  C   UNL A   1      32.042  20.998  22.573  1.00  0.00     0.161 C 
BRANCH  15  16
ATOM     16  C   UNL A   1      32.876  20.082  23.464  1.00  0.00     0.230 C 
ATOM     17  O   UNL A   1      33.622  20.562  24.313  1.00  0.00    -0.275 OA
ATOM     18  N   UNL A   1      32.664  18.736  23.265  1.00  0.00    -0.326 N 
ATOM     19  H   UNL A   1      32.168  18.494  22.450  1.00  0.00     0.169 HD
BRANCH  18  20
ATOM     20  C   UNL A   1      33.069  17.665  24.081  1.00  0.00     0.044 A 
ATOM     21  C   UNL A   1      34.400  17.233  23.966  1.00  0.00     0.026 A 
ATOM     22  C   UNL A   1      32.199  16.971  24.918  1.00  0.00     0.065 A 
ATOM     23  C   UNL A   1      34.855  16.118  24.676  1.00  0.00     0.005 A 
ATOM     24  C   UNL A   1      32.656  15.847  25.604  1.00  0.00     0.125 A 
ATOM     25  C   UNL A   1      33.972  15.413  25.488  1.00  0.00     0.039 A 
ATOM     26  F   UNL A   1      31.806  15.155  26.372  1.00  0.00    -0.207 F 
ENDBRANCH  18  20
ENDBRANCH  15  16
ENDBRANCH  14  15
ENDBRANCH   8  14
ENDBRANCH   4   7
ENDBRANCH   2   3
ENDBRANCH   1   2
BRANCH   1  27
ATOM     27  C   UNL A   1      31.796  28.877  25.272  1.00  0.00     0.023 C 
BRANCH  27  28
ATOM     28  C   UNL A   1      32.945  29.788  25.698  1.00  0.00     0.116 C 
BRANCH  28  29
ATOM     29  N   UNL A   1      32.522  31.066  26.255  1.00  0.00    -0.352 N 
ATOM     30  C   UNL A   1      33.192  31.869  27.157  1.00  0.00     0.251 C 
ATOM     31  H   UNL A   1      31.648  31.400  25.948  1.00  0.00     0.163 HD
ATOM     32  O   UNL A   1      32.665  32.883  27.588  1.00  0.00    -0.269 OA
BRANCH  30  33
ATOM     33  C   UNL A   1      34.530  31.447  27.637  1.00  0.00     0.039 A 
ATOM     34  C   UNL A   1      35.524  32.415  27.803  1.00  0.00     0.014 A 
ATOM     35  C   UNL A   1      34.774  30.121  27.996  1.00  0.00     0.014 A 
ATOM     36  C   UNL A   1      36.730  32.067  28.418  1.00  0.00     0.010 A 
ATOM     37  C   UNL A   1      35.937  29.797  28.684  1.00  0.00     0.010 A 
ATOM     38  C   UNL A   1      36.926  30.766  28.911  1.00  0.00    -0.014 A 
BRANCH  38  39
ATOM     39  C   UNL A   1      38.135  30.398  29.693  1.00  0.00     0.031 A 
ATOM     40  C   UNL A   1      39.144  29.439  29.123  1.00  0.00     0.074 A 
ATOM     41  C   UNL A   1      38.264  30.832  30.963  1.00  0.00     0.049 A 
ATOM     42  N   UNL A   1      40.212  28.934  29.684  1.00  0.00    -0.248 NA
ATOM     43  C   UNL A   1      38.898  28.951  27.756  1.00  0.00     0.031 C 
ATOM     44  C   UNL A   1      37.308  31.690  31.668  1.00  0.00     0.029 A 
ATOM     45  N   UNL A   1      39.238  30.588  31.898  1.00  0.00    -0.354 N 
ATOM     46  C   UNL A   1      40.736  28.036  28.763  1.00  0.00     0.074 A 
ATOM     47  C   UNL A   1      39.846  28.037  27.621  1.00  0.00     0.031 C 
ATOM     48  C   UNL A   1      37.755  31.920  32.913  1.00  0.00     0.029 A 
ATOM     49  C   UNL A   1      39.012  31.204  33.107  1.00  0.00     0.049 A 
ATOM     50  H   UNL A   1      40.026  30.024  31.721  1.00  0.00     0.167 HD
ATOM     51  C   UNL A   1      41.873  27.304  28.839  1.00  0.00     0.034 A 
ATOM     52  C   UNL A   1      39.738  31.200  34.242  1.00  0.00     0.034 A 
ATOM     53  C   UNL A   1      42.791  27.360  29.944  1.00  0.00     0.049 A 
ATOM     54  C   UNL A   1      41.030  30.430  34.281  1.00  0.00     0.074 A 
ATOM     55  C   UNL A   1      44.026  26.750  30.069  1.00  0.00     0.029 A 
ATOM     56  N   UNL A   1      42.572  28.067  31.116  1.00  0.00    -0.354 N 
ATOM     57  N   UNL A   1      41.597  29.722  33.335  1.00  0.00    -0.248 NA
ATOM     58  C   UNL A   1      41.799  30.486  35.533  1.00  0.00     0.031 C 
ATOM     59  C   UNL A   1      44.552  27.084  31.324  1.00  0.00     0.029 A 
ATOM     60  C   UNL A   1      43.647  27.908  31.974  1.00  0.00     0.049 A 
ATOM     61  H   UNL A   1      41.771  28.605  31.310  1.00  0.00     0.167 HD
ATOM     62  C   UNL A   1      42.805  29.278  33.861  1.00  0.00     0.074 A 
ATOM     63  C   UNL A   1      42.893  29.811  35.207  1.00  0.00     0.031 C 
ATOM     64  C   UNL A   1      43.748  28.489  33.289  1.00  0.00     0.034 A 
BRANCH  51  65
ATOM     65  C   UNL A   1      42.213  26.433  27.657  1.00  0.00     0.023 A 
ATOM     66  C   UNL A   1      42.889  26.997  26.554  1.00  0.00     0.012 A 
ATOM     67  C   UNL A   1      41.885  25.065  27.638  1.00  0.00     0.148 A 
ATOM     68  C   UNL A   1      43.186  26.227  25.431  1.00  0.00     0.002 A 
ATOM     69  C   UNL A   1      42.224  24.293  26.531  1.00  0.00     0.091 A 
ATOM     70  F   UNL A   1      41.221  24.546  28.681  1.00  0.00    -0.205 F 
ATOM     71  C   UNL A   1      42.861  24.873  25.422  1.00  0.00     0.022 A 
BRANCH  69  72
ATOM     72  S   UNL A   1      41.910  22.525  26.470  1.00  0.00     0.127 S 
ATOM     73  O   UNL A   1      40.448  22.483  26.486  1.00  0.00    -0.237 OA
ATOM     74  O   UNL A   1      42.514  22.140  25.193  1.00  0.00    -0.237 OA
ATOM     75  O   UNL A   1      42.575  21.969  27.640  1.00  0.00    -0.744 OA
ENDBRANCH  69  72
ENDBRANCH  51  65
BRANCH  52  76
ATOM     76  C   UNL A   1      39.316  32.045  35.394  1.00  0.00     0.023 A 
ATOM     77  C   UNL A   1      38.463  31.487  36.368  1.00  0.00     0.012 A 
ATOM     78  C   UNL A   1      39.780  33.364  35.563  1.00  0.00     0.148 A 
ATOM     79  C   UNL A   1      38.064  32.230  37.478  1.00  0.00     0.002 A 
ATOM     80  C   UNL A   1      39.416  34.084  36.695  1.00  0.00     0.091 A 
ATOM     81  F   UNL A   1      40.583  33.877  34.622  1.00  0.00    -0.205 F 
ATOM     82  C   UNL A   1      38.548  33.524  37.647  1.00  0.00     0.022 A 
BRANCH  80  83
ATOM     83  S   UNL A   1      40.076  35.714  37.062  1.00  0.00     0.127 S 
ATOM     84  O   UNL A   1      41.512  35.452  37.111  1.00  0.00    -0.237 OA
ATOM     85  O   UNL A   1      39.629  36.487  35.902  1.00  0.00    -0.237 OA
ATOM     86  O   UNL A   1      39.465  36.112  38.323  1.00  0.00    -0.744 OA
ENDBRANCH  80  83
ENDBRANCH  52  76
BRANCH  64  87
ATOM     87  C   UNL A   1      44.977  28.171  34.097  1.00  0.00     0.023 A 
ATOM     88  C   UNL A   1      46.094  29.027  34.031  1.00  0.00     0.012 A 
ATOM     89  C   UNL A   1      44.994  27.076  34.983  1.00  0.00     0.148 A 
ATOM     90  C   UNL A   1      47.220  28.782  34.815  1.00  0.00     0.002 A 
ATOM     91  C   UNL A   1      46.103  26.864  35.795  1.00  0.00     0.091 A 
ATOM     92  F   UNL A   1      43.930  26.262  35.016  1.00  0.00    -0.205 F 
ATOM     93  C   UNL A   1      47.220  27.711  35.706  1.00  0.00     0.022 A 
BRANCH  91  94
ATOM     94  S   UNL A   1      46.147  25.566  37.036  1.00  0.00     0.127 S 
ATOM     95  O   UNL A   1      45.172  26.051  38.011  1.00  0.00    -0.237 OA
ATOM     96  O   UNL A   1      45.718  24.391  36.276  1.00  0.00    -0.237 OA
ATOM     97  O   UNL A   1      47.526  25.508  37.501  1.00  0.00    -0.744 OA
ENDBRANCH  91  94
ENDBRANCH  64  87
ENDBRANCH  38  39
ENDBRANCH  30  33
ENDBRANCH  28  29
ENDBRANCH  27  28
ENDBRANCH   1  27
TORSDOF 18
ENDMDL
MODEL 2
REMARK VINA RESULT:     -11.6      2.366      3.090
REMARK SMILES O=C(CC[N@H+]1CCC[C@@H](C(=O)NCCCCNC(=O)c2ccc(-c3c4nc(c(-c5cccc(S(=O)(=O)[O-])c5F)c5ccc([nH]5)c(-c5cccc(S(=O)(=O)[O-])c5F)c5nc(c(-c6cccc(S(=O)(=O)[O-])c6F)c6ccc3[nH]6)C=C5)C=C4)cc2)C1)Nc1cccc(F)c1
REMARK SMILES IDX 14 1 13 2 12 3 10 4 11 5 9 7 5 8 6 9 83 10 7 12 8 13 4 14
REMARK SMILES IDX 3 15 2 16 1 17 84 18 85 20 86 21 91 22 87 23 89 24 88 25
REMARK SMILES IDX 90 26 15 27 16 28 17 29 18 30 19 32 20 33 21 34 82 35 22 36
REMARK SMILES IDX 81 37 23 38 24 39 25 40 75 41 26 42 80 43 74 44 76 45 27 46
REMARK SMILES IDX 79 47 73 48 72 49 28 51 60 52 40 53 59 54 41 55 44 56 58 57
REMARK SMILES IDX 77 58 42 59 43 60 57 62 78 63 45 64 29 65 30 66 38 67 31 68
REMARK SMILES IDX 33 69 39 70 32 71 34 72 35 73 36 74 37 75 61 76 62 77 70 78
REMARK SMILES IDX 63 79 65 80 71 81 64 82 66 83 67 84 68 85 69 86 46 87 47 88
REMARK SMILES IDX 55 89 48 90 50 91 56 92 49 93 51 94 52 95 53 96 54 97
REMARK H PARENT 12 6 5 11 84 19 17 31 76 50 44 61
REMARK Flexibility Score: inf
ROOT
ATOM      1  C   UNL A   1      32.338  30.219  25.707  1.00  0.00     0.023 C 
ENDROOT
BRANCH   1   2
ATOM      2  C   UNL A   1      31.036  29.659  25.144  1.00  0.00     0.116 C 
BRANCH   2   3
ATOM      3  N   UNL A   1      31.212  29.045  23.844  1.00  0.00    -0.356 N 
ATOM      4  C   UNL A   1      31.571  27.804  23.440  1.00  0.00     0.228 C 
ATOM      5  O   UNL A   1      31.519  27.597  22.220  1.00  0.00    -0.275 OA
ATOM      6  H   UNL A   1      31.029  29.660  23.096  1.00  0.00     0.163 HD
BRANCH   4   7
ATOM      7  C   UNL A   1      32.118  26.695  24.341  1.00  0.00     0.133 C 
ATOM      8  N   UNL A   1      32.146  24.155  24.443  1.00  0.00    -0.334 N 
ATOM      9  C   UNL A   1      33.373  24.167  25.220  1.00  0.00     0.262 C 
ATOM     10  C   UNL A   1      31.619  25.351  23.792  1.00  0.00     0.275 C 
ATOM     11  H   UNL A   1      31.578  24.411  25.250  1.00  0.00     0.348 HD
ATOM     12  C   UNL A   1      33.829  25.542  25.704  1.00  0.00     0.062 C 
ATOM     13  C   UNL A   1      33.604  26.619  24.648  1.00  0.00     0.025 C 
BRANCH   8  14
ATOM     14  C   UNL A   1      31.653  22.847  24.005  1.00  0.00     0.272 C 
BRANCH  14  15
ATOM     15  C   UNL A   1      32.691  21.789  23.606  1.00  0.00     0.161 C 
BRANCH  15  16
ATOM     16  C   UNL A   1      32.888  20.606  24.550  1.00  0.00     0.230 C 
ATOM     17  O   UNL A   1      32.443  20.652  25.695  1.00  0.00    -0.275 OA
ATOM     18  N   UNL A   1      33.525  19.522  23.992  1.00  0.00    -0.326 N 
ATOM     19  H   UNL A   1      33.969  19.681  23.128  1.00  0.00     0.169 HD
BRANCH  18  20
ATOM     20  C   UNL A   1      33.623  18.215  24.502  1.00  0.00     0.044 A 
ATOM     21  C   UNL A   1      34.888  17.606  24.480  1.00  0.00     0.026 A 
ATOM     22  C   UNL A   1      32.522  17.482  24.939  1.00  0.00     0.065 A 
ATOM     23  C   UNL A   1      35.050  16.277  24.885  1.00  0.00     0.005 A 
ATOM     24  C   UNL A   1      32.691  16.152  25.320  1.00  0.00     0.125 A 
ATOM     25  C   UNL A   1      33.941  15.543  25.293  1.00  0.00     0.039 A 
ATOM     26  F   UNL A   1      31.624  15.436  25.696  1.00  0.00    -0.207 F 
ENDBRANCH  18  20
ENDBRANCH  15  16
ENDBRANCH  14  15
ENDBRANCH   8  14
ENDBRANCH   4   7
ENDBRANCH   2   3
ENDBRANCH   1   2
BRANCH   1  27
ATOM     27  C   UNL A   1      32.195  31.014  27.008  1.00  0.00     0.023 C 
BRANCH  27  28
ATOM     28  C   UNL A   1      33.262  32.082  27.239  1.00  0.00     0.116 C 
BRANCH  28  29
ATOM     29  N   UNL A   1      32.731  33.419  27.471  1.00  0.00    -0.352 N 
ATOM     30  C   UNL A   1      33.147  34.354  28.397  1.00  0.00     0.251 C 
ATOM     31  H   UNL A   1      31.982  33.690  26.893  1.00  0.00     0.163 HD
ATOM     32  O   UNL A   1      32.546  35.411  28.519  1.00  0.00    -0.269 OA
BRANCH  30  33
ATOM     33  C   UNL A   1      34.293  34.030  29.280  1.00  0.00     0.039 A 
ATOM     34  C   UNL A   1      34.062  33.297  30.447  1.00  0.00     0.014 A 
ATOM     35  C   UNL A   1      35.595  34.379  28.916  1.00  0.00     0.014 A 
ATOM     36  C   UNL A   1      35.146  32.833  31.197  1.00  0.00     0.010 A 
ATOM     37  C   UNL A   1      36.671  33.845  29.614  1.00  0.00     0.010 A 
ATOM     38  C   UNL A   1      36.462  33.059  30.758  1.00  0.00    -0.014 A 
BRANCH  38  39
ATOM     39  C   UNL A   1      37.633  32.462  31.452  1.00  0.00     0.031 A 
ATOM     40  C   UNL A   1      38.409  31.348  30.806  1.00  0.00     0.074 A 
ATOM     41  C   UNL A   1      37.923  32.839  32.713  1.00  0.00     0.049 A 
ATOM     42  N   UNL A   1      39.403  30.646  31.287  1.00  0.00    -0.248 NA
ATOM     43  C   UNL A   1      37.988  30.940  29.455  1.00  0.00     0.031 C 
ATOM     44  C   UNL A   1      37.189  33.843  33.489  1.00  0.00     0.029 A 
ATOM     45  N   UNL A   1      38.897  32.405  33.576  1.00  0.00    -0.354 N 
ATOM     46  C   UNL A   1      39.691  29.687  30.325  1.00  0.00     0.074 A 
ATOM     47  C   UNL A   1      38.742  29.872  29.248  1.00  0.00     0.031 C 
ATOM     48  C   UNL A   1      37.753  33.962  34.701  1.00  0.00     0.029 A 
ATOM     49  C   UNL A   1      38.868  33.027  34.803  1.00  0.00     0.049 A 
ATOM     50  H   UNL A   1      39.555  31.711  33.340  1.00  0.00     0.167 HD
ATOM     51  C   UNL A   1      40.678  28.759  30.317  1.00  0.00     0.034 A 
ATOM     52  C   UNL A   1      39.656  32.868  35.884  1.00  0.00     0.034 A 
ATOM     53  C   UNL A   1      41.663  28.625  31.355  1.00  0.00     0.049 A 
ATOM     54  C   UNL A   1      40.785  31.876  35.827  1.00  0.00     0.074 A 
ATOM     55  C   UNL A   1      42.772  27.800  31.389  1.00  0.00     0.029 A 
ATOM     56  N   UNL A   1      41.656  29.337  32.545  1.00  0.00    -0.354 N 
ATOM     57  N   UNL A   1      41.149  31.096  34.839  1.00  0.00    -0.248 NA
ATOM     58  C   UNL A   1      41.634  31.766  37.024  1.00  0.00     0.031 C 
ATOM     59  C   UNL A   1      43.432  28.007  32.607  1.00  0.00     0.029 A 
ATOM     60  C   UNL A   1      42.738  28.968  33.325  1.00  0.00     0.049 A 
ATOM     61  H   UNL A   1      40.981  30.007  32.798  1.00  0.00     0.167 HD
ATOM     62  C   UNL A   1      42.288  30.430  35.276  1.00  0.00     0.074 A 
ATOM     63  C   UNL A   1      42.562  30.910  36.617  1.00  0.00     0.031 C 
ATOM     64  C   UNL A   1      43.031  29.495  34.634  1.00  0.00     0.034 A 
BRANCH  51  65
ATOM     65  C   UNL A   1      40.774  27.865  29.107  1.00  0.00     0.023 A 
ATOM     66  C   UNL A   1      39.996  26.690  29.053  1.00  0.00     0.012 A 
ATOM     67  C   UNL A   1      41.613  28.187  28.024  1.00  0.00     0.148 A 
ATOM     68  C   UNL A   1      40.089  25.824  27.964  1.00  0.00     0.002 A 
ATOM     69  C   UNL A   1      41.668  27.339  26.922  1.00  0.00     0.091 A 
ATOM     70  F   UNL A   1      42.368  29.293  28.099  1.00  0.00    -0.205 F 
ATOM     71  C   UNL A   1      40.919  26.152  26.895  1.00  0.00     0.022 A 
BRANCH  69  72
ATOM     72  S   UNL A   1      42.654  27.726  25.470  1.00  0.00     0.127 S 
ATOM     73  O   UNL A   1      42.527  26.497  24.689  1.00  0.00    -0.237 OA
ATOM     74  O   UNL A   1      41.948  28.878  24.907  1.00  0.00    -0.237 OA
ATOM     75  O   UNL A   1      43.987  28.027  25.972  1.00  0.00    -0.744 OA
ENDBRANCH  69  72
ENDBRANCH  51  65
BRANCH  52  76
ATOM     76  C   UNL A   1      39.473  33.752  37.069  1.00  0.00     0.023 A 
ATOM     77  C   UNL A   1      39.895  35.094  36.985  1.00  0.00     0.012 A 
ATOM     78  C   UNL A   1      38.849  33.302  38.248  1.00  0.00     0.148 A 
ATOM     79  C   UNL A   1      39.718  35.967  38.058  1.00  0.00     0.002 A 
ATOM     80  C   UNL A   1      38.634  34.189  39.298  1.00  0.00     0.091 A 
ATOM     81  F   UNL A   1      38.461  32.021  38.310  1.00  0.00    -0.205 F 
ATOM     82  C   UNL A   1      39.079  35.517  39.210  1.00  0.00     0.022 A 
BRANCH  80  83
ATOM     83  S   UNL A   1      37.718  33.738  40.777  1.00  0.00     0.127 S 
ATOM     84  O   UNL A   1      37.525  35.036  41.417  1.00  0.00    -0.237 OA
ATOM     85  O   UNL A   1      36.508  33.142  40.210  1.00  0.00    -0.237 OA
ATOM     86  O   UNL A   1      38.571  32.801  41.497  1.00  0.00    -0.744 OA
ENDBRANCH  80  83
ENDBRANCH  52  76
BRANCH  64  87
ATOM     87  C   UNL A   1      44.233  28.943  35.353  1.00  0.00     0.023 A 
ATOM     88  C   UNL A   1      45.489  29.560  35.185  1.00  0.00     0.012 A 
ATOM     89  C   UNL A   1      44.103  27.870  36.256  1.00  0.00     0.148 A 
ATOM     90  C   UNL A   1      46.602  29.100  35.886  1.00  0.00     0.002 A 
ATOM     91  C   UNL A   1      45.209  27.446  36.986  1.00  0.00     0.091 A 
ATOM     92  F   UNL A   1      42.905  27.283  36.386  1.00  0.00    -0.205 F 
ATOM     93  C   UNL A   1      46.460  28.054  36.795  1.00  0.00     0.022 A 
BRANCH  91  94
ATOM     94  S   UNL A   1      45.093  26.171  38.245  1.00  0.00     0.127 S 
ATOM     95  O   UNL A   1      46.457  26.145  38.770  1.00  0.00    -0.237 OA
ATOM     96  O   UNL A   1      44.097  26.725  39.163  1.00  0.00    -0.237 OA
ATOM     97  O   UNL A   1      44.663  24.965  37.551  1.00  0.00    -0.744 OA
ENDBRANCH  91  94
ENDBRANCH  64  87
ENDBRANCH  38  39
ENDBRANCH  30  33
ENDBRANCH  28  29
ENDBRANCH  27  28
ENDBRANCH   1  27
TORSDOF 18
ENDMDL
MODEL 3
REMARK VINA RESULT:     -11.6      1.911      2.431
REMARK SMILES O=C(CC[N@H+]1CCC[C@@H](C(=O)NCCCCNC(=O)c2ccc(-c3c4nc(c(-c5cccc(S(=O)(=O)[O-])c5F)c5ccc([nH]5)c(-c5cccc(S(=O)(=O)[O-])c5F)c5nc(c(-c6cccc(S(=O)(=O)[O-])c6F)c6ccc3[nH]6)C=C5)C=C4)cc2)C1)Nc1cccc(F)c1
REMARK SMILES IDX 14 1 13 2 12 3 10 4 11 5 9 7 5 8 6 9 83 10 7 12 8 13 4 14
REMARK SMILES IDX 3 15 2 16 1 17 84 18 85 20 86 21 91 22 87 23 89 24 88 25
REMARK SMILES IDX 90 26 15 27 16 28 17 29 18 30 19 32 20 33 21 34 82 35 22 36
REMARK SMILES IDX 81 37 23 38 24 39 25 40 75 41 26 42 80 43 74 44 76 45 27 46
REMARK SMILES IDX 79 47 73 48 72 49 28 51 60 52 40 53 59 54 41 55 44 56 58 57
REMARK SMILES IDX 77 58 42 59 43 60 57 62 78 63 45 64 29 65 30 66 38 67 31 68
REMARK SMILES IDX 33 69 39 70 32 71 34 72 35 73 36 74 37 75 61 76 62 77 70 78
REMARK SMILES IDX 63 79 65 80 71 81 64 82 66 83 67 84 68 85 69 86 46 87 47 88
REMARK SMILES IDX 55 89 48 90 50 91 56 92 49 93 51 94 52 95 53 96 54 97
REMARK H PARENT 12 6 5 11 84 19 17 31 76 50 44 61
REMARK Flexibility Score: inf
ROOT
ATOM      1  C   UNL A   1      32.389  29.914  26.972  1.00  0.00     0.023 C 
ENDROOT
BRANCH   1   2
ATOM      2  C   UNL A   1      32.622  29.284  25.603  1.00  0.00     0.116 C 
BRANCH   2   3
ATOM      3  N   UNL A   1      31.385  28.926  24.938  1.00  0.00    -0.356 N 
ATOM      4  C   UNL A   1      31.017  27.888  24.151  1.00  0.00     0.228 C 
ATOM      5  O   UNL A   1      29.821  27.850  23.833  1.00  0.00    -0.275 OA
ATOM      6  H   UNL A   1      30.660  29.573  25.094  1.00  0.00     0.163 HD
BRANCH   4   7
ATOM      7  C   UNL A   1      31.959  26.839  23.556  1.00  0.00     0.133 C 
ATOM      8  N   UNL A   1      32.807  24.506  24.099  1.00  0.00    -0.334 N 
ATOM      9  C   UNL A   1      33.063  24.236  22.695  1.00  0.00     0.262 C 
ATOM     10  C   UNL A   1      32.053  25.673  24.549  1.00  0.00     0.275 C 
ATOM     11  H   UNL A   1      33.645  25.081  24.188  1.00  0.00     0.348 HD
ATOM     12  C   UNL A   1      32.916  25.436  21.760  1.00  0.00     0.062 C 
ATOM     13  C   UNL A   1      31.733  26.316  22.147  1.00  0.00     0.025 C 
BRANCH   8  14
ATOM     14  C   UNL A   1      32.988  23.390  25.029  1.00  0.00     0.272 C 
BRANCH  14  15
ATOM     15  C   UNL A   1      31.881  22.328  25.097  1.00  0.00     0.161 C 
BRANCH  15  16
ATOM     16  C   UNL A   1      32.183  20.958  24.495  1.00  0.00     0.230 C 
ATOM     17  O   UNL A   1      32.201  20.812  23.276  1.00  0.00    -0.275 OA
ATOM     18  N   UNL A   1      32.479  19.977  25.415  1.00  0.00    -0.326 N 
ATOM     19  H   UNL A   1      32.269  20.189  26.353  1.00  0.00     0.169 HD
BRANCH  18  20
ATOM     20  C   UNL A   1      33.043  18.711  25.181  1.00  0.00     0.044 A 
ATOM     21  C   UNL A   1      34.297  18.669  24.550  1.00  0.00     0.026 A 
ATOM     22  C   UNL A   1      32.384  17.517  25.464  1.00  0.00     0.065 A 
ATOM     23  C   UNL A   1      34.883  17.448  24.202  1.00  0.00     0.005 A 
ATOM     24  C   UNL A   1      32.967  16.307  25.092  1.00  0.00     0.125 A 
ATOM     25  C   UNL A   1      34.205  16.261  24.462  1.00  0.00     0.039 A 
ATOM     26  F   UNL A   1      32.310  15.163  25.323  1.00  0.00    -0.207 F 
ENDBRANCH  18  20
ENDBRANCH  15  16
ENDBRANCH  14  15
ENDBRANCH   8  14
ENDBRANCH   4   7
ENDBRANCH   2   3
ENDBRANCH   1   2
BRANCH   1  27
ATOM     27  C   UNL A   1      31.664  31.264  26.950  1.00  0.00     0.023 C 
BRANCH  27  28
ATOM     28  C   UNL A   1      32.515  32.452  26.506  1.00  0.00     0.116 C 
BRANCH  28  29
ATOM     29  N   UNL A   1      32.292  33.669  27.276  1.00  0.00    -0.352 N 
ATOM     30  C   UNL A   1      33.054  34.178  28.309  1.00  0.00     0.251 C 
ATOM     31  H   UNL A   1      31.499  34.196  27.027  1.00  0.00     0.163 HD
ATOM     32  O   UNL A   1      32.690  35.178  28.908  1.00  0.00    -0.269 OA
BRANCH  30  33
ATOM     33  C   UNL A   1      34.284  33.457  28.717  1.00  0.00     0.039 A 
ATOM     34  C   UNL A   1      35.520  34.095  28.576  1.00  0.00     0.014 A 
ATOM     35  C   UNL A   1      34.209  32.194  29.306  1.00  0.00     0.014 A 
ATOM     36  C   UNL A   1      36.666  33.505  29.115  1.00  0.00     0.010 A 
ATOM     37  C   UNL A   1      35.333  31.651  29.915  1.00  0.00     0.010 A 
ATOM     38  C   UNL A   1      36.574  32.301  29.834  1.00  0.00    -0.014 A 
BRANCH  38  39
ATOM     39  C   UNL A   1      37.745  31.718  30.539  1.00  0.00     0.031 A 
ATOM     40  C   UNL A   1      38.600  30.683  29.860  1.00  0.00     0.074 A 
ATOM     41  C   UNL A   1      37.968  32.030  31.832  1.00  0.00     0.049 A 
ATOM     42  N   UNL A   1      39.607  30.000  30.340  1.00  0.00    -0.248 NA
ATOM     43  C   UNL A   1      38.251  30.339  28.472  1.00  0.00     0.031 C 
ATOM     44  C   UNL A   1      37.156  32.949  32.634  1.00  0.00     0.029 A 
ATOM     45  N   UNL A   1      38.928  31.589  32.707  1.00  0.00    -0.354 N 
ATOM     46  C   UNL A   1      39.979  29.116  29.335  1.00  0.00     0.074 A 
ATOM     47  C   UNL A   1      39.064  29.322  28.233  1.00  0.00     0.031 C 
ATOM     48  C   UNL A   1      37.667  33.019  33.874  1.00  0.00     0.029 A 
ATOM     49  C   UNL A   1      38.821  32.132  33.966  1.00  0.00     0.049 A 
ATOM     50  H   UNL A   1      39.628  30.942  32.458  1.00  0.00     0.167 HD
ATOM     51  C   UNL A   1      41.009  28.237  29.313  1.00  0.00     0.034 A 
ATOM     52  C   UNL A   1      39.574  31.944  35.068  1.00  0.00     0.034 A 
ATOM     53  C   UNL A   1      41.959  28.085  30.381  1.00  0.00     0.049 A 
ATOM     54  C   UNL A   1      40.752  31.011  34.999  1.00  0.00     0.074 A 
ATOM     55  C   UNL A   1      43.104  27.312  30.412  1.00  0.00     0.029 A 
ATOM     56  N   UNL A   1      41.871  28.721  31.610  1.00  0.00    -0.354 N 
ATOM     57  N   UNL A   1      41.191  30.311  33.982  1.00  0.00    -0.248 NA
ATOM     58  C   UNL A   1      41.557  30.867  36.221  1.00  0.00     0.031 C 
ATOM     59  C   UNL A   1      43.707  27.474  31.667  1.00  0.00     0.029 A 
ATOM     60  C   UNL A   1      42.939  28.356  32.411  1.00  0.00     0.049 A 
ATOM     61  H   UNL A   1      41.155  29.343  31.874  1.00  0.00     0.167 HD
ATOM     62  C   UNL A   1      42.344  29.672  34.426  1.00  0.00     0.074 A 
ATOM     63  C   UNL A   1      42.542  30.082  35.803  1.00  0.00     0.031 C 
ATOM     64  C   UNL A   1      43.156  28.814  33.760  1.00  0.00     0.034 A 
BRANCH  51  65
ATOM     65  C   UNL A   1      41.196  27.425  28.057  1.00  0.00     0.023 A 
ATOM     66  C   UNL A   1      41.717  28.045  26.903  1.00  0.00     0.012 A 
ATOM     67  C   UNL A   1      40.875  26.055  28.018  1.00  0.00     0.148 A 
ATOM     68  C   UNL A   1      41.868  27.330  25.716  1.00  0.00     0.002 A 
ATOM     69  C   UNL A   1      41.069  25.337  26.841  1.00  0.00     0.091 A 
ATOM     70  F   UNL A   1      40.356  25.482  29.114  1.00  0.00    -0.205 F 
ATOM     71  C   UNL A   1      41.551  25.975  25.687  1.00  0.00     0.022 A 
BRANCH  69  72
ATOM     72  S   UNL A   1      40.758  23.570  26.741  1.00  0.00     0.127 S 
ATOM     73  O   UNL A   1      41.668  23.170  25.669  1.00  0.00    -0.237 OA
ATOM     74  O   UNL A   1      41.147  23.105  28.073  1.00  0.00    -0.237 OA
ATOM     75  O   UNL A   1      39.337  23.439  26.451  1.00  0.00    -0.744 OA
ENDBRANCH  69  72
ENDBRANCH  51  65
BRANCH  52  76
ATOM     76  C   UNL A   1      39.302  32.744  36.295  1.00  0.00     0.023 A 
ATOM     77  C   UNL A   1      39.844  34.042  36.391  1.00  0.00     0.012 A 
ATOM     78  C   UNL A   1      38.483  32.264  37.334  1.00  0.00     0.148 A 
ATOM     79  C   UNL A   1      39.594  34.839  37.508  1.00  0.00     0.002 A 
ATOM     80  C   UNL A   1      38.199  33.081  38.423  1.00  0.00     0.091 A 
ATOM     81  F   UNL A   1      37.984  31.025  37.226  1.00  0.00    -0.205 F 
ATOM     82  C   UNL A   1      38.763  34.362  38.518  1.00  0.00     0.022 A 
BRANCH  80  83
ATOM     83  S   UNL A   1      37.051  32.604  39.720  1.00  0.00     0.127 S 
ATOM     84  O   UNL A   1      37.595  31.316  40.144  1.00  0.00    -0.237 OA
ATOM     85  O   UNL A   1      37.218  33.692  40.685  1.00  0.00    -0.237 OA
ATOM     86  O   UNL A   1      35.739  32.556  39.087  1.00  0.00    -0.744 OA
ENDBRANCH  80  83
ENDBRANCH  52  76
BRANCH  64  87
ATOM     87  C   UNL A   1      44.354  28.276  34.494  1.00  0.00     0.023 A 
ATOM     88  C   UNL A   1      45.573  28.981  34.449  1.00  0.00     0.012 A 
ATOM     89  C   UNL A   1      44.251  27.121  35.293  1.00  0.00     0.148 A 
ATOM     90  C   UNL A   1      46.678  28.530  35.168  1.00  0.00     0.002 A 
ATOM     91  C   UNL A   1      45.345  26.702  36.043  1.00  0.00     0.091 A 
ATOM     92  F   UNL A   1      43.090  26.452  35.306  1.00  0.00    -0.205 F 
ATOM     93  C   UNL A   1      46.561  27.400  35.975  1.00  0.00     0.022 A 
BRANCH  91  94
ATOM     94  S   UNL A   1      45.252  25.314  37.180  1.00  0.00     0.127 S 
ATOM     95  O   UNL A   1      45.980  24.280  36.448  1.00  0.00    -0.237 OA
ATOM     96  O   UNL A   1      45.946  25.830  38.361  1.00  0.00    -0.237 OA
ATOM     97  O   UNL A   1      43.832  25.061  37.383  1.00  0.00    -0.744 OA
ENDBRANCH  91  94
ENDBRANCH  64  87
ENDBRANCH  38  39
ENDBRANCH  30  33
ENDBRANCH  28  29
ENDBRANCH  27  28
ENDBRANCH   1  27
TORSDOF 18
ENDMDL
