MODEL 1
REMARK VINA RESULT:     -13.1      0.000      0.000
REMARK SMILES NS(=O)(=O)c1ccc(-c2cc(Cl)cc3c2O[C@H](C(F)(F)F)C(C(=O)NCCCCNC(=O)c2ccc(-c4c5nc(c(-c6cccc(S(=O)(=O)[O-])c6F)c6ccc([nH]6)c(-c6cccc(S(=O)(=O)[O-])c6F)c6nc(c(-c7cccc(S(=O)(=O)[O-])c7F)c7ccc4[nH]7)C=C6)C=C5)cc2)=C3)cc1
REMARK SMILES IDX 27 1 26 2 25 3 23 4 24 5 22 7 9 8 10 9 15 10 11 11 14 12
REMARK SMILES IDX 16 13 12 14 13 15 96 16 17 17 8 18 5 19 6 20 98 21 7 22
REMARK SMILES IDX 97 23 2 24 3 25 4 26 1 27 18 30 19 31 20 32 21 33 28 34
REMARK SMILES IDX 29 35 30 36 31 37 32 39 33 40 34 41 95 42 35 43 94 44 36 45
REMARK SMILES IDX 37 46 38 47 88 48 39 49 93 50 87 51 89 52 40 53 92 54 86 55
REMARK SMILES IDX 85 56 41 58 73 59 53 60 72 61 54 62 57 63 71 64 90 65 55 66
REMARK SMILES IDX 56 67 70 69 91 70 58 71 42 72 43 73 51 74 44 75 46 76 52 77
REMARK SMILES IDX 45 78 47 79 48 80 49 81 50 82 74 83 75 84 83 85 76 86 78 87
REMARK SMILES IDX 84 88 77 89 79 90 80 91 81 92 82 93 59 94 60 95 68 96 61 97
REMARK SMILES IDX 63 98 69 99 62 100 64 101 65 102 66 103 67 104
REMARK H PARENT 25 6 1 28 1 29 30 38 89 57 57 68
REMARK Flexibility Score: inf
ROOT
ATOM      1  C   UNL A   1      30.586  29.835  24.487  1.00  0.00     0.023 C 
ENDROOT
BRANCH   1   2
ATOM      2  C   UNL A   1      30.003  28.941  23.384  1.00  0.00     0.116 C 
BRANCH   2   3
ATOM      3  N   UNL A   1      29.564  27.684  23.953  1.00  0.00    -0.352 N 
ATOM      4  C   UNL A   1      30.136  26.463  23.833  1.00  0.00     0.251 C 
ATOM      5  O   UNL A   1      29.417  25.473  23.769  1.00  0.00    -0.270 OA
ATOM      6  H   UNL A   1      28.744  27.722  24.496  1.00  0.00     0.163 HD
BRANCH   4   7
ATOM      7  C   UNL A   1      31.628  26.371  23.885  1.00  0.00     0.067 C 
ATOM      8  C   UNL A   1      31.946  22.365  24.529  1.00  0.00     0.026 A 
ATOM      9  C   UNL A   1      30.987  22.034  25.522  1.00  0.00     0.033 A 
ATOM     10  C   UNL A   1      32.218  23.733  24.358  1.00  0.00     0.135 A 
ATOM     11  C   UNL A   1      30.482  22.974  26.417  1.00  0.00     0.042 A 
ATOM     12  C   UNL A   1      31.787  24.652  25.346  1.00  0.00     0.019 A 
ATOM     13  O   UNL A   1      32.842  24.247  23.230  1.00  0.00    -0.475 OA
ATOM     14  Cl  UNL A   1      29.320  22.495  27.588  1.00  0.00    -0.084 Cl
ATOM     15  C   UNL A   1      30.942  24.276  26.385  1.00  0.00     0.032 A 
ATOM     16  C   UNL A   1      32.081  26.087  25.123  1.00  0.00     0.025 C 
ATOM     17  C   UNL A   1      32.238  25.534  22.764  1.00  0.00     0.314 C 
BRANCH   8  18
ATOM     18  C   UNL A   1      32.713  21.205  24.002  1.00  0.00    -0.015 A 
ATOM     19  C   UNL A   1      33.535  18.502  24.005  1.00  0.00     0.082 A 
ATOM     20  C   UNL A   1      32.485  18.908  23.179  1.00  0.00     0.022 A 
ATOM     21  C   UNL A   1      34.268  19.450  24.719  1.00  0.00     0.022 A 
ATOM     22  C   UNL A   1      32.092  20.254  23.164  1.00  0.00     0.010 A 
ATOM     23  C   UNL A   1      33.866  20.795  24.703  1.00  0.00     0.010 A 
BRANCH  19  24
ATOM     24  S   UNL A   1      33.816  16.766  24.207  1.00  0.00     0.238 S 
ATOM     25  O   UNL A   1      34.831  16.574  25.221  1.00  0.00    -0.207 OA
ATOM     26  O   UNL A   1      33.898  16.159  22.903  1.00  0.00    -0.207 OA
BRANCH  24  27
ATOM     27  N   UNL A   1      32.403  16.162  24.892  1.00  0.00    -0.225 NA
ATOM     28  H   UNL A   1      32.635  15.417  25.549  1.00  0.00     0.137 HD
ATOM     29  H   UNL A   1      31.800  15.792  24.157  1.00  0.00     0.137 HD
ENDBRANCH  24  27
ENDBRANCH  19  24
ENDBRANCH   8  18
BRANCH  17  30
ATOM     30  C   UNL A   1      33.267  26.404  22.009  1.00  0.00     0.429 C 
ATOM     31  F   UNL A   1      33.486  25.979  20.744  1.00  0.00    -0.167 F 
ATOM     32  F   UNL A   1      32.860  27.695  21.938  1.00  0.00    -0.167 F 
ATOM     33  F   UNL A   1      34.483  26.426  22.620  1.00  0.00    -0.167 F 
ENDBRANCH  17  30
ENDBRANCH   4   7
ENDBRANCH   2   3
ENDBRANCH   1   2
BRANCH   1  34
ATOM     34  C   UNL A   1      32.104  29.718  24.689  1.00  0.00     0.023 C 
BRANCH  34  35
ATOM     35  C   UNL A   1      32.596  30.085  26.084  1.00  0.00     0.116 C 
BRANCH  35  36
ATOM     36  N   UNL A   1      32.300  31.469  26.418  1.00  0.00    -0.352 N 
ATOM     37  C   UNL A   1      32.964  32.309  27.281  1.00  0.00     0.251 C 
ATOM     38  H   UNL A   1      31.516  31.858  25.966  1.00  0.00     0.163 HD
ATOM     39  O   UNL A   1      32.468  33.387  27.592  1.00  0.00    -0.269 OA
BRANCH  37  40
ATOM     40  C   UNL A   1      34.268  31.897  27.846  1.00  0.00     0.039 A 
ATOM     41  C   UNL A   1      35.286  32.845  27.968  1.00  0.00     0.014 A 
ATOM     42  C   UNL A   1      34.476  30.582  28.269  1.00  0.00     0.014 A 
ATOM     43  C   UNL A   1      36.494  32.491  28.577  1.00  0.00     0.010 A 
ATOM     44  C   UNL A   1      35.650  30.252  28.943  1.00  0.00     0.010 A 
ATOM     45  C   UNL A   1      36.672  31.200  29.103  1.00  0.00    -0.014 A 
BRANCH  45  46
ATOM     46  C   UNL A   1      37.911  30.820  29.833  1.00  0.00     0.031 A 
ATOM     47  C   UNL A   1      38.909  29.890  29.195  1.00  0.00     0.074 A 
ATOM     48  C   UNL A   1      38.088  31.229  31.106  1.00  0.00     0.049 A 
ATOM     49  N   UNL A   1      39.999  29.377  29.703  1.00  0.00    -0.248 NA
ATOM     50  C   UNL A   1      38.632  29.456  27.815  1.00  0.00     0.031 C 
ATOM     51  C   UNL A   1      37.163  32.075  31.862  1.00  0.00     0.029 A 
ATOM     52  N   UNL A   1      39.094  30.960  32.002  1.00  0.00    -0.354 N 
ATOM     53  C   UNL A   1      40.510  28.526  28.730  1.00  0.00     0.074 A 
ATOM     54  C   UNL A   1      39.600  28.574  27.607  1.00  0.00     0.031 C 
ATOM     55  C   UNL A   1      37.645  32.259  33.102  1.00  0.00     0.029 A 
ATOM     56  C   UNL A   1      38.893  31.517  33.244  1.00  0.00     0.049 A 
ATOM     57  H   UNL A   1      39.886  30.419  31.776  1.00  0.00     0.167 HD
ATOM     58  C   UNL A   1      41.643  27.787  28.760  1.00  0.00     0.034 A 
ATOM     59  C   UNL A   1      39.624  31.431  34.374  1.00  0.00     0.034 A 
ATOM     60  C   UNL A   1      42.575  27.784  29.855  1.00  0.00     0.049 A 
ATOM     61  C   UNL A   1      40.898  30.628  34.361  1.00  0.00     0.074 A 
ATOM     62  C   UNL A   1      43.806  27.156  29.931  1.00  0.00     0.029 A 
ATOM     63  N   UNL A   1      42.377  28.428  31.064  1.00  0.00    -0.354 N 
ATOM     64  N   UNL A   1      41.449  29.968  33.373  1.00  0.00    -0.248 NA
ATOM     65  C   UNL A   1      41.669  30.584  35.614  1.00  0.00     0.031 C 
ATOM     66  C   UNL A   1      44.338  27.393  31.202  1.00  0.00     0.029 A 
ATOM     67  C   UNL A   1      43.455  28.199  31.903  1.00  0.00     0.049 A 
ATOM     68  H   UNL A   1      41.587  28.970  31.294  1.00  0.00     0.167 HD
ATOM     69  C   UNL A   1      42.651  29.473  33.867  1.00  0.00     0.074 A 
ATOM     70  C   UNL A   1      42.756  29.921  35.240  1.00  0.00     0.031 C 
ATOM     71  C   UNL A   1      43.580  28.706  33.244  1.00  0.00     0.034 A 
BRANCH  58  72
ATOM     72  C   UNL A   1      41.972  26.942  27.556  1.00  0.00     0.023 A 
ATOM     73  C   UNL A   1      42.671  27.510  26.472  1.00  0.00     0.012 A 
ATOM     74  C   UNL A   1      41.665  25.567  27.538  1.00  0.00     0.148 A 
ATOM     75  C   UNL A   1      43.035  26.729  25.376  1.00  0.00     0.002 A 
ATOM     76  C   UNL A   1      42.073  24.786  26.465  1.00  0.00     0.091 A 
ATOM     77  F   UNL A   1      40.983  25.051  28.570  1.00  0.00    -0.205 F 
ATOM     78  C   UNL A   1      42.748  25.367  25.378  1.00  0.00     0.022 A 
BRANCH  76  79
ATOM     79  S   UNL A   1      41.827  23.007  26.408  1.00  0.00     0.127 S 
ATOM     80  O   UNL A   1      42.522  22.575  27.621  1.00  0.00    -0.237 OA
ATOM     81  O   UNL A   1      40.370  22.898  26.469  1.00  0.00    -0.237 OA
ATOM     82  O   UNL A   1      42.421  22.557  25.158  1.00  0.00    -0.744 OA
ENDBRANCH  76  79
ENDBRANCH  58  72
BRANCH  59  83
ATOM     83  C   UNL A   1      39.210  32.170  35.601  1.00  0.00     0.023 A 
ATOM     84  C   UNL A   1      39.580  33.522  35.748  1.00  0.00     0.012 A 
ATOM     85  C   UNL A   1      38.464  31.550  36.621  1.00  0.00     0.148 A 
ATOM     86  C   UNL A   1      39.255  34.229  36.906  1.00  0.00     0.002 A 
ATOM     87  C   UNL A   1      38.094  32.277  37.747  1.00  0.00     0.091 A 
ATOM     88  F   UNL A   1      38.131  30.260  36.471  1.00  0.00    -0.205 F 
ATOM     89  C   UNL A   1      38.504  33.610  37.901  1.00  0.00     0.022 A 
BRANCH  87  90
ATOM     90  S   UNL A   1      37.022  31.599  39.021  1.00  0.00     0.127 S 
ATOM     91  O   UNL A   1      36.705  30.282  38.475  1.00  0.00    -0.237 OA
ATOM     92  O   UNL A   1      37.907  31.588  40.186  1.00  0.00    -0.237 OA
ATOM     93  O   UNL A   1      35.906  32.529  39.126  1.00  0.00    -0.744 OA
ENDBRANCH  87  90
ENDBRANCH  59  83
BRANCH  71  94
ATOM     94  C   UNL A   1      44.825  28.345  34.009  1.00  0.00     0.023 A 
ATOM     95  C   UNL A   1      45.954  29.187  33.959  1.00  0.00     0.012 A 
ATOM     96  C   UNL A   1      44.842  27.215  34.851  1.00  0.00     0.148 A 
ATOM     97  C   UNL A   1      47.091  28.892  34.711  1.00  0.00     0.002 A 
ATOM     98  C   UNL A   1      45.957  26.957  35.638  1.00  0.00     0.091 A 
ATOM     99  F   UNL A   1      43.764  26.418  34.870  1.00  0.00    -0.205 F 
ATOM    100  C   UNL A   1      47.088  27.786  35.559  1.00  0.00     0.022 A 
BRANCH  98 101
ATOM    101  S   UNL A   1      46.004  25.618  36.834  1.00  0.00     0.127 S 
ATOM    102  O   UNL A   1      44.861  25.941  37.687  1.00  0.00    -0.237 OA
ATOM    103  O   UNL A   1      45.819  24.439  35.986  1.00  0.00    -0.237 OA
ATOM    104  O   UNL A   1      47.307  25.700  37.480  1.00  0.00    -0.744 OA
ENDBRANCH  98 101
ENDBRANCH  71  94
ENDBRANCH  45  46
ENDBRANCH  37  40
ENDBRANCH  35  36
ENDBRANCH  34  35
ENDBRANCH   1  34
TORSDOF 18
ENDMDL
MODEL 2
REMARK VINA RESULT:     -13.0      5.929     10.984
REMARK SMILES NS(=O)(=O)c1ccc(-c2cc(Cl)cc3c2O[C@H](C(F)(F)F)C(C(=O)NCCCCNC(=O)c2ccc(-c4c5nc(c(-c6cccc(S(=O)(=O)[O-])c6F)c6ccc([nH]6)c(-c6cccc(S(=O)(=O)[O-])c6F)c6nc(c(-c7cccc(S(=O)(=O)[O-])c7F)c7ccc4[nH]7)C=C6)C=C5)cc2)=C3)cc1
REMARK SMILES IDX 27 1 26 2 25 3 23 4 24 5 22 7 9 8 10 9 15 10 11 11 14 12
REMARK SMILES IDX 16 13 12 14 13 15 96 16 17 17 8 18 5 19 6 20 98 21 7 22
REMARK SMILES IDX 97 23 2 24 3 25 4 26 1 27 18 30 19 31 20 32 21 33 28 34
REMARK SMILES IDX 29 35 30 36 31 37 32 39 33 40 34 41 95 42 35 43 94 44 36 45
REMARK SMILES IDX 37 46 38 47 88 48 39 49 93 50 87 51 89 52 40 53 92 54 86 55
REMARK SMILES IDX 85 56 41 58 73 59 53 60 72 61 54 62 57 63 71 64 90 65 55 66
REMARK SMILES IDX 56 67 70 69 91 70 58 71 42 72 43 73 51 74 44 75 46 76 52 77
REMARK SMILES IDX 45 78 47 79 48 80 49 81 50 82 74 83 75 84 83 85 76 86 78 87
REMARK SMILES IDX 84 88 77 89 79 90 80 91 81 92 82 93 59 94 60 95 68 96 61 97
REMARK SMILES IDX 63 98 69 99 62 100 64 101 65 102 66 103 67 104
REMARK H PARENT 25 6 1 28 1 29 30 38 89 57 57 68
REMARK Flexibility Score: inf
ROOT
ATOM      1  C   UNL A   1      36.624  20.426  25.014  1.00  0.00     0.023 C 
ENDROOT
BRANCH   1   2
ATOM      2  C   UNL A   1      35.713  21.319  25.869  1.00  0.00     0.116 C 
BRANCH   2   3
ATOM      3  N   UNL A   1      35.778  22.684  25.392  1.00  0.00    -0.352 N 
ATOM      4  C   UNL A   1      34.978  23.298  24.489  1.00  0.00     0.251 C 
ATOM      5  O   UNL A   1      35.464  24.125  23.727  1.00  0.00    -0.270 OA
ATOM      6  H   UNL A   1      36.496  23.238  25.774  1.00  0.00     0.163 HD
BRANCH   4   7
ATOM      7  C   UNL A   1      33.510  23.009  24.531  1.00  0.00     0.067 C 
ATOM      8  C   UNL A   1      32.151  26.790  23.879  1.00  0.00     0.026 A 
ATOM      9  C   UNL A   1      32.924  27.649  24.703  1.00  0.00     0.033 A 
ATOM     10  C   UNL A   1      32.244  25.415  24.153  1.00  0.00     0.135 A 
ATOM     11  C   UNL A   1      33.586  27.197  25.843  1.00  0.00     0.042 A 
ATOM     12  C   UNL A   1      32.823  24.991  25.375  1.00  0.00     0.019 A 
ATOM     13  O   UNL A   1      31.849  24.434  23.255  1.00  0.00    -0.475 OA
ATOM     14  Cl  UNL A   1      34.505  28.300  26.785  1.00  0.00    -0.084 Cl
ATOM     15  C   UNL A   1      33.472  25.876  26.230  1.00  0.00     0.032 A 
ATOM     16  C   UNL A   1      32.915  23.533  25.622  1.00  0.00     0.025 C 
ATOM     17  C   UNL A   1      32.789  23.269  23.211  1.00  0.00     0.314 C 
BRANCH   8  18
ATOM     18  C   UNL A   1      31.155  27.488  23.024  1.00  0.00    -0.015 A 
ATOM     19  C   UNL A   1      29.237  29.493  22.495  1.00  0.00     0.082 A 
ATOM     20  C   UNL A   1      30.559  29.671  22.084  1.00  0.00     0.022 A 
ATOM     21  C   UNL A   1      28.832  28.272  23.036  1.00  0.00     0.022 A 
ATOM     22  C   UNL A   1      31.506  28.666  22.329  1.00  0.00     0.010 A 
ATOM     23  C   UNL A   1      29.786  27.273  23.284  1.00  0.00     0.010 A 
BRANCH  19  24
ATOM     24  S   UNL A   1      28.144  30.884  22.421  1.00  0.00     0.238 S 
ATOM     25  O   UNL A   1      27.237  30.823  23.548  1.00  0.00    -0.207 OA
ATOM     26  O   UNL A   1      27.685  31.037  21.064  1.00  0.00    -0.207 OA
BRANCH  24  27
ATOM     27  N   UNL A   1      29.111  32.228  22.718  1.00  0.00    -0.225 NA
ATOM     28  H   UNL A   1      28.625  33.071  22.414  1.00  0.00     0.137 HD
ATOM     29  H   UNL A   1      29.988  32.136  22.204  1.00  0.00     0.137 HD
ENDBRANCH  24  27
ENDBRANCH  19  24
ENDBRANCH   8  18
BRANCH  17  30
ATOM     30  C   UNL A   1      32.067  21.973  22.784  1.00  0.00     0.429 C 
ATOM     31  F   UNL A   1      32.450  21.536  21.564  1.00  0.00    -0.167 F 
ATOM     32  F   UNL A   1      32.299  20.969  23.666  1.00  0.00    -0.167 F 
ATOM     33  F   UNL A   1      30.715  22.119  22.731  1.00  0.00    -0.167 F 
ENDBRANCH  17  30
ENDBRANCH   4   7
ENDBRANCH   2   3
ENDBRANCH   1   2
BRANCH   1  34
ATOM     34  C   UNL A   1      38.063  20.933  24.846  1.00  0.00     0.023 C 
BRANCH  34  35
ATOM     35  C   UNL A   1      38.928  20.835  26.097  1.00  0.00     0.116 C 
BRANCH  35  36
ATOM     36  N   UNL A   1      39.859  19.720  26.028  1.00  0.00    -0.352 N 
ATOM     37  C   UNL A   1      41.233  19.741  26.054  1.00  0.00     0.251 C 
ATOM     38  H   UNL A   1      39.449  18.828  25.953  1.00  0.00     0.163 HD
ATOM     39  O   UNL A   1      41.868  18.723  25.793  1.00  0.00    -0.269 OA
BRANCH  37  40
ATOM     40  C   UNL A   1      41.941  21.000  26.377  1.00  0.00     0.039 A 
ATOM     41  C   UNL A   1      42.257  21.886  25.345  1.00  0.00     0.014 A 
ATOM     42  C   UNL A   1      42.275  21.309  27.698  1.00  0.00     0.014 A 
ATOM     43  C   UNL A   1      42.851  23.116  25.645  1.00  0.00     0.010 A 
ATOM     44  C   UNL A   1      42.796  22.564  28.002  1.00  0.00     0.010 A 
ATOM     45  C   UNL A   1      43.092  23.481  26.981  1.00  0.00    -0.014 A 
BRANCH  45  46
ATOM     46  C   UNL A   1      43.641  24.816  27.337  1.00  0.00     0.031 A 
ATOM     47  C   UNL A   1      42.730  25.889  27.874  1.00  0.00     0.074 A 
ATOM     48  C   UNL A   1      44.936  25.097  27.082  1.00  0.00     0.049 A 
ATOM     49  N   UNL A   1      43.003  27.136  28.158  1.00  0.00    -0.248 NA
ATOM     50  C   UNL A   1      41.321  25.522  28.093  1.00  0.00     0.031 C 
ATOM     51  C   UNL A   1      45.906  24.168  26.499  1.00  0.00     0.029 A 
ATOM     52  N   UNL A   1      45.652  26.257  27.251  1.00  0.00    -0.354 N 
ATOM     53  C   UNL A   1      41.798  27.713  28.541  1.00  0.00     0.074 A 
ATOM     54  C   UNL A   1      40.786  26.686  28.433  1.00  0.00     0.031 C 
ATOM     55  C   UNL A   1      47.088  24.790  26.364  1.00  0.00     0.029 A 
ATOM     56  C   UNL A   1      46.954  26.171  26.814  1.00  0.00     0.049 A 
ATOM     57  H   UNL A   1      45.269  27.073  27.648  1.00  0.00     0.167 HD
ATOM     58  C   UNL A   1      41.559  28.977  28.962  1.00  0.00     0.034 A 
ATOM     59  C   UNL A   1      47.928  27.103  26.771  1.00  0.00     0.034 A 
ATOM     60  C   UNL A   1      42.577  29.979  29.123  1.00  0.00     0.049 A 
ATOM     61  C   UNL A   1      47.637  28.491  27.281  1.00  0.00     0.074 A 
ATOM     62  C   UNL A   1      42.451  31.252  29.650  1.00  0.00     0.029 A 
ATOM     63  N   UNL A   1      43.902  29.829  28.748  1.00  0.00    -0.354 N 
ATOM     64  N   UNL A   1      46.531  28.965  27.798  1.00  0.00    -0.248 NA
ATOM     65  C   UNL A   1      48.740  29.463  27.230  1.00  0.00     0.031 C 
ATOM     66  C   UNL A   1      43.695  31.885  29.563  1.00  0.00     0.029 A 
ATOM     67  C   UNL A   1      44.603  30.993  29.016  1.00  0.00     0.049 A 
ATOM     68  H   UNL A   1      44.289  29.015  28.351  1.00  0.00     0.167 HD
ATOM     69  C   UNL A   1      46.817  30.272  28.178  1.00  0.00     0.074 A 
ATOM     70  C   UNL A   1      48.206  30.510  27.845  1.00  0.00     0.031 C 
ATOM     71  C   UNL A   1      46.001  31.195  28.742  1.00  0.00     0.034 A 
BRANCH  58  72
ATOM     72  C   UNL A   1      40.144  29.348  29.325  1.00  0.00     0.023 A 
ATOM     73  C   UNL A   1      39.222  29.666  28.309  1.00  0.00     0.012 A 
ATOM     74  C   UNL A   1      39.710  29.298  30.664  1.00  0.00     0.148 A 
ATOM     75  C   UNL A   1      37.894  29.954  28.621  1.00  0.00     0.002 A 
ATOM     76  C   UNL A   1      38.375  29.539  30.963  1.00  0.00     0.091 A 
ATOM     77  F   UNL A   1      40.608  29.013  31.617  1.00  0.00    -0.205 F 
ATOM     78  C   UNL A   1      37.468  29.878  29.945  1.00  0.00     0.022 A 
BRANCH  76  79
ATOM     79  S   UNL A   1      37.708  29.386  32.624  1.00  0.00     0.127 S 
ATOM     80  O   UNL A   1      37.723  27.935  32.814  1.00  0.00    -0.237 OA
ATOM     81  O   UNL A   1      38.694  30.116  33.419  1.00  0.00    -0.237 OA
ATOM     82  O   UNL A   1      36.385  29.993  32.585  1.00  0.00    -0.744 OA
ENDBRANCH  76  79
ENDBRANCH  58  72
BRANCH  59  83
ATOM     83  C   UNL A   1      49.292  26.750  26.281  1.00  0.00     0.023 A 
ATOM     84  C   UNL A   1      50.143  25.990  27.108  1.00  0.00     0.012 A 
ATOM     85  C   UNL A   1      49.753  27.162  25.017  1.00  0.00     0.148 A 
ATOM     86  C   UNL A   1      51.444  25.686  26.704  1.00  0.00     0.002 A 
ATOM     87  C   UNL A   1      51.030  26.806  24.597  1.00  0.00     0.091 A 
ATOM     88  F   UNL A   1      48.935  27.894  24.249  1.00  0.00    -0.205 F 
ATOM     89  C   UNL A   1      51.884  26.086  25.446  1.00  0.00     0.022 A 
BRANCH  87  90
ATOM     90  S   UNL A   1      51.636  27.169  22.945  1.00  0.00     0.127 S 
ATOM     91  O   UNL A   1      50.507  26.757  22.115  1.00  0.00    -0.237 OA
ATOM     92  O   UNL A   1      51.856  28.615  23.014  1.00  0.00    -0.237 OA
ATOM     93  O   UNL A   1      52.854  26.385  22.795  1.00  0.00    -0.744 OA
ENDBRANCH  87  90
ENDBRANCH  59  83
BRANCH  71  94
ATOM     94  C   UNL A   1      46.590  32.535  29.097  1.00  0.00     0.023 A 
ATOM     95  C   UNL A   1      47.202  32.728  30.351  1.00  0.00     0.012 A 
ATOM     96  C   UNL A   1      46.616  33.576  28.148  1.00  0.00     0.148 A 
ATOM     97  C   UNL A   1      47.803  33.946  30.667  1.00  0.00     0.002 A 
ATOM     98  C   UNL A   1      47.262  34.768  28.448  1.00  0.00     0.091 A 
ATOM     99  F   UNL A   1      46.012  33.378  26.966  1.00  0.00    -0.205 F 
ATOM    100  C   UNL A   1      47.845  34.961  29.711  1.00  0.00     0.022 A 
BRANCH  98 101
ATOM    101  S   UNL A   1      47.456  36.089  27.246  1.00  0.00     0.127 S 
ATOM    102  O   UNL A   1      48.431  36.955  27.909  1.00  0.00    -0.237 OA
ATOM    103  O   UNL A   1      47.972  35.371  26.079  1.00  0.00    -0.237 OA
ATOM    104  O   UNL A   1      46.131  36.666  27.064  1.00  0.00    -0.744 OA
ENDBRANCH  98 101
ENDBRANCH  71  94
ENDBRANCH  45  46
ENDBRANCH  37  40
ENDBRANCH  35  36
ENDBRANCH  34  35
ENDBRANCH   1  34
TORSDOF 18
ENDMDL
MODEL 3
REMARK VINA RESULT:     -11.8      6.196     10.258
REMARK SMILES NS(=O)(=O)c1ccc(-c2cc(Cl)cc3c2O[C@H](C(F)(F)F)C(C(=O)NCCCCNC(=O)c2ccc(-c4c5nc(c(-c6cccc(S(=O)(=O)[O-])c6F)c6ccc([nH]6)c(-c6cccc(S(=O)(=O)[O-])c6F)c6nc(c(-c7cccc(S(=O)(=O)[O-])c7F)c7ccc4[nH]7)C=C6)C=C5)cc2)=C3)cc1
REMARK SMILES IDX 27 1 26 2 25 3 23 4 24 5 22 7 9 8 10 9 15 10 11 11 14 12
REMARK SMILES IDX 16 13 12 14 13 15 96 16 17 17 8 18 5 19 6 20 98 21 7 22
REMARK SMILES IDX 97 23 2 24 3 25 4 26 1 27 18 30 19 31 20 32 21 33 28 34
REMARK SMILES IDX 29 35 30 36 31 37 32 39 33 40 34 41 95 42 35 43 94 44 36 45
REMARK SMILES IDX 37 46 38 47 88 48 39 49 93 50 87 51 89 52 40 53 92 54 86 55
REMARK SMILES IDX 85 56 41 58 73 59 53 60 72 61 54 62 57 63 71 64 90 65 55 66
REMARK SMILES IDX 56 67 70 69 91 70 58 71 42 72 43 73 51 74 44 75 46 76 52 77
REMARK SMILES IDX 45 78 47 79 48 80 49 81 50 82 74 83 75 84 83 85 76 86 78 87
REMARK SMILES IDX 84 88 77 89 79 90 80 91 81 92 82 93 59 94 60 95 68 96 61 97
REMARK SMILES IDX 63 98 69 99 62 100 64 101 65 102 66 103 67 104
REMARK H PARENT 25 6 1 28 1 29 30 38 89 57 57 68
REMARK Flexibility Score: inf
ROOT
ATOM      1  C   UNL A   1      36.177  31.860  32.423  1.00  0.00     0.023 C 
ENDROOT
BRANCH   1   2
ATOM      2  C   UNL A   1      35.257  31.575  31.227  1.00  0.00     0.116 C 
BRANCH   2   3
ATOM      3  N   UNL A   1      34.365  32.696  31.017  1.00  0.00    -0.352 N 
ATOM      4  C   UNL A   1      34.333  33.561  29.977  1.00  0.00     0.251 C 
ATOM      5  O   UNL A   1      34.050  34.734  30.186  1.00  0.00    -0.270 OA
ATOM      6  H   UNL A   1      33.695  32.848  31.721  1.00  0.00     0.163 HD
BRANCH   4   7
ATOM      7  C   UNL A   1      34.550  33.020  28.598  1.00  0.00     0.067 C 
ATOM      8  C   UNL A   1      38.139  31.208  29.239  1.00  0.00     0.026 A 
ATOM      9  C   UNL A   1      38.930  32.121  29.984  1.00  0.00     0.033 A 
ATOM     10  C   UNL A   1      36.972  31.729  28.654  1.00  0.00     0.135 A 
ATOM     11  C   UNL A   1      38.689  33.493  29.983  1.00  0.00     0.042 A 
ATOM     12  C   UNL A   1      36.809  33.134  28.567  1.00  0.00     0.019 A 
ATOM     13  O   UNL A   1      35.929  30.932  28.203  1.00  0.00    -0.475 OA
ATOM     14  Cl  UNL A   1      39.690  34.532  30.915  1.00  0.00    -0.084 Cl
ATOM     15  C   UNL A   1      37.672  34.017  29.208  1.00  0.00     0.032 A 
ATOM     16  C   UNL A   1      35.560  33.644  27.957  1.00  0.00     0.025 C 
ATOM     17  C   UNL A   1      34.581  31.496  28.527  1.00  0.00     0.314 C 
BRANCH   8  18
ATOM     18  C   UNL A   1      38.797  29.903  28.965  1.00  0.00    -0.015 A 
ATOM     19  C   UNL A   1      40.965  28.282  28.161  1.00  0.00     0.082 A 
ATOM     20  C   UNL A   1      40.754  28.536  29.517  1.00  0.00     0.022 A 
ATOM     21  C   UNL A   1      40.030  28.707  27.216  1.00  0.00     0.022 A 
ATOM     22  C   UNL A   1      39.665  29.324  29.916  1.00  0.00     0.010 A 
ATOM     23  C   UNL A   1      38.945  29.500  27.622  1.00  0.00     0.010 A 
BRANCH  19  24
ATOM     24  S   UNL A   1      42.492  27.525  27.680  1.00  0.00     0.238 S 
ATOM     25  O   UNL A   1      42.998  28.205  26.506  1.00  0.00    -0.207 OA
ATOM     26  O   UNL A   1      42.336  26.095  27.739  1.00  0.00    -0.207 OA
BRANCH  24  27
ATOM     27  N   UNL A   1      43.583  27.906  28.903  1.00  0.00    -0.225 NA
ATOM     28  H   UNL A   1      43.746  28.912  28.912  1.00  0.00     0.137 HD
ATOM     29  H   UNL A   1      44.464  27.419  28.736  1.00  0.00     0.137 HD
ENDBRANCH  24  27
ENDBRANCH  19  24
ENDBRANCH   8  18
BRANCH  17  30
ATOM     30  C   UNL A   1      33.512  31.032  27.513  1.00  0.00     0.429 C 
ATOM     31  F   UNL A   1      34.045  30.631  26.337  1.00  0.00    -0.167 F 
ATOM     32  F   UNL A   1      32.786  29.998  28.003  1.00  0.00    -0.167 F 
ATOM     33  F   UNL A   1      32.616  32.011  27.212  1.00  0.00    -0.167 F 
ENDBRANCH  17  30
ENDBRANCH   4   7
ENDBRANCH   2   3
ENDBRANCH   1   2
BRANCH   1  34
ATOM     34  C   UNL A   1      36.263  33.335  32.844  1.00  0.00     0.023 C 
BRANCH  34  35
ATOM     35  C   UNL A   1      37.483  33.691  33.686  1.00  0.00     0.116 C 
BRANCH  35  36
ATOM     36  N   UNL A   1      37.389  33.153  35.033  1.00  0.00    -0.352 N 
ATOM     37  C   UNL A   1      38.084  32.108  35.595  1.00  0.00     0.251 C 
ATOM     38  H   UNL A   1      36.738  33.597  35.624  1.00  0.00     0.163 HD
ATOM     39  O   UNL A   1      37.744  31.661  36.687  1.00  0.00    -0.269 OA
BRANCH  37  40
ATOM     40  C   UNL A   1      39.228  31.514  34.869  1.00  0.00     0.039 A 
ATOM     41  C   UNL A   1      38.985  30.536  33.902  1.00  0.00     0.014 A 
ATOM     42  C   UNL A   1      40.533  31.935  35.132  1.00  0.00     0.014 A 
ATOM     43  C   UNL A   1      40.047  30.027  33.149  1.00  0.00     0.010 A 
ATOM     44  C   UNL A   1      41.579  31.482  34.331  1.00  0.00     0.010 A 
ATOM     45  C   UNL A   1      41.349  30.522  33.333  1.00  0.00    -0.014 A 
BRANCH  45  46
ATOM     46  C   UNL A   1      42.484  30.063  32.489  1.00  0.00     0.031 A 
ATOM     47  C   UNL A   1      42.922  30.879  31.301  1.00  0.00     0.074 A 
ATOM     48  C   UNL A   1      43.054  28.864  32.729  1.00  0.00     0.049 A 
ATOM     49  N   UNL A   1      43.827  30.603  30.400  1.00  0.00    -0.248 NA
ATOM     50  C   UNL A   1      42.230  32.161  31.079  1.00  0.00     0.031 C 
ATOM     51  C   UNL A   1      42.677  27.946  33.806  1.00  0.00     0.029 A 
ATOM     52  N   UNL A   1      44.052  28.196  32.062  1.00  0.00    -0.354 N 
ATOM     53  C   UNL A   1      43.782  31.646  29.481  1.00  0.00     0.074 A 
ATOM     54  C   UNL A   1      42.745  32.551  29.922  1.00  0.00     0.031 C 
ATOM     55  C   UNL A   1      43.435  26.840  33.729  1.00  0.00     0.029 A 
ATOM     56  C   UNL A   1      44.326  26.950  32.580  1.00  0.00     0.049 A 
ATOM     57  H   UNL A   1      44.528  28.574  31.287  1.00  0.00     0.167 HD
ATOM     58  C   UNL A   1      44.548  31.841  28.383  1.00  0.00     0.034 A 
ATOM     59  C   UNL A   1      45.189  26.000  32.168  1.00  0.00     0.034 A 
ATOM     60  C   UNL A   1      45.617  30.969  27.979  1.00  0.00     0.049 A 
ATOM     61  C   UNL A   1      46.051  26.265  30.962  1.00  0.00     0.074 A 
ATOM     62  C   UNL A   1      46.521  31.142  26.946  1.00  0.00     0.029 A 
ATOM     63  N   UNL A   1      45.919  29.757  28.578  1.00  0.00    -0.354 N 
ATOM     64  N   UNL A   1      46.109  27.335  30.208  1.00  0.00    -0.248 NA
ATOM     65  C   UNL A   1      46.990  25.204  30.568  1.00  0.00     0.031 C 
ATOM     66  C   UNL A   1      47.350  30.017  26.898  1.00  0.00     0.029 A 
ATOM     67  C   UNL A   1      46.985  29.161  27.926  1.00  0.00     0.049 A 
ATOM     68  H   UNL A   1      45.446  29.376  29.353  1.00  0.00     0.167 HD
ATOM     69  C   UNL A   1      47.120  27.097  29.284  1.00  0.00     0.074 A 
ATOM     70  C   UNL A   1      47.658  25.786  29.581  1.00  0.00     0.031 C 
ATOM     71  C   UNL A   1      47.557  27.887  28.273  1.00  0.00     0.034 A 
BRANCH  58  72
ATOM     72  C   UNL A   1      44.293  33.071  27.550  1.00  0.00     0.023 A 
ATOM     73  C   UNL A   1      43.745  32.941  26.258  1.00  0.00     0.012 A 
ATOM     74  C   UNL A   1      44.514  34.357  28.081  1.00  0.00     0.148 A 
ATOM     75  C   UNL A   1      43.447  34.070  25.497  1.00  0.00     0.002 A 
ATOM     76  C   UNL A   1      44.171  35.478  27.336  1.00  0.00     0.091 A 
ATOM     77  F   UNL A   1      45.054  34.459  29.304  1.00  0.00    -0.205 F 
ATOM     78  C   UNL A   1      43.648  35.336  26.040  1.00  0.00     0.022 A 
BRANCH  76  79
ATOM     79  S   UNL A   1      44.311  37.151  27.975  1.00  0.00     0.127 S 
ATOM     80  O   UNL A   1      43.751  37.934  26.875  1.00  0.00    -0.237 OA
ATOM     81  O   UNL A   1      43.472  37.092  29.172  1.00  0.00    -0.237 OA
ATOM     82  O   UNL A   1      45.728  37.366  28.233  1.00  0.00    -0.744 OA
ENDBRANCH  76  79
ENDBRANCH  58  72
BRANCH  59  83
ATOM     83  C   UNL A   1      45.333  24.727  32.933  1.00  0.00     0.023 A 
ATOM     84  C   UNL A   1      44.373  23.709  32.762  1.00  0.00     0.012 A 
ATOM     85  C   UNL A   1      46.400  24.518  33.827  1.00  0.00     0.148 A 
ATOM     86  C   UNL A   1      44.447  22.527  33.499  1.00  0.00     0.002 A 
ATOM     87  C   UNL A   1      46.499  23.315  34.516  1.00  0.00     0.091 A 
ATOM     88  F   UNL A   1      47.297  25.501  33.987  1.00  0.00    -0.205 F 
ATOM     89  C   UNL A   1      45.514  22.326  34.369  1.00  0.00     0.022 A 
BRANCH  87  90
ATOM     90  S   UNL A   1      47.906  22.918  35.561  1.00  0.00     0.127 S 
ATOM     91  O   UNL A   1      49.017  23.022  34.620  1.00  0.00    -0.237 OA
ATOM     92  O   UNL A   1      47.846  23.981  36.566  1.00  0.00    -0.237 OA
ATOM     93  O   UNL A   1      47.639  21.585  36.084  1.00  0.00    -0.744 OA
ENDBRANCH  87  90
ENDBRANCH  59  83
BRANCH  71  94
ATOM     94  C   UNL A   1      48.712  27.396  27.441  1.00  0.00     0.023 A 
ATOM     95  C   UNL A   1      48.473  26.661  26.264  1.00  0.00     0.012 A 
ATOM     96  C   UNL A   1      50.034  27.742  27.784  1.00  0.00     0.148 A 
ATOM     97  C   UNL A   1      49.534  26.252  25.456  1.00  0.00     0.002 A 
ATOM     98  C   UNL A   1      51.082  27.378  26.948  1.00  0.00     0.091 A 
ATOM     99  F   UNL A   1      50.242  28.427  28.918  1.00  0.00    -0.205 F 
ATOM    100  C   UNL A   1      50.836  26.621  25.791  1.00  0.00     0.022 A 
BRANCH  98 101
ATOM    101  S   UNL A   1      52.776  27.898  27.243  1.00  0.00     0.127 S 
ATOM    102  O   UNL A   1      53.072  27.241  28.515  1.00  0.00    -0.237 OA
ATOM    103  O   UNL A   1      53.478  27.335  26.088  1.00  0.00    -0.237 OA
ATOM    104  O   UNL A   1      52.749  29.354  27.283  1.00  0.00    -0.744 OA
ENDBRANCH  98 101
ENDBRANCH  71  94
ENDBRANCH  45  46
ENDBRANCH  37  40
ENDBRANCH  35  36
ENDBRANCH  34  35
ENDBRANCH   1  34
TORSDOF 18
ENDMDL
