MODEL 1
REMARK VINA RESULT:     -12.2      0.000      0.000
REMARK SMILES COc1cc(/C=C2/CCc3c2nc2ccccc2c3C(=O)NCCCCNC(=O)c2ccc(-c3c4nc(c(-c5cccc(S(=O)(=O)[O-])c5F)c5ccc([nH]5)c(-c5cccc(S(=O)(=O)[O-])c5F)c5nc(c(-c6cccc(S(=O)(=O)[O-])c6F)c6ccc3[nH]6)C=C5)C=C4)cc2)cc(Br)c1O
REMARK SMILES IDX 25 1 24 2 23 3 22 4 20 5 21 6 19 8 6 9 7 10 8 11 11 12 9 13
REMARK SMILES IDX 10 14 12 15 13 16 18 17 14 18 17 19 15 20 16 21 5 22 3 23
REMARK SMILES IDX 4 24 96 25 94 26 93 27 95 28 2 29 1 30 97 31 26 33 27 34
REMARK SMILES IDX 28 35 29 37 30 38 31 39 92 40 32 41 91 42 33 43 34 44 35 45
REMARK SMILES IDX 85 46 36 47 90 48 84 49 86 50 37 51 89 52 83 53 82 54 38 56
REMARK SMILES IDX 70 57 50 58 69 59 51 60 54 61 68 62 87 63 52 64 53 65 67 67
REMARK SMILES IDX 88 68 55 69 39 70 40 71 48 72 41 73 43 74 49 75 42 76 44 77
REMARK SMILES IDX 45 78 46 79 47 80 71 81 72 82 80 83 73 84 75 85 81 86 74 87
REMARK SMILES IDX 76 88 77 89 78 90 79 91 56 92 57 93 65 94 58 95 60 96 66 97
REMARK SMILES IDX 59 98 61 99 62 100 63 101 64 102
REMARK H PARENT 22 7 97 32 27 36 86 55 54 66
REMARK Flexibility Score: inf
ROOT
ATOM      1  C   UNL A   1      30.814  31.545  26.342  1.00  0.00     0.023 C 
ENDROOT
BRANCH   1   2
ATOM      2  C   UNL A   1      30.191  32.015  25.036  1.00  0.00     0.023 C 
BRANCH   2   3
ATOM      3  C   UNL A   1      29.454  30.978  24.211  1.00  0.00     0.116 C 
BRANCH   3   4
ATOM      4  N   UNL A   1      30.096  30.467  23.014  1.00  0.00    -0.352 N 
ATOM      5  C   UNL A   1      30.594  29.196  22.777  1.00  0.00     0.252 C 
ATOM      6  O   UNL A   1      30.844  28.854  21.624  1.00  0.00    -0.269 OA
ATOM      7  H   UNL A   1      30.190  31.108  22.272  1.00  0.00     0.163 HD
BRANCH   5   8
ATOM      8  C   UNL A   1      30.910  28.291  23.914  1.00  0.00     0.054 A 
ATOM      9  C   UNL A   1      29.736  24.423  26.250  1.00  0.00     0.014 C 
ATOM     10  C   UNL A   1      29.324  25.608  25.755  1.00  0.00    -0.021 C 
ATOM     11  C   UNL A   1      28.245  25.779  24.701  1.00  0.00     0.042 C 
ATOM     12  C   UNL A   1      30.264  26.697  25.508  1.00  0.00     0.071 A 
ATOM     13  C   UNL A   1      28.993  26.506  23.549  1.00  0.00     0.043 C 
ATOM     14  C   UNL A   1      30.047  27.275  24.282  1.00  0.00    -0.008 A 
ATOM     15  N   UNL A   1      31.252  26.975  26.364  1.00  0.00    -0.248 NA
ATOM     16  C   UNL A   1      32.200  27.785  25.912  1.00  0.00     0.072 A 
ATOM     17  C   UNL A   1      32.113  28.473  24.677  1.00  0.00     0.013 A 
ATOM     18  C   UNL A   1      33.331  27.888  26.702  1.00  0.00     0.029 A 
ATOM     19  C   UNL A   1      33.248  29.233  24.291  1.00  0.00     0.011 A 
ATOM     20  C   UNL A   1      34.453  28.593  26.281  1.00  0.00     0.002 A 
ATOM     21  C   UNL A   1      34.413  29.261  25.067  1.00  0.00     0.001 A 
BRANCH   9  22
ATOM     22  C   UNL A   1      31.061  23.953  25.774  1.00  0.00    -0.020 A 
ATOM     23  C   UNL A   1      32.482  23.151  24.008  1.00  0.00     0.162 A 
ATOM     24  C   UNL A   1      31.339  23.844  24.415  1.00  0.00     0.058 A 
ATOM     25  C   UNL A   1      33.351  22.572  24.942  1.00  0.00     0.172 A 
ATOM     26  C   UNL A   1      33.106  22.720  26.300  1.00  0.00     0.064 A 
ATOM     27  C   UNL A   1      31.991  23.446  26.712  1.00  0.00     0.028 A 
ATOM     28  Br  UNL A   1      34.212  21.917  27.612  1.00  0.00    -0.047 Br
BRANCH  23  29
ATOM     29  O   UNL A   1      32.816  23.082  22.680  1.00  0.00    -0.493 OA
ATOM     30  C   UNL A   1      32.829  24.383  22.091  1.00  0.00     0.278 C 
ENDBRANCH  23  29
BRANCH  25  31
ATOM     31  O   UNL A   1      34.429  21.853  24.500  1.00  0.00    -0.503 OA
ATOM     32  H   UNL A   1      34.746  21.128  25.000  1.00  0.00     0.293 HD
ENDBRANCH  25  31
ENDBRANCH   9  22
ENDBRANCH   5   8
ENDBRANCH   3   4
ENDBRANCH   2   3
ENDBRANCH   1   2
BRANCH   1  33
ATOM     33  C   UNL A   1      32.232  32.001  26.655  1.00  0.00     0.116 C 
BRANCH  33  34
ATOM     34  N   UNL A   1      32.353  33.187  27.501  1.00  0.00    -0.352 N 
ATOM     35  C   UNL A   1      33.483  33.685  28.124  1.00  0.00     0.251 C 
ATOM     36  H   UNL A   1      31.524  33.698  27.645  1.00  0.00     0.163 HD
ATOM     37  O   UNL A   1      33.455  34.743  28.746  1.00  0.00    -0.269 OA
BRANCH  35  38
ATOM     38  C   UNL A   1      34.702  32.857  28.083  1.00  0.00     0.039 A 
ATOM     39  C   UNL A   1      34.599  31.492  28.349  1.00  0.00     0.014 A 
ATOM     40  C   UNL A   1      35.936  33.509  28.100  1.00  0.00     0.014 A 
ATOM     41  C   UNL A   1      35.694  30.851  28.915  1.00  0.00     0.010 A 
ATOM     42  C   UNL A   1      37.059  32.821  28.559  1.00  0.00     0.010 A 
ATOM     43  C   UNL A   1      36.924  31.520  29.069  1.00  0.00    -0.014 A 
BRANCH  43  44
ATOM     44  C   UNL A   1      38.032  30.876  29.826  1.00  0.00     0.031 A 
ATOM     45  C   UNL A   1      38.247  31.167  31.295  1.00  0.00     0.074 A 
ATOM     46  C   UNL A   1      38.823  29.985  29.202  1.00  0.00     0.049 A 
ATOM     47  N   UNL A   1      39.212  30.757  32.080  1.00  0.00    -0.248 NA
ATOM     48  C   UNL A   1      37.263  32.031  31.973  1.00  0.00     0.031 C 
ATOM     49  C   UNL A   1      38.712  29.606  27.792  1.00  0.00     0.029 A 
ATOM     50  N   UNL A   1      39.867  29.229  29.669  1.00  0.00    -0.354 N 
ATOM     51  C   UNL A   1      38.992  31.362  33.313  1.00  0.00     0.074 A 
ATOM     52  C   UNL A   1      37.791  32.156  33.186  1.00  0.00     0.031 C 
ATOM     53  C   UNL A   1      39.611  28.652  27.521  1.00  0.00     0.029 A 
ATOM     54  C   UNL A   1      40.421  28.415  28.711  1.00  0.00     0.049 A 
ATOM     55  H   UNL A   1      40.188  29.265  30.599  1.00  0.00     0.167 HD
ATOM     56  C   UNL A   1      39.719  31.254  34.451  1.00  0.00     0.034 A 
ATOM     57  C   UNL A   1      41.481  27.589  28.764  1.00  0.00     0.034 A 
ATOM     58  C   UNL A   1      40.867  30.400  34.601  1.00  0.00     0.049 A 
ATOM     59  C   UNL A   1      42.255  27.471  30.040  1.00  0.00     0.074 A 
ATOM     60  C   UNL A   1      41.650  30.206  35.726  1.00  0.00     0.029 A 
ATOM     61  N   UNL A   1      41.381  29.581  33.610  1.00  0.00    -0.354 N 
ATOM     62  N   UNL A   1      42.024  28.047  31.194  1.00  0.00    -0.248 NA
ATOM     63  C   UNL A   1      43.432  26.592  30.026  1.00  0.00     0.031 C 
ATOM     64  C   UNL A   1      42.636  29.264  35.415  1.00  0.00     0.029 A 
ATOM     65  C   UNL A   1      42.464  28.872  34.098  1.00  0.00     0.049 A 
ATOM     66  H   UNL A   1      41.028  29.515  32.692  1.00  0.00     0.167 HD
ATOM     67  C   UNL A   1      43.021  27.595  32.047  1.00  0.00     0.074 A 
ATOM     68  C   UNL A   1      43.846  26.681  31.284  1.00  0.00     0.031 C 
ATOM     69  C   UNL A   1      43.244  27.929  33.341  1.00  0.00     0.034 A 
BRANCH  56  70
ATOM     70  C   UNL A   1      39.287  32.042  35.659  1.00  0.00     0.023 A 
ATOM     71  C   UNL A   1      39.554  33.423  35.716  1.00  0.00     0.012 A 
ATOM     72  C   UNL A   1      38.503  31.445  36.669  1.00  0.00     0.148 A 
ATOM     73  C   UNL A   1      39.054  34.199  36.761  1.00  0.00     0.002 A 
ATOM     74  C   UNL A   1      37.985  32.230  37.692  1.00  0.00     0.091 A 
ATOM     75  F   UNL A   1      38.270  30.126  36.598  1.00  0.00    -0.205 F 
ATOM     76  C   UNL A   1      38.261  33.607  37.741  1.00  0.00     0.022 A 
BRANCH  74  77
ATOM     77  S   UNL A   1      36.902  31.577  38.969  1.00  0.00     0.127 S 
ATOM     78  O   UNL A   1      37.786  31.580  40.133  1.00  0.00    -0.237 OA
ATOM     79  O   UNL A   1      35.835  32.579  39.011  1.00  0.00    -0.237 OA
ATOM     80  O   UNL A   1      36.485  30.259  38.510  1.00  0.00    -0.744 OA
ENDBRANCH  74  77
ENDBRANCH  56  70
BRANCH  57  81
ATOM     81  C   UNL A   1      41.833  26.799  27.555  1.00  0.00     0.023 A 
ATOM     82  C   UNL A   1      42.583  27.408  26.533  1.00  0.00     0.012 A 
ATOM     83  C   UNL A   1      41.541  25.424  27.479  1.00  0.00     0.148 A 
ATOM     84  C   UNL A   1      43.044  26.654  25.453  1.00  0.00     0.002 A 
ATOM     85  C   UNL A   1      42.049  24.670  26.429  1.00  0.00     0.091 A 
ATOM     86  F   UNL A   1      40.818  24.874  28.464  1.00  0.00    -0.205 F 
ATOM     87  C   UNL A   1      42.793  25.284  25.410  1.00  0.00     0.022 A 
BRANCH  85  88
ATOM     88  S   UNL A   1      41.902  22.880  26.372  1.00  0.00     0.127 S 
ATOM     89  O   UNL A   1      42.609  22.484  27.587  1.00  0.00    -0.237 OA
ATOM     90  O   UNL A   1      40.450  22.697  26.415  1.00  0.00    -0.237 OA
ATOM     91  O   UNL A   1      42.522  22.472  25.119  1.00  0.00    -0.744 OA
ENDBRANCH  85  88
ENDBRANCH  57  81
BRANCH  69  92
ATOM     92  C   UNL A   1      44.417  27.298  34.031  1.00  0.00     0.023 A 
ATOM     93  C   UNL A   1      45.652  27.973  34.047  1.00  0.00     0.012 A 
ATOM     94  C   UNL A   1      44.270  26.093  34.746  1.00  0.00     0.148 A 
ATOM     95  C   UNL A   1      46.731  27.453  34.759  1.00  0.00     0.002 A 
ATOM     96  C   UNL A   1      45.341  25.597  35.478  1.00  0.00     0.091 A 
ATOM     97  F   UNL A   1      43.086  25.465  34.701  1.00  0.00    -0.205 F 
ATOM     98  C   UNL A   1      46.573  26.273  35.482  1.00  0.00     0.022 A 
BRANCH  96  99
ATOM     99  S   UNL A   1      45.214  24.120  36.494  1.00  0.00     0.127 S 
ATOM    100  O   UNL A   1      44.599  24.649  37.710  1.00  0.00    -0.237 OA
ATOM    101  O   UNL A   1      44.340  23.266  35.690  1.00  0.00    -0.237 OA
ATOM    102  O   UNL A   1      46.573  23.621  36.649  1.00  0.00    -0.744 OA
ENDBRANCH  96  99
ENDBRANCH  69  92
ENDBRANCH  43  44
ENDBRANCH  35  38
ENDBRANCH  33  34
ENDBRANCH   1  33
TORSDOF 17
ENDMDL
MODEL 2
REMARK VINA RESULT:     -11.8      1.812      2.867
REMARK SMILES COc1cc(/C=C2/CCc3c2nc2ccccc2c3C(=O)NCCCCNC(=O)c2ccc(-c3c4nc(c(-c5cccc(S(=O)(=O)[O-])c5F)c5ccc([nH]5)c(-c5cccc(S(=O)(=O)[O-])c5F)c5nc(c(-c6cccc(S(=O)(=O)[O-])c6F)c6ccc3[nH]6)C=C5)C=C4)cc2)cc(Br)c1O
REMARK SMILES IDX 25 1 24 2 23 3 22 4 20 5 21 6 19 8 6 9 7 10 8 11 11 12 9 13
REMARK SMILES IDX 10 14 12 15 13 16 18 17 14 18 17 19 15 20 16 21 5 22 3 23
REMARK SMILES IDX 4 24 96 25 94 26 93 27 95 28 2 29 1 30 97 31 26 33 27 34
REMARK SMILES IDX 28 35 29 37 30 38 31 39 92 40 32 41 91 42 33 43 34 44 35 45
REMARK SMILES IDX 85 46 36 47 90 48 84 49 86 50 37 51 89 52 83 53 82 54 38 56
REMARK SMILES IDX 70 57 50 58 69 59 51 60 54 61 68 62 87 63 52 64 53 65 67 67
REMARK SMILES IDX 88 68 55 69 39 70 40 71 48 72 41 73 43 74 49 75 42 76 44 77
REMARK SMILES IDX 45 78 46 79 47 80 71 81 72 82 80 83 73 84 75 85 81 86 74 87
REMARK SMILES IDX 76 88 77 89 78 90 79 91 56 92 57 93 65 94 58 95 60 96 66 97
REMARK SMILES IDX 59 98 61 99 62 100 63 101 64 102
REMARK H PARENT 22 7 97 32 27 36 86 55 54 66
REMARK Flexibility Score: inf
ROOT
ATOM      1  C   UNL A   1      31.344  30.379  26.873  1.00  0.00     0.023 C 
ENDROOT
BRANCH   1   2
ATOM      2  C   UNL A   1      31.808  28.951  26.627  1.00  0.00     0.023 C 
BRANCH   2   3
ATOM      3  C   UNL A   1      31.944  28.508  25.183  1.00  0.00     0.116 C 
BRANCH   3   4
ATOM      4  N   UNL A   1      30.754  28.495  24.353  1.00  0.00    -0.352 N 
ATOM      5  C   UNL A   1      30.040  27.403  23.885  1.00  0.00     0.252 C 
ATOM      6  O   UNL A   1      28.908  27.572  23.440  1.00  0.00    -0.269 OA
ATOM      7  H   UNL A   1      30.408  29.377  24.088  1.00  0.00     0.163 HD
BRANCH   5   8
ATOM      8  C   UNL A   1      30.673  26.058  23.837  1.00  0.00     0.054 A 
ATOM      9  C   UNL A   1      33.832  23.318  21.762  1.00  0.00     0.014 C 
ATOM     10  C   UNL A   1      32.774  24.137  21.601  1.00  0.00    -0.021 C 
ATOM     11  C   UNL A   1      32.794  25.435  20.813  1.00  0.00     0.042 C 
ATOM     12  C   UNL A   1      31.821  24.371  22.682  1.00  0.00     0.071 A 
ATOM     13  C   UNL A   1      32.393  26.496  21.875  1.00  0.00     0.043 C 
ATOM     14  C   UNL A   1      31.531  25.706  22.811  1.00  0.00    -0.008 A 
ATOM     15  N   UNL A   1      31.405  23.378  23.473  1.00  0.00    -0.248 NA
ATOM     16  C   UNL A   1      30.771  23.744  24.579  1.00  0.00     0.072 A 
ATOM     17  C   UNL A   1      30.382  25.081  24.848  1.00  0.00     0.013 A 
ATOM     18  C   UNL A   1      30.548  22.742  25.505  1.00  0.00     0.029 A 
ATOM     19  C   UNL A   1      29.792  25.327  26.114  1.00  0.00     0.011 A 
ATOM     20  C   UNL A   1      30.018  23.014  26.761  1.00  0.00     0.002 A 
ATOM     21  C   UNL A   1      29.647  24.314  27.069  1.00  0.00     0.001 A 
BRANCH   9  22
ATOM     22  C   UNL A   1      34.467  23.344  23.103  1.00  0.00    -0.020 A 
ATOM     23  C   UNL A   1      35.210  24.562  25.039  1.00  0.00     0.162 A 
ATOM     24  C   UNL A   1      34.384  24.472  23.915  1.00  0.00     0.058 A 
ATOM     25  C   UNL A   1      36.111  23.540  25.363  1.00  0.00     0.172 A 
ATOM     26  C   UNL A   1      36.162  22.391  24.586  1.00  0.00     0.064 A 
ATOM     27  C   UNL A   1      35.312  22.276  23.488  1.00  0.00     0.028 A 
ATOM     28  Br  UNL A   1      37.395  20.996  24.938  1.00  0.00    -0.047 Br
BRANCH  23  29
ATOM     29  O   UNL A   1      35.104  25.631  25.893  1.00  0.00    -0.493 OA
ATOM     30  C   UNL A   1      33.738  25.997  26.081  1.00  0.00     0.278 C 
ENDBRANCH  23  29
BRANCH  25  31
ATOM     31  O   UNL A   1      36.941  23.693  26.441  1.00  0.00    -0.503 OA
ATOM     32  H   UNL A   1      37.710  23.165  26.518  1.00  0.00     0.293 HD
ENDBRANCH  25  31
ENDBRANCH   9  22
ENDBRANCH   5   8
ENDBRANCH   3   4
ENDBRANCH   2   3
ENDBRANCH   1   2
BRANCH   1  33
ATOM     33  C   UNL A   1      32.251  31.509  26.405  1.00  0.00     0.116 C 
BRANCH  33  34
ATOM     34  N   UNL A   1      32.268  32.707  27.242  1.00  0.00    -0.352 N 
ATOM     35  C   UNL A   1      33.345  33.291  27.882  1.00  0.00     0.251 C 
ATOM     36  H   UNL A   1      31.401  33.157  27.366  1.00  0.00     0.163 HD
ATOM     37  O   UNL A   1      33.228  34.349  28.495  1.00  0.00    -0.269 OA
BRANCH  35  38
ATOM     38  C   UNL A   1      34.622  32.554  27.873  1.00  0.00     0.039 A 
ATOM     39  C   UNL A   1      34.608  31.177  28.088  1.00  0.00     0.014 A 
ATOM     40  C   UNL A   1      35.804  33.292  27.969  1.00  0.00     0.014 A 
ATOM     41  C   UNL A   1      35.721  30.596  28.684  1.00  0.00     0.010 A 
ATOM     42  C   UNL A   1      36.952  32.670  28.458  1.00  0.00     0.010 A 
ATOM     43  C   UNL A   1      36.890  31.346  28.918  1.00  0.00    -0.014 A 
BRANCH  43  44
ATOM     44  C   UNL A   1      38.007  30.757  29.705  1.00  0.00     0.031 A 
ATOM     45  C   UNL A   1      38.207  31.108  31.163  1.00  0.00     0.074 A 
ATOM     46  C   UNL A   1      38.822  29.860  29.120  1.00  0.00     0.049 A 
ATOM     47  N   UNL A   1      39.176  30.750  31.968  1.00  0.00    -0.248 NA
ATOM     48  C   UNL A   1      37.200  31.975  31.802  1.00  0.00     0.031 C 
ATOM     49  C   UNL A   1      38.728  29.425  27.725  1.00  0.00     0.029 A 
ATOM     50  N   UNL A   1      39.879  29.146  29.621  1.00  0.00    -0.354 N 
ATOM     51  C   UNL A   1      38.935  31.397  33.176  1.00  0.00     0.074 A 
ATOM     52  C   UNL A   1      37.717  32.158  33.012  1.00  0.00     0.031 C 
ATOM     53  C   UNL A   1      39.650  28.482  27.496  1.00  0.00     0.029 A 
ATOM     54  C   UNL A   1      40.457  28.308  28.698  1.00  0.00     0.049 A 
ATOM     55  H   UNL A   1      40.193  29.225  30.551  1.00  0.00     0.167 HD
ATOM     56  C   UNL A   1      39.657  31.349  34.321  1.00  0.00     0.034 A 
ATOM     57  C   UNL A   1      41.535  27.509  28.789  1.00  0.00     0.034 A 
ATOM     58  C   UNL A   1      40.823  30.527  34.510  1.00  0.00     0.049 A 
ATOM     59  C   UNL A   1      42.304  27.457  30.072  1.00  0.00     0.074 A 
ATOM     60  C   UNL A   1      41.603  30.393  35.646  1.00  0.00     0.029 A 
ATOM     61  N   UNL A   1      41.361  29.682  33.553  1.00  0.00    -0.354 N 
ATOM     62  N   UNL A   1      42.053  28.072  31.202  1.00  0.00    -0.248 NA
ATOM     63  C   UNL A   1      43.499  26.605  30.098  1.00  0.00     0.031 C 
ATOM     64  C   UNL A   1      42.611  29.463  35.376  1.00  0.00     0.029 A 
ATOM     65  C   UNL A   1      42.456  29.017  34.074  1.00  0.00     0.049 A 
ATOM     66  H   UNL A   1      41.015  29.573  32.637  1.00  0.00     0.167 HD
ATOM     67  C   UNL A   1      43.054  27.675  32.077  1.00  0.00     0.074 A 
ATOM     68  C   UNL A   1      43.903  26.751  31.354  1.00  0.00     0.031 C 
ATOM     69  C   UNL A   1      43.262  28.064  33.359  1.00  0.00     0.034 A 
BRANCH  56  70
ATOM     70  C   UNL A   1      39.200  32.172  35.496  1.00  0.00     0.023 A 
ATOM     71  C   UNL A   1      38.377  31.583  36.474  1.00  0.00     0.012 A 
ATOM     72  C   UNL A   1      39.690  33.479  35.697  1.00  0.00     0.148 A 
ATOM     73  C   UNL A   1      38.045  32.281  37.635  1.00  0.00     0.002 A 
ATOM     74  C   UNL A   1      39.378  34.159  36.869  1.00  0.00     0.091 A 
ATOM     75  F   UNL A   1      40.463  34.023  34.746  1.00  0.00    -0.205 F 
ATOM     76  C   UNL A   1      38.553  33.562  37.838  1.00  0.00     0.022 A 
BRANCH  74  77
ATOM     77  S   UNL A   1      40.030  35.787  37.256  1.00  0.00     0.127 S 
ATOM     78  O   UNL A   1      39.633  36.551  36.073  1.00  0.00    -0.237 OA
ATOM     79  O   UNL A   1      39.299  36.132  38.476  1.00  0.00    -0.237 OA
ATOM     80  O   UNL A   1      41.466  35.616  37.431  1.00  0.00    -0.744 OA
ENDBRANCH  74  77
ENDBRANCH  56  70
BRANCH  57  81
ATOM     81  C   UNL A   1      41.911  26.681  27.613  1.00  0.00     0.023 A 
ATOM     82  C   UNL A   1      42.778  27.220  26.644  1.00  0.00     0.012 A 
ATOM     83  C   UNL A   1      41.521  25.331  27.523  1.00  0.00     0.148 A 
ATOM     84  C   UNL A   1      43.257  26.422  25.605  1.00  0.00     0.002 A 
ATOM     85  C   UNL A   1      42.045  24.529  26.517  1.00  0.00     0.091 A 
ATOM     86  F   UNL A   1      40.689  24.850  28.456  1.00  0.00    -0.205 F 
ATOM     87  C   UNL A   1      42.905  25.074  25.552  1.00  0.00     0.022 A 
BRANCH  85  88
ATOM     88  S   UNL A   1      41.765  22.756  26.459  1.00  0.00     0.127 S 
ATOM     89  O   UNL A   1      42.416  22.311  27.688  1.00  0.00    -0.237 OA
ATOM     90  O   UNL A   1      40.303  22.682  26.473  1.00  0.00    -0.237 OA
ATOM     91  O   UNL A   1      42.378  22.299  25.219  1.00  0.00    -0.744 OA
ENDBRANCH  85  88
ENDBRANCH  57  81
BRANCH  69  92
ATOM     92  C   UNL A   1      44.444  27.485  34.079  1.00  0.00     0.023 A 
ATOM     93  C   UNL A   1      45.666  28.182  34.065  1.00  0.00     0.012 A 
ATOM     94  C   UNL A   1      44.317  26.312  34.848  1.00  0.00     0.148 A 
ATOM     95  C   UNL A   1      46.753  27.715  34.802  1.00  0.00     0.002 A 
ATOM     96  C   UNL A   1      45.394  25.869  35.603  1.00  0.00     0.091 A 
ATOM     97  F   UNL A   1      43.144  25.662  34.830  1.00  0.00    -0.205 F 
ATOM     98  C   UNL A   1      46.614  26.566  35.578  1.00  0.00     0.022 A 
BRANCH  96  99
ATOM     99  S   UNL A   1      45.291  24.439  36.686  1.00  0.00     0.127 S 
ATOM    100  O   UNL A   1      46.651  24.369  37.216  1.00  0.00    -0.237 OA
ATOM    101  O   UNL A   1      44.279  24.858  37.655  1.00  0.00    -0.237 OA
ATOM    102  O   UNL A   1      44.893  23.322  35.840  1.00  0.00    -0.744 OA
ENDBRANCH  96  99
ENDBRANCH  69  92
ENDBRANCH  43  44
ENDBRANCH  35  38
ENDBRANCH  33  34
ENDBRANCH   1  33
TORSDOF 17
ENDMDL
MODEL 3
REMARK VINA RESULT:     -11.7      1.691      7.727
REMARK SMILES COc1cc(/C=C2/CCc3c2nc2ccccc2c3C(=O)NCCCCNC(=O)c2ccc(-c3c4nc(c(-c5cccc(S(=O)(=O)[O-])c5F)c5ccc([nH]5)c(-c5cccc(S(=O)(=O)[O-])c5F)c5nc(c(-c6cccc(S(=O)(=O)[O-])c6F)c6ccc3[nH]6)C=C5)C=C4)cc2)cc(Br)c1O
REMARK SMILES IDX 25 1 24 2 23 3 22 4 20 5 21 6 19 8 6 9 7 10 8 11 11 12 9 13
REMARK SMILES IDX 10 14 12 15 13 16 18 17 14 18 17 19 15 20 16 21 5 22 3 23
REMARK SMILES IDX 4 24 96 25 94 26 93 27 95 28 2 29 1 30 97 31 26 33 27 34
REMARK SMILES IDX 28 35 29 37 30 38 31 39 92 40 32 41 91 42 33 43 34 44 35 45
REMARK SMILES IDX 85 46 36 47 90 48 84 49 86 50 37 51 89 52 83 53 82 54 38 56
REMARK SMILES IDX 70 57 50 58 69 59 51 60 54 61 68 62 87 63 52 64 53 65 67 67
REMARK SMILES IDX 88 68 55 69 39 70 40 71 48 72 41 73 43 74 49 75 42 76 44 77
REMARK SMILES IDX 45 78 46 79 47 80 71 81 72 82 80 83 73 84 75 85 81 86 74 87
REMARK SMILES IDX 76 88 77 89 78 90 79 91 56 92 57 93 65 94 58 95 60 96 66 97
REMARK SMILES IDX 59 98 61 99 62 100 63 101 64 102
REMARK H PARENT 22 7 97 32 27 36 86 55 54 66
REMARK Flexibility Score: inf
ROOT
ATOM      1  C   UNL A   1      31.480  29.943  26.856  1.00  0.00     0.023 C 
ENDROOT
BRANCH   1   2
ATOM      2  C   UNL A   1      32.027  28.606  27.336  1.00  0.00     0.023 C 
BRANCH   2   3
ATOM      3  C   UNL A   1      31.955  27.443  26.365  1.00  0.00     0.116 C 
BRANCH   3   4
ATOM      4  N   UNL A   1      30.816  26.548  26.447  1.00  0.00    -0.352 N 
ATOM      5  C   UNL A   1      30.792  25.167  26.333  1.00  0.00     0.252 C 
ATOM      6  O   UNL A   1      29.799  24.551  26.708  1.00  0.00    -0.269 OA
ATOM      7  H   UNL A   1      29.945  26.979  26.606  1.00  0.00     0.163 HD
BRANCH   5   8
ATOM      8  C   UNL A   1      31.918  24.451  25.677  1.00  0.00     0.054 A 
ATOM      9  C   UNL A   1      35.210  21.166  26.098  1.00  0.00     0.014 C 
ATOM     10  C   UNL A   1      34.656  22.278  26.622  1.00  0.00    -0.021 C 
ATOM     11  C   UNL A   1      33.995  22.356  27.986  1.00  0.00     0.042 C 
ATOM     12  C   UNL A   1      33.912  23.221  25.792  1.00  0.00     0.071 A 
ATOM     13  C   UNL A   1      32.546  22.803  27.649  1.00  0.00     0.043 C 
ATOM     14  C   UNL A   1      32.735  23.593  26.392  1.00  0.00    -0.008 A 
ATOM     15  N   UNL A   1      34.332  23.557  24.569  1.00  0.00    -0.248 NA
ATOM     16  C   UNL A   1      33.450  24.190  23.807  1.00  0.00     0.072 A 
ATOM     17  C   UNL A   1      32.200  24.657  24.284  1.00  0.00     0.013 A 
ATOM     18  C   UNL A   1      33.796  24.330  22.474  1.00  0.00     0.029 A 
ATOM     19  C   UNL A   1      31.329  25.236  23.325  1.00  0.00     0.011 A 
ATOM     20  C   UNL A   1      32.907  24.850  21.541  1.00  0.00     0.002 A 
ATOM     21  C   UNL A   1      31.666  25.297  21.968  1.00  0.00     0.001 A 
BRANCH   9  22
ATOM     22  C   UNL A   1      34.431  20.507  25.019  1.00  0.00    -0.020 A 
ATOM     23  C   UNL A   1      32.506  20.432  23.580  1.00  0.00     0.162 A 
ATOM     24  C   UNL A   1      33.380  21.165  24.388  1.00  0.00     0.058 A 
ATOM     25  C   UNL A   1      32.673  19.054  23.394  1.00  0.00     0.172 A 
ATOM     26  C   UNL A   1      33.749  18.401  23.980  1.00  0.00     0.064 A 
ATOM     27  C   UNL A   1      34.648  19.135  24.752  1.00  0.00     0.028 A 
ATOM     28  Br  UNL A   1      34.002  16.531  23.811  1.00  0.00    -0.047 Br
BRANCH  23  29
ATOM     29  O   UNL A   1      31.500  21.063  22.894  1.00  0.00    -0.493 OA
ATOM     30  C   UNL A   1      31.911  21.374  21.563  1.00  0.00     0.278 C 
ENDBRANCH  23  29
BRANCH  25  31
ATOM     31  O   UNL A   1      31.763  18.363  22.640  1.00  0.00    -0.503 OA
ATOM     32  H   UNL A   1      31.577  17.466  22.835  1.00  0.00     0.293 HD
ENDBRANCH  25  31
ENDBRANCH   9  22
ENDBRANCH   5   8
ENDBRANCH   3   4
ENDBRANCH   2   3
ENDBRANCH   1   2
BRANCH   1  33
ATOM     33  C   UNL A   1      32.484  31.023  26.475  1.00  0.00     0.116 C 
BRANCH  33  34
ATOM     34  N   UNL A   1      32.480  32.224  27.308  1.00  0.00    -0.352 N 
ATOM     35  C   UNL A   1      33.552  32.844  27.923  1.00  0.00     0.251 C 
ATOM     36  H   UNL A   1      31.602  32.647  27.448  1.00  0.00     0.163 HD
ATOM     37  O   UNL A   1      33.414  33.900  28.534  1.00  0.00    -0.269 OA
BRANCH  35  38
ATOM     38  C   UNL A   1      34.851  32.147  27.890  1.00  0.00     0.039 A 
ATOM     39  C   UNL A   1      34.885  30.773  28.120  1.00  0.00     0.014 A 
ATOM     40  C   UNL A   1      36.010  32.923  27.950  1.00  0.00     0.014 A 
ATOM     41  C   UNL A   1      36.030  30.234  28.694  1.00  0.00     0.010 A 
ATOM     42  C   UNL A   1      37.189  32.343  28.417  1.00  0.00     0.010 A 
ATOM     43  C   UNL A   1      37.180  31.022  28.892  1.00  0.00    -0.014 A 
BRANCH  43  44
ATOM     44  C   UNL A   1      38.334  30.476  29.658  1.00  0.00     0.031 A 
ATOM     45  C   UNL A   1      39.303  29.504  29.022  1.00  0.00     0.074 A 
ATOM     46  C   UNL A   1      38.541  30.894  30.920  1.00  0.00     0.049 A 
ATOM     47  N   UNL A   1      40.309  28.872  29.573  1.00  0.00    -0.248 NA
ATOM     48  C   UNL A   1      39.124  29.194  27.593  1.00  0.00     0.031 C 
ATOM     49  C   UNL A   1      37.688  31.840  31.643  1.00  0.00     0.029 A 
ATOM     50  N   UNL A   1      39.535  30.590  31.814  1.00  0.00    -0.354 N 
ATOM     51  C   UNL A   1      40.834  28.044  28.585  1.00  0.00     0.074 A 
ATOM     52  C   UNL A   1      40.051  28.265  27.390  1.00  0.00     0.031 C 
ATOM     53  C   UNL A   1      38.222  32.080  32.847  1.00  0.00     0.029 A 
ATOM     54  C   UNL A   1      39.404  31.242  33.016  1.00  0.00     0.049 A 
ATOM     55  H   UNL A   1      40.271  29.968  31.615  1.00  0.00     0.167 HD
ATOM     56  C   UNL A   1      41.881  27.190  28.664  1.00  0.00     0.034 A 
ATOM     57  C   UNL A   1      40.128  31.159  34.146  1.00  0.00     0.034 A 
ATOM     58  C   UNL A   1      42.712  27.032  29.829  1.00  0.00     0.049 A 
ATOM     59  C   UNL A   1      41.295  30.223  34.202  1.00  0.00     0.074 A 
ATOM     60  C   UNL A   1      43.813  26.208  29.991  1.00  0.00     0.029 A 
ATOM     61  N   UNL A   1      42.551  27.725  31.016  1.00  0.00    -0.354 N 
ATOM     62  N   UNL A   1      41.776  29.456  33.253  1.00  0.00    -0.248 NA
ATOM     63  C   UNL A   1      42.020  30.137  35.476  1.00  0.00     0.031 C 
ATOM     64  C   UNL A   1      44.322  26.408  31.278  1.00  0.00     0.029 A 
ATOM     65  C   UNL A   1      43.538  27.357  31.914  1.00  0.00     0.049 A 
ATOM     66  H   UNL A   1      41.840  28.381  31.196  1.00  0.00     0.167 HD
ATOM     67  C   UNL A   1      42.865  28.803  33.811  1.00  0.00     0.074 A 
ATOM     68  C   UNL A   1      42.988  29.278  35.174  1.00  0.00     0.031 C 
ATOM     69  C   UNL A   1      43.676  27.874  33.249  1.00  0.00     0.034 A 
BRANCH  56  70
ATOM     70  C   UNL A   1      42.239  26.375  27.450  1.00  0.00     0.023 A 
ATOM     71  C   UNL A   1      43.028  26.954  26.437  1.00  0.00     0.012 A 
ATOM     72  C   UNL A   1      41.910  25.005  27.376  1.00  0.00     0.148 A 
ATOM     73  C   UNL A   1      43.480  26.184  25.365  1.00  0.00     0.002 A 
ATOM     74  C   UNL A   1      42.388  24.239  26.319  1.00  0.00     0.091 A 
ATOM     75  F   UNL A   1      41.150  24.479  28.347  1.00  0.00    -0.205 F 
ATOM     76  C   UNL A   1      43.172  24.827  25.311  1.00  0.00     0.022 A 
BRANCH  74  77
ATOM     77  S   UNL A   1      42.099  22.470  26.188  1.00  0.00     0.127 S 
ATOM     78  O   UNL A   1      42.801  22.149  24.946  1.00  0.00    -0.237 OA
ATOM     79  O   UNL A   1      42.744  21.962  27.400  1.00  0.00    -0.237 OA
ATOM     80  O   UNL A   1      40.654  22.299  26.147  1.00  0.00    -0.744 OA
ENDBRANCH  74  77
ENDBRANCH  56  70
BRANCH  57  81
ATOM     81  C   UNL A   1      39.759  32.023  35.297  1.00  0.00     0.023 A 
ATOM     82  C   UNL A   1      40.109  33.385  35.272  1.00  0.00     0.012 A 
ATOM     83  C   UNL A   1      38.954  31.531  36.344  1.00  0.00     0.148 A 
ATOM     84  C   UNL A   1      39.656  34.247  36.271  1.00  0.00     0.002 A 
ATOM     85  C   UNL A   1      38.463  32.406  37.303  1.00  0.00     0.091 A 
ATOM     86  F   UNL A   1      38.644  30.227  36.344  1.00  0.00    -0.205 F 
ATOM     87  C   UNL A   1      38.820  33.762  37.275  1.00  0.00     0.022 A 
BRANCH  85  88
ATOM     88  S   UNL A   1      37.265  31.899  38.542  1.00  0.00     0.127 S 
ATOM     89  O   UNL A   1      37.012  30.511  38.162  1.00  0.00    -0.237 OA
ATOM     90  O   UNL A   1      38.025  32.070  39.782  1.00  0.00    -0.237 OA
ATOM     91  O   UNL A   1      36.137  32.808  38.398  1.00  0.00    -0.744 OA
ENDBRANCH  85  88
ENDBRANCH  57  81
BRANCH  69  92
ATOM     92  C   UNL A   1      44.781  27.312  34.094  1.00  0.00     0.023 A 
ATOM     93  C   UNL A   1      46.017  27.983  34.146  1.00  0.00     0.012 A 
ATOM     94  C   UNL A   1      44.564  26.184  34.908  1.00  0.00     0.148 A 
ATOM     95  C   UNL A   1      47.028  27.535  34.993  1.00  0.00     0.002 A 
ATOM     96  C   UNL A   1      45.565  25.760  35.771  1.00  0.00     0.091 A 
ATOM     97  F   UNL A   1      43.381  25.556  34.826  1.00  0.00    -0.205 F 
ATOM     98  C   UNL A   1      46.799  26.431  35.813  1.00  0.00     0.022 A 
BRANCH  96  99
ATOM     99  S   UNL A   1      45.339  24.391  36.913  1.00  0.00     0.127 S 
ATOM    100  O   UNL A   1      46.649  24.323  37.558  1.00  0.00    -0.237 OA
ATOM    101  O   UNL A   1      44.260  24.879  37.772  1.00  0.00    -0.237 OA
ATOM    102  O   UNL A   1      44.987  23.239  36.095  1.00  0.00    -0.744 OA
ENDBRANCH  96  99
ENDBRANCH  69  92
ENDBRANCH  43  44
ENDBRANCH  35  38
ENDBRANCH  33  34
ENDBRANCH   1  33
TORSDOF 17
ENDMDL
