MODEL 1
REMARK VINA RESULT:     -13.2      0.000      0.000
REMARK SMILES O=C(Cc1ccccc1C(=O)NCCCCNC(=O)c1ccc(-c2c3nc(c(-c4cccc(S(=O)(=O)[O-])c4F)c4ccc([nH]4)c(-c4cccc(S(=O)(=O)[O-])c4F)c4nc(c(-c5cccc(S(=O)(=O)[O-])c5F)c5ccc2[nH]5)C=C4)C=C3)cc1)Nc1cccc(OC[C@@H]2CCCO2)c1
REMARK SMILES IDX 13 1 12 2 10 3 11 4 9 6 4 7 5 8 6 9 8 10 7 11 3 12 2 13 1 14
REMARK SMILES IDX 83 15 84 17 85 18 96 19 86 20 88 21 87 22 89 23 90 24 91 25
REMARK SMILES IDX 92 26 95 27 93 28 94 29 14 30 15 31 16 32 17 33 18 34 19 36
REMARK SMILES IDX 20 37 21 38 82 39 22 40 81 41 23 42 24 43 25 44 75 45 26 46
REMARK SMILES IDX 80 47 74 48 76 49 27 50 79 51 73 52 72 53 28 55 60 56 40 57
REMARK SMILES IDX 59 58 41 59 44 60 58 61 77 62 42 63 43 64 57 66 78 67 45 68
REMARK SMILES IDX 29 69 30 70 38 71 31 72 33 73 39 74 32 75 34 76 35 77 36 78
REMARK SMILES IDX 37 79 61 80 62 81 70 82 63 83 65 84 71 85 64 86 66 87 67 88
REMARK SMILES IDX 68 89 69 90 46 91 47 92 55 93 48 94 50 95 56 96 49 97 51 98
REMARK SMILES IDX 52 99 53 100 54 101
REMARK H PARENT 12 5 83 16 17 35 76 54 44 65
REMARK Flexibility Score: inf
ROOT
ATOM      1  C   UNL A   1      33.277  28.912  23.210  1.00  0.00     0.116 C 
ENDROOT
BRANCH   1   2
ATOM      2  N   UNL A   1      32.499  27.917  22.497  1.00  0.00    -0.352 N 
ATOM      3  C   UNL A   1      31.189  27.673  22.192  1.00  0.00     0.251 C 
ATOM      4  O   UNL A   1      31.026  26.664  21.490  1.00  0.00    -0.269 OA
ATOM      5  H   UNL A   1      33.081  27.215  22.127  1.00  0.00     0.163 HD
BRANCH   3   6
ATOM      6  C   UNL A   1      29.942  28.449  22.551  1.00  0.00     0.043 A 
ATOM      7  C   UNL A   1      28.748  28.023  23.186  1.00  0.00    -0.026 A 
ATOM      8  C   UNL A   1      27.622  28.882  23.171  1.00  0.00     0.005 A 
ATOM      9  C   UNL A   1      27.660  30.142  22.580  1.00  0.00     0.000 A 
ATOM     10  C   UNL A   1      29.947  29.748  21.982  1.00  0.00     0.014 A 
ATOM     11  C   UNL A   1      28.830  30.584  21.995  1.00  0.00     0.001 A 
BRANCH   7  12
ATOM     12  C   UNL A   1      28.636  26.697  23.875  1.00  0.00     0.136 C 
BRANCH  12  13
ATOM     13  C   UNL A   1      29.840  26.053  24.516  1.00  0.00     0.228 C 
ATOM     14  O   UNL A   1      30.447  26.619  25.425  1.00  0.00    -0.274 OA
ATOM     15  N   UNL A   1      30.141  24.779  24.047  1.00  0.00    -0.326 N 
ATOM     16  H   UNL A   1      29.784  24.494  23.175  1.00  0.00     0.169 HD
BRANCH  15  17
ATOM     17  C   UNL A   1      30.941  23.885  24.782  1.00  0.00     0.044 A 
ATOM     18  C   UNL A   1      30.912  23.893  26.172  1.00  0.00     0.026 A 
ATOM     19  C   UNL A   1      31.776  22.989  24.109  1.00  0.00     0.072 A 
ATOM     20  C   UNL A   1      31.635  22.926  26.874  1.00  0.00     0.006 A 
ATOM     21  C   UNL A   1      32.521  22.038  24.798  1.00  0.00     0.121 A 
ATOM     22  C   UNL A   1      32.422  21.992  26.188  1.00  0.00     0.046 A 
BRANCH  21  23
ATOM     23  O   UNL A   1      33.318  21.090  24.210  1.00  0.00    -0.491 OA
BRANCH  23  24
ATOM     24  C   UNL A   1      32.675  19.863  23.814  1.00  0.00     0.261 C 
BRANCH  24  25
ATOM     25  C   UNL A   1      33.305  18.622  24.466  1.00  0.00     0.156 C 
ATOM     26  C   UNL A   1      33.477  17.426  23.547  1.00  0.00     0.038 C 
ATOM     27  O   UNL A   1      32.462  18.153  25.546  1.00  0.00    -0.375 OA
ATOM     28  C   UNL A   1      33.559  16.302  24.553  1.00  0.00     0.031 C 
ATOM     29  C   UNL A   1      32.527  16.720  25.579  1.00  0.00     0.161 C 
ENDBRANCH  24  25
ENDBRANCH  23  24
ENDBRANCH  21  23
ENDBRANCH  15  17
ENDBRANCH  12  13
ENDBRANCH   7  12
ENDBRANCH   3   6
ENDBRANCH   1   2
BRANCH   1  30
ATOM     30  C   UNL A   1      33.005  28.837  24.720  1.00  0.00     0.023 C 
BRANCH  30  31
ATOM     31  C   UNL A   1      31.970  29.823  25.251  1.00  0.00     0.023 C 
BRANCH  31  32
ATOM     32  C   UNL A   1      32.159  30.212  26.710  1.00  0.00     0.116 C 
BRANCH  32  33
ATOM     33  N   UNL A   1      32.134  31.651  26.950  1.00  0.00    -0.352 N 
ATOM     34  C   UNL A   1      33.153  32.441  27.436  1.00  0.00     0.251 C 
ATOM     35  H   UNL A   1      31.291  32.113  26.739  1.00  0.00     0.163 HD
ATOM     36  O   UNL A   1      32.991  33.643  27.624  1.00  0.00    -0.269 OA
BRANCH  34  37
ATOM     37  C   UNL A   1      34.431  31.798  27.807  1.00  0.00     0.039 A 
ATOM     38  C   UNL A   1      35.551  32.608  28.008  1.00  0.00     0.014 A 
ATOM     39  C   UNL A   1      34.485  30.428  28.074  1.00  0.00     0.014 A 
ATOM     40  C   UNL A   1      36.699  32.061  28.582  1.00  0.00     0.010 A 
ATOM     41  C   UNL A   1      35.603  29.903  28.713  1.00  0.00     0.010 A 
ATOM     42  C   UNL A   1      36.712  30.718  28.991  1.00  0.00    -0.014 A 
BRANCH  42  43
ATOM     43  C   UNL A   1      37.849  30.155  29.762  1.00  0.00     0.031 A 
ATOM     44  C   UNL A   1      38.112  30.617  31.166  1.00  0.00     0.074 A 
ATOM     45  C   UNL A   1      38.711  29.317  29.152  1.00  0.00     0.049 A 
ATOM     46  N   UNL A   1      39.104  30.310  31.961  1.00  0.00    -0.248 NA
ATOM     47  C   UNL A   1      37.154  31.575  31.742  1.00  0.00     0.031 C 
ATOM     48  C   UNL A   1      38.616  28.867  27.761  1.00  0.00     0.029 A 
ATOM     49  N   UNL A   1      39.859  28.721  29.612  1.00  0.00    -0.354 N 
ATOM     50  C   UNL A   1      38.913  31.063  33.112  1.00  0.00     0.074 A 
ATOM     51  C   UNL A   1      37.725  31.865  32.903  1.00  0.00     0.031 C 
ATOM     52  C   UNL A   1      39.657  28.067  27.482  1.00  0.00     0.029 A 
ATOM     53  C   UNL A   1      40.509  27.966  28.664  1.00  0.00     0.049 A 
ATOM     54  H   UNL A   1      40.186  28.823  30.535  1.00  0.00     0.167 HD
ATOM     55  C   UNL A   1      39.638  31.062  34.254  1.00  0.00     0.034 A 
ATOM     56  C   UNL A   1      41.664  27.275  28.734  1.00  0.00     0.034 A 
ATOM     57  C   UNL A   1      40.778  30.220  34.484  1.00  0.00     0.049 A 
ATOM     58  C   UNL A   1      42.421  27.250  30.034  1.00  0.00     0.074 A 
ATOM     59  C   UNL A   1      41.511  30.061  35.646  1.00  0.00     0.029 A 
ATOM     60  N   UNL A   1      41.355  29.394  33.531  1.00  0.00    -0.354 N 
ATOM     61  N   UNL A   1      42.124  27.829  31.171  1.00  0.00    -0.248 NA
ATOM     62  C   UNL A   1      43.656  26.453  30.070  1.00  0.00     0.031 C 
ATOM     63  C   UNL A   1      42.537  29.143  35.394  1.00  0.00     0.029 A 
ATOM     64  C   UNL A   1      42.440  28.729  34.076  1.00  0.00     0.049 A 
ATOM     65  H   UNL A   1      41.039  29.295  32.604  1.00  0.00     0.167 HD
ATOM     66  C   UNL A   1      43.120  27.449  32.064  1.00  0.00     0.074 A 
ATOM     67  C   UNL A   1      44.014  26.567  31.342  1.00  0.00     0.031 C 
ATOM     68  C   UNL A   1      43.291  27.814  33.359  1.00  0.00     0.034 A 
BRANCH  55  69
ATOM     69  C   UNL A   1      39.169  31.950  35.375  1.00  0.00     0.023 A 
ATOM     70  C   UNL A   1      38.214  31.457  36.288  1.00  0.00     0.012 A 
ATOM     71  C   UNL A   1      39.698  33.242  35.556  1.00  0.00     0.148 A 
ATOM     72  C   UNL A   1      37.771  32.246  37.348  1.00  0.00     0.002 A 
ATOM     73  C   UNL A   1      39.277  34.010  36.637  1.00  0.00     0.091 A 
ATOM     74  F   UNL A   1      40.583  33.703  34.661  1.00  0.00    -0.205 F 
ATOM     75  C   UNL A   1      38.309  33.518  37.527  1.00  0.00     0.022 A 
BRANCH  73  76
ATOM     76  S   UNL A   1      39.961  35.633  36.988  1.00  0.00     0.127 S 
ATOM     77  O   UNL A   1      39.259  35.988  38.221  1.00  0.00    -0.237 OA
ATOM     78  O   UNL A   1      41.385  35.340  37.162  1.00  0.00    -0.237 OA
ATOM     79  O   UNL A   1      39.652  36.455  35.827  1.00  0.00    -0.744 OA
ENDBRANCH  73  76
ENDBRANCH  55  69
BRANCH  56  80
ATOM     80  C   UNL A   1      42.133  26.489  27.559  1.00  0.00     0.023 A 
ATOM     81  C   UNL A   1      42.901  27.130  26.567  1.00  0.00     0.012 A 
ATOM     82  C   UNL A   1      41.863  25.112  27.434  1.00  0.00     0.148 A 
ATOM     83  C   UNL A   1      43.369  26.423  25.460  1.00  0.00     0.002 A 
ATOM     84  C   UNL A   1      42.375  24.402  26.353  1.00  0.00     0.091 A 
ATOM     85  F   UNL A   1      41.115  24.523  28.377  1.00  0.00    -0.205 F 
ATOM     86  C   UNL A   1      43.116  25.058  25.358  1.00  0.00     0.022 A 
BRANCH  84  87
ATOM     87  S   UNL A   1      42.207  22.618  26.220  1.00  0.00     0.127 S 
ATOM     88  O   UNL A   1      42.816  22.166  27.467  1.00  0.00    -0.237 OA
ATOM     89  O   UNL A   1      40.754  22.451  26.146  1.00  0.00    -0.237 OA
ATOM     90  O   UNL A   1      42.909  22.257  24.996  1.00  0.00    -0.744 OA
ENDBRANCH  84  87
ENDBRANCH  56  80
BRANCH  68  91
ATOM     91  C   UNL A   1      44.487  27.262  34.085  1.00  0.00     0.023 A 
ATOM     92  C   UNL A   1      45.709  27.961  34.036  1.00  0.00     0.012 A 
ATOM     93  C   UNL A   1      44.383  26.101  34.877  1.00  0.00     0.148 A 
ATOM     94  C   UNL A   1      46.816  27.503  34.747  1.00  0.00     0.002 A 
ATOM     95  C   UNL A   1      45.480  25.673  35.616  1.00  0.00     0.091 A 
ATOM     96  F   UNL A   1      43.218  25.438  34.893  1.00  0.00    -0.205 F 
ATOM     97  C   UNL A   1      46.699  26.368  35.545  1.00  0.00     0.022 A 
BRANCH  95  98
ATOM     98  S   UNL A   1      45.391  24.273  36.738  1.00  0.00     0.127 S 
ATOM     99  O   UNL A   1      45.117  23.171  35.818  1.00  0.00    -0.237 OA
ATOM    100  O   UNL A   1      46.730  24.257  37.329  1.00  0.00    -0.237 OA
ATOM    101  O   UNL A   1      44.323  24.587  37.679  1.00  0.00    -0.744 OA
ENDBRANCH  95  98
ENDBRANCH  68  91
ENDBRANCH  42  43
ENDBRANCH  34  37
ENDBRANCH  32  33
ENDBRANCH  31  32
ENDBRANCH  30  31
ENDBRANCH   1  30
TORSDOF 20
ENDMDL
MODEL 2
REMARK VINA RESULT:     -12.7      2.619      8.160
REMARK SMILES O=C(Cc1ccccc1C(=O)NCCCCNC(=O)c1ccc(-c2c3nc(c(-c4cccc(S(=O)(=O)[O-])c4F)c4ccc([nH]4)c(-c4cccc(S(=O)(=O)[O-])c4F)c4nc(c(-c5cccc(S(=O)(=O)[O-])c5F)c5ccc2[nH]5)C=C4)C=C3)cc1)Nc1cccc(OC[C@@H]2CCCO2)c1
REMARK SMILES IDX 13 1 12 2 10 3 11 4 9 6 4 7 5 8 6 9 8 10 7 11 3 12 2 13 1 14
REMARK SMILES IDX 83 15 84 17 85 18 96 19 86 20 88 21 87 22 89 23 90 24 91 25
REMARK SMILES IDX 92 26 95 27 93 28 94 29 14 30 15 31 16 32 17 33 18 34 19 36
REMARK SMILES IDX 20 37 21 38 82 39 22 40 81 41 23 42 24 43 25 44 75 45 26 46
REMARK SMILES IDX 80 47 74 48 76 49 27 50 79 51 73 52 72 53 28 55 60 56 40 57
REMARK SMILES IDX 59 58 41 59 44 60 58 61 77 62 42 63 43 64 57 66 78 67 45 68
REMARK SMILES IDX 29 69 30 70 38 71 31 72 33 73 39 74 32 75 34 76 35 77 36 78
REMARK SMILES IDX 37 79 61 80 62 81 70 82 63 83 65 84 71 85 64 86 66 87 67 88
REMARK SMILES IDX 68 89 69 90 46 91 47 92 55 93 48 94 50 95 56 96 49 97 51 98
REMARK SMILES IDX 52 99 53 100 54 101
REMARK H PARENT 12 5 83 16 17 35 76 54 44 65
REMARK Flexibility Score: inf
ROOT
ATOM      1  C   UNL A   1      31.437  28.549  27.631  1.00  0.00     0.116 C 
ENDROOT
BRANCH   1   2
ATOM      2  N   UNL A   1      31.426  27.129  27.335  1.00  0.00    -0.352 N 
ATOM      3  C   UNL A   1      31.420  26.316  26.237  1.00  0.00     0.251 C 
ATOM      4  O   UNL A   1      31.455  25.109  26.518  1.00  0.00    -0.269 OA
ATOM      5  H   UNL A   1      31.422  26.599  28.164  1.00  0.00     0.163 HD
BRANCH   3   6
ATOM      6  C   UNL A   1      31.405  26.662  24.765  1.00  0.00     0.043 A 
ATOM      7  C   UNL A   1      32.473  26.764  23.837  1.00  0.00    -0.026 A 
ATOM      8  C   UNL A   1      32.227  27.362  22.576  1.00  0.00     0.005 A 
ATOM      9  C   UNL A   1      30.966  27.824  22.209  1.00  0.00     0.000 A 
ATOM     10  C   UNL A   1      30.132  27.123  24.344  1.00  0.00     0.014 A 
ATOM     11  C   UNL A   1      29.910  27.692  23.090  1.00  0.00     0.001 A 
BRANCH   7  12
ATOM     12  C   UNL A   1      33.850  26.259  24.141  1.00  0.00     0.136 C 
BRANCH  12  13
ATOM     13  C   UNL A   1      34.202  24.805  23.948  1.00  0.00     0.228 C 
ATOM     14  O   UNL A   1      34.395  24.348  22.822  1.00  0.00    -0.274 OA
ATOM     15  N   UNL A   1      34.351  24.079  25.125  1.00  0.00    -0.326 N 
ATOM     16  H   UNL A   1      33.951  24.426  25.954  1.00  0.00     0.169 HD
BRANCH  15  17
ATOM     17  C   UNL A   1      35.056  22.862  25.163  1.00  0.00     0.044 A 
ATOM     18  C   UNL A   1      34.402  21.660  24.913  1.00  0.00     0.026 A 
ATOM     19  C   UNL A   1      36.421  22.861  25.463  1.00  0.00     0.072 A 
ATOM     20  C   UNL A   1      35.146  20.480  24.852  1.00  0.00     0.006 A 
ATOM     21  C   UNL A   1      37.168  21.689  25.433  1.00  0.00     0.121 A 
ATOM     22  C   UNL A   1      36.526  20.498  25.094  1.00  0.00     0.046 A 
BRANCH  21  23
ATOM     23  O   UNL A   1      38.518  21.612  25.658  1.00  0.00    -0.491 OA
BRANCH  23  24
ATOM     24  C   UNL A   1      39.085  22.615  26.523  1.00  0.00     0.261 C 
BRANCH  24  25
ATOM     25  C   UNL A   1      40.499  22.255  27.005  1.00  0.00     0.156 C 
ATOM     26  C   UNL A   1      41.542  22.127  25.910  1.00  0.00     0.038 C 
ATOM     27  O   UNL A   1      40.480  20.964  27.662  1.00  0.00    -0.375 OA
ATOM     28  C   UNL A   1      42.575  21.265  26.597  1.00  0.00     0.031 C 
ATOM     29  C   UNL A   1      41.710  20.288  27.365  1.00  0.00     0.161 C 
ENDBRANCH  24  25
ENDBRANCH  23  24
ENDBRANCH  21  23
ENDBRANCH  15  17
ENDBRANCH  12  13
ENDBRANCH   7  12
ENDBRANCH   3   6
ENDBRANCH   1   2
BRANCH   1  30
ATOM     30  C   UNL A   1      32.744  29.196  27.147  1.00  0.00     0.023 C 
BRANCH  30  31
ATOM     31  C   UNL A   1      32.625  30.639  26.666  1.00  0.00     0.023 C 
BRANCH  31  32
ATOM     32  C   UNL A   1      33.465  31.636  27.449  1.00  0.00     0.116 C 
BRANCH  32  33
ATOM     33  N   UNL A   1      32.858  32.957  27.575  1.00  0.00    -0.352 N 
ATOM     34  C   UNL A   1      33.243  33.985  28.409  1.00  0.00     0.251 C 
ATOM     35  H   UNL A   1      32.081  33.136  26.997  1.00  0.00     0.163 HD
ATOM     36  O   UNL A   1      32.622  35.042  28.443  1.00  0.00    -0.269 OA
BRANCH  34  37
ATOM     37  C   UNL A   1      34.378  33.761  29.328  1.00  0.00     0.039 A 
ATOM     38  C   UNL A   1      34.173  32.967  30.459  1.00  0.00     0.014 A 
ATOM     39  C   UNL A   1      35.655  34.226  29.006  1.00  0.00     0.014 A 
ATOM     40  C   UNL A   1      35.270  32.548  31.212  1.00  0.00     0.010 A 
ATOM     41  C   UNL A   1      36.752  33.747  29.715  1.00  0.00     0.010 A 
ATOM     42  C   UNL A   1      36.572  32.889  30.811  1.00  0.00    -0.014 A 
BRANCH  42  43
ATOM     43  C   UNL A   1      37.764  32.315  31.484  1.00  0.00     0.031 A 
ATOM     44  C   UNL A   1      38.529  31.194  30.841  1.00  0.00     0.074 A 
ATOM     45  C   UNL A   1      38.083  32.726  32.728  1.00  0.00     0.049 A 
ATOM     46  N   UNL A   1      39.535  30.507  31.314  1.00  0.00    -0.248 NA
ATOM     47  C   UNL A   1      38.084  30.766  29.504  1.00  0.00     0.031 C 
ATOM     48  C   UNL A   1      37.360  33.743  33.496  1.00  0.00     0.029 A 
ATOM     49  N   UNL A   1      39.078  32.315  33.580  1.00  0.00    -0.354 N 
ATOM     50  C   UNL A   1      39.819  29.543  30.356  1.00  0.00     0.074 A 
ATOM     51  C   UNL A   1      38.860  29.714  29.285  1.00  0.00     0.031 C 
ATOM     52  C   UNL A   1      37.934  33.876  34.702  1.00  0.00     0.029 A 
ATOM     53  C   UNL A   1      39.049  32.940  34.806  1.00  0.00     0.049 A 
ATOM     54  H   UNL A   1      39.749  31.637  33.337  1.00  0.00     0.167 HD
ATOM     55  C   UNL A   1      40.810  28.622  30.349  1.00  0.00     0.034 A 
ATOM     56  C   UNL A   1      39.828  32.773  35.893  1.00  0.00     0.034 A 
ATOM     57  C   UNL A   1      41.799  28.495  31.384  1.00  0.00     0.049 A 
ATOM     58  C   UNL A   1      40.955  31.777  35.837  1.00  0.00     0.074 A 
ATOM     59  C   UNL A   1      42.910  27.672  31.415  1.00  0.00     0.029 A 
ATOM     60  N   UNL A   1      41.797  29.211  32.571  1.00  0.00    -0.354 N 
ATOM     61  N   UNL A   1      41.318  31.000  34.847  1.00  0.00    -0.248 NA
ATOM     62  C   UNL A   1      41.798  31.659  37.036  1.00  0.00     0.031 C 
ATOM     63  C   UNL A   1      43.577  27.884  32.628  1.00  0.00     0.029 A 
ATOM     64  C   UNL A   1      42.882  28.842  33.348  1.00  0.00     0.049 A 
ATOM     65  H   UNL A   1      41.123  29.883  32.824  1.00  0.00     0.167 HD
ATOM     66  C   UNL A   1      42.444  30.316  35.293  1.00  0.00     0.074 A 
ATOM     67  C   UNL A   1      42.719  30.793  36.632  1.00  0.00     0.031 C 
ATOM     68  C   UNL A   1      43.172  29.364  34.659  1.00  0.00     0.034 A 
BRANCH  55  69
ATOM     69  C   UNL A   1      40.918  27.727  29.145  1.00  0.00     0.023 A 
ATOM     70  C   UNL A   1      40.120  26.566  29.078  1.00  0.00     0.012 A 
ATOM     71  C   UNL A   1      41.764  28.049  28.067  1.00  0.00     0.148 A 
ATOM     72  C   UNL A   1      40.183  25.724  27.970  1.00  0.00     0.002 A 
ATOM     73  C   UNL A   1      41.795  27.223  26.949  1.00  0.00     0.091 A 
ATOM     74  F   UNL A   1      42.536  29.141  28.162  1.00  0.00    -0.205 F 
ATOM     75  C   UNL A   1      41.013  26.057  26.902  1.00  0.00     0.022 A 
BRANCH  73  76
ATOM     76  S   UNL A   1      42.781  27.604  25.496  1.00  0.00     0.127 S 
ATOM     77  O   UNL A   1      42.096  28.787  24.977  1.00  0.00    -0.237 OA
ATOM     78  O   UNL A   1      44.099  27.869  26.076  1.00  0.00    -0.237 OA
ATOM     79  O   UNL A   1      42.721  26.419  24.652  1.00  0.00    -0.744 OA
ENDBRANCH  73  76
ENDBRANCH  55  69
BRANCH  56  80
ATOM     80  C   UNL A   1      39.615  33.622  37.098  1.00  0.00     0.023 A 
ATOM     81  C   UNL A   1      40.105  34.942  37.102  1.00  0.00     0.012 A 
ATOM     82  C   UNL A   1      38.903  33.151  38.218  1.00  0.00     0.148 A 
ATOM     83  C   UNL A   1      39.912  35.770  38.207  1.00  0.00     0.002 A 
ATOM     84  C   UNL A   1      38.671  33.998  39.296  1.00  0.00     0.091 A 
ATOM     85  F   UNL A   1      38.461  31.886  38.205  1.00  0.00    -0.205 F 
ATOM     86  C   UNL A   1      39.187  35.303  39.299  1.00  0.00     0.022 A 
BRANCH  84  87
ATOM     87  S   UNL A   1      37.633  33.516  40.681  1.00  0.00     0.127 S 
ATOM     88  O   UNL A   1      38.455  32.499  41.332  1.00  0.00    -0.237 OA
ATOM     89  O   UNL A   1      37.504  34.772  41.421  1.00  0.00    -0.237 OA
ATOM     90  O   UNL A   1      36.389  33.048  40.084  1.00  0.00    -0.744 OA
ENDBRANCH  84  87
ENDBRANCH  56  80
BRANCH  68  91
ATOM     91  C   UNL A   1      44.339  28.772  35.400  1.00  0.00     0.023 A 
ATOM     92  C   UNL A   1      45.632  29.282  35.172  1.00  0.00     0.012 A 
ATOM     93  C   UNL A   1      44.150  27.772  36.375  1.00  0.00     0.148 A 
ATOM     94  C   UNL A   1      46.724  28.792  35.887  1.00  0.00     0.002 A 
ATOM     95  C   UNL A   1      45.237  27.317  37.113  1.00  0.00     0.091 A 
ATOM     96  F   UNL A   1      42.915  27.284  36.561  1.00  0.00    -0.205 F 
ATOM     97  C   UNL A   1      46.524  27.820  36.864  1.00  0.00     0.022 A 
BRANCH  95  98
ATOM     98  S   UNL A   1      45.056  26.132  38.451  1.00  0.00     0.127 S 
ATOM     99  O   UNL A   1      44.046  26.778  39.287  1.00  0.00    -0.237 OA
ATOM    100  O   UNL A   1      44.593  24.934  37.750  1.00  0.00    -0.237 OA
ATOM    101  O   UNL A   1      46.379  26.004  39.048  1.00  0.00    -0.744 OA
ENDBRANCH  95  98
ENDBRANCH  68  91
ENDBRANCH  42  43
ENDBRANCH  34  37
ENDBRANCH  32  33
ENDBRANCH  31  32
ENDBRANCH  30  31
ENDBRANCH   1  30
TORSDOF 20
ENDMDL
MODEL 3
REMARK VINA RESULT:     -12.6      2.251      7.638
REMARK SMILES O=C(Cc1ccccc1C(=O)NCCCCNC(=O)c1ccc(-c2c3nc(c(-c4cccc(S(=O)(=O)[O-])c4F)c4ccc([nH]4)c(-c4cccc(S(=O)(=O)[O-])c4F)c4nc(c(-c5cccc(S(=O)(=O)[O-])c5F)c5ccc2[nH]5)C=C4)C=C3)cc1)Nc1cccc(OC[C@@H]2CCCO2)c1
REMARK SMILES IDX 13 1 12 2 10 3 11 4 9 6 4 7 5 8 6 9 8 10 7 11 3 12 2 13 1 14
REMARK SMILES IDX 83 15 84 17 85 18 96 19 86 20 88 21 87 22 89 23 90 24 91 25
REMARK SMILES IDX 92 26 95 27 93 28 94 29 14 30 15 31 16 32 17 33 18 34 19 36
REMARK SMILES IDX 20 37 21 38 82 39 22 40 81 41 23 42 24 43 25 44 75 45 26 46
REMARK SMILES IDX 80 47 74 48 76 49 27 50 79 51 73 52 72 53 28 55 60 56 40 57
REMARK SMILES IDX 59 58 41 59 44 60 58 61 77 62 42 63 43 64 57 66 78 67 45 68
REMARK SMILES IDX 29 69 30 70 38 71 31 72 33 73 39 74 32 75 34 76 35 77 36 78
REMARK SMILES IDX 37 79 61 80 62 81 70 82 63 83 65 84 71 85 64 86 66 87 67 88
REMARK SMILES IDX 68 89 69 90 46 91 47 92 55 93 48 94 50 95 56 96 49 97 51 98
REMARK SMILES IDX 52 99 53 100 54 101
REMARK H PARENT 12 5 83 16 17 35 76 54 44 65
REMARK Flexibility Score: inf
ROOT
ATOM      1  C   UNL A   1      33.658  28.997  25.743  1.00  0.00     0.116 C 
ENDROOT
BRANCH   1   2
ATOM      2  N   UNL A   1      33.662  28.358  24.440  1.00  0.00    -0.352 N 
ATOM      3  C   UNL A   1      32.772  28.061  23.447  1.00  0.00     0.251 C 
ATOM      4  O   UNL A   1      33.295  27.518  22.463  1.00  0.00    -0.269 OA
ATOM      5  H   UNL A   1      34.567  28.050  24.204  1.00  0.00     0.163 HD
BRANCH   3   6
ATOM      6  C   UNL A   1      31.284  28.315  23.361  1.00  0.00     0.043 A 
ATOM      7  C   UNL A   1      30.193  27.544  23.838  1.00  0.00    -0.026 A 
ATOM      8  C   UNL A   1      28.885  27.867  23.400  1.00  0.00     0.005 A 
ATOM      9  C   UNL A   1      28.634  28.934  22.542  1.00  0.00     0.000 A 
ATOM     10  C   UNL A   1      30.983  29.407  22.507  1.00  0.00     0.014 A 
ATOM     11  C   UNL A   1      29.684  29.716  22.104  1.00  0.00     0.001 A 
BRANCH   7  12
ATOM     12  C   UNL A   1      30.375  26.403  24.792  1.00  0.00     0.136 C 
BRANCH  12  13
ATOM     13  C   UNL A   1      31.113  25.155  24.376  1.00  0.00     0.228 C 
ATOM     14  O   UNL A   1      30.839  24.585  23.320  1.00  0.00    -0.274 OA
ATOM     15  N   UNL A   1      32.138  24.769  25.233  1.00  0.00    -0.326 N 
ATOM     16  H   UNL A   1      32.143  25.109  26.156  1.00  0.00     0.169 HD
BRANCH  15  17
ATOM     17  C   UNL A   1      33.169  23.906  24.817  1.00  0.00     0.044 A 
ATOM     18  C   UNL A   1      34.336  24.418  24.263  1.00  0.00     0.026 A 
ATOM     19  C   UNL A   1      33.013  22.524  24.957  1.00  0.00     0.072 A 
ATOM     20  C   UNL A   1      35.385  23.547  23.958  1.00  0.00     0.006 A 
ATOM     21  C   UNL A   1      34.040  21.644  24.632  1.00  0.00     0.121 A 
ATOM     22  C   UNL A   1      35.242  22.168  24.158  1.00  0.00     0.046 A 
BRANCH  21  23
ATOM     23  O   UNL A   1      33.987  20.284  24.793  1.00  0.00    -0.491 OA
BRANCH  23  24
ATOM     24  C   UNL A   1      32.702  19.722  25.122  1.00  0.00     0.261 C 
BRANCH  24  25
ATOM     25  C   UNL A   1      32.537  18.279  24.620  1.00  0.00     0.156 C 
ATOM     26  C   UNL A   1      32.996  17.203  25.586  1.00  0.00     0.038 C 
ATOM     27  O   UNL A   1      33.331  18.081  23.426  1.00  0.00    -0.375 OA
ATOM     28  C   UNL A   1      33.228  16.049  24.640  1.00  0.00     0.031 C 
ATOM     29  C   UNL A   1      33.845  16.740  23.443  1.00  0.00     0.161 C 
ENDBRANCH  24  25
ENDBRANCH  23  24
ENDBRANCH  21  23
ENDBRANCH  15  17
ENDBRANCH  12  13
ENDBRANCH   7  12
ENDBRANCH   3   6
ENDBRANCH   1   2
BRANCH   1  30
ATOM     30  C   UNL A   1      32.481  29.977  25.864  1.00  0.00     0.023 C 
BRANCH  30  31
ATOM     31  C   UNL A   1      32.384  30.727  27.189  1.00  0.00     0.023 C 
BRANCH  31  32
ATOM     32  C   UNL A   1      33.408  31.838  27.363  1.00  0.00     0.116 C 
BRANCH  32  33
ATOM     33  N   UNL A   1      32.825  33.170  27.489  1.00  0.00    -0.352 N 
ATOM     34  C   UNL A   1      33.222  34.186  28.331  1.00  0.00     0.251 C 
ATOM     35  H   UNL A   1      32.058  33.366  26.904  1.00  0.00     0.163 HD
ATOM     36  O   UNL A   1      32.621  35.255  28.364  1.00  0.00    -0.269 OA
BRANCH  34  37
ATOM     37  C   UNL A   1      34.342  33.936  29.261  1.00  0.00     0.039 A 
ATOM     38  C   UNL A   1      34.119  33.112  30.367  1.00  0.00     0.014 A 
ATOM     39  C   UNL A   1      35.625  34.407  28.972  1.00  0.00     0.014 A 
ATOM     40  C   UNL A   1      35.204  32.672  31.126  1.00  0.00     0.010 A 
ATOM     41  C   UNL A   1      36.711  33.907  29.684  1.00  0.00     0.010 A 
ATOM     42  C   UNL A   1      36.512  33.020  30.754  1.00  0.00    -0.014 A 
BRANCH  42  43
ATOM     43  C   UNL A   1      37.693  32.427  31.430  1.00  0.00     0.031 A 
ATOM     44  C   UNL A   1      38.431  31.282  30.795  1.00  0.00     0.074 A 
ATOM     45  C   UNL A   1      38.024  32.842  32.669  1.00  0.00     0.049 A 
ATOM     46  N   UNL A   1      39.423  30.578  31.273  1.00  0.00    -0.248 NA
ATOM     47  C   UNL A   1      37.974  30.852  29.464  1.00  0.00     0.031 C 
ATOM     48  C   UNL A   1      37.326  33.881  33.429  1.00  0.00     0.029 A 
ATOM     49  N   UNL A   1      39.012  32.417  33.522  1.00  0.00    -0.354 N 
ATOM     50  C   UNL A   1      39.683  29.599  30.323  1.00  0.00     0.074 A 
ATOM     51  C   UNL A   1      38.726  29.781  29.252  1.00  0.00     0.031 C 
ATOM     52  C   UNL A   1      37.906  34.013  34.633  1.00  0.00     0.029 A 
ATOM     53  C   UNL A   1      39.000  33.053  34.742  1.00  0.00     0.049 A 
ATOM     54  H   UNL A   1      39.667  31.722  33.285  1.00  0.00     0.167 HD
ATOM     55  C   UNL A   1      40.654  28.656  30.322  1.00  0.00     0.034 A 
ATOM     56  C   UNL A   1      39.778  32.880  35.829  1.00  0.00     0.034 A 
ATOM     57  C   UNL A   1      41.642  28.517  31.356  1.00  0.00     0.049 A 
ATOM     58  C   UNL A   1      40.883  31.859  35.780  1.00  0.00     0.074 A 
ATOM     59  C   UNL A   1      42.735  27.670  31.393  1.00  0.00     0.029 A 
ATOM     60  N   UNL A   1      41.659  29.244  32.536  1.00  0.00    -0.354 N 
ATOM     61  N   UNL A   1      41.226  31.064  34.797  1.00  0.00    -0.248 NA
ATOM     62  C   UNL A   1      41.726  31.733  36.977  1.00  0.00     0.031 C 
ATOM     63  C   UNL A   1      43.409  27.878  32.602  1.00  0.00     0.029 A 
ATOM     64  C   UNL A   1      42.737  28.859  33.314  1.00  0.00     0.049 A 
ATOM     65  H   UNL A   1      41.001  29.933  32.784  1.00  0.00     0.167 HD
ATOM     66  C   UNL A   1      42.337  30.360  35.246  1.00  0.00     0.074 A 
ATOM     67  C   UNL A   1      42.626  30.843  36.580  1.00  0.00     0.031 C 
ATOM     68  C   UNL A   1      43.042  29.386  34.620  1.00  0.00     0.034 A 
BRANCH  55  69
ATOM     69  C   UNL A   1      40.739  27.748  29.127  1.00  0.00     0.023 A 
ATOM     70  C   UNL A   1      39.891  26.622  29.057  1.00  0.00     0.012 A 
ATOM     71  C   UNL A   1      41.613  28.024  28.058  1.00  0.00     0.148 A 
ATOM     72  C   UNL A   1      39.933  25.769  27.955  1.00  0.00     0.002 A 
ATOM     73  C   UNL A   1      41.622  27.188  26.946  1.00  0.00     0.091 A 
ATOM     74  F   UNL A   1      42.430  29.082  28.156  1.00  0.00    -0.205 F 
ATOM     75  C   UNL A   1      40.790  26.058  26.897  1.00  0.00     0.022 A 
BRANCH  73  76
ATOM     76  S   UNL A   1      42.644  27.514  25.505  1.00  0.00     0.127 S 
ATOM     77  O   UNL A   1      43.981  27.556  26.096  1.00  0.00    -0.237 OA
ATOM     78  O   UNL A   1      42.384  26.341  24.668  1.00  0.00    -0.237 OA
ATOM     79  O   UNL A   1      42.161  28.771  24.950  1.00  0.00    -0.744 OA
ENDBRANCH  73  76
ENDBRANCH  55  69
BRANCH  56  80
ATOM     80  C   UNL A   1      39.587  33.744  37.026  1.00  0.00     0.023 A 
ATOM     81  C   UNL A   1      40.017  35.085  36.980  1.00  0.00     0.012 A 
ATOM     82  C   UNL A   1      38.952  33.267  38.190  1.00  0.00     0.148 A 
ATOM     83  C   UNL A   1      39.842  35.927  38.078  1.00  0.00     0.002 A 
ATOM     84  C   UNL A   1      38.736  34.127  39.262  1.00  0.00     0.091 A 
ATOM     85  F   UNL A   1      38.567  31.984  38.224  1.00  0.00    -0.205 F 
ATOM     86  C   UNL A   1      39.193  35.453  39.213  1.00  0.00     0.022 A 
BRANCH  84  87
ATOM     87  S   UNL A   1      37.790  33.629  40.706  1.00  0.00     0.127 S 
ATOM     88  O   UNL A   1      38.684  32.658  41.330  1.00  0.00    -0.237 OA
ATOM     89  O   UNL A   1      37.650  34.893  41.431  1.00  0.00    -0.237 OA
ATOM     90  O   UNL A   1      36.537  33.102  40.182  1.00  0.00    -0.744 OA
ENDBRANCH  84  87
ENDBRANCH  56  80
BRANCH  68  91
ATOM     91  C   UNL A   1      44.198  28.775  35.364  1.00  0.00     0.023 A 
ATOM     92  C   UNL A   1      45.488  29.317  35.200  1.00  0.00     0.012 A 
ATOM     93  C   UNL A   1      43.998  27.724  36.280  1.00  0.00     0.148 A 
ATOM     94  C   UNL A   1      46.567  28.808  35.921  1.00  0.00     0.002 A 
ATOM     95  C   UNL A   1      45.071  27.248  37.025  1.00  0.00     0.091 A 
ATOM     96  F   UNL A   1      42.767  27.207  36.404  1.00  0.00    -0.205 F 
ATOM     97  C   UNL A   1      46.356  27.784  36.841  1.00  0.00     0.022 A 
BRANCH  95  98
ATOM     98  S   UNL A   1      44.873  25.993  38.295  1.00  0.00     0.127 S 
ATOM     99  O   UNL A   1      46.262  25.663  38.608  1.00  0.00    -0.237 OA
ATOM    100  O   UNL A   1      44.166  26.721  39.349  1.00  0.00    -0.237 OA
ATOM    101  O   UNL A   1      44.095  24.925  37.678  1.00  0.00    -0.744 OA
ENDBRANCH  95  98
ENDBRANCH  68  91
ENDBRANCH  42  43
ENDBRANCH  34  37
ENDBRANCH  32  33
ENDBRANCH  31  32
ENDBRANCH  30  31
ENDBRANCH   1  30
TORSDOF 20
ENDMDL
