MODEL 1
REMARK VINA RESULT:     -10.7      0.000      0.000
REMARK SMILES C[C@](NC(=O)Cc1csc(N)n1)(C(=O)NCCCCNC(=O)c1ccc(-c2c3nc(c(-c4cccc(S(=O)(=O)[O-])c4F)c4ccc([nH]4)c(-c4cccc(S(=O)(=O)[O-])c4F)c4nc(c(-c5cccc(S(=O)(=O)[O-])c5F)c5ccc2[nH]5)C=C4)C=C3)cc1)C(F)(F)F
REMARK SMILES IDX 17 1 16 2 15 3 13 4 14 5 2 7 1 8 86 9 87 10 88 11 89 12 3 13
REMARK SMILES IDX 4 14 5 16 6 17 7 18 8 19 12 20 9 21 10 22 11 23 18 26 19 27
REMARK SMILES IDX 20 28 21 29 22 31 23 32 24 33 85 34 25 35 84 36 26 37 27 38
REMARK SMILES IDX 28 39 78 40 29 41 83 42 77 43 79 44 30 45 82 46 76 47 75 48
REMARK SMILES IDX 31 50 63 51 43 52 62 53 44 54 47 55 61 56 80 57 45 58 46 59
REMARK SMILES IDX 60 61 81 62 48 63 32 64 33 65 41 66 34 67 36 68 42 69 35 70
REMARK SMILES IDX 37 71 38 72 39 73 40 74 64 75 65 76 73 77 66 78 68 79 74 80
REMARK SMILES IDX 67 81 69 82 70 83 71 84 72 85 49 86 50 87 58 88 51 89 53 90
REMARK SMILES IDX 59 91 52 92 54 93 55 94 56 95 57 96
REMARK H PARENT 15 6 3 15 11 24 11 25 20 30 79 49 47 60
REMARK Flexibility Score: inf
ROOT
ATOM      1  C   UNL A   1      35.549  22.986  23.510  1.00  0.00     0.023 C 
ENDROOT
BRANCH   1   2
ATOM      2  C   UNL A   1      34.249  23.770  23.355  1.00  0.00     0.116 C 
BRANCH   2   3
ATOM      3  N   UNL A   1      33.387  23.565  24.500  1.00  0.00    -0.354 N 
ATOM      4  C   UNL A   1      32.586  24.403  25.208  1.00  0.00     0.254 C 
ATOM      5  O   UNL A   1      32.168  23.936  26.272  1.00  0.00    -0.272 OA
ATOM      6  H   UNL A   1      33.381  22.638  24.831  1.00  0.00     0.163 HD
BRANCH   4   7
ATOM      7  C   UNL A   1      32.276  25.846  24.761  1.00  0.00     0.212 C 
ATOM      8  C   UNL A   1      31.095  26.464  25.560  1.00  0.00     0.056 C 
BRANCH   7   9
ATOM      9  C   UNL A   1      33.534  26.627  25.208  1.00  0.00     0.420 C 
ATOM     10  F   UNL A   1      33.274  27.715  25.957  1.00  0.00    -0.168 F 
ATOM     11  F   UNL A   1      34.378  25.832  25.906  1.00  0.00    -0.168 F 
ATOM     12  F   UNL A   1      34.255  27.041  24.133  1.00  0.00    -0.168 F 
ENDBRANCH   7   9
BRANCH   7  13
ATOM     13  N   UNL A   1      31.857  25.831  23.315  1.00  0.00    -0.334 N 
ATOM     14  C   UNL A   1      31.525  26.707  22.339  1.00  0.00     0.227 C 
ATOM     15  H   UNL A   1      31.808  24.906  22.979  1.00  0.00     0.164 HD
ATOM     16  O   UNL A   1      31.334  26.193  21.227  1.00  0.00    -0.275 OA
BRANCH  14  17
ATOM     17  C   UNL A   1      31.456  28.207  22.488  1.00  0.00     0.157 C 
BRANCH  17  18
ATOM     18  C   UNL A   1      30.085  28.793  22.490  1.00  0.00     0.063 A 
ATOM     19  C   UNL A   1      29.037  28.338  23.271  1.00  0.00     0.093 A 
ATOM     20  N   UNL A   1      29.749  29.826  21.629  1.00  0.00    -0.225 NA
ATOM     21  S   UNL A   1      27.587  29.132  22.831  1.00  0.00    -0.106 S 
ATOM     22  C   UNL A   1      28.454  30.032  21.656  1.00  0.00     0.180 A 
BRANCH  22  23
ATOM     23  N   UNL A   1      27.821  30.822  20.781  1.00  0.00    -0.375 N 
ATOM     24  H   UNL A   1      27.354  31.630  21.096  1.00  0.00     0.159 HD
ATOM     25  H   UNL A   1      27.824  30.596  19.822  1.00  0.00     0.159 HD
ENDBRANCH  22  23
ENDBRANCH  17  18
ENDBRANCH  14  17
ENDBRANCH   7  13
ENDBRANCH   4   7
ENDBRANCH   2   3
ENDBRANCH   1   2
BRANCH   1  26
ATOM     26  C   UNL A   1      35.813  22.445  24.920  1.00  0.00     0.023 C 
BRANCH  26  27
ATOM     27  C   UNL A   1      36.900  23.170  25.705  1.00  0.00     0.116 C 
BRANCH  27  28
ATOM     28  N   UNL A   1      38.024  22.305  26.032  1.00  0.00    -0.352 N 
ATOM     29  C   UNL A   1      39.260  22.650  26.519  1.00  0.00     0.251 C 
ATOM     30  H   UNL A   1      37.877  21.343  25.884  1.00  0.00     0.163 HD
ATOM     31  O   UNL A   1      40.147  21.806  26.602  1.00  0.00    -0.269 OA
BRANCH  29  32
ATOM     32  C   UNL A   1      39.519  24.049  26.912  1.00  0.00     0.039 A 
ATOM     33  C   UNL A   1      39.271  24.437  28.230  1.00  0.00     0.014 A 
ATOM     34  C   UNL A   1      40.046  24.959  25.991  1.00  0.00     0.014 A 
ATOM     35  C   UNL A   1      39.610  25.727  28.641  1.00  0.00     0.010 A 
ATOM     36  C   UNL A   1      40.454  26.216  26.422  1.00  0.00     0.010 A 
ATOM     37  C   UNL A   1      40.236  26.616  27.750  1.00  0.00    -0.014 A 
BRANCH  37  38
ATOM     38  C   UNL A   1      40.679  27.963  28.192  1.00  0.00     0.031 A 
ATOM     39  C   UNL A   1      42.144  28.306  28.222  1.00  0.00     0.074 A 
ATOM     40  C   UNL A   1      39.769  28.846  28.648  1.00  0.00     0.049 A 
ATOM     41  N   UNL A   1      42.724  29.404  28.627  1.00  0.00    -0.248 NA
ATOM     42  C   UNL A   1      43.081  27.267  27.764  1.00  0.00     0.031 C 
ATOM     43  C   UNL A   1      38.329  28.602  28.752  1.00  0.00     0.029 A 
ATOM     44  N   UNL A   1      39.924  30.119  29.139  1.00  0.00    -0.354 N 
ATOM     45  C   UNL A   1      44.090  29.180  28.504  1.00  0.00     0.074 A 
ATOM     46  C   UNL A   1      44.254  27.824  28.025  1.00  0.00     0.031 C 
ATOM     47  C   UNL A   1      37.733  29.688  29.269  1.00  0.00     0.029 A 
ATOM     48  C   UNL A   1      38.748  30.695  29.563  1.00  0.00     0.049 A 
ATOM     49  H   UNL A   1      40.795  30.577  29.184  1.00  0.00     0.167 HD
ATOM     50  C   UNL A   1      45.115  30.034  28.736  1.00  0.00     0.034 A 
ATOM     51  C   UNL A   1      38.515  31.893  30.132  1.00  0.00     0.034 A 
ATOM     52  C   UNL A   1      44.947  31.392  29.174  1.00  0.00     0.049 A 
ATOM     53  C   UNL A   1      39.666  32.838  30.341  1.00  0.00     0.074 A 
ATOM     54  C   UNL A   1      45.915  32.364  29.357  1.00  0.00     0.029 A 
ATOM     55  N   UNL A   1      43.732  31.971  29.506  1.00  0.00    -0.354 N 
ATOM     56  N   UNL A   1      40.937  32.664  30.067  1.00  0.00    -0.248 NA
ATOM     57  C   UNL A   1      39.349  34.160  30.901  1.00  0.00     0.031 C 
ATOM     58  C   UNL A   1      45.287  33.523  29.822  1.00  0.00     0.029 A 
ATOM     59  C   UNL A   1      43.924  33.284  29.900  1.00  0.00     0.049 A 
ATOM     60  H   UNL A   1      42.860  31.516  29.466  1.00  0.00     0.167 HD
ATOM     61  C   UNL A   1      41.564  33.863  30.387  1.00  0.00     0.074 A 
ATOM     62  C   UNL A   1      40.530  34.763  30.856  1.00  0.00     0.031 C 
ATOM     63  C   UNL A   1      42.879  34.185  30.315  1.00  0.00     0.034 A 
BRANCH  50  64
ATOM     64  C   UNL A   1      46.512  29.536  28.465  1.00  0.00     0.023 A 
ATOM     65  C   UNL A   1      47.089  29.743  27.194  1.00  0.00     0.012 A 
ATOM     66  C   UNL A   1      47.271  28.912  29.474  1.00  0.00     0.148 A 
ATOM     67  C   UNL A   1      48.382  29.301  26.919  1.00  0.00     0.002 A 
ATOM     68  C   UNL A   1      48.577  28.517  29.206  1.00  0.00     0.091 A 
ATOM     69  F   UNL A   1      46.701  28.705  30.669  1.00  0.00    -0.205 F 
ATOM     70  C   UNL A   1      49.129  28.699  27.927  1.00  0.00     0.022 A 
BRANCH  68  71
ATOM     71  S   UNL A   1      49.650  27.804  30.459  1.00  0.00     0.127 S 
ATOM     72  O   UNL A   1      49.033  26.494  30.664  1.00  0.00    -0.237 OA
ATOM     73  O   UNL A   1      50.942  27.768  29.771  1.00  0.00    -0.237 OA
ATOM     74  O   UNL A   1      49.592  28.707  31.598  1.00  0.00    -0.744 OA
ENDBRANCH  68  71
ENDBRANCH  50  64
BRANCH  51  75
ATOM     75  C   UNL A   1      37.122  32.289  30.486  1.00  0.00     0.023 A 
ATOM     76  C   UNL A   1      36.660  32.097  31.803  1.00  0.00     0.012 A 
ATOM     77  C   UNL A   1      36.267  32.882  29.538  1.00  0.00     0.148 A 
ATOM     78  C   UNL A   1      35.360  32.457  32.161  1.00  0.00     0.002 A 
ATOM     79  C   UNL A   1      34.992  33.290  29.916  1.00  0.00     0.091 A 
ATOM     80  F   UNL A   1      36.722  33.046  28.288  1.00  0.00    -0.205 F 
ATOM     81  C   UNL A   1      34.531  33.063  31.220  1.00  0.00     0.022 A 
BRANCH  79  82
ATOM     82  S   UNL A   1      33.906  34.200  28.810  1.00  0.00     0.127 S 
ATOM     83  O   UNL A   1      34.790  35.257  28.327  1.00  0.00    -0.237 OA
ATOM     84  O   UNL A   1      33.562  33.180  27.820  1.00  0.00    -0.237 OA
ATOM     85  O   UNL A   1      32.787  34.637  29.634  1.00  0.00    -0.744 OA
ENDBRANCH  79  82
ENDBRANCH  51  75
BRANCH  63  86
ATOM     86  C   UNL A   1      43.280  35.581  30.714  1.00  0.00     0.023 A 
ATOM     87  C   UNL A   1      43.661  35.850  32.043  1.00  0.00     0.012 A 
ATOM     88  C   UNL A   1      43.354  36.607  29.751  1.00  0.00     0.148 A 
ATOM     89  C   UNL A   1      44.077  37.128  32.416  1.00  0.00     0.002 A 
ATOM     90  C   UNL A   1      43.817  37.864  30.119  1.00  0.00     0.091 A 
ATOM     91  F   UNL A   1      42.970  36.336  28.496  1.00  0.00    -0.205 F 
ATOM     92  C   UNL A   1      44.167  38.131  31.453  1.00  0.00     0.022 A 
BRANCH  90  93
ATOM     93  S   UNL A   1      44.059  39.188  28.929  1.00  0.00     0.127 S 
ATOM     94  O   UNL A   1      44.982  38.569  27.978  1.00  0.00    -0.237 OA
ATOM     95  O   UNL A   1      42.704  39.397  28.418  1.00  0.00    -0.237 OA
ATOM     96  O   UNL A   1      44.601  40.312  29.682  1.00  0.00    -0.744 OA
ENDBRANCH  90  93
ENDBRANCH  63  86
ENDBRANCH  37  38
ENDBRANCH  29  32
ENDBRANCH  27  28
ENDBRANCH  26  27
ENDBRANCH   1  26
TORSDOF 19
ENDMDL
MODEL 2
REMARK VINA RESULT:     -10.7      3.446      8.468
REMARK SMILES C[C@](NC(=O)Cc1csc(N)n1)(C(=O)NCCCCNC(=O)c1ccc(-c2c3nc(c(-c4cccc(S(=O)(=O)[O-])c4F)c4ccc([nH]4)c(-c4cccc(S(=O)(=O)[O-])c4F)c4nc(c(-c5cccc(S(=O)(=O)[O-])c5F)c5ccc2[nH]5)C=C4)C=C3)cc1)C(F)(F)F
REMARK SMILES IDX 17 1 16 2 15 3 13 4 14 5 2 7 1 8 86 9 87 10 88 11 89 12 3 13
REMARK SMILES IDX 4 14 5 16 6 17 7 18 8 19 12 20 9 21 10 22 11 23 18 26 19 27
REMARK SMILES IDX 20 28 21 29 22 31 23 32 24 33 85 34 25 35 84 36 26 37 27 38
REMARK SMILES IDX 28 39 78 40 29 41 83 42 77 43 79 44 30 45 82 46 76 47 75 48
REMARK SMILES IDX 31 50 63 51 43 52 62 53 44 54 47 55 61 56 80 57 45 58 46 59
REMARK SMILES IDX 60 61 81 62 48 63 32 64 33 65 41 66 34 67 36 68 42 69 35 70
REMARK SMILES IDX 37 71 38 72 39 73 40 74 64 75 65 76 73 77 66 78 68 79 74 80
REMARK SMILES IDX 67 81 69 82 70 83 71 84 72 85 49 86 50 87 58 88 51 89 53 90
REMARK SMILES IDX 59 91 52 92 54 93 55 94 56 95 57 96
REMARK H PARENT 15 6 3 15 11 24 11 25 20 30 79 49 47 60
REMARK Flexibility Score: inf
ROOT
ATOM      1  C   UNL A   1      37.549  21.094  24.891  1.00  0.00     0.023 C 
ENDROOT
BRANCH   1   2
ATOM      2  C   UNL A   1      36.044  20.847  24.824  1.00  0.00     0.116 C 
BRANCH   2   3
ATOM      3  N   UNL A   1      35.416  21.168  26.088  1.00  0.00    -0.354 N 
ATOM      4  C   UNL A   1      34.589  22.173  26.474  1.00  0.00     0.254 C 
ATOM      5  O   UNL A   1      34.428  22.266  27.694  1.00  0.00    -0.272 OA
ATOM      6  H   UNL A   1      35.631  20.533  26.810  1.00  0.00     0.163 HD
BRANCH   4   7
ATOM      7  C   UNL A   1      33.954  23.166  25.480  1.00  0.00     0.212 C 
ATOM      8  C   UNL A   1      32.867  24.051  26.151  1.00  0.00     0.056 C 
BRANCH   7   9
ATOM      9  C   UNL A   1      35.123  24.124  25.149  1.00  0.00     0.420 C 
ATOM     10  F   UNL A   1      34.756  25.408  24.974  1.00  0.00    -0.168 F 
ATOM     11  F   UNL A   1      36.070  24.088  26.116  1.00  0.00    -0.168 F 
ATOM     12  F   UNL A   1      35.767  23.731  24.017  1.00  0.00    -0.168 F 
ENDBRANCH   7   9
BRANCH   7  13
ATOM     13  N   UNL A   1      33.265  22.392  24.387  1.00  0.00    -0.334 N 
ATOM     14  C   UNL A   1      32.857  22.572  23.110  1.00  0.00     0.227 C 
ATOM     15  H   UNL A   1      33.044  21.483  24.695  1.00  0.00     0.164 HD
ATOM     16  O   UNL A   1      32.396  21.556  22.568  1.00  0.00    -0.275 OA
BRANCH  14  17
ATOM     17  C   UNL A   1      32.996  23.845  22.312  1.00  0.00     0.157 C 
BRANCH  17  18
ATOM     18  C   UNL A   1      32.016  24.920  22.637  1.00  0.00     0.063 A 
ATOM     19  C   UNL A   1      32.217  26.268  22.392  1.00  0.00     0.093 A 
ATOM     20  N   UNL A   1      30.827  24.630  23.287  1.00  0.00    -0.225 NA
ATOM     21  S   UNL A   1      30.960  27.188  23.096  1.00  0.00    -0.106 S 
ATOM     22  C   UNL A   1      30.231  25.740  23.655  1.00  0.00     0.180 A 
BRANCH  22  23
ATOM     23  N   UNL A   1      29.175  25.765  24.477  1.00  0.00    -0.375 N 
ATOM     24  H   UNL A   1      28.281  25.974  24.122  1.00  0.00     0.159 HD
ATOM     25  H   UNL A   1      29.294  25.573  25.435  1.00  0.00     0.159 HD
ENDBRANCH  22  23
ENDBRANCH  17  18
ENDBRANCH  14  17
ENDBRANCH   7  13
ENDBRANCH   4   7
ENDBRANCH   2   3
ENDBRANCH   1   2
BRANCH   1  26
ATOM     26  C   UNL A   1      38.409  19.827  24.971  1.00  0.00     0.023 C 
BRANCH  26  27
ATOM     27  C   UNL A   1      39.202  19.656  26.261  1.00  0.00     0.116 C 
BRANCH  27  28
ATOM     28  N   UNL A   1      40.449  18.935  26.058  1.00  0.00    -0.352 N 
ATOM     29  C   UNL A   1      41.731  19.426  26.027  1.00  0.00     0.251 C 
ATOM     30  H   UNL A   1      40.362  17.963  25.925  1.00  0.00     0.163 HD
ATOM     31  O   UNL A   1      42.662  18.697  25.698  1.00  0.00    -0.269 OA
BRANCH  29  32
ATOM     32  C   UNL A   1      41.971  20.842  26.365  1.00  0.00     0.039 A 
ATOM     33  C   UNL A   1      42.288  21.178  27.682  1.00  0.00     0.014 A 
ATOM     34  C   UNL A   1      41.927  21.826  25.372  1.00  0.00     0.014 A 
ATOM     35  C   UNL A   1      42.622  22.498  27.993  1.00  0.00     0.010 A 
ATOM     36  C   UNL A   1      42.333  23.121  25.669  1.00  0.00     0.010 A 
ATOM     37  C   UNL A   1      42.680  23.474  26.983  1.00  0.00    -0.014 A 
BRANCH  37  38
ATOM     38  C   UNL A   1      43.112  24.863  27.280  1.00  0.00     0.031 A 
ATOM     39  C   UNL A   1      42.159  25.829  27.929  1.00  0.00     0.074 A 
ATOM     40  C   UNL A   1      44.333  25.279  26.888  1.00  0.00     0.049 A 
ATOM     41  N   UNL A   1      42.335  27.091  28.217  1.00  0.00    -0.248 NA
ATOM     42  C   UNL A   1      40.823  25.316  28.276  1.00  0.00     0.031 C 
ATOM     43  C   UNL A   1      45.315  24.463  26.171  1.00  0.00     0.029 A 
ATOM     44  N   UNL A   1      44.944  26.502  27.009  1.00  0.00    -0.354 N 
ATOM     45  C   UNL A   1      41.128  27.533  28.745  1.00  0.00     0.074 A 
ATOM     46  C   UNL A   1      40.213  26.413  28.701  1.00  0.00     0.031 C 
ATOM     47  C   UNL A   1      46.406  25.205  25.920  1.00  0.00     0.029 A 
ATOM     48  C   UNL A   1      46.191  26.556  26.429  1.00  0.00     0.049 A 
ATOM     49  H   UNL A   1      44.530  27.268  27.468  1.00  0.00     0.167 HD
ATOM     50  C   UNL A   1      40.817  28.749  29.253  1.00  0.00     0.034 A 
ATOM     51  C   UNL A   1      47.058  27.580  26.312  1.00  0.00     0.034 A 
ATOM     52  C   UNL A   1      41.740  29.847  29.330  1.00  0.00     0.049 A 
ATOM     53  C   UNL A   1      46.705  28.910  26.919  1.00  0.00     0.074 A 
ATOM     54  C   UNL A   1      41.550  31.093  29.902  1.00  0.00     0.029 A 
ATOM     55  N   UNL A   1      43.027  29.838  28.815  1.00  0.00    -0.354 N 
ATOM     56  N   UNL A   1      45.615  29.261  27.559  1.00  0.00    -0.248 NA
ATOM     57  C   UNL A   1      47.713  29.975  26.825  1.00  0.00     0.031 C 
ATOM     58  C   UNL A   1      42.714  31.844  29.711  1.00  0.00     0.029 A 
ATOM     59  C   UNL A   1      43.641  31.056  29.047  1.00  0.00     0.049 A 
ATOM     60  H   UNL A   1      43.444  29.075  28.352  1.00  0.00     0.167 HD
ATOM     61  C   UNL A   1      45.821  30.572  27.973  1.00  0.00     0.074 A 
ATOM     62  C   UNL A   1      47.149  30.945  27.530  1.00  0.00     0.031 C 
ATOM     63  C   UNL A   1      44.982  31.398  28.646  1.00  0.00     0.034 A 
BRANCH  50  64
ATOM     64  C   UNL A   1      39.431  28.937  29.815  1.00  0.00     0.023 A 
ATOM     65  C   UNL A   1      39.134  28.453  31.107  1.00  0.00     0.012 A 
ATOM     66  C   UNL A   1      38.440  29.630  29.093  1.00  0.00     0.148 A 
ATOM     67  C   UNL A   1      37.863  28.621  31.655  1.00  0.00     0.002 A 
ATOM     68  C   UNL A   1      37.190  29.835  29.665  1.00  0.00     0.091 A 
ATOM     69  F   UNL A   1      38.732  30.064  27.859  1.00  0.00    -0.205 F 
ATOM     70  C   UNL A   1      36.896  29.320  30.940  1.00  0.00     0.022 A 
BRANCH  68  71
ATOM     71  S   UNL A   1      35.899  30.791  28.860  1.00  0.00     0.127 S 
ATOM     72  O   UNL A   1      35.105  29.739  28.226  1.00  0.00    -0.237 OA
ATOM     73  O   UNL A   1      35.249  31.445  29.995  1.00  0.00    -0.237 OA
ATOM     74  O   UNL A   1      36.581  31.695  27.946  1.00  0.00    -0.744 OA
ENDBRANCH  68  71
ENDBRANCH  50  64
BRANCH  51  75
ATOM     75  C   UNL A   1      48.373  27.368  25.641  1.00  0.00     0.023 A 
ATOM     76  C   UNL A   1      49.484  26.963  26.407  1.00  0.00     0.012 A 
ATOM     77  C   UNL A   1      48.520  27.533  24.251  1.00  0.00     0.148 A 
ATOM     78  C   UNL A   1      50.727  26.759  25.805  1.00  0.00     0.002 A 
ATOM     79  C   UNL A   1      49.746  27.274  23.649  1.00  0.00     0.091 A 
ATOM     80  F   UNL A   1      47.453  27.928  23.543  1.00  0.00    -0.205 F 
ATOM     81  C   UNL A   1      50.855  26.905  24.426  1.00  0.00     0.022 A 
BRANCH  79  82
ATOM     82  S   UNL A   1      49.969  27.303  21.867  1.00  0.00     0.127 S 
ATOM     83  O   UNL A   1      49.764  28.716  21.563  1.00  0.00    -0.237 OA
ATOM     84  O   UNL A   1      51.348  26.836  21.728  1.00  0.00    -0.237 OA
ATOM     85  O   UNL A   1      48.970  26.389  21.332  1.00  0.00    -0.744 OA
ENDBRANCH  79  82
ENDBRANCH  51  75
BRANCH  63  86
ATOM     86  C   UNL A   1      45.480  32.778  28.983  1.00  0.00     0.023 A 
ATOM     87  C   UNL A   1      46.154  33.004  30.200  1.00  0.00     0.012 A 
ATOM     88  C   UNL A   1      45.349  33.833  28.058  1.00  0.00     0.148 A 
ATOM     89  C   UNL A   1      46.660  34.268  30.505  1.00  0.00     0.002 A 
ATOM     90  C   UNL A   1      45.899  35.075  28.348  1.00  0.00     0.091 A 
ATOM     91  F   UNL A   1      44.689  33.602  26.914  1.00  0.00    -0.205 F 
ATOM     92  C   UNL A   1      46.543  35.299  29.576  1.00  0.00     0.022 A 
BRANCH  90  93
ATOM     93  S   UNL A   1      45.885  36.433  27.172  1.00  0.00     0.127 S 
ATOM     94  O   UNL A   1      46.752  37.408  27.831  1.00  0.00    -0.237 OA
ATOM     95  O   UNL A   1      46.459  35.814  25.976  1.00  0.00    -0.237 OA
ATOM     96  O   UNL A   1      44.490  36.831  27.034  1.00  0.00    -0.744 OA
ENDBRANCH  90  93
ENDBRANCH  63  86
ENDBRANCH  37  38
ENDBRANCH  29  32
ENDBRANCH  27  28
ENDBRANCH  26  27
ENDBRANCH   1  26
TORSDOF 19
ENDMDL
MODEL 3
REMARK VINA RESULT:     -10.6      2.684      3.324
REMARK SMILES C[C@](NC(=O)Cc1csc(N)n1)(C(=O)NCCCCNC(=O)c1ccc(-c2c3nc(c(-c4cccc(S(=O)(=O)[O-])c4F)c4ccc([nH]4)c(-c4cccc(S(=O)(=O)[O-])c4F)c4nc(c(-c5cccc(S(=O)(=O)[O-])c5F)c5ccc2[nH]5)C=C4)C=C3)cc1)C(F)(F)F
REMARK SMILES IDX 17 1 16 2 15 3 13 4 14 5 2 7 1 8 86 9 87 10 88 11 89 12 3 13
REMARK SMILES IDX 4 14 5 16 6 17 7 18 8 19 12 20 9 21 10 22 11 23 18 26 19 27
REMARK SMILES IDX 20 28 21 29 22 31 23 32 24 33 85 34 25 35 84 36 26 37 27 38
REMARK SMILES IDX 28 39 78 40 29 41 83 42 77 43 79 44 30 45 82 46 76 47 75 48
REMARK SMILES IDX 31 50 63 51 43 52 62 53 44 54 47 55 61 56 80 57 45 58 46 59
REMARK SMILES IDX 60 61 81 62 48 63 32 64 33 65 41 66 34 67 36 68 42 69 35 70
REMARK SMILES IDX 37 71 38 72 39 73 40 74 64 75 65 76 73 77 66 78 68 79 74 80
REMARK SMILES IDX 67 81 69 82 70 83 71 84 72 85 49 86 50 87 58 88 51 89 53 90
REMARK SMILES IDX 59 91 52 92 54 93 55 94 56 95 57 96
REMARK H PARENT 15 6 3 15 11 24 11 25 20 30 79 49 47 60
REMARK Flexibility Score: inf
ROOT
ATOM      1  C   UNL A   1      36.418  19.819  24.986  1.00  0.00     0.023 C 
ENDROOT
BRANCH   1   2
ATOM      2  C   UNL A   1      34.997  20.374  24.934  1.00  0.00     0.116 C 
BRANCH   2   3
ATOM      3  N   UNL A   1      34.642  20.990  26.195  1.00  0.00    -0.354 N 
ATOM      4  C   UNL A   1      34.199  22.233  26.517  1.00  0.00     0.254 C 
ATOM      5  O   UNL A   1      34.215  22.485  27.726  1.00  0.00    -0.272 OA
ATOM      6  H   UNL A   1      34.739  20.391  26.971  1.00  0.00     0.163 HD
BRANCH   4   7
ATOM      7  C   UNL A   1      33.779  23.274  25.461  1.00  0.00     0.212 C 
ATOM      8  C   UNL A   1      32.865  24.379  26.062  1.00  0.00     0.056 C 
BRANCH   7   9
ATOM      9  C   UNL A   1      35.111  23.980  25.118  1.00  0.00     0.420 C 
ATOM     10  F   UNL A   1      36.038  23.921  26.092  1.00  0.00    -0.168 F 
ATOM     11  F   UNL A   1      35.657  23.467  23.990  1.00  0.00    -0.168 F 
ATOM     12  F   UNL A   1      34.906  25.295  24.837  1.00  0.00    -0.168 F 
ENDBRANCH   7   9
BRANCH   7  13
ATOM     13  N   UNL A   1      32.976  22.587  24.389  1.00  0.00    -0.334 N 
ATOM     14  C   UNL A   1      32.657  22.758  23.085  1.00  0.00     0.227 C 
ATOM     15  H   UNL A   1      32.557  21.769  24.742  1.00  0.00     0.164 HD
ATOM     16  O   UNL A   1      32.007  21.826  22.587  1.00  0.00    -0.275 OA
BRANCH  14  17
ATOM     17  C   UNL A   1      33.089  23.913  22.217  1.00  0.00     0.157 C 
BRANCH  17  18
ATOM     18  C   UNL A   1      32.447  25.224  22.520  1.00  0.00     0.063 A 
ATOM     19  C   UNL A   1      31.119  25.385  22.878  1.00  0.00     0.093 A 
ATOM     20  N   UNL A   1      33.151  26.411  22.393  1.00  0.00    -0.225 NA
ATOM     21  S   UNL A   1      30.722  27.047  22.935  1.00  0.00    -0.106 S 
ATOM     22  C   UNL A   1      32.336  27.433  22.503  1.00  0.00     0.180 A 
BRANCH  22  23
ATOM     23  N   UNL A   1      32.698  28.690  22.220  1.00  0.00    -0.375 N 
ATOM     24  H   UNL A   1      32.943  29.306  22.947  1.00  0.00     0.159 HD
ATOM     25  H   UNL A   1      32.720  28.997  21.284  1.00  0.00     0.159 HD
ENDBRANCH  22  23
ENDBRANCH  17  18
ENDBRANCH  14  17
ENDBRANCH   7  13
ENDBRANCH   4   7
ENDBRANCH   2   3
ENDBRANCH   1   2
BRANCH   1  26
ATOM     26  C   UNL A   1      37.518  20.820  24.613  1.00  0.00     0.023 C 
BRANCH  26  27
ATOM     27  C   UNL A   1      38.308  21.389  25.785  1.00  0.00     0.116 C 
BRANCH  27  28
ATOM     28  N   UNL A   1      39.404  20.522  26.192  1.00  0.00    -0.352 N 
ATOM     29  C   UNL A   1      40.616  20.867  26.736  1.00  0.00     0.251 C 
ATOM     30  H   UNL A   1      39.255  19.558  26.060  1.00  0.00     0.163 HD
ATOM     31  O   UNL A   1      41.489  20.017  26.887  1.00  0.00    -0.269 OA
BRANCH  29  32
ATOM     32  C   UNL A   1      40.869  22.273  27.108  1.00  0.00     0.039 A 
ATOM     33  C   UNL A   1      41.540  22.546  28.301  1.00  0.00     0.014 A 
ATOM     34  C   UNL A   1      40.482  23.312  26.257  1.00  0.00     0.014 A 
ATOM     35  C   UNL A   1      41.878  23.864  28.613  1.00  0.00     0.010 A 
ATOM     36  C   UNL A   1      40.887  24.613  26.533  1.00  0.00     0.010 A 
ATOM     37  C   UNL A   1      41.585  24.905  27.715  1.00  0.00    -0.014 A 
BRANCH  37  38
ATOM     38  C   UNL A   1      42.010  26.301  27.991  1.00  0.00     0.031 A 
ATOM     39  C   UNL A   1      43.408  26.746  27.658  1.00  0.00     0.074 A 
ATOM     40  C   UNL A   1      41.165  27.141  28.621  1.00  0.00     0.049 A 
ATOM     41  N   UNL A   1      43.977  27.902  27.874  1.00  0.00    -0.248 NA
ATOM     42  C   UNL A   1      44.291  25.752  27.025  1.00  0.00     0.031 C 
ATOM     43  C   UNL A   1      39.815  26.803  29.074  1.00  0.00     0.029 A 
ATOM     44  N   UNL A   1      41.329  28.446  29.015  1.00  0.00    -0.354 N 
ATOM     45  C   UNL A   1      45.289  27.767  27.436  1.00  0.00     0.074 A 
ATOM     46  C   UNL A   1      45.444  26.403  26.979  1.00  0.00     0.031 C 
ATOM     47  C   UNL A   1      39.272  27.871  29.680  1.00  0.00     0.029 A 
ATOM     48  C   UNL A   1      40.244  28.960  29.688  1.00  0.00     0.049 A 
ATOM     49  H   UNL A   1      42.146  28.965  28.834  1.00  0.00     0.167 HD
ATOM     50  C   UNL A   1      46.268  28.701  27.386  1.00  0.00     0.034 A 
ATOM     51  C   UNL A   1      40.056  30.168  30.253  1.00  0.00     0.034 A 
ATOM     52  C   UNL A   1      46.099  30.066  27.804  1.00  0.00     0.049 A 
ATOM     53  C   UNL A   1      41.144  31.201  30.149  1.00  0.00     0.074 A 
ATOM     54  C   UNL A   1      47.002  31.111  27.716  1.00  0.00     0.029 A 
ATOM     55  N   UNL A   1      44.955  30.576  28.396  1.00  0.00    -0.354 N 
ATOM     56  N   UNL A   1      42.324  31.101  29.585  1.00  0.00    -0.248 NA
ATOM     57  C   UNL A   1      40.863  32.525  30.721  1.00  0.00     0.031 C 
ATOM     58  C   UNL A   1      46.411  32.247  28.277  1.00  0.00     0.029 A 
ATOM     59  C   UNL A   1      45.128  31.918  28.687  1.00  0.00     0.049 A 
ATOM     60  H   UNL A   1      44.137  30.059  28.582  1.00  0.00     0.167 HD
ATOM     61  C   UNL A   1      42.911  32.356  29.704  1.00  0.00     0.074 A 
ATOM     62  C   UNL A   1      41.947  33.205  30.374  1.00  0.00     0.031 C 
ATOM     63  C   UNL A   1      44.142  32.764  29.308  1.00  0.00     0.034 A 
BRANCH  50  64
ATOM     64  C   UNL A   1      47.598  28.289  26.806  1.00  0.00     0.023 A 
ATOM     65  C   UNL A   1      48.700  28.095  27.666  1.00  0.00     0.012 A 
ATOM     66  C   UNL A   1      47.746  28.045  25.428  1.00  0.00     0.148 A 
ATOM     67  C   UNL A   1      49.938  27.705  27.158  1.00  0.00     0.002 A 
ATOM     68  C   UNL A   1      48.972  27.610  24.935  1.00  0.00     0.091 A 
ATOM     69  F   UNL A   1      46.695  28.254  24.623  1.00  0.00    -0.205 F 
ATOM     70  C   UNL A   1      50.071  27.452  25.796  1.00  0.00     0.022 A 
BRANCH  68  71
ATOM     71  S   UNL A   1      49.226  27.180  23.209  1.00  0.00     0.127 S 
ATOM     72  O   UNL A   1      50.660  26.893  23.186  1.00  0.00    -0.237 OA
ATOM     73  O   UNL A   1      48.366  26.006  23.056  1.00  0.00    -0.237 OA
ATOM     74  O   UNL A   1      48.809  28.343  22.441  1.00  0.00    -0.744 OA
ENDBRANCH  68  71
ENDBRANCH  50  64
BRANCH  51  75
ATOM     75  C   UNL A   1      38.758  30.484  30.917  1.00  0.00     0.023 A 
ATOM     76  C   UNL A   1      38.558  30.112  32.260  1.00  0.00     0.012 A 
ATOM     77  C   UNL A   1      37.739  31.177  30.236  1.00  0.00     0.148 A 
ATOM     78  C   UNL A   1      37.352  30.395  32.905  1.00  0.00     0.002 A 
ATOM     79  C   UNL A   1      36.563  31.505  30.901  1.00  0.00     0.091 A 
ATOM     80  F   UNL A   1      37.946  31.513  28.955  1.00  0.00    -0.205 F 
ATOM     81  C   UNL A   1      36.360  31.100  32.228  1.00  0.00     0.022 A 
BRANCH  79  82
ATOM     82  S   UNL A   1      35.288  32.527  30.153  1.00  0.00     0.127 S 
ATOM     83  O   UNL A   1      34.885  31.713  29.010  1.00  0.00    -0.237 OA
ATOM     84  O   UNL A   1      34.302  32.613  31.230  1.00  0.00    -0.237 OA
ATOM     85  O   UNL A   1      35.937  33.791  29.833  1.00  0.00    -0.744 OA
ENDBRANCH  79  82
ENDBRANCH  51  75
BRANCH  63  86
ATOM     86  C   UNL A   1      44.512  34.204  29.550  1.00  0.00     0.023 A 
ATOM     87  C   UNL A   1      45.054  34.591  30.792  1.00  0.00     0.012 A 
ATOM     88  C   UNL A   1      44.395  35.157  28.519  1.00  0.00     0.148 A 
ATOM     89  C   UNL A   1      45.442  35.912  31.014  1.00  0.00     0.002 A 
ATOM     90  C   UNL A   1      44.831  36.459  28.731  1.00  0.00     0.091 A 
ATOM     91  F   UNL A   1      43.861  34.773  27.351  1.00  0.00    -0.205 F 
ATOM     92  C   UNL A   1      45.342  36.842  29.982  1.00  0.00     0.022 A 
BRANCH  90  93
ATOM     93  S   UNL A   1      44.833  37.698  27.431  1.00  0.00     0.127 S 
ATOM     94  O   UNL A   1      45.804  37.143  26.490  1.00  0.00    -0.237 OA
ATOM     95  O   UNL A   1      43.445  37.664  26.968  1.00  0.00    -0.237 OA
ATOM     96  O   UNL A   1      45.226  38.949  28.068  1.00  0.00    -0.744 OA
ENDBRANCH  90  93
ENDBRANCH  63  86
ENDBRANCH  37  38
ENDBRANCH  29  32
ENDBRANCH  27  28
ENDBRANCH  26  27
ENDBRANCH   1  26
TORSDOF 19
ENDMDL
