MODEL 1
REMARK VINA RESULT:     -11.5      0.000      0.000
REMARK SMILES C[C@@H](C(=O)NCCCCNC(=O)c1ccc(-c2c3nc(c(-c4cccc(S(=O)(=O)[O-])c4F)c4ccc([nH]4)c(-c4cccc(S(=O)(=O)[O-])c4F)c4nc(c(-c5cccc(S(=O)(=O)[O-])c5F)c5ccc2[nH]5)C=C4)C=C3)cc1)c1ccn(C(F)F)c(=O)c1
REMARK SMILES IDX 8 1 7 2 6 3 5 4 3 5 4 6 2 8 1 9 76 10 77 11 85 12 78 13
REMARK SMILES IDX 83 14 79 15 84 16 80 17 81 18 82 19 9 20 10 21 11 22 12 24
REMARK SMILES IDX 13 25 14 26 75 27 15 28 74 29 16 30 17 31 18 32 68 33 19 34
REMARK SMILES IDX 73 35 67 36 69 37 20 38 72 39 66 40 65 41 21 43 53 44 33 45
REMARK SMILES IDX 52 46 34 47 37 48 51 49 70 50 35 51 36 52 50 54 71 55 38 56
REMARK SMILES IDX 22 57 23 58 31 59 24 60 26 61 32 62 25 63 27 64 28 65 29 66
REMARK SMILES IDX 30 67 54 68 55 69 63 70 56 71 58 72 64 73 57 74 59 75 60 76
REMARK SMILES IDX 61 77 62 78 39 79 40 80 48 81 41 82 43 83 49 84 42 85 44 86
REMARK SMILES IDX 45 87 46 88 47 89
REMARK H PARENT 5 7 10 23 69 42 37 53
REMARK Flexibility Score: inf
ROOT
ATOM      1  C   UNL A   1      31.597  29.118  26.846  1.00  0.00     0.023 C 
ENDROOT
BRANCH   1   2
ATOM      2  C   UNL A   1      31.964  27.634  26.933  1.00  0.00     0.023 C 
BRANCH   2   3
ATOM      3  C   UNL A   1      32.953  27.140  25.874  1.00  0.00     0.116 C 
BRANCH   3   4
ATOM      4  N   UNL A   1      32.920  25.697  25.743  1.00  0.00    -0.356 N 
ATOM      5  C   UNL A   1      32.558  24.897  24.699  1.00  0.00     0.227 C 
ATOM      6  O   UNL A   1      32.535  23.689  24.938  1.00  0.00    -0.274 OA
ATOM      7  H   UNL A   1      33.210  25.210  26.548  1.00  0.00     0.163 HD
BRANCH   5   8
ATOM      8  C   UNL A   1      32.204  25.516  23.321  1.00  0.00     0.105 C 
ATOM      9  C   UNL A   1      33.397  26.301  22.764  1.00  0.00     0.023 C 
BRANCH   8  10
ATOM     10  C   UNL A   1      30.948  26.389  23.213  1.00  0.00    -0.029 A 
ATOM     11  C   UNL A   1      29.719  26.089  23.924  1.00  0.00     0.023 A 
ATOM     12  C   UNL A   1      30.978  27.517  22.473  1.00  0.00     0.076 A 
ATOM     13  C   UNL A   1      28.649  26.886  23.826  1.00  0.00     0.095 A 
ATOM     14  C   UNL A   1      29.815  28.446  22.394  1.00  0.00     0.255 A 
ATOM     15  N   UNL A   1      28.682  28.044  23.074  1.00  0.00    -0.258 N 
ATOM     16  O   UNL A   1      29.938  29.485  21.753  1.00  0.00    -0.269 OA
BRANCH  15  17
ATOM     17  C   UNL A   1      27.533  28.907  23.019  1.00  0.00     0.451 C 
ATOM     18  F   UNL A   1      26.463  28.333  23.622  1.00  0.00    -0.185 F 
ATOM     19  F   UNL A   1      27.774  30.089  23.637  1.00  0.00    -0.185 F 
ENDBRANCH  15  17
ENDBRANCH   8  10
ENDBRANCH   5   8
ENDBRANCH   3   4
ENDBRANCH   2   3
ENDBRANCH   1   2
BRANCH   1  20
ATOM     20  C   UNL A   1      32.586  29.996  26.091  1.00  0.00     0.116 C 
BRANCH  20  21
ATOM     21  N   UNL A   1      32.453  31.407  26.419  1.00  0.00    -0.352 N 
ATOM     22  C   UNL A   1      33.238  32.181  27.238  1.00  0.00     0.251 C 
ATOM     23  H   UNL A   1      31.695  31.871  25.996  1.00  0.00     0.163 HD
ATOM     24  O   UNL A   1      32.895  33.330  27.504  1.00  0.00    -0.269 OA
BRANCH  22  25
ATOM     25  C   UNL A   1      34.476  31.619  27.822  1.00  0.00     0.039 A 
ATOM     26  C   UNL A   1      35.578  32.459  28.004  1.00  0.00     0.014 A 
ATOM     27  C   UNL A   1      34.546  30.276  28.199  1.00  0.00     0.014 A 
ATOM     28  C   UNL A   1      36.728  31.967  28.626  1.00  0.00     0.010 A 
ATOM     29  C   UNL A   1      35.667  29.807  28.881  1.00  0.00     0.010 A 
ATOM     30  C   UNL A   1      36.769  30.646  29.100  1.00  0.00    -0.014 A 
BRANCH  30  31
ATOM     31  C   UNL A   1      37.947  30.127  29.842  1.00  0.00     0.031 A 
ATOM     32  C   UNL A   1      38.236  30.605  31.239  1.00  0.00     0.074 A 
ATOM     33  C   UNL A   1      38.812  29.299  29.222  1.00  0.00     0.049 A 
ATOM     34  N   UNL A   1      39.250  30.322  32.015  1.00  0.00    -0.248 NA
ATOM     35  C   UNL A   1      37.274  31.550  31.833  1.00  0.00     0.031 C 
ATOM     36  C   UNL A   1      38.688  28.827  27.840  1.00  0.00     0.029 A 
ATOM     37  N   UNL A   1      39.982  28.731  29.662  1.00  0.00    -0.354 N 
ATOM     38  C   UNL A   1      39.070  31.076  33.168  1.00  0.00     0.074 A 
ATOM     39  C   UNL A   1      37.866  31.856  32.978  1.00  0.00     0.031 C 
ATOM     40  C   UNL A   1      39.740  28.045  27.548  1.00  0.00     0.029 A 
ATOM     41  C   UNL A   1      40.624  27.978  28.707  1.00  0.00     0.049 A 
ATOM     42  H   UNL A   1      40.329  28.852  30.575  1.00  0.00     0.167 HD
ATOM     43  C   UNL A   1      39.821  31.097  34.295  1.00  0.00     0.034 A 
ATOM     44  C   UNL A   1      41.796  27.313  28.755  1.00  0.00     0.034 A 
ATOM     45  C   UNL A   1      40.988  30.284  34.500  1.00  0.00     0.049 A 
ATOM     46  C   UNL A   1      42.583  27.312  30.038  1.00  0.00     0.074 A 
ATOM     47  C   UNL A   1      41.764  30.163  35.641  1.00  0.00     0.029 A 
ATOM     48  N   UNL A   1      41.553  29.453  33.544  1.00  0.00    -0.354 N 
ATOM     49  N   UNL A   1      42.308  27.903  31.174  1.00  0.00    -0.248 NA
ATOM     50  C   UNL A   1      43.822  26.520  30.057  1.00  0.00     0.031 C 
ATOM     51  C   UNL A   1      42.807  29.272  35.368  1.00  0.00     0.029 A 
ATOM     52  C   UNL A   1      42.667  28.820  34.065  1.00  0.00     0.049 A 
ATOM     53  H   UNL A   1      41.210  29.330  32.629  1.00  0.00     0.167 HD
ATOM     54  C   UNL A   1      43.315  27.526  32.055  1.00  0.00     0.074 A 
ATOM     55  C   UNL A   1      44.197  26.639  31.324  1.00  0.00     0.031 C 
ATOM     56  C   UNL A   1      43.502  27.892  33.346  1.00  0.00     0.034 A 
BRANCH  43  57
ATOM     57  C   UNL A   1      39.369  31.987  35.423  1.00  0.00     0.023 A 
ATOM     58  C   UNL A   1      38.499  31.471  36.406  1.00  0.00     0.012 A 
ATOM     59  C   UNL A   1      39.849  33.305  35.548  1.00  0.00     0.148 A 
ATOM     60  C   UNL A   1      38.089  32.262  37.478  1.00  0.00     0.002 A 
ATOM     61  C   UNL A   1      39.470  34.073  36.643  1.00  0.00     0.091 A 
ATOM     62  F   UNL A   1      40.657  33.786  34.593  1.00  0.00    -0.205 F 
ATOM     63  C   UNL A   1      38.582  33.557  37.602  1.00  0.00     0.022 A 
BRANCH  61  64
ATOM     64  S   UNL A   1      40.111  35.726  36.936  1.00  0.00     0.127 S 
ATOM     65  O   UNL A   1      41.552  35.482  36.971  1.00  0.00    -0.237 OA
ATOM     66  O   UNL A   1      39.644  36.452  35.753  1.00  0.00    -0.237 OA
ATOM     67  O   UNL A   1      39.520  36.169  38.190  1.00  0.00    -0.744 OA
ENDBRANCH  61  64
ENDBRANCH  43  57
BRANCH  44  68
ATOM     68  C   UNL A   1      42.257  26.532  27.573  1.00  0.00     0.023 A 
ATOM     69  C   UNL A   1      43.003  27.180  26.569  1.00  0.00     0.012 A 
ATOM     70  C   UNL A   1      41.990  25.156  27.448  1.00  0.00     0.148 A 
ATOM     71  C   UNL A   1      43.445  26.479  25.446  1.00  0.00     0.002 A 
ATOM     72  C   UNL A   1      42.480  24.451  26.355  1.00  0.00     0.091 A 
ATOM     73  F   UNL A   1      41.268  24.560  28.408  1.00  0.00    -0.205 F 
ATOM     74  C   UNL A   1      43.193  25.114  25.344  1.00  0.00     0.022 A 
BRANCH  72  75
ATOM     75  S   UNL A   1      42.317  22.668  26.209  1.00  0.00     0.127 S 
ATOM     76  O   UNL A   1      42.943  22.208  27.446  1.00  0.00    -0.237 OA
ATOM     77  O   UNL A   1      40.865  22.499  26.153  1.00  0.00    -0.237 OA
ATOM     78  O   UNL A   1      43.008  22.313  24.977  1.00  0.00    -0.744 OA
ENDBRANCH  72  75
ENDBRANCH  44  68
BRANCH  56  79
ATOM     79  C   UNL A   1      44.682  27.307  34.079  1.00  0.00     0.023 A 
ATOM     80  C   UNL A   1      45.914  27.988  34.078  1.00  0.00     0.012 A 
ATOM     81  C   UNL A   1      44.543  26.125  34.833  1.00  0.00     0.148 A 
ATOM     82  C   UNL A   1      47.000  27.487  34.795  1.00  0.00     0.002 A 
ATOM     83  C   UNL A   1      45.615  25.658  35.584  1.00  0.00     0.091 A 
ATOM     84  F   UNL A   1      43.367  25.482  34.805  1.00  0.00    -0.205 F 
ATOM     85  C   UNL A   1      46.847  26.331  35.557  1.00  0.00     0.022 A 
BRANCH  83  86
ATOM     86  S   UNL A   1      45.480  24.233  36.670  1.00  0.00     0.127 S 
ATOM     87  O   UNL A   1      45.014  23.198  35.748  1.00  0.00    -0.237 OA
ATOM     88  O   UNL A   1      46.858  24.061  37.132  1.00  0.00    -0.237 OA
ATOM     89  O   UNL A   1      44.537  24.613  37.713  1.00  0.00    -0.744 OA
ENDBRANCH  83  86
ENDBRANCH  56  79
ENDBRANCH  30  31
ENDBRANCH  22  25
ENDBRANCH  20  21
ENDBRANCH   1  20
TORSDOF 16
ENDMDL
MODEL 2
REMARK VINA RESULT:     -11.4      3.166      4.255
REMARK SMILES C[C@@H](C(=O)NCCCCNC(=O)c1ccc(-c2c3nc(c(-c4cccc(S(=O)(=O)[O-])c4F)c4ccc([nH]4)c(-c4cccc(S(=O)(=O)[O-])c4F)c4nc(c(-c5cccc(S(=O)(=O)[O-])c5F)c5ccc2[nH]5)C=C4)C=C3)cc1)c1ccn(C(F)F)c(=O)c1
REMARK SMILES IDX 8 1 7 2 6 3 5 4 3 5 4 6 2 8 1 9 76 10 77 11 85 12 78 13
REMARK SMILES IDX 83 14 79 15 84 16 80 17 81 18 82 19 9 20 10 21 11 22 12 24
REMARK SMILES IDX 13 25 14 26 75 27 15 28 74 29 16 30 17 31 18 32 68 33 19 34
REMARK SMILES IDX 73 35 67 36 69 37 20 38 72 39 66 40 65 41 21 43 53 44 33 45
REMARK SMILES IDX 52 46 34 47 37 48 51 49 70 50 35 51 36 52 50 54 71 55 38 56
REMARK SMILES IDX 22 57 23 58 31 59 24 60 26 61 32 62 25 63 27 64 28 65 29 66
REMARK SMILES IDX 30 67 54 68 55 69 63 70 56 71 58 72 64 73 57 74 59 75 60 76
REMARK SMILES IDX 61 77 62 78 39 79 40 80 48 81 41 82 43 83 49 84 42 85 44 86
REMARK SMILES IDX 45 87 46 88 47 89
REMARK H PARENT 5 7 10 23 69 42 37 53
REMARK Flexibility Score: inf
ROOT
ATOM      1  C   UNL A   1      32.970  27.678  26.642  1.00  0.00     0.023 C 
ENDROOT
BRANCH   1   2
ATOM      2  C   UNL A   1      32.097  27.341  25.430  1.00  0.00     0.023 C 
BRANCH   2   3
ATOM      3  C   UNL A   1      30.743  26.705  25.755  1.00  0.00     0.116 C 
BRANCH   3   4
ATOM      4  N   UNL A   1      30.882  25.593  26.673  1.00  0.00    -0.356 N 
ATOM      5  C   UNL A   1      31.370  24.332  26.491  1.00  0.00     0.227 C 
ATOM      6  O   UNL A   1      31.252  23.573  27.453  1.00  0.00    -0.274 OA
ATOM      7  H   UNL A   1      30.569  25.780  27.588  1.00  0.00     0.163 HD
BRANCH   5   8
ATOM      8  C   UNL A   1      32.020  23.929  25.141  1.00  0.00     0.105 C 
ATOM      9  C   UNL A   1      30.980  23.282  24.219  1.00  0.00     0.023 C 
BRANCH   8  10
ATOM     10  C   UNL A   1      33.271  23.043  25.169  1.00  0.00    -0.029 A 
ATOM     11  C   UNL A   1      33.297  21.701  24.618  1.00  0.00     0.023 A 
ATOM     12  C   UNL A   1      34.424  23.529  25.675  1.00  0.00     0.076 A 
ATOM     13  C   UNL A   1      34.414  20.964  24.638  1.00  0.00     0.095 A 
ATOM     14  C   UNL A   1      35.692  22.745  25.657  1.00  0.00     0.255 A 
ATOM     15  N   UNL A   1      35.595  21.464  25.150  1.00  0.00    -0.258 N 
ATOM     16  O   UNL A   1      36.715  23.277  26.076  1.00  0.00    -0.269 OA
BRANCH  15  17
ATOM     17  C   UNL A   1      36.793  20.669  25.120  1.00  0.00     0.451 C 
ATOM     18  F   UNL A   1      36.502  19.357  24.941  1.00  0.00    -0.185 F 
ATOM     19  F   UNL A   1      37.616  21.054  24.115  1.00  0.00    -0.185 F 
ENDBRANCH  15  17
ENDBRANCH   8  10
ENDBRANCH   5   8
ENDBRANCH   3   4
ENDBRANCH   2   3
ENDBRANCH   1   2
BRANCH   1  20
ATOM     20  C   UNL A   1      34.165  28.580  26.361  1.00  0.00     0.116 C 
BRANCH  20  21
ATOM     21  N   UNL A   1      33.903  29.977  26.672  1.00  0.00    -0.352 N 
ATOM     22  C   UNL A   1      34.594  30.820  27.508  1.00  0.00     0.251 C 
ATOM     23  H   UNL A   1      33.122  30.372  26.222  1.00  0.00     0.163 HD
ATOM     24  O   UNL A   1      34.147  31.938  27.752  1.00  0.00    -0.269 OA
BRANCH  22  25
ATOM     25  C   UNL A   1      35.856  30.369  28.134  1.00  0.00     0.039 A 
ATOM     26  C   UNL A   1      35.803  29.739  29.381  1.00  0.00     0.014 A 
ATOM     27  C   UNL A   1      37.083  30.552  27.492  1.00  0.00     0.014 A 
ATOM     28  C   UNL A   1      36.974  29.235  29.953  1.00  0.00     0.010 A 
ATOM     29  C   UNL A   1      38.237  29.988  28.030  1.00  0.00     0.010 A 
ATOM     30  C   UNL A   1      38.195  29.325  29.266  1.00  0.00    -0.014 A 
BRANCH  30  31
ATOM     31  C   UNL A   1      39.437  28.719  29.813  1.00  0.00     0.031 A 
ATOM     32  C   UNL A   1      40.101  29.313  31.025  1.00  0.00     0.074 A 
ATOM     33  C   UNL A   1      40.020  27.695  29.159  1.00  0.00     0.049 A 
ATOM     34  N   UNL A   1      41.222  28.968  31.603  1.00  0.00    -0.248 NA
ATOM     35  C   UNL A   1      39.432  30.464  31.656  1.00  0.00     0.031 C 
ATOM     36  C   UNL A   1      39.520  27.083  27.925  1.00  0.00     0.029 A 
ATOM     37  N   UNL A   1      41.178  27.005  29.424  1.00  0.00    -0.354 N 
ATOM     38  C   UNL A   1      41.414  29.877  32.637  1.00  0.00     0.074 A 
ATOM     39  C   UNL A   1      40.308  30.810  32.588  1.00  0.00     0.031 C 
ATOM     40  C   UNL A   1      40.365  26.113  27.542  1.00  0.00     0.029 A 
ATOM     41  C   UNL A   1      41.479  26.048  28.483  1.00  0.00     0.049 A 
ATOM     42  H   UNL A   1      41.740  27.180  30.212  1.00  0.00     0.167 HD
ATOM     43  C   UNL A   1      42.402  29.915  33.562  1.00  0.00     0.034 A 
ATOM     44  C   UNL A   1      42.535  25.216  28.384  1.00  0.00     0.034 A 
ATOM     45  C   UNL A   1      43.471  28.957  33.638  1.00  0.00     0.049 A 
ATOM     46  C   UNL A   1      43.591  25.246  29.455  1.00  0.00     0.074 A 
ATOM     47  C   UNL A   1      44.468  28.855  34.593  1.00  0.00     0.029 A 
ATOM     48  N   UNL A   1      43.687  27.936  32.725  1.00  0.00    -0.354 N 
ATOM     49  N   UNL A   1      43.666  26.008  30.519  1.00  0.00    -0.248 NA
ATOM     50  C   UNL A   1      44.689  24.275  29.334  1.00  0.00     0.031 C 
ATOM     51  C   UNL A   1      45.296  27.782  34.247  1.00  0.00     0.029 A 
ATOM     52  C   UNL A   1      44.801  27.202  33.090  1.00  0.00     0.049 A 
ATOM     53  H   UNL A   1      43.128  27.759  31.934  1.00  0.00     0.167 HD
ATOM     54  C   UNL A   1      44.793  25.585  31.213  1.00  0.00     0.074 A 
ATOM     55  C   UNL A   1      45.360  24.486  30.459  1.00  0.00     0.031 C 
ATOM     56  C   UNL A   1      45.320  26.072  32.363  1.00  0.00     0.034 A 
BRANCH  43  57
ATOM     57  C   UNL A   1      42.342  30.997  34.608  1.00  0.00     0.023 A 
ATOM     58  C   UNL A   1      41.718  30.731  35.844  1.00  0.00     0.012 A 
ATOM     59  C   UNL A   1      42.953  32.248  34.398  1.00  0.00     0.148 A 
ATOM     60  C   UNL A   1      41.675  31.702  36.843  1.00  0.00     0.002 A 
ATOM     61  C   UNL A   1      42.945  33.197  35.414  1.00  0.00     0.091 A 
ATOM     62  F   UNL A   1      43.523  32.492  33.209  1.00  0.00    -0.205 F 
ATOM     63  C   UNL A   1      42.296  32.930  36.632  1.00  0.00     0.022 A 
BRANCH  61  64
ATOM     64  S   UNL A   1      43.784  34.779  35.271  1.00  0.00     0.127 S 
ATOM     65  O   UNL A   1      45.179  34.362  35.139  1.00  0.00    -0.237 OA
ATOM     66  O   UNL A   1      43.195  35.331  34.050  1.00  0.00    -0.237 OA
ATOM     67  O   UNL A   1      43.462  35.515  36.485  1.00  0.00    -0.744 OA
ENDBRANCH  61  64
ENDBRANCH  43  57
BRANCH  44  68
ATOM     68  C   UNL A   1      42.605  24.233  27.267  1.00  0.00     0.023 A 
ATOM     69  C   UNL A   1      43.305  24.574  26.093  1.00  0.00     0.012 A 
ATOM     70  C   UNL A   1      42.012  22.960  27.366  1.00  0.00     0.148 A 
ATOM     71  C   UNL A   1      43.384  23.679  25.025  1.00  0.00     0.002 A 
ATOM     72  C   UNL A   1      42.142  22.051  26.322  1.00  0.00     0.091 A 
ATOM     73  F   UNL A   1      41.341  22.658  28.486  1.00  0.00    -0.205 F 
ATOM     74  C   UNL A   1      42.813  22.415  25.143  1.00  0.00     0.022 A 
BRANCH  72  75
ATOM     75  S   UNL A   1      41.554  20.358  26.442  1.00  0.00     0.127 S 
ATOM     76  O   UNL A   1      42.055  19.959  27.753  1.00  0.00    -0.237 OA
ATOM     77  O   UNL A   1      40.104  20.535  26.362  1.00  0.00    -0.237 OA
ATOM     78  O   UNL A   1      42.134  19.663  25.300  1.00  0.00    -0.744 OA
ENDBRANCH  72  75
ENDBRANCH  44  68
BRANCH  56  79
ATOM     79  C   UNL A   1      46.553  25.400  32.910  1.00  0.00     0.023 A 
ATOM     80  C   UNL A   1      47.828  25.871  32.543  1.00  0.00     0.012 A 
ATOM     81  C   UNL A   1      46.443  24.358  33.852  1.00  0.00     0.148 A 
ATOM     82  C   UNL A   1      48.977  25.294  33.082  1.00  0.00     0.002 A 
ATOM     83  C   UNL A   1      47.591  23.821  34.421  1.00  0.00     0.091 A 
ATOM     84  F   UNL A   1      45.221  23.912  34.174  1.00  0.00    -0.205 F 
ATOM     85  C   UNL A   1      48.860  24.280  34.029  1.00  0.00     0.022 A 
BRANCH  83  86
ATOM     86  S   UNL A   1      47.532  22.580  35.719  1.00  0.00     0.127 S 
ATOM     87  O   UNL A   1      47.444  21.342  34.944  1.00  0.00    -0.237 OA
ATOM     88  O   UNL A   1      48.809  22.781  36.403  1.00  0.00    -0.237 OA
ATOM     89  O   UNL A   1      46.360  22.899  36.524  1.00  0.00    -0.744 OA
ENDBRANCH  83  86
ENDBRANCH  56  79
ENDBRANCH  30  31
ENDBRANCH  22  25
ENDBRANCH  20  21
ENDBRANCH   1  20
TORSDOF 16
ENDMDL
MODEL 3
REMARK VINA RESULT:     -11.4      4.173      6.688
REMARK SMILES C[C@@H](C(=O)NCCCCNC(=O)c1ccc(-c2c3nc(c(-c4cccc(S(=O)(=O)[O-])c4F)c4ccc([nH]4)c(-c4cccc(S(=O)(=O)[O-])c4F)c4nc(c(-c5cccc(S(=O)(=O)[O-])c5F)c5ccc2[nH]5)C=C4)C=C3)cc1)c1ccn(C(F)F)c(=O)c1
REMARK SMILES IDX 8 1 7 2 6 3 5 4 3 5 4 6 2 8 1 9 76 10 77 11 85 12 78 13
REMARK SMILES IDX 83 14 79 15 84 16 80 17 81 18 82 19 9 20 10 21 11 22 12 24
REMARK SMILES IDX 13 25 14 26 75 27 15 28 74 29 16 30 17 31 18 32 68 33 19 34
REMARK SMILES IDX 73 35 67 36 69 37 20 38 72 39 66 40 65 41 21 43 53 44 33 45
REMARK SMILES IDX 52 46 34 47 37 48 51 49 70 50 35 51 36 52 50 54 71 55 38 56
REMARK SMILES IDX 22 57 23 58 31 59 24 60 26 61 32 62 25 63 27 64 28 65 29 66
REMARK SMILES IDX 30 67 54 68 55 69 63 70 56 71 58 72 64 73 57 74 59 75 60 76
REMARK SMILES IDX 61 77 62 78 39 79 40 80 48 81 41 82 43 83 49 84 42 85 44 86
REMARK SMILES IDX 45 87 46 88 47 89
REMARK H PARENT 5 7 10 23 69 42 37 53
REMARK Flexibility Score: inf
ROOT
ATOM      1  C   UNL A   1      34.503  34.837  28.147  1.00  0.00     0.023 C 
ENDROOT
BRANCH   1   2
ATOM      2  C   UNL A   1      33.650  35.792  28.986  1.00  0.00     0.023 C 
BRANCH   2   3
ATOM      3  C   UNL A   1      33.158  35.229  30.321  1.00  0.00     0.116 C 
BRANCH   3   4
ATOM      4  N   UNL A   1      33.669  35.991  31.443  1.00  0.00    -0.356 N 
ATOM      5  C   UNL A   1      34.587  35.675  32.401  1.00  0.00     0.227 C 
ATOM      6  O   UNL A   1      34.729  36.509  33.296  1.00  0.00    -0.274 OA
ATOM      7  H   UNL A   1      33.287  36.894  31.527  1.00  0.00     0.163 HD
BRANCH   5   8
ATOM      8  C   UNL A   1      35.373  34.339  32.326  1.00  0.00     0.105 C 
ATOM      9  C   UNL A   1      35.017  33.441  33.517  1.00  0.00     0.023 C 
BRANCH   8  10
ATOM     10  C   UNL A   1      36.899  34.396  32.192  1.00  0.00    -0.029 A 
ATOM     11  C   UNL A   1      37.787  34.474  33.337  1.00  0.00     0.023 A 
ATOM     12  C   UNL A   1      37.466  34.319  30.970  1.00  0.00     0.076 A 
ATOM     13  C   UNL A   1      39.115  34.498  33.184  1.00  0.00     0.095 A 
ATOM     14  C   UNL A   1      38.945  34.289  30.782  1.00  0.00     0.255 A 
ATOM     15  N   UNL A   1      39.696  34.413  31.935  1.00  0.00    -0.258 N 
ATOM     16  O   UNL A   1      39.388  34.154  29.646  1.00  0.00    -0.269 OA
BRANCH  15  17
ATOM     17  C   UNL A   1      41.128  34.397  31.799  1.00  0.00     0.451 C 
ATOM     18  F   UNL A   1      41.722  35.058  32.823  1.00  0.00    -0.185 F 
ATOM     19  F   UNL A   1      41.608  33.129  31.787  1.00  0.00    -0.185 F 
ENDBRANCH  15  17
ENDBRANCH   8  10
ENDBRANCH   5   8
ENDBRANCH   3   4
ENDBRANCH   2   3
ENDBRANCH   1   2
BRANCH   1  20
ATOM     20  C   UNL A   1      34.574  33.402  28.652  1.00  0.00     0.116 C 
BRANCH  20  21
ATOM     21  N   UNL A   1      33.826  32.473  27.820  1.00  0.00    -0.352 N 
ATOM     22  C   UNL A   1      34.153  31.191  27.447  1.00  0.00     0.251 C 
ATOM     23  H   UNL A   1      32.968  32.809  27.474  1.00  0.00     0.163 HD
ATOM     24  O   UNL A   1      33.458  30.599  26.625  1.00  0.00    -0.269 OA
BRANCH  22  25
ATOM     25  C   UNL A   1      35.356  30.542  28.013  1.00  0.00     0.039 A 
ATOM     26  C   UNL A   1      36.573  30.672  27.339  1.00  0.00     0.014 A 
ATOM     27  C   UNL A   1      35.288  29.820  29.207  1.00  0.00     0.014 A 
ATOM     28  C   UNL A   1      37.735  30.133  27.897  1.00  0.00     0.010 A 
ATOM     29  C   UNL A   1      36.458  29.345  29.795  1.00  0.00     0.010 A 
ATOM     30  C   UNL A   1      37.692  29.495  29.147  1.00  0.00    -0.014 A 
BRANCH  30  31
ATOM     31  C   UNL A   1      38.928  28.993  29.801  1.00  0.00     0.031 A 
ATOM     32  C   UNL A   1      39.408  29.605  31.089  1.00  0.00     0.074 A 
ATOM     33  C   UNL A   1      39.671  28.051  29.185  1.00  0.00     0.049 A 
ATOM     34  N   UNL A   1      40.496  29.349  31.769  1.00  0.00    -0.248 NA
ATOM     35  C   UNL A   1      38.570  30.665  31.677  1.00  0.00     0.031 C 
ATOM     36  C   UNL A   1      39.357  27.437  27.892  1.00  0.00     0.029 A 
ATOM     37  N   UNL A   1      40.859  27.467  29.548  1.00  0.00    -0.354 N 
ATOM     38  C   UNL A   1      40.494  30.236  32.839  1.00  0.00     0.074 A 
ATOM     39  C   UNL A   1      39.312  31.060  32.701  1.00  0.00     0.031 C 
ATOM     40  C   UNL A   1      40.327  26.566  27.573  1.00  0.00     0.029 A 
ATOM     41  C   UNL A   1      41.344  26.576  28.620  1.00  0.00     0.049 A 
ATOM     42  H   UNL A   1      41.321  27.668  30.394  1.00  0.00     0.167 HD
ATOM     43  C   UNL A   1      41.378  30.338  33.859  1.00  0.00     0.034 A 
ATOM     44  C   UNL A   1      42.481  25.852  28.608  1.00  0.00     0.034 A 
ATOM     45  C   UNL A   1      42.524  29.484  34.020  1.00  0.00     0.049 A 
ATOM     46  C   UNL A   1      43.420  25.947  29.780  1.00  0.00     0.074 A 
ATOM     47  C   UNL A   1      43.428  29.445  35.068  1.00  0.00     0.029 A 
ATOM     48  N   UNL A   1      42.928  28.520  33.108  1.00  0.00    -0.354 N 
ATOM     49  N   UNL A   1      43.314  26.676  30.864  1.00  0.00    -0.248 NA
ATOM     50  C   UNL A   1      44.615  25.090  29.747  1.00  0.00     0.031 C 
ATOM     51  C   UNL A   1      44.388  28.469  34.781  1.00  0.00     0.029 A 
ATOM     52  C   UNL A   1      44.068  27.884  33.566  1.00  0.00     0.049 A 
ATOM     53  H   UNL A   1      42.470  28.318  32.261  1.00  0.00     0.167 HD
ATOM     54  C   UNL A   1      44.404  26.339  31.659  1.00  0.00     0.074 A 
ATOM     55  C   UNL A   1      45.148  25.326  30.939  1.00  0.00     0.031 C 
ATOM     56  C   UNL A   1      44.764  26.834  32.868  1.00  0.00     0.034 A 
BRANCH  43  57
ATOM     57  C   UNL A   1      41.110  31.373  34.920  1.00  0.00     0.023 A 
ATOM     58  C   UNL A   1      41.948  32.504  35.011  1.00  0.00     0.012 A 
ATOM     59  C   UNL A   1      40.002  31.262  35.781  1.00  0.00     0.148 A 
ATOM     60  C   UNL A   1      41.705  33.493  35.963  1.00  0.00     0.002 A 
ATOM     61  C   UNL A   1      39.741  32.274  36.699  1.00  0.00     0.091 A 
ATOM     62  F   UNL A   1      39.229  30.170  35.695  1.00  0.00    -0.205 F 
ATOM     63  C   UNL A   1      40.597  33.383  36.799  1.00  0.00     0.022 A 
BRANCH  61  64
ATOM     64  S   UNL A   1      38.296  32.265  37.766  1.00  0.00     0.127 S 
ATOM     65  O   UNL A   1      37.521  33.380  37.224  1.00  0.00    -0.237 OA
ATOM     66  O   UNL A   1      37.726  30.942  37.503  1.00  0.00    -0.237 OA
ATOM     67  O   UNL A   1      38.797  32.449  39.121  1.00  0.00    -0.744 OA
ENDBRANCH  61  64
ENDBRANCH  43  57
BRANCH  44  68
ATOM     68  C   UNL A   1      42.757  24.919  27.480  1.00  0.00     0.023 A 
ATOM     69  C   UNL A   1      43.586  25.344  26.423  1.00  0.00     0.012 A 
ATOM     70  C   UNL A   1      42.233  23.613  27.457  1.00  0.00     0.148 A 
ATOM     71  C   UNL A   1      43.860  24.497  25.348  1.00  0.00     0.002 A 
ATOM     72  C   UNL A   1      42.554  22.755  26.412  1.00  0.00     0.091 A 
ATOM     73  F   UNL A   1      41.437  23.231  28.466  1.00  0.00    -0.205 F 
ATOM     74  C   UNL A   1      43.353  23.200  25.347  1.00  0.00     0.022 A 
BRANCH  72  75
ATOM     75  S   UNL A   1      42.055  21.029  26.397  1.00  0.00     0.127 S 
ATOM     76  O   UNL A   1      40.634  21.131  26.079  1.00  0.00    -0.237 OA
ATOM     77  O   UNL A   1      42.889  20.482  25.327  1.00  0.00    -0.237 OA
ATOM     78  O   UNL A   1      42.374  20.519  27.724  1.00  0.00    -0.744 OA
ENDBRANCH  72  75
ENDBRANCH  44  68
BRANCH  56  79
ATOM     79  C   UNL A   1      45.998  26.266  33.520  1.00  0.00     0.023 A 
ATOM     80  C   UNL A   1      47.245  26.891  33.326  1.00  0.00     0.012 A 
ATOM     81  C   UNL A   1      45.904  25.161  34.389  1.00  0.00     0.148 A 
ATOM     82  C   UNL A   1      48.386  26.408  33.966  1.00  0.00     0.002 A 
ATOM     83  C   UNL A   1      47.036  24.715  35.061  1.00  0.00     0.091 A 
ATOM     84  F   UNL A   1      44.712  24.568  34.545  1.00  0.00    -0.205 F 
ATOM     85  C   UNL A   1      48.280  25.330  34.842  1.00  0.00     0.022 A 
BRANCH  83  86
ATOM     86  S   UNL A   1      46.975  23.397  36.279  1.00  0.00     0.127 S 
ATOM     87  O   UNL A   1      46.563  22.255  35.464  1.00  0.00    -0.237 OA
ATOM     88  O   UNL A   1      48.359  23.341  36.750  1.00  0.00    -0.237 OA
ATOM     89  O   UNL A   1      46.013  23.827  37.286  1.00  0.00    -0.744 OA
ENDBRANCH  83  86
ENDBRANCH  56  79
ENDBRANCH  30  31
ENDBRANCH  22  25
ENDBRANCH  20  21
ENDBRANCH   1  20
TORSDOF 16
ENDMDL
