MODEL 1
REMARK VINA RESULT:     -11.5      0.000      0.000
REMARK SMILES [NH3+][C@H](C(=O)NCCCCNC(=O)c1ccc(-c2c3nc(c(-c4cccc(S(=O)(=O)[O-])c4F)c4ccc([nH]4)c(-c4cccc(S(=O)(=O)[O-])c4F)c4nc(c(-c5cccc(S(=O)(=O)[O-])c5F)c5ccc2[nH]5)C=C4)C=C3)cc1)c1c(F)cc(I)cc1F
REMARK SMILES IDX 8 1 7 2 6 3 5 4 3 5 4 6 2 8 1 9 76 13 77 14 83 15 78 16
REMARK SMILES IDX 79 17 82 18 84 19 80 20 81 21 9 22 10 23 11 24 12 26 13 27
REMARK SMILES IDX 14 28 75 29 15 30 74 31 16 32 17 33 18 34 68 35 19 36 73 37
REMARK SMILES IDX 67 38 69 39 20 40 72 41 66 42 65 43 21 45 53 46 33 47 52 48
REMARK SMILES IDX 34 49 37 50 51 51 70 52 35 53 36 54 50 56 71 57 38 58 22 59
REMARK SMILES IDX 23 60 31 61 24 62 26 63 32 64 25 65 27 66 28 67 29 68 30 69
REMARK SMILES IDX 54 70 55 71 63 72 56 73 58 74 64 75 57 76 59 77 60 78 61 79
REMARK SMILES IDX 62 80 39 81 40 82 48 83 41 84 43 85 49 86 42 87 44 88 45 89
REMARK SMILES IDX 46 90 47 91
REMARK H PARENT 5 7 1 10 1 11 1 12 10 25 69 44 37 55
REMARK Flexibility Score: inf
ROOT
ATOM      1  C   UNL A   1      32.703  29.304  25.242  1.00  0.00     0.023 C 
ENDROOT
BRANCH   1   2
ATOM      2  C   UNL A   1      33.892  28.354  25.113  1.00  0.00     0.023 C 
BRANCH   2   3
ATOM      3  C   UNL A   1      33.514  26.883  24.942  1.00  0.00     0.116 C 
BRANCH   3   4
ATOM      4  N   UNL A   1      32.354  26.540  25.744  1.00  0.00    -0.351 N 
ATOM      5  C   UNL A   1      31.095  26.192  25.342  1.00  0.00     0.283 C 
ATOM      6  O   UNL A   1      30.243  25.997  26.214  1.00  0.00    -0.268 OA
ATOM      7  H   UNL A   1      32.495  26.560  26.718  1.00  0.00     0.163 HD
BRANCH   5   8
ATOM      8  C   UNL A   1      30.770  25.997  23.832  1.00  0.00     0.308 C 
BRANCH   8   9
ATOM      9  N   UNL A   1      29.937  24.774  23.679  1.00  0.00    -0.343 N 
ATOM     10  H   UNL A   1      30.449  23.968  24.036  1.00  0.00     0.345 HD
ATOM     11  H   UNL A   1      29.724  24.630  22.692  1.00  0.00     0.345 HD
ATOM     12  H   UNL A   1      29.069  24.886  24.203  1.00  0.00     0.345 HD
ENDBRANCH   8   9
BRANCH   8  13
ATOM     13  C   UNL A   1      30.101  27.220  23.247  1.00  0.00     0.090 A 
ATOM     14  C   UNL A   1      28.760  27.534  23.483  1.00  0.00     0.136 A 
ATOM     15  C   UNL A   1      30.844  28.135  22.497  1.00  0.00     0.136 A 
ATOM     16  F   UNL A   1      27.982  26.696  24.184  1.00  0.00    -0.206 F 
ATOM     17  C   UNL A   1      28.184  28.714  23.006  1.00  0.00     0.054 A 
ATOM     18  C   UNL A   1      30.303  29.336  22.042  1.00  0.00     0.054 A 
ATOM     19  F   UNL A   1      32.131  27.881  22.217  1.00  0.00    -0.206 F 
ATOM     20  C   UNL A   1      28.968  29.622  22.301  1.00  0.00     0.019 A 
ATOM     21  I   UNL A   1      28.146  31.409  21.641  1.00  0.00    -0.044 I 
ENDBRANCH   8  13
ENDBRANCH   5   8
ENDBRANCH   3   4
ENDBRANCH   2   3
ENDBRANCH   1   2
BRANCH   1  22
ATOM     22  C   UNL A   1      32.412  29.782  26.659  1.00  0.00     0.116 C 
BRANCH  22  23
ATOM     23  N   UNL A   1      32.359  31.233  26.786  1.00  0.00    -0.352 N 
ATOM     24  C   UNL A   1      33.283  32.080  27.358  1.00  0.00     0.251 C 
ATOM     25  H   UNL A   1      31.555  31.665  26.416  1.00  0.00     0.163 HD
ATOM     26  O   UNL A   1      33.043  33.273  27.472  1.00  0.00    -0.269 OA
BRANCH  24  27
ATOM     27  C   UNL A   1      34.553  31.516  27.867  1.00  0.00     0.039 A 
ATOM     28  C   UNL A   1      35.659  32.356  28.004  1.00  0.00     0.014 A 
ATOM     29  C   UNL A   1      34.626  30.178  28.261  1.00  0.00     0.014 A 
ATOM     30  C   UNL A   1      36.820  31.871  28.611  1.00  0.00     0.010 A 
ATOM     31  C   UNL A   1      35.749  29.723  28.940  1.00  0.00     0.010 A 
ATOM     32  C   UNL A   1      36.859  30.563  29.120  1.00  0.00    -0.014 A 
BRANCH  32  33
ATOM     33  C   UNL A   1      38.043  30.048  29.854  1.00  0.00     0.031 A 
ATOM     34  C   UNL A   1      38.315  30.512  31.261  1.00  0.00     0.074 A 
ATOM     35  C   UNL A   1      38.927  29.252  29.221  1.00  0.00     0.049 A 
ATOM     36  N   UNL A   1      39.336  30.245  32.033  1.00  0.00    -0.248 NA
ATOM     37  C   UNL A   1      37.331  31.426  31.864  1.00  0.00     0.031 C 
ATOM     38  C   UNL A   1      38.824  28.809  27.829  1.00  0.00     0.029 A 
ATOM     39  N   UNL A   1      40.104  28.697  29.657  1.00  0.00    -0.354 N 
ATOM     40  C   UNL A   1      39.139  30.987  33.191  1.00  0.00     0.074 A 
ATOM     41  C   UNL A   1      37.922  31.747  33.005  1.00  0.00     0.031 C 
ATOM     42  C   UNL A   1      39.888  28.048  27.528  1.00  0.00     0.029 A 
ATOM     43  C   UNL A   1      40.763  27.967  28.694  1.00  0.00     0.049 A 
ATOM     44  H   UNL A   1      40.446  28.810  30.575  1.00  0.00     0.167 HD
ATOM     45  C   UNL A   1      39.883  31.010  34.322  1.00  0.00     0.034 A 
ATOM     46  C   UNL A   1      41.938  27.311  28.745  1.00  0.00     0.034 A 
ATOM     47  C   UNL A   1      41.054  30.204  34.526  1.00  0.00     0.049 A 
ATOM     48  C   UNL A   1      42.709  27.295  30.038  1.00  0.00     0.074 A 
ATOM     49  C   UNL A   1      41.818  30.073  35.673  1.00  0.00     0.029 A 
ATOM     50  N   UNL A   1      41.631  29.390  33.565  1.00  0.00    -0.354 N 
ATOM     51  N   UNL A   1      42.416  27.869  31.180  1.00  0.00    -0.248 NA
ATOM     52  C   UNL A   1      43.953  26.511  30.060  1.00  0.00     0.031 C 
ATOM     53  C   UNL A   1      42.866  29.186  35.398  1.00  0.00     0.029 A 
ATOM     54  C   UNL A   1      42.744  28.755  34.088  1.00  0.00     0.049 A 
ATOM     55  H   UNL A   1      41.299  29.280  32.645  1.00  0.00     0.167 HD
ATOM     56  C   UNL A   1      43.418  27.489  32.065  1.00  0.00     0.074 A 
ATOM     57  C   UNL A   1      44.314  26.616  31.333  1.00  0.00     0.031 C 
ATOM     58  C   UNL A   1      43.592  27.844  33.362  1.00  0.00     0.034 A 
BRANCH  45  59
ATOM     59  C   UNL A   1      39.409  31.885  35.451  1.00  0.00     0.023 A 
ATOM     60  C   UNL A   1      38.534  31.351  36.421  1.00  0.00     0.012 A 
ATOM     61  C   UNL A   1      39.858  33.213  35.583  1.00  0.00     0.148 A 
ATOM     62  C   UNL A   1      38.087  32.133  37.483  1.00  0.00     0.002 A 
ATOM     63  C   UNL A   1      39.442  33.974  36.671  1.00  0.00     0.091 A 
ATOM     64  F   UNL A   1      40.669  33.712  34.640  1.00  0.00    -0.205 F 
ATOM     65  C   UNL A   1      38.548  33.440  37.614  1.00  0.00     0.022 A 
BRANCH  63  66
ATOM     66  S   UNL A   1      40.038  35.642  36.970  1.00  0.00     0.127 S 
ATOM     67  O   UNL A   1      39.384  35.965  38.237  1.00  0.00    -0.237 OA
ATOM     68  O   UNL A   1      41.484  35.441  37.065  1.00  0.00    -0.237 OA
ATOM     69  O   UNL A   1      39.610  36.431  35.824  1.00  0.00    -0.744 OA
ENDBRANCH  63  66
ENDBRANCH  45  59
BRANCH  46  70
ATOM     70  C   UNL A   1      42.415  26.544  27.559  1.00  0.00     0.023 A 
ATOM     71  C   UNL A   1      43.213  27.193  26.596  1.00  0.00     0.012 A 
ATOM     72  C   UNL A   1      42.114  25.178  27.394  1.00  0.00     0.148 A 
ATOM     73  C   UNL A   1      43.678  26.504  25.475  1.00  0.00     0.002 A 
ATOM     74  C   UNL A   1      42.624  24.485  26.301  1.00  0.00     0.091 A 
ATOM     75  F   UNL A   1      41.343  24.581  28.314  1.00  0.00    -0.205 F 
ATOM     76  C   UNL A   1      43.392  25.150  25.333  1.00  0.00     0.022 A 
BRANCH  74  77
ATOM     77  S   UNL A   1      42.416  22.711  26.107  1.00  0.00     0.127 S 
ATOM     78  O   UNL A   1      43.171  22.194  27.245  1.00  0.00    -0.237 OA
ATOM     79  O   UNL A   1      40.964  22.562  26.212  1.00  0.00    -0.237 OA
ATOM     80  O   UNL A   1      42.954  22.397  24.790  1.00  0.00    -0.744 OA
ENDBRANCH  74  77
ENDBRANCH  46  70
BRANCH  58  81
ATOM     81  C   UNL A   1      44.778  27.270  34.091  1.00  0.00     0.023 A 
ATOM     82  C   UNL A   1      45.993  27.982  34.113  1.00  0.00     0.012 A 
ATOM     83  C   UNL A   1      44.663  26.071  34.820  1.00  0.00     0.148 A 
ATOM     84  C   UNL A   1      47.086  27.495  34.828  1.00  0.00     0.002 A 
ATOM     85  C   UNL A   1      45.742  25.615  35.569  1.00  0.00     0.091 A 
ATOM     86  F   UNL A   1      43.505  25.398  34.769  1.00  0.00    -0.205 F 
ATOM     87  C   UNL A   1      46.957  26.320  35.565  1.00  0.00     0.022 A 
BRANCH  85  88
ATOM     88  S   UNL A   1      45.634  24.164  36.622  1.00  0.00     0.127 S 
ATOM     89  O   UNL A   1      45.278  23.123  35.661  1.00  0.00    -0.237 OA
ATOM     90  O   UNL A   1      46.993  24.064  37.156  1.00  0.00    -0.237 OA
ATOM     91  O   UNL A   1      44.617  24.470  37.620  1.00  0.00    -0.744 OA
ENDBRANCH  85  88
ENDBRANCH  58  81
ENDBRANCH  32  33
ENDBRANCH  24  27
ENDBRANCH  22  23
ENDBRANCH   1  22
TORSDOF 16
ENDMDL
MODEL 2
REMARK VINA RESULT:     -11.3      5.941     10.625
REMARK SMILES [NH3+][C@H](C(=O)NCCCCNC(=O)c1ccc(-c2c3nc(c(-c4cccc(S(=O)(=O)[O-])c4F)c4ccc([nH]4)c(-c4cccc(S(=O)(=O)[O-])c4F)c4nc(c(-c5cccc(S(=O)(=O)[O-])c5F)c5ccc2[nH]5)C=C4)C=C3)cc1)c1c(F)cc(I)cc1F
REMARK SMILES IDX 8 1 7 2 6 3 5 4 3 5 4 6 2 8 1 9 76 13 77 14 83 15 78 16
REMARK SMILES IDX 79 17 82 18 84 19 80 20 81 21 9 22 10 23 11 24 12 26 13 27
REMARK SMILES IDX 14 28 75 29 15 30 74 31 16 32 17 33 18 34 68 35 19 36 73 37
REMARK SMILES IDX 67 38 69 39 20 40 72 41 66 42 65 43 21 45 53 46 33 47 52 48
REMARK SMILES IDX 34 49 37 50 51 51 70 52 35 53 36 54 50 56 71 57 38 58 22 59
REMARK SMILES IDX 23 60 31 61 24 62 26 63 32 64 25 65 27 66 28 67 29 68 30 69
REMARK SMILES IDX 54 70 55 71 63 72 56 73 58 74 64 75 57 76 59 77 60 78 61 79
REMARK SMILES IDX 62 80 39 81 40 82 48 83 41 84 43 85 49 86 42 87 44 88 45 89
REMARK SMILES IDX 46 90 47 91
REMARK H PARENT 5 7 1 10 1 11 1 12 10 25 69 44 37 55
REMARK Flexibility Score: inf
ROOT
ATOM      1  C   UNL A   1      35.980  22.112  25.659  1.00  0.00     0.023 C 
ENDROOT
BRANCH   1   2
ATOM      2  C   UNL A   1      35.612  23.515  26.139  1.00  0.00     0.023 C 
BRANCH   2   3
ATOM      3  C   UNL A   1      34.358  24.100  25.490  1.00  0.00     0.116 C 
BRANCH   3   4
ATOM      4  N   UNL A   1      34.399  23.964  24.046  1.00  0.00    -0.351 N 
ATOM      5  C   UNL A   1      33.526  23.326  23.211  1.00  0.00     0.283 C 
ATOM      6  O   UNL A   1      33.799  23.290  22.007  1.00  0.00    -0.268 OA
ATOM      7  H   UNL A   1      35.167  24.394  23.605  1.00  0.00     0.163 HD
BRANCH   5   8
ATOM      8  C   UNL A   1      32.204  22.713  23.761  1.00  0.00     0.308 C 
BRANCH   8   9
ATOM      9  N   UNL A   1      31.102  23.036  22.818  1.00  0.00    -0.343 N 
ATOM     10  H   UNL A   1      31.444  22.973  21.859  1.00  0.00     0.345 HD
ATOM     11  H   UNL A   1      30.767  23.982  22.998  1.00  0.00     0.345 HD
ATOM     12  H   UNL A   1      30.337  22.374  22.949  1.00  0.00     0.345 HD
ENDBRANCH   8   9
BRANCH   8  13
ATOM     13  C   UNL A   1      32.339  21.226  23.995  1.00  0.00     0.090 A 
ATOM     14  C   UNL A   1      32.292  20.290  22.959  1.00  0.00     0.136 A 
ATOM     15  C   UNL A   1      32.597  20.738  25.278  1.00  0.00     0.136 A 
ATOM     16  F   UNL A   1      32.035  20.684  21.702  1.00  0.00    -0.206 F 
ATOM     17  C   UNL A   1      32.505  18.928  23.184  1.00  0.00     0.054 A 
ATOM     18  C   UNL A   1      32.851  19.389  25.524  1.00  0.00     0.054 A 
ATOM     19  F   UNL A   1      32.635  21.582  26.320  1.00  0.00    -0.206 F 
ATOM     20  C   UNL A   1      32.804  18.486  24.469  1.00  0.00     0.019 A 
ATOM     21  I   UNL A   1      33.189  16.476  24.811  1.00  0.00    -0.044 I 
ENDBRANCH   8  13
ENDBRANCH   5   8
ENDBRANCH   3   4
ENDBRANCH   2   3
ENDBRANCH   1   2
BRANCH   1  22
ATOM     22  C   UNL A   1      37.290  22.019  24.888  1.00  0.00     0.116 C 
BRANCH  22  23
ATOM     23  N   UNL A   1      38.174  20.962  25.364  1.00  0.00    -0.352 N 
ATOM     24  C   UNL A   1      39.317  21.075  26.124  1.00  0.00     0.251 C 
ATOM     25  H   UNL A   1      37.920  20.045  25.108  1.00  0.00     0.163 HD
ATOM     26  O   UNL A   1      40.004  20.092  26.360  1.00  0.00    -0.269 OA
BRANCH  24  27
ATOM     27  C   UNL A   1      39.721  22.410  26.615  1.00  0.00     0.039 A 
ATOM     28  C   UNL A   1      40.669  22.498  27.637  1.00  0.00     0.014 A 
ATOM     29  C   UNL A   1      39.208  23.568  26.025  1.00  0.00     0.014 A 
ATOM     30  C   UNL A   1      41.160  23.749  28.013  1.00  0.00     0.010 A 
ATOM     31  C   UNL A   1      39.759  24.803  26.342  1.00  0.00     0.010 A 
ATOM     32  C   UNL A   1      40.740  24.908  27.341  1.00  0.00    -0.014 A 
BRANCH  32  33
ATOM     33  C   UNL A   1      41.313  26.242  27.653  1.00  0.00     0.031 A 
ATOM     34  C   UNL A   1      42.724  26.569  27.242  1.00  0.00     0.074 A 
ATOM     35  C   UNL A   1      40.605  27.115  28.397  1.00  0.00     0.049 A 
ATOM     36  N   UNL A   1      43.428  27.640  27.495  1.00  0.00    -0.248 NA
ATOM     37  C   UNL A   1      43.451  25.540  26.480  1.00  0.00     0.031 C 
ATOM     38  C   UNL A   1      39.264  26.878  28.936  1.00  0.00     0.029 A 
ATOM     39  N   UNL A   1      40.928  28.368  28.855  1.00  0.00    -0.354 N 
ATOM     40  C   UNL A   1      44.689  27.400  26.964  1.00  0.00     0.074 A 
ATOM     41  C   UNL A   1      44.666  26.064  26.408  1.00  0.00     0.031 C 
ATOM     42  C   UNL A   1      38.877  27.951  29.645  1.00  0.00     0.029 A 
ATOM     43  C   UNL A   1      39.950  28.942  29.634  1.00  0.00     0.049 A 
ATOM     44  H   UNL A   1      41.781  28.815  28.646  1.00  0.00     0.167 HD
ATOM     45  C   UNL A   1      45.760  28.226  26.909  1.00  0.00     0.034 A 
ATOM     46  C   UNL A   1      39.921  30.129  30.269  1.00  0.00     0.034 A 
ATOM     47  C   UNL A   1      45.757  29.574  27.404  1.00  0.00     0.049 A 
ATOM     48  C   UNL A   1      41.098  31.057  30.133  1.00  0.00     0.074 A 
ATOM     49  C   UNL A   1      46.753  30.529  27.303  1.00  0.00     0.029 A 
ATOM     50  N   UNL A   1      44.707  30.162  28.091  1.00  0.00    -0.354 N 
ATOM     51  N   UNL A   1      42.220  30.876  29.478  1.00  0.00    -0.248 NA
ATOM     52  C   UNL A   1      40.991  32.369  30.791  1.00  0.00     0.031 C 
ATOM     53  C   UNL A   1      46.307  31.692  27.941  1.00  0.00     0.029 A 
ATOM     54  C   UNL A   1      45.029  31.465  28.425  1.00  0.00     0.049 A 
ATOM     55  H   UNL A   1      43.856  29.717  28.310  1.00  0.00     0.167 HD
ATOM     56  C   UNL A   1      42.937  32.059  29.616  1.00  0.00     0.074 A 
ATOM     57  C   UNL A   1      42.112  32.959  30.396  1.00  0.00     0.031 C 
ATOM     58  C   UNL A   1      44.173  32.367  29.153  1.00  0.00     0.034 A 
BRANCH  45  59
ATOM     59  C   UNL A   1      47.002  27.715  26.229  1.00  0.00     0.023 A 
ATOM     60  C   UNL A   1      47.943  26.972  26.972  1.00  0.00     0.012 A 
ATOM     61  C   UNL A   1      47.218  27.924  24.853  1.00  0.00     0.148 A 
ATOM     62  C   UNL A   1      49.097  26.477  26.367  1.00  0.00     0.002 A 
ATOM     63  C   UNL A   1      48.350  27.390  24.247  1.00  0.00     0.091 A 
ATOM     64  F   UNL A   1      46.326  28.652  24.167  1.00  0.00    -0.205 F 
ATOM     65  C   UNL A   1      49.295  26.676  25.004  1.00  0.00     0.022 A 
BRANCH  63  66
ATOM     66  S   UNL A   1      48.658  27.525  22.482  1.00  0.00     0.127 S 
ATOM     67  O   UNL A   1      49.952  28.206  22.461  1.00  0.00    -0.237 OA
ATOM     68  O   UNL A   1      48.701  26.123  22.067  1.00  0.00    -0.237 OA
ATOM     69  O   UNL A   1      47.542  28.285  21.939  1.00  0.00    -0.744 OA
ENDBRANCH  63  66
ENDBRANCH  45  59
BRANCH  46  70
ATOM     70  C   UNL A   1      38.702  30.544  31.020  1.00  0.00     0.023 A 
ATOM     71  C   UNL A   1      38.624  30.281  32.403  1.00  0.00     0.012 A 
ATOM     72  C   UNL A   1      37.640  31.220  30.389  1.00  0.00     0.148 A 
ATOM     73  C   UNL A   1      37.498  30.657  33.136  1.00  0.00     0.002 A 
ATOM     74  C   UNL A   1      36.545  31.639  31.138  1.00  0.00     0.091 A 
ATOM     75  F   UNL A   1      37.727  31.450  29.072  1.00  0.00    -0.205 F 
ATOM     76  C   UNL A   1      36.465  31.343  32.507  1.00  0.00     0.022 A 
BRANCH  74  77
ATOM     77  S   UNL A   1      35.230  32.643  30.436  1.00  0.00     0.127 S 
ATOM     78  O   UNL A   1      34.296  32.737  31.554  1.00  0.00    -0.237 OA
ATOM     79  O   UNL A   1      35.935  33.885  30.114  1.00  0.00    -0.237 OA
ATOM     80  O   UNL A   1      34.757  31.907  29.271  1.00  0.00    -0.744 OA
ENDBRANCH  74  77
ENDBRANCH  46  70
BRANCH  58  81
ATOM     81  C   UNL A   1      44.708  33.743  29.449  1.00  0.00     0.023 A 
ATOM     82  C   UNL A   1      45.587  33.930  30.533  1.00  0.00     0.012 A 
ATOM     83  C   UNL A   1      44.405  34.830  28.606  1.00  0.00     0.148 A 
ATOM     84  C   UNL A   1      46.136  35.185  30.791  1.00  0.00     0.002 A 
ATOM     85  C   UNL A   1      44.993  36.067  28.841  1.00  0.00     0.091 A 
ATOM     86  F   UNL A   1      43.550  34.635  27.592  1.00  0.00    -0.205 F 
ATOM     87  C   UNL A   1      45.850  36.250  29.939  1.00  0.00     0.022 A 
BRANCH  85  88
ATOM     88  S   UNL A   1      44.755  37.467  27.740  1.00  0.00     0.127 S 
ATOM     89  O   UNL A   1      46.028  37.501  27.022  1.00  0.00    -0.237 OA
ATOM     90  O   UNL A   1      43.610  37.042  26.935  1.00  0.00    -0.237 OA
ATOM     91  O   UNL A   1      44.491  38.612  28.603  1.00  0.00    -0.744 OA
ENDBRANCH  85  88
ENDBRANCH  58  81
ENDBRANCH  32  33
ENDBRANCH  24  27
ENDBRANCH  22  23
ENDBRANCH   1  22
TORSDOF 16
ENDMDL
MODEL 3
REMARK VINA RESULT:     -11.3      2.120      2.898
REMARK SMILES [NH3+][C@H](C(=O)NCCCCNC(=O)c1ccc(-c2c3nc(c(-c4cccc(S(=O)(=O)[O-])c4F)c4ccc([nH]4)c(-c4cccc(S(=O)(=O)[O-])c4F)c4nc(c(-c5cccc(S(=O)(=O)[O-])c5F)c5ccc2[nH]5)C=C4)C=C3)cc1)c1c(F)cc(I)cc1F
REMARK SMILES IDX 8 1 7 2 6 3 5 4 3 5 4 6 2 8 1 9 76 13 77 14 83 15 78 16
REMARK SMILES IDX 79 17 82 18 84 19 80 20 81 21 9 22 10 23 11 24 12 26 13 27
REMARK SMILES IDX 14 28 75 29 15 30 74 31 16 32 17 33 18 34 68 35 19 36 73 37
REMARK SMILES IDX 67 38 69 39 20 40 72 41 66 42 65 43 21 45 53 46 33 47 52 48
REMARK SMILES IDX 34 49 37 50 51 51 70 52 35 53 36 54 50 56 71 57 38 58 22 59
REMARK SMILES IDX 23 60 31 61 24 62 26 63 32 64 25 65 27 66 28 67 29 68 30 69
REMARK SMILES IDX 54 70 55 71 63 72 56 73 58 74 64 75 57 76 59 77 60 78 61 79
REMARK SMILES IDX 62 80 39 81 40 82 48 83 41 84 43 85 49 86 42 87 44 88 45 89
REMARK SMILES IDX 46 90 47 91
REMARK H PARENT 5 7 1 10 1 11 1 12 10 25 69 44 37 55
REMARK Flexibility Score: inf
ROOT
ATOM      1  C   UNL A   1      31.541  29.382  25.184  1.00  0.00     0.023 C 
ENDROOT
BRANCH   1   2
ATOM      2  C   UNL A   1      32.039  29.176  23.754  1.00  0.00     0.023 C 
BRANCH   2   3
ATOM      3  C   UNL A   1      31.234  28.163  22.941  1.00  0.00     0.116 C 
BRANCH   3   4
ATOM      4  N   UNL A   1      32.058  27.521  21.934  1.00  0.00    -0.351 N 
ATOM      5  C   UNL A   1      32.623  26.276  21.940  1.00  0.00     0.283 C 
ATOM      6  O   UNL A   1      33.342  25.963  20.987  1.00  0.00    -0.268 OA
ATOM      7  H   UNL A   1      32.235  28.060  21.129  1.00  0.00     0.163 HD
BRANCH   5   8
ATOM      8  C   UNL A   1      32.319  25.273  23.091  1.00  0.00     0.308 C 
BRANCH   8   9
ATOM      9  N   UNL A   1      31.306  24.295  22.615  1.00  0.00    -0.343 N 
ATOM     10  H   UNL A   1      31.777  23.484  22.215  1.00  0.00     0.345 HD
ATOM     11  H   UNL A   1      30.721  24.732  21.903  1.00  0.00     0.345 HD
ATOM     12  H   UNL A   1      30.724  23.998  23.399  1.00  0.00     0.345 HD
ENDBRANCH   8   9
BRANCH   8  13
ATOM     13  C   UNL A   1      33.578  24.597  23.583  1.00  0.00     0.090 A 
ATOM     14  C   UNL A   1      34.273  25.027  24.717  1.00  0.00     0.136 A 
ATOM     15  C   UNL A   1      34.054  23.448  22.947  1.00  0.00     0.136 A 
ATOM     16  F   UNL A   1      33.883  26.130  25.373  1.00  0.00    -0.206 F 
ATOM     17  C   UNL A   1      35.385  24.338  25.206  1.00  0.00     0.054 A 
ATOM     18  C   UNL A   1      35.137  22.721  23.437  1.00  0.00     0.054 A 
ATOM     19  F   UNL A   1      33.444  22.996  21.841  1.00  0.00    -0.206 F 
ATOM     20  C   UNL A   1      35.801  23.172  24.571  1.00  0.00     0.019 A 
ATOM     21  I   UNL A   1      37.410  22.098  25.322  1.00  0.00    -0.044 I 
ENDBRANCH   8  13
ENDBRANCH   5   8
ENDBRANCH   3   4
ENDBRANCH   2   3
ENDBRANCH   1   2
BRANCH   1  22
ATOM     22  C   UNL A   1      32.589  29.899  26.161  1.00  0.00     0.116 C 
BRANCH  22  23
ATOM     23  N   UNL A   1      32.410  31.299  26.522  1.00  0.00    -0.352 N 
ATOM     24  C   UNL A   1      33.221  32.097  27.299  1.00  0.00     0.251 C 
ATOM     25  H   UNL A   1      31.601  31.733  26.164  1.00  0.00     0.163 HD
ATOM     26  O   UNL A   1      32.877  33.234  27.589  1.00  0.00    -0.269 OA
BRANCH  24  27
ATOM     27  C   UNL A   1      34.494  31.543  27.808  1.00  0.00     0.039 A 
ATOM     28  C   UNL A   1      35.584  32.399  27.981  1.00  0.00     0.014 A 
ATOM     29  C   UNL A   1      34.587  30.197  28.169  1.00  0.00     0.014 A 
ATOM     30  C   UNL A   1      36.746  31.918  28.589  1.00  0.00     0.010 A 
ATOM     31  C   UNL A   1      35.710  29.744  28.850  1.00  0.00     0.010 A 
ATOM     32  C   UNL A   1      36.803  30.599  29.065  1.00  0.00    -0.014 A 
BRANCH  32  33
ATOM     33  C   UNL A   1      37.987  30.086  29.800  1.00  0.00     0.031 A 
ATOM     34  C   UNL A   1      38.256  30.548  31.208  1.00  0.00     0.074 A 
ATOM     35  C   UNL A   1      38.874  29.293  29.167  1.00  0.00     0.049 A 
ATOM     36  N   UNL A   1      39.276  30.282  31.981  1.00  0.00    -0.248 NA
ATOM     37  C   UNL A   1      37.268  31.458  31.811  1.00  0.00     0.031 C 
ATOM     38  C   UNL A   1      38.775  28.853  27.774  1.00  0.00     0.029 A 
ATOM     39  N   UNL A   1      40.052  28.741  29.604  1.00  0.00    -0.354 N 
ATOM     40  C   UNL A   1      39.075  31.022  33.140  1.00  0.00     0.074 A 
ATOM     41  C   UNL A   1      37.857  31.779  32.954  1.00  0.00     0.031 C 
ATOM     42  C   UNL A   1      39.842  28.095  27.473  1.00  0.00     0.029 A 
ATOM     43  C   UNL A   1      40.714  28.015  28.641  1.00  0.00     0.049 A 
ATOM     44  H   UNL A   1      40.392  28.853  30.522  1.00  0.00     0.167 HD
ATOM     45  C   UNL A   1      39.817  31.045  34.272  1.00  0.00     0.034 A 
ATOM     46  C   UNL A   1      41.891  27.362  28.692  1.00  0.00     0.034 A 
ATOM     47  C   UNL A   1      40.990  30.242  34.477  1.00  0.00     0.049 A 
ATOM     48  C   UNL A   1      42.660  27.346  29.986  1.00  0.00     0.074 A 
ATOM     49  C   UNL A   1      41.753  30.111  35.624  1.00  0.00     0.029 A 
ATOM     50  N   UNL A   1      41.571  29.432  33.515  1.00  0.00    -0.354 N 
ATOM     51  N   UNL A   1      42.364  27.917  31.128  1.00  0.00    -0.248 NA
ATOM     52  C   UNL A   1      43.907  26.565  30.009  1.00  0.00     0.031 C 
ATOM     53  C   UNL A   1      42.803  29.228  35.350  1.00  0.00     0.029 A 
ATOM     54  C   UNL A   1      42.685  28.799  34.038  1.00  0.00     0.049 A 
ATOM     55  H   UNL A   1      41.241  29.322  32.594  1.00  0.00     0.167 HD
ATOM     56  C   UNL A   1      43.366  27.539  32.015  1.00  0.00     0.074 A 
ATOM     57  C   UNL A   1      44.265  26.669  31.283  1.00  0.00     0.031 C 
ATOM     58  C   UNL A   1      43.537  27.891  33.312  1.00  0.00     0.034 A 
BRANCH  45  59
ATOM     59  C   UNL A   1      39.339  31.917  35.402  1.00  0.00     0.023 A 
ATOM     60  C   UNL A   1      38.429  31.392  36.344  1.00  0.00     0.012 A 
ATOM     61  C   UNL A   1      39.818  33.231  35.563  1.00  0.00     0.148 A 
ATOM     62  C   UNL A   1      37.976  32.172  37.407  1.00  0.00     0.002 A 
ATOM     63  C   UNL A   1      39.395  33.988  36.651  1.00  0.00     0.091 A 
ATOM     64  F   UNL A   1      40.663  33.722  34.646  1.00  0.00    -0.205 F 
ATOM     65  C   UNL A   1      38.467  33.465  37.566  1.00  0.00     0.022 A 
BRANCH  63  66
ATOM     66  S   UNL A   1      40.027  35.636  36.987  1.00  0.00     0.127 S 
ATOM     67  O   UNL A   1      39.570  36.372  35.809  1.00  0.00    -0.237 OA
ATOM     68  O   UNL A   1      39.337  35.985  38.229  1.00  0.00    -0.237 OA
ATOM     69  O   UNL A   1      41.470  35.493  37.115  1.00  0.00    -0.744 OA
ENDBRANCH  63  66
ENDBRANCH  45  59
BRANCH  46  70
ATOM     70  C   UNL A   1      42.372  26.598  27.506  1.00  0.00     0.023 A 
ATOM     71  C   UNL A   1      43.130  27.263  26.521  1.00  0.00     0.012 A 
ATOM     72  C   UNL A   1      42.116  25.221  27.361  1.00  0.00     0.148 A 
ATOM     73  C   UNL A   1      43.596  26.578  25.399  1.00  0.00     0.002 A 
ATOM     74  C   UNL A   1      42.630  24.533  26.266  1.00  0.00     0.091 A 
ATOM     75  F   UNL A   1      41.383  24.608  28.302  1.00  0.00    -0.205 F 
ATOM     76  C   UNL A   1      43.355  25.213  25.276  1.00  0.00     0.022 A 
BRANCH  74  77
ATOM     77  S   UNL A   1      42.479  22.751  26.095  1.00  0.00     0.127 S 
ATOM     78  O   UNL A   1      43.273  22.274  27.224  1.00  0.00    -0.237 OA
ATOM     79  O   UNL A   1      41.035  22.553  26.229  1.00  0.00    -0.237 OA
ATOM     80  O   UNL A   1      43.003  22.441  24.771  1.00  0.00    -0.744 OA
ENDBRANCH  74  77
ENDBRANCH  46  70
BRANCH  58  81
ATOM     81  C   UNL A   1      44.723  27.320  34.042  1.00  0.00     0.023 A 
ATOM     82  C   UNL A   1      45.947  28.017  34.036  1.00  0.00     0.012 A 
ATOM     83  C   UNL A   1      44.602  26.138  34.799  1.00  0.00     0.148 A 
ATOM     84  C   UNL A   1      47.041  27.533  34.751  1.00  0.00     0.002 A 
ATOM     85  C   UNL A   1      45.682  25.687  35.547  1.00  0.00     0.091 A 
ATOM     86  F   UNL A   1      43.435  25.479  34.775  1.00  0.00    -0.205 F 
ATOM     87  C   UNL A   1      46.906  26.376  35.516  1.00  0.00     0.022 A 
BRANCH  85  88
ATOM     88  S   UNL A   1      45.569  24.261  36.635  1.00  0.00     0.127 S 
ATOM     89  O   UNL A   1      44.539  24.688  37.580  1.00  0.00    -0.237 OA
ATOM     90  O   UNL A   1      45.153  23.200  35.717  1.00  0.00    -0.237 OA
ATOM     91  O   UNL A   1      46.901  24.081  37.197  1.00  0.00    -0.744 OA
ENDBRANCH  85  88
ENDBRANCH  58  81
ENDBRANCH  32  33
ENDBRANCH  24  27
ENDBRANCH  22  23
ENDBRANCH   1  22
TORSDOF 16
ENDMDL
