MODEL 1
REMARK VINA RESULT:     -12.4      0.000      0.000
REMARK SMILES O=C(NCCCCNC(=O)c1ccccc1Nc1cccc(C(F)(F)F)c1)c1ccc(-c2c3nc(c(-c4cccc(S(=O)(=O)[O-])c4F)c4ccc([nH]4)c(-c4cccc(S(=O)(=O)[O-])c4F)c4nc(c(-c5cccc(S(=O)(=O)[O-])c5F)c5ccc2[nH]5)C=C4)C=C3)cc1
REMARK SMILES IDX 5 1 4 2 3 3 1 4 2 5 28 7 29 8 90 9 30 10 89 11 31 12 32 13
REMARK SMILES IDX 33 14 83 15 34 16 88 17 82 18 84 19 35 20 87 21 81 22 80 23
REMARK SMILES IDX 36 25 68 26 48 27 67 28 49 29 52 30 66 31 85 32 50 33 51 34
REMARK SMILES IDX 65 36 86 37 53 38 37 39 38 40 46 41 39 42 41 43 47 44 40 45
REMARK SMILES IDX 42 46 43 47 44 48 45 49 69 50 70 51 78 52 71 53 73 54 79 55
REMARK SMILES IDX 72 56 74 57 75 58 76 59 77 60 54 61 55 62 63 63 56 64 58 65
REMARK SMILES IDX 64 66 57 67 59 68 60 69 61 70 62 71 6 72 7 73 8 74 9 75
REMARK SMILES IDX 10 77 11 78 12 79 16 80 13 81 15 82 14 83 17 84 18 86 19 87
REMARK SMILES IDX 27 88 20 89 22 90 21 91 23 92 24 93 25 94 26 95
REMARK H PARENT 3 6 84 24 52 35 8 76 17 85
REMARK Flexibility Score: inf
ROOT
ATOM      1  C   UNL A   1      37.615  19.609  24.779  1.00  0.00     0.023 C 
ENDROOT
BRANCH   1   2
ATOM      2  C   UNL A   1      38.722  20.162  25.669  1.00  0.00     0.116 C 
BRANCH   2   3
ATOM      3  N   UNL A   1      39.811  19.218  25.856  1.00  0.00    -0.352 N 
ATOM      4  O   UNL A   1      41.946  18.542  26.074  1.00  0.00    -0.269 OA
ATOM      5  C   UNL A   1      41.137  19.463  26.126  1.00  0.00     0.251 C 
ATOM      6  H   UNL A   1      39.564  18.268  25.779  1.00  0.00     0.163 HD
BRANCH   5   7
ATOM      7  C   UNL A   1      41.585  20.835  26.456  1.00  0.00     0.039 A 
ATOM      8  C   UNL A   1      41.674  21.817  25.463  1.00  0.00     0.014 A 
ATOM      9  C   UNL A   1      41.896  21.151  27.781  1.00  0.00     0.014 A 
ATOM     10  C   UNL A   1      42.188  23.072  25.773  1.00  0.00     0.010 A 
ATOM     11  C   UNL A   1      42.339  22.437  28.104  1.00  0.00     0.010 A 
ATOM     12  C   UNL A   1      42.507  23.403  27.100  1.00  0.00    -0.014 A 
BRANCH  12  13
ATOM     13  C   UNL A   1      42.897  24.796  27.435  1.00  0.00     0.031 A 
ATOM     14  C   UNL A   1      41.924  25.756  28.058  1.00  0.00     0.074 A 
ATOM     15  C   UNL A   1      44.144  25.200  27.123  1.00  0.00     0.049 A 
ATOM     16  N   UNL A   1      42.109  27.008  28.390  1.00  0.00    -0.248 NA
ATOM     17  C   UNL A   1      40.568  25.259  28.341  1.00  0.00     0.031 C 
ATOM     18  C   UNL A   1      45.154  24.370  26.460  1.00  0.00     0.029 A 
ATOM     19  N   UNL A   1      44.769  26.409  27.292  1.00  0.00    -0.354 N 
ATOM     20  C   UNL A   1      40.889  27.463  28.876  1.00  0.00     0.074 A 
ATOM     21  C   UNL A   1      39.967  26.349  28.805  1.00  0.00     0.031 C 
ATOM     22  C   UNL A   1      46.268  25.093  26.276  1.00  0.00     0.029 A 
ATOM     23  C   UNL A   1      46.037  26.449  26.760  1.00  0.00     0.049 A 
ATOM     24  H   UNL A   1      44.351  27.174  27.750  1.00  0.00     0.167 HD
ATOM     25  C   UNL A   1      40.575  28.694  29.347  1.00  0.00     0.034 A 
ATOM     26  C   UNL A   1      46.907  27.469  26.639  1.00  0.00     0.034 A 
ATOM     27  C   UNL A   1      41.512  29.780  29.458  1.00  0.00     0.049 A 
ATOM     28  C   UNL A   1      46.530  28.815  27.186  1.00  0.00     0.074 A 
ATOM     29  C   UNL A   1      41.321  31.021  30.042  1.00  0.00     0.029 A 
ATOM     30  N   UNL A   1      42.804  29.769  28.957  1.00  0.00    -0.354 N 
ATOM     31  N   UNL A   1      45.437  29.169  27.816  1.00  0.00    -0.248 NA
ATOM     32  C   UNL A   1      47.512  29.897  27.026  1.00  0.00     0.031 C 
ATOM     33  C   UNL A   1      42.488  31.772  29.866  1.00  0.00     0.029 A 
ATOM     34  C   UNL A   1      43.411  30.993  29.186  1.00  0.00     0.049 A 
ATOM     35  H   UNL A   1      43.228  29.005  28.505  1.00  0.00     0.167 HD
ATOM     36  C   UNL A   1      45.602  30.510  28.138  1.00  0.00     0.074 A 
ATOM     37  C   UNL A   1      46.917  30.895  27.666  1.00  0.00     0.031 C 
ATOM     38  C   UNL A   1      44.733  31.352  28.747  1.00  0.00     0.034 A 
BRANCH  25  39
ATOM     39  C   UNL A   1      39.168  28.942  29.823  1.00  0.00     0.023 A 
ATOM     40  C   UNL A   1      38.811  28.608  31.143  1.00  0.00     0.012 A 
ATOM     41  C   UNL A   1      38.242  29.617  29.003  1.00  0.00     0.148 A 
ATOM     42  C   UNL A   1      37.547  28.930  31.639  1.00  0.00     0.002 A 
ATOM     43  C   UNL A   1      36.996  29.965  29.514  1.00  0.00     0.091 A 
ATOM     44  F   UNL A   1      38.597  29.909  27.743  1.00  0.00    -0.205 F 
ATOM     45  C   UNL A   1      36.646  29.619  30.830  1.00  0.00     0.022 A 
BRANCH  43  46
ATOM     46  S   UNL A   1      35.791  30.914  28.577  1.00  0.00     0.127 S 
ATOM     47  O   UNL A   1      36.628  31.964  28.001  1.00  0.00    -0.237 OA
ATOM     48  O   UNL A   1      35.302  29.926  27.613  1.00  0.00    -0.237 OA
ATOM     49  O   UNL A   1      34.798  31.366  29.542  1.00  0.00    -0.744 OA
ENDBRANCH  43  46
ENDBRANCH  25  39
BRANCH  26  50
ATOM     50  C   UNL A   1      48.224  27.241  25.982  1.00  0.00     0.023 A 
ATOM     51  C   UNL A   1      49.310  26.772  26.744  1.00  0.00     0.012 A 
ATOM     52  C   UNL A   1      48.392  27.443  24.598  1.00  0.00     0.148 A 
ATOM     53  C   UNL A   1      50.546  26.530  26.143  1.00  0.00     0.002 A 
ATOM     54  C   UNL A   1      49.607  27.142  23.995  1.00  0.00     0.091 A 
ATOM     55  F   UNL A   1      47.353  27.912  23.891  1.00  0.00    -0.205 F 
ATOM     56  C   UNL A   1      50.691  26.702  24.767  1.00  0.00     0.022 A 
BRANCH  54  57
ATOM     57  S   UNL A   1      49.812  27.193  22.211  1.00  0.00     0.127 S 
ATOM     58  O   UNL A   1      51.179  26.704  22.053  1.00  0.00    -0.237 OA
ATOM     59  O   UNL A   1      48.772  26.272  21.752  1.00  0.00    -0.237 OA
ATOM     60  O   UNL A   1      49.578  28.582  21.841  1.00  0.00    -0.744 OA
ENDBRANCH  54  57
ENDBRANCH  26  50
BRANCH  38  61
ATOM     61  C   UNL A   1      45.170  32.779  28.937  1.00  0.00     0.023 A 
ATOM     62  C   UNL A   1      45.908  33.128  30.086  1.00  0.00     0.012 A 
ATOM     63  C   UNL A   1      44.919  33.753  27.952  1.00  0.00     0.148 A 
ATOM     64  C   UNL A   1      46.368  34.431  30.264  1.00  0.00     0.002 A 
ATOM     65  C   UNL A   1      45.420  35.040  28.114  1.00  0.00     0.091 A 
ATOM     66  F   UNL A   1      44.200  33.404  26.875  1.00  0.00    -0.205 F 
ATOM     67  C   UNL A   1      46.136  35.382  29.274  1.00  0.00     0.022 A 
BRANCH  65  68
ATOM     68  S   UNL A   1      45.246  36.309  26.856  1.00  0.00     0.127 S 
ATOM     69  O   UNL A   1      45.850  37.467  27.514  1.00  0.00    -0.237 OA
ATOM     70  O   UNL A   1      46.031  35.759  25.750  1.00  0.00    -0.237 OA
ATOM     71  O   UNL A   1      43.818  36.419  26.588  1.00  0.00    -0.744 OA
ENDBRANCH  65  68
ENDBRANCH  38  61
ENDBRANCH  12  13
ENDBRANCH   5   7
ENDBRANCH   2   3
ENDBRANCH   1   2
BRANCH   1  72
ATOM     72  C   UNL A   1      36.229  20.214  25.001  1.00  0.00     0.023 C 
BRANCH  72  73
ATOM     73  C   UNL A   1      36.203  21.543  25.751  1.00  0.00     0.116 C 
BRANCH  73  74
ATOM     74  N   UNL A   1      35.265  21.551  26.861  1.00  0.00    -0.352 N 
ATOM     75  C   UNL A   1      34.051  22.180  26.960  1.00  0.00     0.253 C 
ATOM     76  H   UNL A   1      35.540  21.032  27.651  1.00  0.00     0.163 HD
ATOM     77  O   UNL A   1      33.404  22.111  28.001  1.00  0.00    -0.269 OA
BRANCH  75  78
ATOM     78  C   UNL A   1      33.523  22.974  25.832  1.00  0.00     0.063 A 
ATOM     79  C   UNL A   1      34.015  24.284  25.719  1.00  0.00     0.016 A 
ATOM     80  C   UNL A   1      32.553  22.480  24.936  1.00  0.00     0.051 A 
ATOM     81  C   UNL A   1      33.585  25.106  24.681  1.00  0.00     0.001 A 
ATOM     82  C   UNL A   1      32.150  23.326  23.891  1.00  0.00     0.027 A 
ATOM     83  C   UNL A   1      32.658  24.623  23.762  1.00  0.00     0.002 A 
BRANCH  80  84
ATOM     84  N   UNL A   1      32.028  21.176  25.054  1.00  0.00    -0.355 N 
ATOM     85  H   UNL A   1      31.346  21.074  25.757  1.00  0.00     0.167 HD
BRANCH  84  86
ATOM     86  C   UNL A   1      32.307  19.996  24.343  1.00  0.00     0.039 A 
ATOM     87  C   UNL A   1      32.153  19.986  22.951  1.00  0.00     0.026 A 
ATOM     88  C   UNL A   1      32.786  18.837  24.966  1.00  0.00     0.039 A 
ATOM     89  C   UNL A   1      32.467  18.849  22.202  1.00  0.00     0.003 A 
ATOM     90  C   UNL A   1      33.097  17.681  24.229  1.00  0.00     0.058 A 
ATOM     91  C   UNL A   1      32.939  17.703  22.837  1.00  0.00     0.013 A 
BRANCH  90  92
ATOM     92  C   UNL A   1      33.617  16.443  24.914  1.00  0.00     0.416 C 
ATOM     93  F   UNL A   1      34.907  16.159  24.588  1.00  0.00    -0.166 F 
ATOM     94  F   UNL A   1      33.592  16.556  26.272  1.00  0.00    -0.166 F 
ATOM     95  F   UNL A   1      32.903  15.318  24.624  1.00  0.00    -0.166 F 
ENDBRANCH  90  92
ENDBRANCH  84  86
ENDBRANCH  80  84
ENDBRANCH  75  78
ENDBRANCH  73  74
ENDBRANCH  72  73
ENDBRANCH   1  72
TORSDOF 17
ENDMDL
MODEL 2
REMARK VINA RESULT:     -11.9      0.672      7.486
REMARK SMILES O=C(NCCCCNC(=O)c1ccccc1Nc1cccc(C(F)(F)F)c1)c1ccc(-c2c3nc(c(-c4cccc(S(=O)(=O)[O-])c4F)c4ccc([nH]4)c(-c4cccc(S(=O)(=O)[O-])c4F)c4nc(c(-c5cccc(S(=O)(=O)[O-])c5F)c5ccc2[nH]5)C=C4)C=C3)cc1
REMARK SMILES IDX 5 1 4 2 3 3 1 4 2 5 28 7 29 8 90 9 30 10 89 11 31 12 32 13
REMARK SMILES IDX 33 14 83 15 34 16 88 17 82 18 84 19 35 20 87 21 81 22 80 23
REMARK SMILES IDX 36 25 68 26 48 27 67 28 49 29 52 30 66 31 85 32 50 33 51 34
REMARK SMILES IDX 65 36 86 37 53 38 37 39 38 40 46 41 39 42 41 43 47 44 40 45
REMARK SMILES IDX 42 46 43 47 44 48 45 49 69 50 70 51 78 52 71 53 73 54 79 55
REMARK SMILES IDX 72 56 74 57 75 58 76 59 77 60 54 61 55 62 63 63 56 64 58 65
REMARK SMILES IDX 64 66 57 67 59 68 60 69 61 70 62 71 6 72 7 73 8 74 9 75
REMARK SMILES IDX 10 77 11 78 12 79 16 80 13 81 15 82 14 83 17 84 18 86 19 87
REMARK SMILES IDX 27 88 20 89 22 90 21 91 23 92 24 93 25 94 26 95
REMARK H PARENT 3 6 84 24 52 35 8 76 17 85
REMARK Flexibility Score: inf
ROOT
ATOM      1  C   UNL A   1      37.929  19.483  24.928  1.00  0.00     0.023 C 
ENDROOT
BRANCH   1   2
ATOM      2  C   UNL A   1      38.961  20.213  25.778  1.00  0.00     0.116 C 
BRANCH   2   3
ATOM      3  N   UNL A   1      40.095  19.372  26.123  1.00  0.00    -0.352 N 
ATOM      4  O   UNL A   1      42.250  18.877  26.542  1.00  0.00    -0.269 OA
ATOM      5  C   UNL A   1      41.378  19.738  26.456  1.00  0.00     0.251 C 
ATOM      6  H   UNL A   1      39.920  18.404  26.118  1.00  0.00     0.163 HD
BRANCH   5   7
ATOM      7  C   UNL A   1      41.708  21.163  26.688  1.00  0.00     0.039 A 
ATOM      8  C   UNL A   1      42.003  21.628  27.973  1.00  0.00     0.014 A 
ATOM      9  C   UNL A   1      41.746  22.039  25.600  1.00  0.00     0.014 A 
ATOM     10  C   UNL A   1      42.216  22.987  28.187  1.00  0.00     0.010 A 
ATOM     11  C   UNL A   1      42.036  23.391  25.807  1.00  0.00     0.010 A 
ATOM     12  C   UNL A   1      42.255  23.880  27.104  1.00  0.00    -0.014 A 
BRANCH  12  13
ATOM     13  C   UNL A   1      42.645  25.294  27.332  1.00  0.00     0.031 A 
ATOM     14  C   UNL A   1      43.987  25.818  26.906  1.00  0.00     0.074 A 
ATOM     15  C   UNL A   1      41.778  26.096  27.981  1.00  0.00     0.049 A 
ATOM     16  N   UNL A   1      44.480  27.021  27.054  1.00  0.00    -0.248 NA
ATOM     17  C   UNL A   1      44.898  24.879  26.233  1.00  0.00     0.031 C 
ATOM     18  C   UNL A   1      40.471  25.678  28.495  1.00  0.00     0.029 A 
ATOM     19  N   UNL A   1      41.869  27.416  28.344  1.00  0.00    -0.354 N 
ATOM     20  C   UNL A   1      45.770  26.975  26.539  1.00  0.00     0.074 A 
ATOM     21  C   UNL A   1      45.985  25.625  26.064  1.00  0.00     0.031 C 
ATOM     22  C   UNL A   1      39.885  26.716  29.109  1.00  0.00     0.029 A 
ATOM     23  C   UNL A   1      40.791  27.857  29.077  1.00  0.00     0.049 A 
ATOM     24  H   UNL A   1      42.630  27.992  28.103  1.00  0.00     0.167 HD
ATOM     25  C   UNL A   1      46.683  27.973  26.461  1.00  0.00     0.034 A 
ATOM     26  C   UNL A   1      40.569  29.036  29.689  1.00  0.00     0.034 A 
ATOM     27  C   UNL A   1      46.442  29.325  26.892  1.00  0.00     0.049 A 
ATOM     28  C   UNL A   1      41.596  30.123  29.569  1.00  0.00     0.074 A 
ATOM     29  C   UNL A   1      47.257  30.433  26.736  1.00  0.00     0.029 A 
ATOM     30  N   UNL A   1      45.319  29.749  27.584  1.00  0.00    -0.354 N 
ATOM     31  N   UNL A   1      42.729  30.114  28.909  1.00  0.00    -0.248 NA
ATOM     32  C   UNL A   1      41.309  31.389  30.257  1.00  0.00     0.031 C 
ATOM     33  C   UNL A   1      46.640  31.522  27.362  1.00  0.00     0.029 A 
ATOM     34  C   UNL A   1      45.434  31.095  27.893  1.00  0.00     0.049 A 
ATOM     35  H   UNL A   1      44.552  29.179  27.821  1.00  0.00     0.167 HD
ATOM     36  C   UNL A   1      43.285  31.374  29.093  1.00  0.00     0.074 A 
ATOM     37  C   UNL A   1      42.346  32.132  29.895  1.00  0.00     0.031 C 
ATOM     38  C   UNL A   1      44.477  31.849  28.658  1.00  0.00     0.034 A 
BRANCH  25  39
ATOM     39  C   UNL A   1      48.027  27.670  25.853  1.00  0.00     0.023 A 
ATOM     40  C   UNL A   1      49.081  27.236  26.679  1.00  0.00     0.012 A 
ATOM     41  C   UNL A   1      48.205  27.697  24.455  1.00  0.00     0.148 A 
ATOM     42  C   UNL A   1      50.300  26.844  26.124  1.00  0.00     0.002 A 
ATOM     43  C   UNL A   1      49.411  27.273  23.908  1.00  0.00     0.091 A 
ATOM     44  F   UNL A   1      47.193  28.131  23.690  1.00  0.00    -0.205 F 
ATOM     45  C   UNL A   1      50.460  26.850  24.741  1.00  0.00     0.022 A 
BRANCH  43  46
ATOM     46  S   UNL A   1      49.693  27.176  22.135  1.00  0.00     0.127 S 
ATOM     47  O   UNL A   1      48.737  26.143  21.742  1.00  0.00    -0.237 OA
ATOM     48  O   UNL A   1      49.346  28.528  21.693  1.00  0.00    -0.237 OA
ATOM     49  O   UNL A   1      51.096  26.823  21.970  1.00  0.00    -0.744 OA
ENDBRANCH  43  46
ENDBRANCH  25  39
BRANCH  26  50
ATOM     50  C   UNL A   1      39.308  29.243  30.455  1.00  0.00     0.023 A 
ATOM     51  C   UNL A   1      39.117  28.568  31.674  1.00  0.00     0.012 A 
ATOM     52  C   UNL A   1      38.321  30.140  30.002  1.00  0.00     0.148 A 
ATOM     53  C   UNL A   1      37.952  28.766  32.418  1.00  0.00     0.002 A 
ATOM     54  C   UNL A   1      37.193  30.378  30.778  1.00  0.00     0.091 A 
ATOM     55  F   UNL A   1      38.509  30.757  28.826  1.00  0.00    -0.205 F 
ATOM     56  C   UNL A   1      36.997  29.680  31.977  1.00  0.00     0.022 A 
BRANCH  54  57
ATOM     57  S   UNL A   1      36.003  31.653  30.345  1.00  0.00     0.127 S 
ATOM     58  O   UNL A   1      36.873  32.792  30.068  1.00  0.00    -0.237 OA
ATOM     59  O   UNL A   1      35.347  31.079  29.169  1.00  0.00    -0.237 OA
ATOM     60  O   UNL A   1      35.135  31.774  31.508  1.00  0.00    -0.744 OA
ENDBRANCH  54  57
ENDBRANCH  26  50
BRANCH  38  61
ATOM     61  C   UNL A   1      44.841  33.258  29.041  1.00  0.00     0.023 A 
ATOM     62  C   UNL A   1      45.522  33.489  30.253  1.00  0.00     0.012 A 
ATOM     63  C   UNL A   1      44.581  34.337  28.174  1.00  0.00     0.148 A 
ATOM     64  C   UNL A   1      45.916  34.777  30.609  1.00  0.00     0.002 A 
ATOM     65  C   UNL A   1      45.016  35.612  28.515  1.00  0.00     0.091 A 
ATOM     66  F   UNL A   1      43.916  34.096  27.034  1.00  0.00    -0.205 F 
ATOM     67  C   UNL A   1      45.675  35.835  29.736  1.00  0.00     0.022 A 
BRANCH  65  68
ATOM     68  S   UNL A   1      44.829  37.021  27.417  1.00  0.00     0.127 S 
ATOM     69  O   UNL A   1      45.394  38.104  28.222  1.00  0.00    -0.237 OA
ATOM     70  O   UNL A   1      45.644  36.629  26.267  1.00  0.00    -0.237 OA
ATOM     71  O   UNL A   1      43.403  37.129  27.140  1.00  0.00    -0.744 OA
ENDBRANCH  65  68
ENDBRANCH  38  61
ENDBRANCH  12  13
ENDBRANCH   5   7
ENDBRANCH   2   3
ENDBRANCH   1   2
BRANCH   1  72
ATOM     72  C   UNL A   1      36.524  20.086  24.938  1.00  0.00     0.023 C 
BRANCH  72  73
ATOM     73  C   UNL A   1      36.406  21.470  25.570  1.00  0.00     0.116 C 
BRANCH  73  74
ATOM     74  N   UNL A   1      35.450  21.516  26.665  1.00  0.00    -0.352 N 
ATOM     75  C   UNL A   1      34.228  22.133  26.716  1.00  0.00     0.253 C 
ATOM     76  H   UNL A   1      35.718  21.035  27.480  1.00  0.00     0.163 HD
ATOM     77  O   UNL A   1      33.565  22.102  27.750  1.00  0.00    -0.269 OA
BRANCH  75  78
ATOM     78  C   UNL A   1      33.708  22.870  25.547  1.00  0.00     0.063 A 
ATOM     79  C   UNL A   1      34.224  24.162  25.354  1.00  0.00     0.016 A 
ATOM     80  C   UNL A   1      32.724  22.343  24.686  1.00  0.00     0.051 A 
ATOM     81  C   UNL A   1      33.804  24.929  24.272  1.00  0.00     0.001 A 
ATOM     82  C   UNL A   1      32.331  23.134  23.595  1.00  0.00     0.027 A 
ATOM     83  C   UNL A   1      32.863  24.412  23.388  1.00  0.00     0.002 A 
BRANCH  80  84
ATOM     84  N   UNL A   1      32.175  21.059  24.882  1.00  0.00    -0.355 N 
ATOM     85  H   UNL A   1      31.512  21.007  25.608  1.00  0.00     0.167 HD
BRANCH  84  86
ATOM     86  C   UNL A   1      32.408  19.840  24.223  1.00  0.00     0.039 A 
ATOM     87  C   UNL A   1      32.208  19.763  22.839  1.00  0.00     0.026 A 
ATOM     88  C   UNL A   1      32.887  18.704  24.888  1.00  0.00     0.039 A 
ATOM     89  C   UNL A   1      32.475  18.584  22.139  1.00  0.00     0.003 A 
ATOM     90  C   UNL A   1      33.152  17.506  24.200  1.00  0.00     0.058 A 
ATOM     91  C   UNL A   1      32.948  17.462  22.815  1.00  0.00     0.013 A 
BRANCH  90  92
ATOM     92  C   UNL A   1      33.672  16.294  24.929  1.00  0.00     0.416 C 
ATOM     93  F   UNL A   1      32.954  15.168  24.665  1.00  0.00    -0.166 F 
ATOM     94  F   UNL A   1      34.960  16.003  24.593  1.00  0.00    -0.166 F 
ATOM     95  F   UNL A   1      33.667  16.429  26.286  1.00  0.00    -0.166 F 
ENDBRANCH  90  92
ENDBRANCH  84  86
ENDBRANCH  80  84
ENDBRANCH  75  78
ENDBRANCH  73  74
ENDBRANCH  72  73
ENDBRANCH   1  72
TORSDOF 17
ENDMDL
MODEL 3
REMARK VINA RESULT:     -11.9      2.360      3.552
REMARK SMILES O=C(NCCCCNC(=O)c1ccccc1Nc1cccc(C(F)(F)F)c1)c1ccc(-c2c3nc(c(-c4cccc(S(=O)(=O)[O-])c4F)c4ccc([nH]4)c(-c4cccc(S(=O)(=O)[O-])c4F)c4nc(c(-c5cccc(S(=O)(=O)[O-])c5F)c5ccc2[nH]5)C=C4)C=C3)cc1
REMARK SMILES IDX 5 1 4 2 3 3 1 4 2 5 28 7 29 8 90 9 30 10 89 11 31 12 32 13
REMARK SMILES IDX 33 14 83 15 34 16 88 17 82 18 84 19 35 20 87 21 81 22 80 23
REMARK SMILES IDX 36 25 68 26 48 27 67 28 49 29 52 30 66 31 85 32 50 33 51 34
REMARK SMILES IDX 65 36 86 37 53 38 37 39 38 40 46 41 39 42 41 43 47 44 40 45
REMARK SMILES IDX 42 46 43 47 44 48 45 49 69 50 70 51 78 52 71 53 73 54 79 55
REMARK SMILES IDX 72 56 74 57 75 58 76 59 77 60 54 61 55 62 63 63 56 64 58 65
REMARK SMILES IDX 64 66 57 67 59 68 60 69 61 70 62 71 6 72 7 73 8 74 9 75
REMARK SMILES IDX 10 77 11 78 12 79 16 80 13 81 15 82 14 83 17 84 18 86 19 87
REMARK SMILES IDX 27 88 20 89 22 90 21 91 23 92 24 93 25 94 26 95
REMARK H PARENT 3 6 84 24 52 35 8 76 17 85
REMARK Flexibility Score: inf
ROOT
ATOM      1  C   UNL A   1      38.225  19.737  24.796  1.00  0.00     0.023 C 
ENDROOT
BRANCH   1   2
ATOM      2  C   UNL A   1      39.123  19.996  26.000  1.00  0.00     0.116 C 
BRANCH   2   3
ATOM      3  N   UNL A   1      40.327  19.182  25.984  1.00  0.00    -0.352 N 
ATOM      4  O   UNL A   1      42.534  18.757  25.876  1.00  0.00    -0.269 OA
ATOM      5  C   UNL A   1      41.641  19.572  26.092  1.00  0.00     0.251 C 
ATOM      6  H   UNL A   1      40.180  18.214  25.880  1.00  0.00     0.163 HD
BRANCH   5   7
ATOM      7  C   UNL A   1      41.973  20.971  26.446  1.00  0.00     0.039 A 
ATOM      8  C   UNL A   1      42.141  21.350  27.781  1.00  0.00     0.014 A 
ATOM      9  C   UNL A   1      42.144  21.910  25.425  1.00  0.00     0.014 A 
ATOM     10  C   UNL A   1      42.358  22.687  28.101  1.00  0.00     0.010 A 
ATOM     11  C   UNL A   1      42.438  23.238  25.745  1.00  0.00     0.010 A 
ATOM     12  C   UNL A   1      42.529  23.642  27.086  1.00  0.00    -0.014 A 
BRANCH  12  13
ATOM     13  C   UNL A   1      42.922  25.029  27.443  1.00  0.00     0.031 A 
ATOM     14  C   UNL A   1      41.949  25.984  28.074  1.00  0.00     0.074 A 
ATOM     15  C   UNL A   1      44.172  25.433  27.141  1.00  0.00     0.049 A 
ATOM     16  N   UNL A   1      42.137  27.231  28.424  1.00  0.00    -0.248 NA
ATOM     17  C   UNL A   1      40.591  25.487  28.344  1.00  0.00     0.031 C 
ATOM     18  C   UNL A   1      45.183  24.609  26.472  1.00  0.00     0.029 A 
ATOM     19  N   UNL A   1      44.801  26.638  27.330  1.00  0.00    -0.354 N 
ATOM     20  C   UNL A   1      40.917  27.683  28.911  1.00  0.00     0.074 A 
ATOM     21  C   UNL A   1      39.992  26.573  28.819  1.00  0.00     0.031 C 
ATOM     22  C   UNL A   1      46.300  25.331  26.303  1.00  0.00     0.029 A 
ATOM     23  C   UNL A   1      46.071  26.680  26.804  1.00  0.00     0.049 A 
ATOM     24  H   UNL A   1      44.383  27.398  27.797  1.00  0.00     0.167 HD
ATOM     25  C   UNL A   1      40.605  28.908  29.397  1.00  0.00     0.034 A 
ATOM     26  C   UNL A   1      46.945  27.700  26.702  1.00  0.00     0.034 A 
ATOM     27  C   UNL A   1      41.544  29.990  29.528  1.00  0.00     0.049 A 
ATOM     28  C   UNL A   1      46.570  29.039  27.265  1.00  0.00     0.074 A 
ATOM     29  C   UNL A   1      41.355  31.223  30.128  1.00  0.00     0.029 A 
ATOM     30  N   UNL A   1      42.839  29.981  29.033  1.00  0.00    -0.354 N 
ATOM     31  N   UNL A   1      45.475  29.388  27.895  1.00  0.00    -0.248 NA
ATOM     32  C   UNL A   1      47.556  30.120  27.126  1.00  0.00     0.031 C 
ATOM     33  C   UNL A   1      42.526  31.973  29.967  1.00  0.00     0.029 A 
ATOM     34  C   UNL A   1      43.449  31.200  29.281  1.00  0.00     0.049 A 
ATOM     35  H   UNL A   1      43.263  29.222  28.571  1.00  0.00     0.167 HD
ATOM     36  C   UNL A   1      45.643  30.724  28.236  1.00  0.00     0.074 A 
ATOM     37  C   UNL A   1      46.962  31.111  27.776  1.00  0.00     0.031 C 
ATOM     38  C   UNL A   1      44.774  31.561  28.853  1.00  0.00     0.034 A 
BRANCH  25  39
ATOM     39  C   UNL A   1      39.196  29.155  29.869  1.00  0.00     0.023 A 
ATOM     40  C   UNL A   1      38.800  28.700  31.142  1.00  0.00     0.012 A 
ATOM     41  C   UNL A   1      38.310  29.940  29.106  1.00  0.00     0.148 A 
ATOM     42  C   UNL A   1      37.537  29.014  31.645  1.00  0.00     0.002 A 
ATOM     43  C   UNL A   1      37.065  30.277  29.627  1.00  0.00     0.091 A 
ATOM     44  F   UNL A   1      38.702  30.347  27.889  1.00  0.00    -0.205 F 
ATOM     45  C   UNL A   1      36.676  29.811  30.894  1.00  0.00     0.022 A 
BRANCH  43  46
ATOM     46  S   UNL A   1      35.912  31.356  28.770  1.00  0.00     0.127 S 
ATOM     47  O   UNL A   1      34.916  31.606  29.810  1.00  0.00    -0.237 OA
ATOM     48  O   UNL A   1      36.754  32.509  28.442  1.00  0.00    -0.237 OA
ATOM     49  O   UNL A   1      35.436  30.603  27.618  1.00  0.00    -0.744 OA
ENDBRANCH  43  46
ENDBRANCH  25  39
BRANCH  26  50
ATOM     50  C   UNL A   1      48.265  27.476  26.048  1.00  0.00     0.023 A 
ATOM     51  C   UNL A   1      49.368  27.079  26.825  1.00  0.00     0.012 A 
ATOM     52  C   UNL A   1      48.418  27.610  24.654  1.00  0.00     0.148 A 
ATOM     53  C   UNL A   1      50.608  26.843  26.228  1.00  0.00     0.002 A 
ATOM     54  C   UNL A   1      49.638  27.314  24.059  1.00  0.00     0.091 A 
ATOM     55  F   UNL A   1      47.361  28.012  23.931  1.00  0.00    -0.205 F 
ATOM     56  C   UNL A   1      50.739  26.946  24.845  1.00  0.00     0.022 A 
BRANCH  54  57
ATOM     57  S   UNL A   1      49.831  27.278  22.273  1.00  0.00     0.127 S 
ATOM     58  O   UNL A   1      49.611  28.677  21.919  1.00  0.00    -0.237 OA
ATOM     59  O   UNL A   1      51.211  26.814  22.119  1.00  0.00    -0.237 OA
ATOM     60  O   UNL A   1      48.832  26.329  21.801  1.00  0.00    -0.744 OA
ENDBRANCH  54  57
ENDBRANCH  26  50
BRANCH  38  61
ATOM     61  C   UNL A   1      45.215  32.983  29.065  1.00  0.00     0.023 A 
ATOM     62  C   UNL A   1      45.963  33.310  30.214  1.00  0.00     0.012 A 
ATOM     63  C   UNL A   1      44.957  33.975  28.099  1.00  0.00     0.148 A 
ATOM     64  C   UNL A   1      46.427  34.609  30.411  1.00  0.00     0.002 A 
ATOM     65  C   UNL A   1      45.461  35.258  28.281  1.00  0.00     0.091 A 
ATOM     66  F   UNL A   1      44.228  33.646  27.023  1.00  0.00    -0.205 F 
ATOM     67  C   UNL A   1      46.188  35.579  29.440  1.00  0.00     0.022 A 
BRANCH  65  68
ATOM     68  S   UNL A   1      45.279  36.549  27.047  1.00  0.00     0.127 S 
ATOM     69  O   UNL A   1      45.842  37.707  27.740  1.00  0.00    -0.237 OA
ATOM     70  O   UNL A   1      46.096  36.043  25.943  1.00  0.00    -0.237 OA
ATOM     71  O   UNL A   1      43.854  36.631  26.756  1.00  0.00    -0.744 OA
ENDBRANCH  65  68
ENDBRANCH  38  61
ENDBRANCH  12  13
ENDBRANCH   5   7
ENDBRANCH   2   3
ENDBRANCH   1   2
BRANCH   1  72
ATOM     72  C   UNL A   1      36.743  20.053  25.002  1.00  0.00     0.023 C 
BRANCH  72  73
ATOM     73  C   UNL A   1      36.429  21.480  25.444  1.00  0.00     0.116 C 
BRANCH  73  74
ATOM     74  N   UNL A   1      35.453  21.539  26.520  1.00  0.00    -0.352 N 
ATOM     75  C   UNL A   1      34.088  21.434  26.452  1.00  0.00     0.253 C 
ATOM     76  H   UNL A   1      35.824  21.670  27.421  1.00  0.00     0.163 HD
ATOM     77  O   UNL A   1      33.409  21.551  27.468  1.00  0.00    -0.269 OA
BRANCH  75  78
ATOM     78  C   UNL A   1      33.415  21.216  25.155  1.00  0.00     0.063 A 
ATOM     79  C   UNL A   1      33.127  19.881  24.828  1.00  0.00     0.016 A 
ATOM     80  C   UNL A   1      33.105  22.266  24.267  1.00  0.00     0.051 A 
ATOM     81  C   UNL A   1      32.483  19.577  23.633  1.00  0.00     0.001 A 
ATOM     82  C   UNL A   1      32.442  21.930  23.077  1.00  0.00     0.027 A 
ATOM     83  C   UNL A   1      32.133  20.603  22.761  1.00  0.00     0.002 A 
BRANCH  80  84
ATOM     84  N   UNL A   1      33.413  23.610  24.569  1.00  0.00    -0.355 N 
ATOM     85  H   UNL A   1      34.337  23.873  24.354  1.00  0.00     0.167 HD
BRANCH  84  86
ATOM     86  C   UNL A   1      32.631  24.639  25.121  1.00  0.00     0.039 A 
ATOM     87  C   UNL A   1      31.258  24.431  25.299  1.00  0.00     0.026 A 
ATOM     88  C   UNL A   1      33.181  25.852  25.553  1.00  0.00     0.039 A 
ATOM     89  C   UNL A   1      30.454  25.409  25.889  1.00  0.00     0.003 A 
ATOM     90  C   UNL A   1      32.385  26.852  26.140  1.00  0.00     0.058 A 
ATOM     91  C   UNL A   1      31.015  26.613  26.311  1.00  0.00     0.013 A 
BRANCH  90  92
ATOM     92  C   UNL A   1      32.992  28.151  26.605  1.00  0.00     0.416 C 
ATOM     93  F   UNL A   1      32.281  28.741  27.604  1.00  0.00    -0.166 F 
ATOM     94  F   UNL A   1      34.254  27.986  27.092  1.00  0.00    -0.166 F 
ATOM     95  F   UNL A   1      33.097  29.088  25.620  1.00  0.00    -0.166 F 
ENDBRANCH  90  92
ENDBRANCH  84  86
ENDBRANCH  80  84
ENDBRANCH  75  78
ENDBRANCH  73  74
ENDBRANCH  72  73
ENDBRANCH   1  72
TORSDOF 17
ENDMDL
