MODEL 1
REMARK VINA RESULT:     -12.5      0.000      0.000
REMARK SMILES O=C(NCCCCNC(=O)c1cc(-n2cccc2)ccc1O)c1ccc(-c2c3nc(c(-c4cccc(S(=O)(=O)[O-])c4F)c4ccc([nH]4)c(-c4cccc(S(=O)(=O)[O-])c4F)c4nc(c(-c5cccc(S(=O)(=O)[O-])c5F)c5ccc2[nH]5)C=C4)C=C3)cc1
REMARK SMILES IDX 4 1 3 2 1 3 2 4 23 6 24 7 85 8 25 9 84 10 26 11 27 12 28 13
REMARK SMILES IDX 78 14 29 15 83 16 77 17 79 18 30 19 82 20 76 21 75 22 31 24
REMARK SMILES IDX 63 25 43 26 62 27 44 28 47 29 61 30 80 31 45 32 46 33 60 35
REMARK SMILES IDX 81 36 48 37 32 38 33 39 41 40 34 41 36 42 42 43 35 44 37 45
REMARK SMILES IDX 38 46 39 47 40 48 64 49 65 50 73 51 66 52 68 53 74 54 67 55
REMARK SMILES IDX 69 56 70 57 71 58 72 59 49 60 50 61 58 62 51 63 53 64 59 65
REMARK SMILES IDX 52 66 54 67 55 68 56 69 57 70 5 71 6 72 7 73 8 74 9 75 10 77
REMARK SMILES IDX 11 78 12 79 21 80 13 81 20 82 19 83 22 84 14 86 15 87 18 88
REMARK SMILES IDX 16 89 17 90
REMARK H PARENT 3 5 79 23 47 34 8 76 22 85
REMARK Flexibility Score: inf
ROOT
ATOM      1  C   UNL A   1      34.548  29.082  26.958  1.00  0.00     0.116 C 
ENDROOT
BRANCH   1   2
ATOM      2  N   UNL A   1      34.726  30.074  28.000  1.00  0.00    -0.352 N 
ATOM      3  O   UNL A   1      35.641  31.358  29.570  1.00  0.00    -0.269 OA
ATOM      4  C   UNL A   1      35.801  30.425  28.782  1.00  0.00     0.251 C 
ATOM      5  H   UNL A   1      33.916  30.601  28.186  1.00  0.00     0.163 HD
BRANCH   4   6
ATOM      6  C   UNL A   1      37.094  29.695  28.754  1.00  0.00     0.039 A 
ATOM      7  C   UNL A   1      38.014  29.817  27.709  1.00  0.00     0.014 A 
ATOM      8  C   UNL A   1      37.414  28.881  29.854  1.00  0.00     0.014 A 
ATOM      9  C   UNL A   1      39.186  29.072  27.714  1.00  0.00     0.010 A 
ATOM     10  C   UNL A   1      38.614  28.162  29.884  1.00  0.00     0.010 A 
ATOM     11  C   UNL A   1      39.500  28.260  28.808  1.00  0.00    -0.014 A 
BRANCH  11  12
ATOM     12  C   UNL A   1      40.890  27.744  28.866  1.00  0.00     0.031 A 
ATOM     13  C   UNL A   1      40.957  26.285  28.381  1.00  0.00     0.074 A 
ATOM     14  C   UNL A   1      41.844  28.537  29.440  1.00  0.00     0.049 A 
ATOM     15  N   UNL A   1      41.622  25.276  28.865  1.00  0.00    -0.248 NA
ATOM     16  C   UNL A   1      40.028  25.846  27.306  1.00  0.00     0.031 C 
ATOM     17  C   UNL A   1      41.640  29.947  29.830  1.00  0.00     0.029 A 
ATOM     18  N   UNL A   1      43.160  28.336  29.820  1.00  0.00    -0.354 N 
ATOM     19  C   UNL A   1      41.365  24.168  28.019  1.00  0.00     0.074 A 
ATOM     20  C   UNL A   1      40.258  24.536  27.195  1.00  0.00     0.031 C 
ATOM     21  C   UNL A   1      42.738  30.442  30.442  1.00  0.00     0.029 A 
ATOM     22  C   UNL A   1      43.771  29.419  30.498  1.00  0.00     0.049 A 
ATOM     23  H   UNL A   1      43.639  27.496  29.632  1.00  0.00     0.167 HD
ATOM     24  C   UNL A   1      42.185  23.078  27.943  1.00  0.00     0.034 A 
ATOM     25  C   UNL A   1      45.002  29.491  31.098  1.00  0.00     0.034 A 
ATOM     26  C   UNL A   1      43.312  23.277  28.793  1.00  0.00     0.049 A 
ATOM     27  C   UNL A   1      45.682  28.224  30.802  1.00  0.00     0.074 A 
ATOM     28  C   UNL A   1      43.518  23.184  30.142  1.00  0.00     0.029 A 
ATOM     29  N   UNL A   1      44.376  23.916  28.206  1.00  0.00    -0.354 N 
ATOM     30  N   UNL A   1      46.216  27.920  29.658  1.00  0.00    -0.248 NA
ATOM     31  C   UNL A   1      45.720  27.181  31.838  1.00  0.00     0.031 C 
ATOM     32  C   UNL A   1      44.568  24.091  30.391  1.00  0.00     0.029 A 
ATOM     33  C   UNL A   1      45.023  24.628  29.179  1.00  0.00     0.049 A 
ATOM     34  H   UNL A   1      44.628  23.870  27.255  1.00  0.00     0.167 HD
ATOM     35  C   UNL A   1      46.312  26.553  29.746  1.00  0.00     0.074 A 
ATOM     36  C   UNL A   1      46.357  26.236  31.154  1.00  0.00     0.031 C 
ATOM     37  C   UNL A   1      45.776  25.788  28.762  1.00  0.00     0.034 A 
BRANCH  24  38
ATOM     38  C   UNL A   1      42.283  21.892  27.002  1.00  0.00     0.023 A 
ATOM     39  C   UNL A   1      41.295  20.880  27.198  1.00  0.00     0.012 A 
ATOM     40  C   UNL A   1      43.368  21.564  26.174  1.00  0.00     0.148 A 
ATOM     41  C   UNL A   1      41.435  19.581  26.712  1.00  0.00     0.002 A 
ATOM     42  C   UNL A   1      43.477  20.274  25.640  1.00  0.00     0.091 A 
ATOM     43  F   UNL A   1      44.338  22.460  25.968  1.00  0.00    -0.205 F 
ATOM     44  C   UNL A   1      42.538  19.275  25.941  1.00  0.00     0.022 A 
BRANCH  42  45
ATOM     45  S   UNL A   1      44.811  19.789  24.538  1.00  0.00     0.127 S 
ATOM     46  O   UNL A   1      44.513  18.381  24.297  1.00  0.00    -0.237 OA
ATOM     47  O   UNL A   1      44.585  20.662  23.382  1.00  0.00    -0.237 OA
ATOM     48  O   UNL A   1      46.041  20.081  25.264  1.00  0.00    -0.744 OA
ENDBRANCH  42  45
ENDBRANCH  24  38
BRANCH  25  49
ATOM     49  C   UNL A   1      45.746  30.457  32.000  1.00  0.00     0.023 A 
ATOM     50  C   UNL A   1      47.050  30.910  31.758  1.00  0.00     0.012 A 
ATOM     51  C   UNL A   1      45.116  30.998  33.165  1.00  0.00     0.148 A 
ATOM     52  C   UNL A   1      47.646  31.903  32.564  1.00  0.00     0.002 A 
ATOM     53  C   UNL A   1      45.657  32.050  33.895  1.00  0.00     0.091 A 
ATOM     54  F   UNL A   1      43.978  30.464  33.618  1.00  0.00    -0.205 F 
ATOM     55  C   UNL A   1      46.937  32.503  33.605  1.00  0.00     0.022 A 
BRANCH  53  56
ATOM     56  S   UNL A   1      44.696  32.939  35.139  1.00  0.00     0.127 S 
ATOM     57  O   UNL A   1      43.479  33.285  34.408  1.00  0.00    -0.237 OA
ATOM     58  O   UNL A   1      44.524  31.908  36.164  1.00  0.00    -0.237 OA
ATOM     59  O   UNL A   1      45.507  34.075  35.558  1.00  0.00    -0.744 OA
ENDBRANCH  53  56
ENDBRANCH  25  49
BRANCH  37  60
ATOM     60  C   UNL A   1      45.716  26.478  27.404  1.00  0.00     0.023 A 
ATOM     61  C   UNL A   1      44.451  26.894  26.944  1.00  0.00     0.012 A 
ATOM     62  C   UNL A   1      46.807  26.605  26.512  1.00  0.00     0.148 A 
ATOM     63  C   UNL A   1      44.274  27.400  25.652  1.00  0.00     0.002 A 
ATOM     64  C   UNL A   1      46.630  27.101  25.217  1.00  0.00     0.091 A 
ATOM     65  F   UNL A   1      48.013  26.231  26.929  1.00  0.00    -0.205 F 
ATOM     66  C   UNL A   1      45.360  27.501  24.788  1.00  0.00     0.022 A 
BRANCH  64  67
ATOM     67  S   UNL A   1      47.956  27.202  23.994  1.00  0.00     0.127 S 
ATOM     68  O   UNL A   1      49.016  27.894  24.734  1.00  0.00    -0.237 OA
ATOM     69  O   UNL A   1      48.236  25.793  23.731  1.00  0.00    -0.237 OA
ATOM     70  O   UNL A   1      47.431  27.958  22.863  1.00  0.00    -0.744 OA
ENDBRANCH  64  67
ENDBRANCH  37  60
ENDBRANCH  11  12
ENDBRANCH   4   6
ENDBRANCH   1   2
BRANCH   1  71
ATOM     71  C   UNL A   1      33.149  28.474  26.867  1.00  0.00     0.023 C 
BRANCH  71  72
ATOM     72  C   UNL A   1      33.103  27.017  26.405  1.00  0.00     0.023 C 
BRANCH  72  73
ATOM     73  C   UNL A   1      31.735  26.523  25.948  1.00  0.00     0.116 C 
BRANCH  73  74
ATOM     74  N   UNL A   1      31.217  25.463  26.794  1.00  0.00    -0.352 N 
ATOM     75  C   UNL A   1      31.359  24.105  26.660  1.00  0.00     0.255 C 
ATOM     76  H   UNL A   1      30.691  25.760  27.570  1.00  0.00     0.163 HD
ATOM     77  O   UNL A   1      30.816  23.348  27.450  1.00  0.00    -0.269 OA
BRANCH  75  78
ATOM     78  C   UNL A   1      32.118  23.536  25.527  1.00  0.00     0.083 A 
ATOM     79  C   UNL A   1      33.433  23.125  25.795  1.00  0.00     0.044 A 
ATOM     80  C   UNL A   1      31.624  23.502  24.219  1.00  0.00     0.128 A 
ATOM     81  C   UNL A   1      34.257  22.704  24.747  1.00  0.00     0.046 A 
ATOM     82  C   UNL A   1      32.434  23.044  23.180  1.00  0.00     0.049 A 
ATOM     83  C   UNL A   1      33.753  22.662  23.439  1.00  0.00     0.030 A 
BRANCH  80  84
ATOM     84  O   UNL A   1      30.359  23.936  23.940  1.00  0.00    -0.507 OA
ATOM     85  H   UNL A   1      29.630  23.591  24.416  1.00  0.00     0.293 HD
ENDBRANCH  80  84
BRANCH  81  86
ATOM     86  N   UNL A   1      35.611  22.362  25.003  1.00  0.00    -0.324 N 
ATOM     87  C   UNL A   1      36.194  21.129  24.774  1.00  0.00     0.091 A 
ATOM     88  C   UNL A   1      36.591  23.199  25.498  1.00  0.00     0.091 A 
ATOM     89  C   UNL A   1      37.531  21.200  25.097  1.00  0.00     0.020 A 
ATOM     90  C   UNL A   1      37.777  22.500  25.580  1.00  0.00     0.020 A 
ENDBRANCH  81  86
ENDBRANCH  75  78
ENDBRANCH  73  74
ENDBRANCH  72  73
ENDBRANCH  71  72
ENDBRANCH   1  71
TORSDOF 16
ENDMDL
MODEL 2
REMARK VINA RESULT:     -12.5      1.403      1.647
REMARK SMILES O=C(NCCCCNC(=O)c1cc(-n2cccc2)ccc1O)c1ccc(-c2c3nc(c(-c4cccc(S(=O)(=O)[O-])c4F)c4ccc([nH]4)c(-c4cccc(S(=O)(=O)[O-])c4F)c4nc(c(-c5cccc(S(=O)(=O)[O-])c5F)c5ccc2[nH]5)C=C4)C=C3)cc1
REMARK SMILES IDX 4 1 3 2 1 3 2 4 23 6 24 7 85 8 25 9 84 10 26 11 27 12 28 13
REMARK SMILES IDX 78 14 29 15 83 16 77 17 79 18 30 19 82 20 76 21 75 22 31 24
REMARK SMILES IDX 63 25 43 26 62 27 44 28 47 29 61 30 80 31 45 32 46 33 60 35
REMARK SMILES IDX 81 36 48 37 32 38 33 39 41 40 34 41 36 42 42 43 35 44 37 45
REMARK SMILES IDX 38 46 39 47 40 48 64 49 65 50 73 51 66 52 68 53 74 54 67 55
REMARK SMILES IDX 69 56 70 57 71 58 72 59 49 60 50 61 58 62 51 63 53 64 59 65
REMARK SMILES IDX 52 66 54 67 55 68 56 69 57 70 5 71 6 72 7 73 8 74 9 75 10 77
REMARK SMILES IDX 11 78 12 79 21 80 13 81 20 82 19 83 22 84 14 86 15 87 18 88
REMARK SMILES IDX 16 89 17 90
REMARK H PARENT 3 5 79 23 47 34 8 76 22 85
REMARK Flexibility Score: inf
ROOT
ATOM      1  C   UNL A   1      34.491  29.018  27.013  1.00  0.00     0.116 C 
ENDROOT
BRANCH   1   2
ATOM      2  N   UNL A   1      34.690  30.054  28.008  1.00  0.00    -0.352 N 
ATOM      3  O   UNL A   1      35.636  31.405  29.501  1.00  0.00    -0.269 OA
ATOM      4  C   UNL A   1      35.780  30.439  28.751  1.00  0.00     0.251 C 
ATOM      5  H   UNL A   1      33.883  30.588  28.187  1.00  0.00     0.163 HD
BRANCH   4   6
ATOM      6  C   UNL A   1      37.074  29.708  28.727  1.00  0.00     0.039 A 
ATOM      7  C   UNL A   1      37.999  29.835  27.688  1.00  0.00     0.014 A 
ATOM      8  C   UNL A   1      37.388  28.891  29.827  1.00  0.00     0.014 A 
ATOM      9  C   UNL A   1      39.170  29.089  27.696  1.00  0.00     0.010 A 
ATOM     10  C   UNL A   1      38.586  28.171  29.860  1.00  0.00     0.010 A 
ATOM     11  C   UNL A   1      39.479  28.272  28.789  1.00  0.00    -0.014 A 
BRANCH  11  12
ATOM     12  C   UNL A   1      40.868  27.757  28.853  1.00  0.00     0.031 A 
ATOM     13  C   UNL A   1      40.936  26.294  28.376  1.00  0.00     0.074 A 
ATOM     14  C   UNL A   1      41.822  28.552  29.424  1.00  0.00     0.049 A 
ATOM     15  N   UNL A   1      41.598  25.287  28.867  1.00  0.00    -0.248 NA
ATOM     16  C   UNL A   1      40.008  25.850  27.301  1.00  0.00     0.031 C 
ATOM     17  C   UNL A   1      41.618  29.963  29.807  1.00  0.00     0.029 A 
ATOM     18  N   UNL A   1      43.137  28.351  29.808  1.00  0.00    -0.354 N 
ATOM     19  C   UNL A   1      41.343  24.175  28.027  1.00  0.00     0.074 A 
ATOM     20  C   UNL A   1      40.237  24.540  27.198  1.00  0.00     0.031 C 
ATOM     21  C   UNL A   1      42.715  30.461  30.418  1.00  0.00     0.029 A 
ATOM     22  C   UNL A   1      43.747  29.438  30.482  1.00  0.00     0.049 A 
ATOM     23  H   UNL A   1      43.615  27.510  29.626  1.00  0.00     0.167 HD
ATOM     24  C   UNL A   1      42.162  23.084  27.958  1.00  0.00     0.034 A 
ATOM     25  C   UNL A   1      44.976  29.512  31.084  1.00  0.00     0.034 A 
ATOM     26  C   UNL A   1      43.287  23.287  28.809  1.00  0.00     0.049 A 
ATOM     27  C   UNL A   1      45.656  28.243  30.796  1.00  0.00     0.074 A 
ATOM     28  C   UNL A   1      43.491  23.202  30.159  1.00  0.00     0.029 A 
ATOM     29  N   UNL A   1      44.353  23.922  28.221  1.00  0.00    -0.354 N 
ATOM     30  N   UNL A   1      46.193  27.933  29.655  1.00  0.00    -0.248 NA
ATOM     31  C   UNL A   1      45.691  27.206  31.838  1.00  0.00     0.031 C 
ATOM     32  C   UNL A   1      44.541  24.109  30.405  1.00  0.00     0.029 A 
ATOM     33  C   UNL A   1      44.998  24.639  29.191  1.00  0.00     0.049 A 
ATOM     34  H   UNL A   1      44.607  23.870  27.271  1.00  0.00     0.167 HD
ATOM     35  C   UNL A   1      46.288  26.566  29.750  1.00  0.00     0.074 A 
ATOM     36  C   UNL A   1      46.329  26.257  31.160  1.00  0.00     0.031 C 
ATOM     37  C   UNL A   1      45.753  25.796  28.769  1.00  0.00     0.034 A 
BRANCH  24  38
ATOM     38  C   UNL A   1      42.260  21.893  27.024  1.00  0.00     0.023 A 
ATOM     39  C   UNL A   1      41.291  20.868  27.244  1.00  0.00     0.012 A 
ATOM     40  C   UNL A   1      43.337  21.575  26.179  1.00  0.00     0.148 A 
ATOM     41  C   UNL A   1      41.442  19.568  26.765  1.00  0.00     0.002 A 
ATOM     42  C   UNL A   1      43.455  20.283  25.653  1.00  0.00     0.091 A 
ATOM     43  F   UNL A   1      44.289  22.484  25.950  1.00  0.00    -0.205 F 
ATOM     44  C   UNL A   1      42.536  19.273  25.976  1.00  0.00     0.022 A 
BRANCH  42  45
ATOM     45  S   UNL A   1      44.777  19.809  24.531  1.00  0.00     0.127 S 
ATOM     46  O   UNL A   1      45.967  20.079  25.329  1.00  0.00    -0.237 OA
ATOM     47  O   UNL A   1      44.500  18.385  24.318  1.00  0.00    -0.237 OA
ATOM     48  O   UNL A   1      44.589  20.629  23.340  1.00  0.00    -0.744 OA
ENDBRANCH  42  45
ENDBRANCH  24  38
BRANCH  25  49
ATOM     49  C   UNL A   1      45.720  30.483  31.982  1.00  0.00     0.023 A 
ATOM     50  C   UNL A   1      45.358  30.761  33.307  1.00  0.00     0.012 A 
ATOM     51  C   UNL A   1      46.888  31.161  31.510  1.00  0.00     0.148 A 
ATOM     52  C   UNL A   1      46.158  31.579  34.132  1.00  0.00     0.002 A 
ATOM     53  C   UNL A   1      47.733  31.879  32.349  1.00  0.00     0.091 A 
ATOM     54  F   UNL A   1      47.184  31.156  30.207  1.00  0.00    -0.205 F 
ATOM     55  C   UNL A   1      47.365  32.104  33.669  1.00  0.00     0.022 A 
BRANCH  53  56
ATOM     56  S   UNL A   1      49.366  32.431  31.810  1.00  0.00     0.127 S 
ATOM     57  O   UNL A   1      49.900  33.057  33.018  1.00  0.00    -0.237 OA
ATOM     58  O   UNL A   1      49.996  31.161  31.447  1.00  0.00    -0.237 OA
ATOM     59  O   UNL A   1      49.151  33.337  30.690  1.00  0.00    -0.744 OA
ENDBRANCH  53  56
ENDBRANCH  25  49
BRANCH  37  60
ATOM     60  C   UNL A   1      45.696  26.479  27.408  1.00  0.00     0.023 A 
ATOM     61  C   UNL A   1      44.433  26.895  26.944  1.00  0.00     0.012 A 
ATOM     62  C   UNL A   1      46.788  26.599  26.516  1.00  0.00     0.148 A 
ATOM     63  C   UNL A   1      44.258  27.394  25.649  1.00  0.00     0.002 A 
ATOM     64  C   UNL A   1      46.615  27.088  25.218  1.00  0.00     0.091 A 
ATOM     65  F   UNL A   1      47.993  26.224  26.937  1.00  0.00    -0.205 F 
ATOM     66  C   UNL A   1      45.346  27.488  24.786  1.00  0.00     0.022 A 
BRANCH  64  67
ATOM     67  S   UNL A   1      47.943  27.178  23.997  1.00  0.00     0.127 S 
ATOM     68  O   UNL A   1      49.003  27.871  24.734  1.00  0.00    -0.237 OA
ATOM     69  O   UNL A   1      48.218  25.767  23.740  1.00  0.00    -0.237 OA
ATOM     70  O   UNL A   1      47.421  27.931  22.862  1.00  0.00    -0.744 OA
ENDBRANCH  64  67
ENDBRANCH  37  60
ENDBRANCH  11  12
ENDBRANCH   4   6
ENDBRANCH   1   2
BRANCH   1  71
ATOM     71  C   UNL A   1      33.101  28.383  27.001  1.00  0.00     0.023 C 
BRANCH  71  72
ATOM     72  C   UNL A   1      33.039  26.970  26.419  1.00  0.00     0.023 C 
BRANCH  72  73
ATOM     73  C   UNL A   1      31.657  26.516  25.962  1.00  0.00     0.116 C 
BRANCH  73  74
ATOM     74  N   UNL A   1      31.130  25.436  26.776  1.00  0.00    -0.352 N 
ATOM     75  C   UNL A   1      31.277  24.082  26.614  1.00  0.00     0.255 C 
ATOM     76  H   UNL A   1      30.593  25.714  27.552  1.00  0.00     0.163 HD
ATOM     77  O   UNL A   1      30.725  23.306  27.379  1.00  0.00    -0.269 OA
BRANCH  75  78
ATOM     78  C   UNL A   1      32.052  23.540  25.478  1.00  0.00     0.083 A 
ATOM     79  C   UNL A   1      33.369  23.141  25.751  1.00  0.00     0.044 A 
ATOM     80  C   UNL A   1      31.569  23.521  24.166  1.00  0.00     0.128 A 
ATOM     81  C   UNL A   1      34.208  22.747  24.703  1.00  0.00     0.046 A 
ATOM     82  C   UNL A   1      32.393  23.089  23.126  1.00  0.00     0.049 A 
ATOM     83  C   UNL A   1      33.715  22.720  23.391  1.00  0.00     0.030 A 
BRANCH  80  84
ATOM     84  O   UNL A   1      30.301  23.944  23.883  1.00  0.00    -0.507 OA
ATOM     85  H   UNL A   1      30.002  24.772  24.201  1.00  0.00     0.293 HD
ENDBRANCH  80  84
BRANCH  81  86
ATOM     86  N   UNL A   1      35.564  22.418  24.965  1.00  0.00    -0.324 N 
ATOM     87  C   UNL A   1      36.102  21.145  24.974  1.00  0.00     0.091 A 
ATOM     88  C   UNL A   1      36.589  23.304  25.231  1.00  0.00     0.091 A 
ATOM     89  C   UNL A   1      37.455  21.233  25.216  1.00  0.00     0.020 A 
ATOM     90  C   UNL A   1      37.758  22.596  25.405  1.00  0.00     0.020 A 
ENDBRANCH  81  86
ENDBRANCH  75  78
ENDBRANCH  73  74
ENDBRANCH  72  73
ENDBRANCH  71  72
ENDBRANCH   1  71
TORSDOF 16
ENDMDL
MODEL 3
REMARK VINA RESULT:     -12.4      2.102      3.718
REMARK SMILES O=C(NCCCCNC(=O)c1cc(-n2cccc2)ccc1O)c1ccc(-c2c3nc(c(-c4cccc(S(=O)(=O)[O-])c4F)c4ccc([nH]4)c(-c4cccc(S(=O)(=O)[O-])c4F)c4nc(c(-c5cccc(S(=O)(=O)[O-])c5F)c5ccc2[nH]5)C=C4)C=C3)cc1
REMARK SMILES IDX 4 1 3 2 1 3 2 4 23 6 24 7 85 8 25 9 84 10 26 11 27 12 28 13
REMARK SMILES IDX 78 14 29 15 83 16 77 17 79 18 30 19 82 20 76 21 75 22 31 24
REMARK SMILES IDX 63 25 43 26 62 27 44 28 47 29 61 30 80 31 45 32 46 33 60 35
REMARK SMILES IDX 81 36 48 37 32 38 33 39 41 40 34 41 36 42 42 43 35 44 37 45
REMARK SMILES IDX 38 46 39 47 40 48 64 49 65 50 73 51 66 52 68 53 74 54 67 55
REMARK SMILES IDX 69 56 70 57 71 58 72 59 49 60 50 61 58 62 51 63 53 64 59 65
REMARK SMILES IDX 52 66 54 67 55 68 56 69 57 70 5 71 6 72 7 73 8 74 9 75 10 77
REMARK SMILES IDX 11 78 12 79 21 80 13 81 20 82 19 83 22 84 14 86 15 87 18 88
REMARK SMILES IDX 16 89 17 90
REMARK H PARENT 3 5 79 23 47 34 8 76 22 85
REMARK Flexibility Score: inf
ROOT
ATOM      1  C   UNL A   1      34.543  29.120  26.962  1.00  0.00     0.116 C 
ENDROOT
BRANCH   1   2
ATOM      2  N   UNL A   1      34.713  30.102  28.015  1.00  0.00    -0.352 N 
ATOM      3  O   UNL A   1      35.617  31.372  29.604  1.00  0.00    -0.269 OA
ATOM      4  C   UNL A   1      35.783  30.447  28.807  1.00  0.00     0.251 C 
ATOM      5  H   UNL A   1      33.901  30.626  28.201  1.00  0.00     0.163 HD
BRANCH   4   6
ATOM      6  C   UNL A   1      37.078  29.719  28.779  1.00  0.00     0.039 A 
ATOM      7  C   UNL A   1      38.001  29.852  27.740  1.00  0.00     0.014 A 
ATOM      8  C   UNL A   1      37.394  28.898  29.875  1.00  0.00     0.014 A 
ATOM      9  C   UNL A   1      39.175  29.109  27.743  1.00  0.00     0.010 A 
ATOM     10  C   UNL A   1      38.595  28.181  29.904  1.00  0.00     0.010 A 
ATOM     11  C   UNL A   1      39.486  28.288  28.833  1.00  0.00    -0.014 A 
BRANCH  11  12
ATOM     12  C   UNL A   1      40.877  27.775  28.893  1.00  0.00     0.031 A 
ATOM     13  C   UNL A   1      40.944  26.311  28.423  1.00  0.00     0.074 A 
ATOM     14  C   UNL A   1      41.831  28.575  29.456  1.00  0.00     0.049 A 
ATOM     15  N   UNL A   1      41.611  25.308  28.916  1.00  0.00    -0.248 NA
ATOM     16  C   UNL A   1      40.013  25.860  27.354  1.00  0.00     0.031 C 
ATOM     17  C   UNL A   1      41.626  29.988  29.833  1.00  0.00     0.029 A 
ATOM     18  N   UNL A   1      43.148  28.379  29.835  1.00  0.00    -0.354 N 
ATOM     19  C   UNL A   1      41.354  24.191  28.083  1.00  0.00     0.074 A 
ATOM     20  C   UNL A   1      40.244  24.549  27.257  1.00  0.00     0.031 C 
ATOM     21  C   UNL A   1      42.725  30.491  30.437  1.00  0.00     0.029 A 
ATOM     22  C   UNL A   1      43.760  29.470  30.501  1.00  0.00     0.049 A 
ATOM     23  H   UNL A   1      43.627  27.538  29.655  1.00  0.00     0.167 HD
ATOM     24  C   UNL A   1      42.175  23.101  28.015  1.00  0.00     0.034 A 
ATOM     25  C   UNL A   1      44.991  29.549  31.098  1.00  0.00     0.034 A 
ATOM     26  C   UNL A   1      43.304  23.311  28.861  1.00  0.00     0.049 A 
ATOM     27  C   UNL A   1      45.672  28.280  30.813  1.00  0.00     0.074 A 
ATOM     28  C   UNL A   1      43.513  23.232  30.211  1.00  0.00     0.029 A 
ATOM     29  N   UNL A   1      44.366  23.944  28.265  1.00  0.00    -0.354 N 
ATOM     30  N   UNL A   1      46.204  27.965  29.671  1.00  0.00    -0.248 NA
ATOM     31  C   UNL A   1      45.713  27.248  31.860  1.00  0.00     0.031 C 
ATOM     32  C   UNL A   1      44.562  24.142  30.447  1.00  0.00     0.029 A 
ATOM     33  C   UNL A   1      45.014  24.667  29.229  1.00  0.00     0.049 A 
ATOM     34  H   UNL A   1      44.616  23.888  27.314  1.00  0.00     0.167 HD
ATOM     35  C   UNL A   1      46.302  26.599  29.773  1.00  0.00     0.074 A 
ATOM     36  C   UNL A   1      46.350  26.297  31.184  1.00  0.00     0.031 C 
ATOM     37  C   UNL A   1      45.765  25.823  28.798  1.00  0.00     0.034 A 
BRANCH  24  38
ATOM     38  C   UNL A   1      42.272  21.905  27.087  1.00  0.00     0.023 A 
ATOM     39  C   UNL A   1      41.329  20.863  27.340  1.00  0.00     0.012 A 
ATOM     40  C   UNL A   1      43.330  21.603  26.215  1.00  0.00     0.148 A 
ATOM     41  C   UNL A   1      41.493  19.563  26.866  1.00  0.00     0.002 A 
ATOM     42  C   UNL A   1      43.460  20.310  25.695  1.00  0.00     0.091 A 
ATOM     43  F   UNL A   1      44.258  22.528  25.955  1.00  0.00    -0.205 F 
ATOM     44  C   UNL A   1      42.570  19.283  26.050  1.00  0.00     0.022 A 
BRANCH  42  45
ATOM     45  S   UNL A   1      44.760  19.853  24.540  1.00  0.00     0.127 S 
ATOM     46  O   UNL A   1      44.518  20.768  23.430  1.00  0.00    -0.237 OA
ATOM     47  O   UNL A   1      45.971  20.146  25.313  1.00  0.00    -0.237 OA
ATOM     48  O   UNL A   1      44.562  18.435  24.272  1.00  0.00    -0.744 OA
ENDBRANCH  42  45
ENDBRANCH  24  38
BRANCH  25  49
ATOM     49  C   UNL A   1      45.736  30.526  31.987  1.00  0.00     0.023 A 
ATOM     50  C   UNL A   1      46.812  31.315  31.558  1.00  0.00     0.012 A 
ATOM     51  C   UNL A   1      45.340  30.719  33.348  1.00  0.00     0.148 A 
ATOM     52  C   UNL A   1      47.387  32.294  32.395  1.00  0.00     0.002 A 
ATOM     53  C   UNL A   1      45.831  31.753  34.137  1.00  0.00     0.091 A 
ATOM     54  F   UNL A   1      44.493  29.862  33.926  1.00  0.00    -0.205 F 
ATOM     55  C   UNL A   1      46.871  32.543  33.667  1.00  0.00     0.022 A 
BRANCH  53  56
ATOM     56  S   UNL A   1      45.073  32.187  35.718  1.00  0.00     0.127 S 
ATOM     57  O   UNL A   1      45.898  33.308  36.164  1.00  0.00    -0.237 OA
ATOM     58  O   UNL A   1      43.718  32.549  35.301  1.00  0.00    -0.237 OA
ATOM     59  O   UNL A   1      45.148  30.997  36.556  1.00  0.00    -0.744 OA
ENDBRANCH  53  56
ENDBRANCH  25  49
BRANCH  37  60
ATOM     60  C   UNL A   1      45.700  26.500  27.433  1.00  0.00     0.023 A 
ATOM     61  C   UNL A   1      44.434  26.907  26.971  1.00  0.00     0.012 A 
ATOM     62  C   UNL A   1      46.790  26.620  26.538  1.00  0.00     0.148 A 
ATOM     63  C   UNL A   1      44.253  27.399  25.675  1.00  0.00     0.002 A 
ATOM     64  C   UNL A   1      46.610  27.102  25.238  1.00  0.00     0.091 A 
ATOM     65  F   UNL A   1      47.998  26.253  26.958  1.00  0.00    -0.205 F 
ATOM     66  C   UNL A   1      45.338  27.494  24.808  1.00  0.00     0.022 A 
BRANCH  64  67
ATOM     67  S   UNL A   1      47.934  27.193  24.013  1.00  0.00     0.127 S 
ATOM     68  O   UNL A   1      47.316  27.976  22.939  1.00  0.00    -0.237 OA
ATOM     69  O   UNL A   1      48.979  27.904  24.744  1.00  0.00    -0.237 OA
ATOM     70  O   UNL A   1      48.255  25.821  23.637  1.00  0.00    -0.744 OA
ENDBRANCH  64  67
ENDBRANCH  37  60
ENDBRANCH  11  12
ENDBRANCH   4   6
ENDBRANCH   1   2
BRANCH   1  71
ATOM     71  C   UNL A   1      33.333  29.339  26.054  1.00  0.00     0.023 C 
BRANCH  71  72
ATOM     72  C   UNL A   1      32.062  28.604  26.481  1.00  0.00     0.023 C 
BRANCH  72  73
ATOM     73  C   UNL A   1      32.067  27.100  26.232  1.00  0.00     0.116 C 
BRANCH  73  74
ATOM     74  N   UNL A   1      32.660  26.750  24.955  1.00  0.00    -0.352 N 
ATOM     75  C   UNL A   1      32.082  26.734  23.711  1.00  0.00     0.255 C 
ATOM     76  H   UNL A   1      33.608  26.488  24.985  1.00  0.00     0.163 HD
ATOM     77  O   UNL A   1      32.725  26.370  22.737  1.00  0.00    -0.269 OA
BRANCH  75  78
ATOM     78  C   UNL A   1      30.660  27.097  23.537  1.00  0.00     0.083 A 
ATOM     79  C   UNL A   1      30.396  28.399  23.083  1.00  0.00     0.044 A 
ATOM     80  C   UNL A   1      29.608  26.253  23.906  1.00  0.00     0.128 A 
ATOM     81  C   UNL A   1      29.076  28.860  23.025  1.00  0.00     0.046 A 
ATOM     82  C   UNL A   1      28.290  26.700  23.808  1.00  0.00     0.049 A 
ATOM     83  C   UNL A   1      28.024  28.006  23.386  1.00  0.00     0.030 A 
BRANCH  80  84
ATOM     84  O   UNL A   1      29.855  24.999  24.385  1.00  0.00    -0.507 OA
ATOM     85  H   UNL A   1      30.099  24.312  23.796  1.00  0.00     0.293 HD
ENDBRANCH  80  84
BRANCH  81  86
ATOM     86  N   UNL A   1      28.810  30.200  22.642  1.00  0.00    -0.324 N 
ATOM     87  C   UNL A   1      28.484  30.631  21.369  1.00  0.00     0.091 A 
ATOM     88  C   UNL A   1      28.802  31.306  23.468  1.00  0.00     0.091 A 
ATOM     89  C   UNL A   1      28.248  31.988  21.402  1.00  0.00     0.020 A 
ATOM     90  C   UNL A   1      28.475  32.419  22.725  1.00  0.00     0.020 A 
ENDBRANCH  81  86
ENDBRANCH  75  78
ENDBRANCH  73  74
ENDBRANCH  72  73
ENDBRANCH  71  72
ENDBRANCH   1  71
TORSDOF 16
ENDMDL
