MODEL 1
REMARK VINA RESULT:     -12.5      0.000      0.000
REMARK SMILES CCc1cc(OC(F)(F)F)cc2c1O[C@@H](C(F)(F)F)C(C(=O)NCCCCNC(=O)c1ccc(-c3c4nc(c(-c5cccc(S(=O)(=O)[O-])c5F)c5ccc([nH]5)c(-c5cccc(S(=O)(=O)[O-])c5F)c5nc(c(-c6cccc(S(=O)(=O)[O-])c6F)c6ccc3[nH]6)C=C5)C=C4)cc1)=C2
REMARK SMILES IDX 26 1 25 2 24 3 23 4 21 5 22 6 20 8 3 9 4 10 13 11 5 12 12 13
REMARK SMILES IDX 14 14 11 15 94 16 15 17 2 18 1 19 6 20 7 21 8 22 9 23 10 24
REMARK SMILES IDX 16 25 17 26 18 27 19 28 27 29 28 30 29 31 30 33 31 34 32 35
REMARK SMILES IDX 93 36 33 37 92 38 34 39 35 40 36 41 86 42 37 43 91 44 85 45
REMARK SMILES IDX 87 46 38 47 90 48 84 49 83 50 39 52 71 53 51 54 70 55 52 56
REMARK SMILES IDX 55 57 69 58 88 59 53 60 54 61 68 63 89 64 56 65 40 66 41 67
REMARK SMILES IDX 49 68 42 69 44 70 50 71 43 72 45 73 46 74 47 75 48 76 72 77
REMARK SMILES IDX 73 78 81 79 74 80 76 81 82 82 75 83 77 84 78 85 79 86 80 87
REMARK SMILES IDX 57 88 58 89 66 90 59 91 61 92 67 93 60 94 62 95 63 96 64 97
REMARK SMILES IDX 65 98
REMARK H PARENT 23 7 28 32 87 51 55 62
REMARK Flexibility Score: inf
ROOT
ATOM      1  C   UNL A   1      36.155  22.047  24.384  1.00  0.00     0.023 C 
ENDROOT
BRANCH   1   2
ATOM      2  C   UNL A   1      34.765  22.677  24.502  1.00  0.00     0.023 C 
BRANCH   2   3
ATOM      3  C   UNL A   1      34.594  23.617  25.702  1.00  0.00     0.116 C 
BRANCH   3   4
ATOM      4  N   UNL A   1      33.430  23.237  26.482  1.00  0.00    -0.352 N 
ATOM      5  C   UNL A   1      32.264  23.875  26.764  1.00  0.00     0.251 C 
ATOM      6  O   UNL A   1      31.493  23.358  27.569  1.00  0.00    -0.270 OA
ATOM      7  H   UNL A   1      33.498  22.342  26.888  1.00  0.00     0.163 HD
BRANCH   5   8
ATOM      8  C   UNL A   1      31.846  25.140  26.098  1.00  0.00     0.067 C 
ATOM      9  C   UNL A   1      30.548  28.555  23.990  1.00  0.00    -0.002 A 
ATOM     10  C   UNL A   1      30.968  29.823  24.445  1.00  0.00     0.054 A 
ATOM     11  C   UNL A   1      30.960  27.411  24.697  1.00  0.00     0.131 A 
ATOM     12  C   UNL A   1      31.813  29.949  25.550  1.00  0.00     0.130 A 
ATOM     13  C   UNL A   1      31.788  27.535  25.809  1.00  0.00     0.021 A 
ATOM     14  O   UNL A   1      30.559  26.197  24.224  1.00  0.00    -0.475 OA
ATOM     15  C   UNL A   1      32.213  28.799  26.229  1.00  0.00     0.058 A 
ATOM     16  C   UNL A   1      32.255  26.348  26.503  1.00  0.00     0.025 C 
ATOM     17  C   UNL A   1      30.773  24.998  25.026  1.00  0.00     0.314 C 
BRANCH   9  18
ATOM     18  C   UNL A   1      29.616  28.443  22.800  1.00  0.00     0.036 C 
ATOM     19  C   UNL A   1      28.348  29.282  22.909  1.00  0.00     0.009 C 
ENDBRANCH   9  18
BRANCH  12  20
ATOM     20  O   UNL A   1      32.317  31.108  26.066  1.00  0.00    -0.406 OA
BRANCH  20  21
ATOM     21  C   UNL A   1      31.401  32.091  26.511  1.00  0.00     0.573 C 
ATOM     22  F   UNL A   1      30.777  32.690  25.473  1.00  0.00    -0.132 F 
ATOM     23  F   UNL A   1      30.481  31.555  27.341  1.00  0.00    -0.132 F 
ATOM     24  F   UNL A   1      32.080  33.038  27.195  1.00  0.00    -0.132 F 
ENDBRANCH  20  21
ENDBRANCH  12  20
BRANCH  17  25
ATOM     25  C   UNL A   1      30.959  23.823  24.038  1.00  0.00     0.429 C 
ATOM     26  F   UNL A   1      32.178  23.807  23.457  1.00  0.00    -0.167 F 
ATOM     27  F   UNL A   1      30.852  22.628  24.683  1.00  0.00    -0.167 F 
ATOM     28  F   UNL A   1      30.023  23.818  23.061  1.00  0.00    -0.167 F 
ENDBRANCH  17  25
ENDBRANCH   5   8
ENDBRANCH   3   4
ENDBRANCH   2   3
ENDBRANCH   1   2
BRANCH   1  29
ATOM     29  C   UNL A   1      36.895  21.909  25.708  1.00  0.00     0.116 C 
BRANCH  29  30
ATOM     30  N   UNL A   1      37.850  20.809  25.718  1.00  0.00    -0.352 N 
ATOM     31  C   UNL A   1      39.168  20.847  26.111  1.00  0.00     0.251 C 
ATOM     32  H   UNL A   1      37.513  19.937  25.407  1.00  0.00     0.163 HD
ATOM     33  O   UNL A   1      39.892  19.871  25.976  1.00  0.00    -0.269 OA
BRANCH  31  34
ATOM     34  C   UNL A   1      39.699  22.112  26.658  1.00  0.00     0.039 A 
ATOM     35  C   UNL A   1      40.670  22.062  27.662  1.00  0.00     0.014 A 
ATOM     36  C   UNL A   1      39.292  23.333  26.118  1.00  0.00     0.014 A 
ATOM     37  C   UNL A   1      41.288  23.244  28.078  1.00  0.00     0.010 A 
ATOM     38  C   UNL A   1      39.952  24.497  26.488  1.00  0.00     0.010 A 
ATOM     39  C   UNL A   1      40.956  24.464  27.469  1.00  0.00    -0.014 A 
BRANCH  39  40
ATOM     40  C   UNL A   1      41.631  25.735  27.831  1.00  0.00     0.031 A 
ATOM     41  C   UNL A   1      40.859  26.793  28.567  1.00  0.00     0.074 A 
ATOM     42  C   UNL A   1      42.875  25.985  27.381  1.00  0.00     0.049 A 
ATOM     43  N   UNL A   1      41.193  28.030  28.822  1.00  0.00    -0.248 NA
ATOM     44  C   UNL A   1      39.518  26.420  29.047  1.00  0.00     0.031 C 
ATOM     45  C   UNL A   1      43.698  25.059  26.598  1.00  0.00     0.029 A 
ATOM     46  N   UNL A   1      43.652  27.112  27.483  1.00  0.00    -0.354 N 
ATOM     47  C   UNL A   1      40.086  28.599  29.440  1.00  0.00     0.074 A 
ATOM     48  C   UNL A   1      39.064  27.577  29.504  1.00  0.00     0.031 C 
ATOM     49  C   UNL A   1      44.857  25.660  26.282  1.00  0.00     0.029 A 
ATOM     50  C   UNL A   1      44.850  27.020  26.813  1.00  0.00     0.049 A 
ATOM     51  H   UNL A   1      43.377  27.912  27.988  1.00  0.00     0.167 HD
ATOM     52  C   UNL A   1      39.943  29.851  29.933  1.00  0.00     0.034 A 
ATOM     53  C   UNL A   1      45.825  27.933  26.637  1.00  0.00     0.034 A 
ATOM     54  C   UNL A   1      40.986  30.838  29.928  1.00  0.00     0.049 A 
ATOM     55  C   UNL A   1      45.669  29.296  27.260  1.00  0.00     0.074 A 
ATOM     56  C   UNL A   1      40.972  32.109  30.474  1.00  0.00     0.029 A 
ATOM     57  N   UNL A   1      42.236  30.660  29.356  1.00  0.00    -0.354 N 
ATOM     58  N   UNL A   1      44.668  29.772  27.959  1.00  0.00    -0.248 NA
ATOM     59  C   UNL A   1      46.789  30.234  27.100  1.00  0.00     0.031 C 
ATOM     60  C   UNL A   1      42.217  32.699  30.235  1.00  0.00     0.029 A 
ATOM     61  C   UNL A   1      43.008  31.792  29.546  1.00  0.00     0.049 A 
ATOM     62  H   UNL A   1      42.532  29.849  28.884  1.00  0.00     0.167 HD
ATOM     63  C   UNL A   1      45.053  31.046  28.360  1.00  0.00     0.074 A 
ATOM     64  C   UNL A   1      46.385  31.264  27.834  1.00  0.00     0.031 C 
ATOM     65  C   UNL A   1      44.362  31.958  29.084  1.00  0.00     0.034 A 
BRANCH  52  66
ATOM     66  C   UNL A   1      38.629  30.200  30.578  1.00  0.00     0.023 A 
ATOM     67  C   UNL A   1      38.374  29.774  31.897  1.00  0.00     0.012 A 
ATOM     68  C   UNL A   1      37.669  30.979  29.905  1.00  0.00     0.148 A 
ATOM     69  C   UNL A   1      37.170  30.088  32.526  1.00  0.00     0.002 A 
ATOM     70  C   UNL A   1      36.488  31.323  30.553  1.00  0.00     0.091 A 
ATOM     71  F   UNL A   1      37.917  31.353  28.641  1.00  0.00    -0.205 F 
ATOM     72  C   UNL A   1      36.233  30.871  31.857  1.00  0.00     0.022 A 
BRANCH  70  73
ATOM     73  S   UNL A   1      35.254  32.390  29.800  1.00  0.00     0.127 S 
ATOM     74  O   UNL A   1      34.310  32.571  30.902  1.00  0.00    -0.237 OA
ATOM     75  O   UNL A   1      36.034  33.582  29.464  1.00  0.00    -0.237 OA
ATOM     76  O   UNL A   1      34.746  31.657  28.648  1.00  0.00    -0.744 OA
ENDBRANCH  70  73
ENDBRANCH  52  66
BRANCH  53  77
ATOM     77  C   UNL A   1      47.072  27.562  25.909  1.00  0.00     0.023 A 
ATOM     78  C   UNL A   1      48.112  26.930  26.617  1.00  0.00     0.012 A 
ATOM     79  C   UNL A   1      47.221  27.792  24.528  1.00  0.00     0.148 A 
ATOM     80  C   UNL A   1      49.292  26.559  25.969  1.00  0.00     0.002 A 
ATOM     81  C   UNL A   1      48.378  27.374  23.879  1.00  0.00     0.091 A 
ATOM     82  F   UNL A   1      46.226  28.406  23.873  1.00  0.00    -0.205 F 
ATOM     83  C   UNL A   1      49.420  26.771  24.600  1.00  0.00     0.022 A 
BRANCH  81  84
ATOM     84  S   UNL A   1      48.573  27.492  22.096  1.00  0.00     0.127 S 
ATOM     85  O   UNL A   1      49.793  28.285  21.980  1.00  0.00    -0.237 OA
ATOM     86  O   UNL A   1      48.712  26.087  21.710  1.00  0.00    -0.237 OA
ATOM     87  O   UNL A   1      47.351  28.124  21.615  1.00  0.00    -0.744 OA
ENDBRANCH  81  84
ENDBRANCH  53  77
BRANCH  65  88
ATOM     88  C   UNL A   1      45.040  33.262  29.408  1.00  0.00     0.023 A 
ATOM     89  C   UNL A   1      45.828  33.368  30.569  1.00  0.00     0.012 A 
ATOM     90  C   UNL A   1      44.984  34.341  28.504  1.00  0.00     0.148 A 
ATOM     91  C   UNL A   1      46.539  34.538  30.836  1.00  0.00     0.002 A 
ATOM     92  C   UNL A   1      45.728  35.487  28.755  1.00  0.00     0.091 A 
ATOM     93  F   UNL A   1      44.209  34.223  27.415  1.00  0.00    -0.205 F 
ATOM     94  C   UNL A   1      46.500  35.590  29.923  1.00  0.00     0.022 A 
BRANCH  92  95
ATOM     95  S   UNL A   1      45.809  36.851  27.588  1.00  0.00     0.127 S 
ATOM     96  O   UNL A   1      44.415  37.288  27.543  1.00  0.00    -0.237 OA
ATOM     97  O   UNL A   1      46.719  37.782  28.257  1.00  0.00    -0.237 OA
ATOM     98  O   UNL A   1      46.330  36.286  26.351  1.00  0.00    -0.744 OA
ENDBRANCH  92  95
ENDBRANCH  65  88
ENDBRANCH  39  40
ENDBRANCH  31  34
ENDBRANCH  29  30
ENDBRANCH   1  29
TORSDOF 18
ENDMDL
MODEL 2
REMARK VINA RESULT:     -12.2      5.354     10.570
REMARK SMILES CCc1cc(OC(F)(F)F)cc2c1O[C@@H](C(F)(F)F)C(C(=O)NCCCCNC(=O)c1ccc(-c3c4nc(c(-c5cccc(S(=O)(=O)[O-])c5F)c5ccc([nH]5)c(-c5cccc(S(=O)(=O)[O-])c5F)c5nc(c(-c6cccc(S(=O)(=O)[O-])c6F)c6ccc3[nH]6)C=C5)C=C4)cc1)=C2
REMARK SMILES IDX 26 1 25 2 24 3 23 4 21 5 22 6 20 8 3 9 4 10 13 11 5 12 12 13
REMARK SMILES IDX 14 14 11 15 94 16 15 17 2 18 1 19 6 20 7 21 8 22 9 23 10 24
REMARK SMILES IDX 16 25 17 26 18 27 19 28 27 29 28 30 29 31 30 33 31 34 32 35
REMARK SMILES IDX 93 36 33 37 92 38 34 39 35 40 36 41 86 42 37 43 91 44 85 45
REMARK SMILES IDX 87 46 38 47 90 48 84 49 83 50 39 52 71 53 51 54 70 55 52 56
REMARK SMILES IDX 55 57 69 58 88 59 53 60 54 61 68 63 89 64 56 65 40 66 41 67
REMARK SMILES IDX 49 68 42 69 44 70 50 71 43 72 45 73 46 74 47 75 48 76 72 77
REMARK SMILES IDX 73 78 81 79 74 80 76 81 82 82 75 83 77 84 78 85 79 86 80 87
REMARK SMILES IDX 57 88 58 89 66 90 59 91 61 92 67 93 60 94 62 95 63 96 64 97
REMARK SMILES IDX 65 98
REMARK H PARENT 23 7 28 32 87 51 55 62
REMARK Flexibility Score: inf
ROOT
ATOM      1  C   UNL A   1      32.671  27.604  26.189  1.00  0.00     0.023 C 
ENDROOT
BRANCH   1   2
ATOM      2  C   UNL A   1      31.144  27.529  26.116  1.00  0.00     0.023 C 
BRANCH   2   3
ATOM      3  C   UNL A   1      30.578  26.104  26.149  1.00  0.00     0.116 C 
BRANCH   3   4
ATOM      4  N   UNL A   1      30.028  25.746  24.853  1.00  0.00    -0.352 N 
ATOM      5  C   UNL A   1      30.475  24.936  23.857  1.00  0.00     0.251 C 
ATOM      6  O   UNL A   1      29.853  24.915  22.797  1.00  0.00    -0.270 OA
ATOM      7  H   UNL A   1      29.164  26.174  24.657  1.00  0.00     0.163 HD
BRANCH   5   8
ATOM      8  C   UNL A   1      31.643  24.026  24.009  1.00  0.00     0.067 C 
ATOM      9  C   UNL A   1      35.126  21.669  24.338  1.00  0.00    -0.002 A 
ATOM     10  C   UNL A   1      34.981  20.296  24.629  1.00  0.00     0.054 A 
ATOM     11  C   UNL A   1      33.972  22.468  24.245  1.00  0.00     0.131 A 
ATOM     12  C   UNL A   1      33.718  19.721  24.779  1.00  0.00     0.130 A 
ATOM     13  C   UNL A   1      32.712  21.900  24.411  1.00  0.00     0.021 A 
ATOM     14  O   UNL A   1      34.138  23.787  23.942  1.00  0.00    -0.475 OA
ATOM     15  C   UNL A   1      32.589  20.532  24.675  1.00  0.00     0.058 A 
ATOM     16  C   UNL A   1      31.521  22.717  24.261  1.00  0.00     0.025 C 
ATOM     17  C   UNL A   1      33.007  24.702  24.040  1.00  0.00     0.314 C 
BRANCH   9  18
ATOM     18  C   UNL A   1      36.508  22.277  24.198  1.00  0.00     0.036 C 
ATOM     19  C   UNL A   1      37.274  22.415  25.508  1.00  0.00     0.009 C 
ENDBRANCH   9  18
BRANCH  12  20
ATOM     20  O   UNL A   1      33.442  18.407  25.024  1.00  0.00    -0.406 OA
BRANCH  20  21
ATOM     21  C   UNL A   1      33.456  17.509  23.930  1.00  0.00     0.573 C 
ATOM     22  F   UNL A   1      32.702  17.967  22.907  1.00  0.00    -0.132 F 
ATOM     23  F   UNL A   1      34.716  17.291  23.498  1.00  0.00    -0.132 F 
ATOM     24  F   UNL A   1      32.941  16.326  24.333  1.00  0.00    -0.132 F 
ENDBRANCH  20  21
ENDBRANCH  12  20
BRANCH  17  25
ATOM     25  C   UNL A   1      33.234  25.811  22.986  1.00  0.00     0.429 C 
ATOM     26  F   UNL A   1      32.266  26.754  22.993  1.00  0.00    -0.167 F 
ATOM     27  F   UNL A   1      34.393  26.483  23.232  1.00  0.00    -0.167 F 
ATOM     28  F   UNL A   1      33.335  25.316  21.731  1.00  0.00    -0.167 F 
ENDBRANCH  17  25
ENDBRANCH   5   8
ENDBRANCH   3   4
ENDBRANCH   2   3
ENDBRANCH   1   2
BRANCH   1  29
ATOM     29  C   UNL A   1      33.270  28.845  25.539  1.00  0.00     0.116 C 
BRANCH  29  30
ATOM     30  N   UNL A   1      32.641  30.082  25.978  1.00  0.00    -0.352 N 
ATOM     31  C   UNL A   1      33.119  30.984  26.902  1.00  0.00     0.251 C 
ATOM     32  H   UNL A   1      31.773  30.299  25.568  1.00  0.00     0.163 HD
ATOM     33  O   UNL A   1      32.442  31.939  27.256  1.00  0.00    -0.269 OA
BRANCH  31  34
ATOM     34  C   UNL A   1      34.453  30.743  27.489  1.00  0.00     0.039 A 
ATOM     35  C   UNL A   1      35.338  31.817  27.624  1.00  0.00     0.014 A 
ATOM     36  C   UNL A   1      34.786  29.477  27.973  1.00  0.00     0.014 A 
ATOM     37  C   UNL A   1      36.539  31.633  28.314  1.00  0.00     0.010 A 
ATOM     38  C   UNL A   1      35.950  29.314  28.712  1.00  0.00     0.010 A 
ATOM     39  C   UNL A   1      36.835  30.389  28.891  1.00  0.00    -0.014 A 
BRANCH  39  40
ATOM     40  C   UNL A   1      38.066  30.163  29.688  1.00  0.00     0.031 A 
ATOM     41  C   UNL A   1      39.124  29.235  29.161  1.00  0.00     0.074 A 
ATOM     42  C   UNL A   1      38.166  30.678  30.929  1.00  0.00     0.049 A 
ATOM     43  N   UNL A   1      40.182  28.762  29.765  1.00  0.00    -0.248 NA
ATOM     44  C   UNL A   1      38.947  28.745  27.784  1.00  0.00     0.031 C 
ATOM     45  C   UNL A   1      37.171  31.538  31.574  1.00  0.00     0.029 A 
ATOM     46  N   UNL A   1      39.135  30.518  31.887  1.00  0.00    -0.354 N 
ATOM     47  C   UNL A   1      40.764  27.877  28.865  1.00  0.00     0.074 A 
ATOM     48  C   UNL A   1      39.932  27.865  27.682  1.00  0.00     0.031 C 
ATOM     49  C   UNL A   1      37.576  31.820  32.823  1.00  0.00     0.029 A 
ATOM     50  C   UNL A   1      38.842  31.139  33.079  1.00  0.00     0.049 A 
ATOM     51  H   UNL A   1      39.963  30.006  31.736  1.00  0.00     0.167 HD
ATOM     52  C   UNL A   1      41.903  27.160  29.001  1.00  0.00     0.034 A 
ATOM     53  C   UNL A   1      39.512  31.148  34.248  1.00  0.00     0.034 A 
ATOM     54  C   UNL A   1      42.761  27.231  30.151  1.00  0.00     0.049 A 
ATOM     55  C   UNL A   1      40.816  30.399  34.347  1.00  0.00     0.074 A 
ATOM     56  C   UNL A   1      43.979  26.608  30.356  1.00  0.00     0.029 A 
ATOM     57  N   UNL A   1      42.496  27.979  31.288  1.00  0.00    -0.354 N 
ATOM     58  N   UNL A   1      41.420  29.675  33.437  1.00  0.00    -0.248 NA
ATOM     59  C   UNL A   1      41.545  30.496  35.619  1.00  0.00     0.031 C 
ATOM     60  C   UNL A   1      44.453  26.983  31.617  1.00  0.00     0.029 A 
ATOM     61  C   UNL A   1      43.532  27.844  32.194  1.00  0.00     0.049 A 
ATOM     62  H   UNL A   1      41.689  28.524  31.430  1.00  0.00     0.167 HD
ATOM     63  C   UNL A   1      42.620  29.267  34.008  1.00  0.00     0.074 A 
ATOM     64  C   UNL A   1      42.662  29.833  35.341  1.00  0.00     0.031 C 
ATOM     65  C   UNL A   1      43.592  28.482  33.484  1.00  0.00     0.034 A 
BRANCH  52  66
ATOM     66  C   UNL A   1      42.319  26.288  27.848  1.00  0.00     0.023 A 
ATOM     67  C   UNL A   1      43.132  26.829  26.832  1.00  0.00     0.012 A 
ATOM     68  C   UNL A   1      41.948  24.931  27.789  1.00  0.00     0.148 A 
ATOM     69  C   UNL A   1      43.541  26.044  25.755  1.00  0.00     0.002 A 
ATOM     70  C   UNL A   1      42.394  24.143  26.733  1.00  0.00     0.091 A 
ATOM     71  F   UNL A   1      41.153  24.440  28.750  1.00  0.00    -0.205 F 
ATOM     72  C   UNL A   1      43.181  24.699  25.712  1.00  0.00     0.022 A 
BRANCH  70  73
ATOM     73  S   UNL A   1      42.043  22.384  26.631  1.00  0.00     0.127 S 
ATOM     74  O   UNL A   1      42.707  21.881  27.833  1.00  0.00    -0.237 OA
ATOM     75  O   UNL A   1      40.581  22.353  26.685  1.00  0.00    -0.237 OA
ATOM     76  O   UNL A   1      42.610  21.939  25.365  1.00  0.00    -0.744 OA
ENDBRANCH  70  73
ENDBRANCH  52  66
BRANCH  53  77
ATOM     77  C   UNL A   1      39.007  31.960  35.391  1.00  0.00     0.023 A 
ATOM     78  C   UNL A   1      39.126  33.362  35.337  1.00  0.00     0.012 A 
ATOM     79  C   UNL A   1      38.382  31.366  36.503  1.00  0.00     0.148 A 
ATOM     80  C   UNL A   1      38.657  34.157  36.384  1.00  0.00     0.002 A 
ATOM     81  C   UNL A   1      37.871  32.168  37.520  1.00  0.00     0.091 A 
ATOM     82  F   UNL A   1      38.289  30.029  36.544  1.00  0.00    -0.205 F 
ATOM     83  C   UNL A   1      38.022  33.561  37.469  1.00  0.00     0.022 A 
BRANCH  81  84
ATOM     84  S   UNL A   1      36.925  31.491  38.890  1.00  0.00     0.127 S 
ATOM     85  O   UNL A   1      37.861  31.638  40.001  1.00  0.00    -0.237 OA
ATOM     86  O   UNL A   1      35.770  32.389  38.935  1.00  0.00    -0.237 OA
ATOM     87  O   UNL A   1      36.603  30.125  38.500  1.00  0.00    -0.744 OA
ENDBRANCH  81  84
ENDBRANCH  53  77
BRANCH  65  88
ATOM     88  C   UNL A   1      44.816  28.224  34.319  1.00  0.00     0.023 A 
ATOM     89  C   UNL A   1      45.904  29.115  34.254  1.00  0.00     0.012 A 
ATOM     90  C   UNL A   1      44.841  27.162  35.244  1.00  0.00     0.148 A 
ATOM     91  C   UNL A   1      47.007  28.944  35.090  1.00  0.00     0.002 A 
ATOM     92  C   UNL A   1      45.924  27.022  36.102  1.00  0.00     0.091 A 
ATOM     93  F   UNL A   1      43.802  26.314  35.271  1.00  0.00    -0.205 F 
ATOM     94  C   UNL A   1      47.011  27.907  36.021  1.00  0.00     0.022 A 
BRANCH  92  95
ATOM     95  S   UNL A   1      45.969  25.774  37.393  1.00  0.00     0.127 S 
ATOM     96  O   UNL A   1      47.291  25.996  37.976  1.00  0.00    -0.237 OA
ATOM     97  O   UNL A   1      44.850  26.169  38.250  1.00  0.00    -0.237 OA
ATOM     98  O   UNL A   1      45.788  24.496  36.719  1.00  0.00    -0.744 OA
ENDBRANCH  92  95
ENDBRANCH  65  88
ENDBRANCH  39  40
ENDBRANCH  31  34
ENDBRANCH  29  30
ENDBRANCH   1  29
TORSDOF 18
ENDMDL
MODEL 3
REMARK VINA RESULT:     -12.2      5.857     10.966
REMARK SMILES CCc1cc(OC(F)(F)F)cc2c1O[C@@H](C(F)(F)F)C(C(=O)NCCCCNC(=O)c1ccc(-c3c4nc(c(-c5cccc(S(=O)(=O)[O-])c5F)c5ccc([nH]5)c(-c5cccc(S(=O)(=O)[O-])c5F)c5nc(c(-c6cccc(S(=O)(=O)[O-])c6F)c6ccc3[nH]6)C=C5)C=C4)cc1)=C2
REMARK SMILES IDX 26 1 25 2 24 3 23 4 21 5 22 6 20 8 3 9 4 10 13 11 5 12 12 13
REMARK SMILES IDX 14 14 11 15 94 16 15 17 2 18 1 19 6 20 7 21 8 22 9 23 10 24
REMARK SMILES IDX 16 25 17 26 18 27 19 28 27 29 28 30 29 31 30 33 31 34 32 35
REMARK SMILES IDX 93 36 33 37 92 38 34 39 35 40 36 41 86 42 37 43 91 44 85 45
REMARK SMILES IDX 87 46 38 47 90 48 84 49 83 50 39 52 71 53 51 54 70 55 52 56
REMARK SMILES IDX 55 57 69 58 88 59 53 60 54 61 68 63 89 64 56 65 40 66 41 67
REMARK SMILES IDX 49 68 42 69 44 70 50 71 43 72 45 73 46 74 47 75 48 76 72 77
REMARK SMILES IDX 73 78 81 79 74 80 76 81 82 82 75 83 77 84 78 85 79 86 80 87
REMARK SMILES IDX 57 88 58 89 66 90 59 91 61 92 67 93 60 94 62 95 63 96 64 97
REMARK SMILES IDX 65 98
REMARK H PARENT 23 7 28 32 87 51 55 62
REMARK Flexibility Score: inf
ROOT
ATOM      1  C   UNL A   1      34.227  31.508  27.243  1.00  0.00     0.023 C 
ENDROOT
BRANCH   1   2
ATOM      2  C   UNL A   1      34.872  30.307  27.940  1.00  0.00     0.023 C 
BRANCH   2   3
ATOM      3  C   UNL A   1      34.804  28.999  27.142  1.00  0.00     0.116 C 
BRANCH   3   4
ATOM      4  N   UNL A   1      34.307  29.249  25.800  1.00  0.00    -0.352 N 
ATOM      5  C   UNL A   1      33.847  28.425  24.822  1.00  0.00     0.251 C 
ATOM      6  O   UNL A   1      33.604  28.907  23.718  1.00  0.00    -0.270 OA
ATOM      7  H   UNL A   1      34.303  30.201  25.549  1.00  0.00     0.163 HD
BRANCH   5   8
ATOM      8  C   UNL A   1      33.565  26.980  25.041  1.00  0.00     0.067 C 
ATOM      9  C   UNL A   1      32.474  22.956  25.686  1.00  0.00    -0.002 A 
ATOM     10  C   UNL A   1      33.500  22.007  25.883  1.00  0.00     0.054 A 
ATOM     11  C   UNL A   1      32.828  24.297  25.451  1.00  0.00     0.131 A 
ATOM     12  C   UNL A   1      34.842  22.389  25.891  1.00  0.00     0.130 A 
ATOM     13  C   UNL A   1      34.166  24.677  25.441  1.00  0.00     0.021 A 
ATOM     14  O   UNL A   1      31.818  25.198  25.286  1.00  0.00    -0.475 OA
ATOM     15  C   UNL A   1      35.167  23.726  25.663  1.00  0.00     0.058 A 
ATOM     16  C   UNL A   1      34.525  26.072  25.253  1.00  0.00     0.025 C 
ATOM     17  C   UNL A   1      32.118  26.551  24.832  1.00  0.00     0.314 C 
BRANCH   9  18
ATOM     18  C   UNL A   1      31.023  22.517  25.662  1.00  0.00     0.036 C 
ATOM     19  C   UNL A   1      30.215  22.938  26.884  1.00  0.00     0.009 C 
ENDBRANCH   9  18
BRANCH  12  20
ATOM     20  O   UNL A   1      35.921  21.580  26.105  1.00  0.00    -0.406 OA
BRANCH  20  21
ATOM     21  C   UNL A   1      36.418  20.832  25.011  1.00  0.00     0.573 C 
ATOM     22  F   UNL A   1      36.571  21.605  23.914  1.00  0.00    -0.132 F 
ATOM     23  F   UNL A   1      37.596  20.248  25.319  1.00  0.00    -0.132 F 
ATOM     24  F   UNL A   1      35.532  19.856  24.714  1.00  0.00    -0.132 F 
ENDBRANCH  20  21
ENDBRANCH  12  20
BRANCH  17  25
ATOM     25  C   UNL A   1      31.045  27.480  25.445  1.00  0.00     0.429 C 
ATOM     26  F   UNL A   1      31.481  28.147  26.536  1.00  0.00    -0.167 F 
ATOM     27  F   UNL A   1      30.677  28.445  24.557  1.00  0.00    -0.167 F 
ATOM     28  F   UNL A   1      29.916  26.814  25.778  1.00  0.00    -0.167 F 
ENDBRANCH  17  25
ENDBRANCH   5   8
ENDBRANCH   3   4
ENDBRANCH   2   3
ENDBRANCH   1   2
BRANCH   1  29
ATOM     29  C   UNL A   1      32.858  31.891  27.790  1.00  0.00     0.116 C 
BRANCH  29  30
ATOM     30  N   UNL A   1      32.605  33.324  27.745  1.00  0.00    -0.352 N 
ATOM     31  C   UNL A   1      33.266  34.316  28.434  1.00  0.00     0.251 C 
ATOM     32  H   UNL A   1      31.875  33.619  27.153  1.00  0.00     0.163 HD
ATOM     33  O   UNL A   1      32.886  35.477  28.382  1.00  0.00    -0.269 OA
BRANCH  31  34
ATOM     34  C   UNL A   1      34.418  33.933  29.276  1.00  0.00     0.039 A 
ATOM     35  C   UNL A   1      34.201  33.118  30.390  1.00  0.00     0.014 A 
ATOM     36  C   UNL A   1      35.709  34.315  28.910  1.00  0.00     0.014 A 
ATOM     37  C   UNL A   1      35.297  32.626  31.104  1.00  0.00     0.010 A 
ATOM     38  C   UNL A   1      36.797  33.774  29.582  1.00  0.00     0.010 A 
ATOM     39  C   UNL A   1      36.602  32.924  30.682  1.00  0.00    -0.014 A 
BRANCH  39  40
ATOM     40  C   UNL A   1      37.797  32.372  31.367  1.00  0.00     0.031 A 
ATOM     41  C   UNL A   1      38.550  31.238  30.732  1.00  0.00     0.074 A 
ATOM     42  C   UNL A   1      38.114  32.793  32.606  1.00  0.00     0.049 A 
ATOM     43  N   UNL A   1      39.502  30.496  31.233  1.00  0.00    -0.248 NA
ATOM     44  C   UNL A   1      38.154  30.865  29.363  1.00  0.00     0.031 C 
ATOM     45  C   UNL A   1      37.414  33.842  33.352  1.00  0.00     0.029 A 
ATOM     46  N   UNL A   1      39.085  32.361  33.475  1.00  0.00    -0.354 N 
ATOM     47  C   UNL A   1      39.778  29.535  30.267  1.00  0.00     0.074 A 
ATOM     48  C   UNL A   1      38.880  29.777  29.158  1.00  0.00     0.031 C 
ATOM     49  C   UNL A   1      37.970  33.962  34.569  1.00  0.00     0.029 A 
ATOM     50  C   UNL A   1      39.045  32.984  34.702  1.00  0.00     0.049 A 
ATOM     51  H   UNL A   1      39.747  31.670  33.243  1.00  0.00     0.167 HD
ATOM     52  C   UNL A   1      40.713  28.557  30.290  1.00  0.00     0.034 A 
ATOM     53  C   UNL A   1      39.784  32.779  35.809  1.00  0.00     0.034 A 
ATOM     54  C   UNL A   1      41.647  28.368  31.365  1.00  0.00     0.049 A 
ATOM     55  C   UNL A   1      40.866  31.731  35.781  1.00  0.00     0.074 A 
ATOM     56  C   UNL A   1      42.686  27.459  31.452  1.00  0.00     0.029 A 
ATOM     57  N   UNL A   1      41.661  29.108  32.537  1.00  0.00    -0.354 N 
ATOM     58  N   UNL A   1      41.203  30.922  34.807  1.00  0.00    -0.248 NA
ATOM     59  C   UNL A   1      41.692  31.593  36.989  1.00  0.00     0.031 C 
ATOM     60  C   UNL A   1      43.332  27.653  32.677  1.00  0.00     0.029 A 
ATOM     61  C   UNL A   1      42.698  28.687  33.349  1.00  0.00     0.049 A 
ATOM     62  H   UNL A   1      41.027  29.827  32.759  1.00  0.00     0.167 HD
ATOM     63  C   UNL A   1      42.306  30.210  35.265  1.00  0.00     0.074 A 
ATOM     64  C   UNL A   1      42.587  30.691  36.603  1.00  0.00     0.031 C 
ATOM     65  C   UNL A   1      43.011  29.235  34.643  1.00  0.00     0.034 A 
BRANCH  52  66
ATOM     66  C   UNL A   1      40.812  27.660  29.087  1.00  0.00     0.023 A 
ATOM     67  C   UNL A   1      39.983  26.523  29.004  1.00  0.00     0.012 A 
ATOM     68  C   UNL A   1      41.686  27.959  28.024  1.00  0.00     0.148 A 
ATOM     69  C   UNL A   1      40.046  25.677  27.898  1.00  0.00     0.002 A 
ATOM     70  C   UNL A   1      41.713  27.133  26.906  1.00  0.00     0.091 A 
ATOM     71  F   UNL A   1      42.486  29.029  28.132  1.00  0.00    -0.205 F 
ATOM     72  C   UNL A   1      40.902  25.988  26.844  1.00  0.00     0.022 A 
BRANCH  70  73
ATOM     73  S   UNL A   1      42.729  27.494  25.468  1.00  0.00     0.127 S 
ATOM     74  O   UNL A   1      42.474  26.326  24.627  1.00  0.00    -0.237 OA
ATOM     75  O   UNL A   1      42.141  28.740  24.975  1.00  0.00    -0.237 OA
ATOM     76  O   UNL A   1      44.091  27.626  25.969  1.00  0.00    -0.744 OA
ENDBRANCH  70  73
ENDBRANCH  52  66
BRANCH  53  77
ATOM     77  C   UNL A   1      39.583  33.640  37.009  1.00  0.00     0.023 A 
ATOM     78  C   UNL A   1      40.061  34.964  36.987  1.00  0.00     0.012 A 
ATOM     79  C   UNL A   1      38.895  33.177  38.147  1.00  0.00     0.148 A 
ATOM     80  C   UNL A   1      39.885  35.804  38.088  1.00  0.00     0.002 A 
ATOM     81  C   UNL A   1      38.679  34.035  39.221  1.00  0.00     0.091 A 
ATOM     82  F   UNL A   1      38.458  31.910  38.156  1.00  0.00    -0.205 F 
ATOM     83  C   UNL A   1      39.185  35.343  39.199  1.00  0.00     0.022 A 
BRANCH  81  84
ATOM     84  S   UNL A   1      37.677  33.565  40.637  1.00  0.00     0.127 S 
ATOM     85  O   UNL A   1      37.558  34.830  41.354  1.00  0.00    -0.237 OA
ATOM     86  O   UNL A   1      36.445  33.099  39.998  1.00  0.00    -0.237 OA
ATOM     87  O   UNL A   1      38.431  32.516  41.312  1.00  0.00    -0.744 OA
ENDBRANCH  81  84
ENDBRANCH  53  77
BRANCH  65  88
ATOM     88  C   UNL A   1      44.195  28.651  35.366  1.00  0.00     0.023 A 
ATOM     89  C   UNL A   1      45.472  29.210  35.175  1.00  0.00     0.012 A 
ATOM     90  C   UNL A   1      44.019  27.624  36.314  1.00  0.00     0.148 A 
ATOM     91  C   UNL A   1      46.563  28.742  35.907  1.00  0.00     0.002 A 
ATOM     92  C   UNL A   1      45.101  27.192  37.069  1.00  0.00     0.091 A 
ATOM     93  F   UNL A   1      42.795  27.093  36.461  1.00  0.00    -0.205 F 
ATOM     94  C   UNL A   1      46.376  27.745  36.862  1.00  0.00     0.022 A 
BRANCH  92  95
ATOM     95  S   UNL A   1      44.930  25.980  38.383  1.00  0.00     0.127 S 
ATOM     96  O   UNL A   1      46.209  26.112  39.079  1.00  0.00    -0.237 OA
ATOM     97  O   UNL A   1      43.775  26.485  39.127  1.00  0.00    -0.237 OA
ATOM     98  O   UNL A   1      44.707  24.702  37.721  1.00  0.00    -0.744 OA
ENDBRANCH  92  95
ENDBRANCH  65  88
ENDBRANCH  39  40
ENDBRANCH  31  34
ENDBRANCH  29  30
ENDBRANCH   1  29
TORSDOF 18
ENDMDL
