MODEL 1
REMARK VINA RESULT:     -11.1      0.000      0.000
REMARK SMILES O=C(NCCCCNC(=O)[C@H](CO)NC(=O)[C@H]1CC(=O)N(CC(F)(F)F)C1)c1ccc(-c2c3nc(c(-c4cccc(S(=O)(=O)[O-])c4F)c4ccc([nH]4)c(-c4cccc(S(=O)(=O)[O-])c4F)c4nc(c(-c5cccc(S(=O)(=O)[O-])c5F)c5ccc2[nH]5)C=C4)C=C3)cc1
REMARK SMILES IDX 6 1 5 2 4 3 3 4 1 5 2 6 28 8 29 9 90 10 30 11 89 12 31 13
REMARK SMILES IDX 32 14 33 15 83 16 34 17 88 18 82 19 84 20 35 21 87 22 81 23
REMARK SMILES IDX 80 24 36 26 68 27 48 28 67 29 49 30 52 31 66 32 85 33 50 34
REMARK SMILES IDX 51 35 65 37 86 38 53 39 37 40 38 41 46 42 39 43 41 44 47 45
REMARK SMILES IDX 40 46 42 47 43 48 44 49 45 50 69 51 70 52 78 53 71 54 73 55
REMARK SMILES IDX 79 56 72 57 74 58 75 59 76 60 77 61 54 62 55 63 63 64 56 65
REMARK SMILES IDX 58 66 64 67 57 68 59 69 60 70 61 71 62 72 7 73 8 74 9 75
REMARK SMILES IDX 10 77 11 78 14 79 15 80 16 82 17 83 18 84 27 85 19 86 21 87
REMARK SMILES IDX 20 88 22 89 23 90 24 91 25 92 26 93 12 94 13 95
REMARK H PARENT 3 7 84 25 52 36 8 76 14 81 13 96
REMARK Flexibility Score: inf
ROOT
ATOM      1  C   UNL A   1      35.851  23.153  23.912  1.00  0.00     0.023 C 
ENDROOT
BRANCH   1   2
ATOM      2  C   UNL A   1      36.562  21.864  24.286  1.00  0.00     0.023 C 
BRANCH   2   3
ATOM      3  C   UNL A   1      37.415  21.964  25.539  1.00  0.00     0.116 C 
BRANCH   3   4
ATOM      4  N   UNL A   1      38.384  20.884  25.676  1.00  0.00    -0.352 N 
ATOM      5  O   UNL A   1      40.417  19.993  26.135  1.00  0.00    -0.269 OA
ATOM      6  C   UNL A   1      39.665  20.958  26.188  1.00  0.00     0.251 C 
ATOM      7  H   UNL A   1      38.092  19.997  25.366  1.00  0.00     0.163 HD
BRANCH   6   8
ATOM      8  C   UNL A   1      40.110  22.247  26.761  1.00  0.00     0.039 A 
ATOM      9  C   UNL A   1      39.736  23.432  26.130  1.00  0.00     0.014 A 
ATOM     10  C   UNL A   1      40.997  22.266  27.840  1.00  0.00     0.014 A 
ATOM     11  C   UNL A   1      40.417  24.599  26.427  1.00  0.00     0.010 A 
ATOM     12  C   UNL A   1      41.568  23.481  28.237  1.00  0.00     0.010 A 
ATOM     13  C   UNL A   1      41.315  24.652  27.508  1.00  0.00    -0.014 A 
BRANCH  13  14
ATOM     14  C   UNL A   1      41.868  25.979  27.889  1.00  0.00     0.031 A 
ATOM     15  C   UNL A   1      43.259  26.413  27.516  1.00  0.00     0.074 A 
ATOM     16  C   UNL A   1      41.048  26.825  28.546  1.00  0.00     0.049 A 
ATOM     17  N   UNL A   1      43.836  27.569  27.726  1.00  0.00    -0.248 NA
ATOM     18  C   UNL A   1      44.120  25.435  26.831  1.00  0.00     0.031 C 
ATOM     19  C   UNL A   1      39.694  26.492  29.007  1.00  0.00     0.029 A 
ATOM     20  N   UNL A   1      41.208  28.132  28.921  1.00  0.00    -0.354 N 
ATOM     21  C   UNL A   1      45.131  27.452  27.236  1.00  0.00     0.074 A 
ATOM     22  C   UNL A   1      45.262  26.105  26.723  1.00  0.00     0.031 C 
ATOM     23  C   UNL A   1      39.129  27.576  29.547  1.00  0.00     0.029 A 
ATOM     24  C   UNL A   1      40.106  28.656  29.557  1.00  0.00     0.049 A 
ATOM     25  H   UNL A   1      42.030  28.646  28.754  1.00  0.00     0.167 HD
ATOM     26  C   UNL A   1      46.113  28.387  27.205  1.00  0.00     0.034 A 
ATOM     27  C   UNL A   1      39.906  29.861  30.120  1.00  0.00     0.034 A 
ATOM     28  C   UNL A   1      45.965  29.732  27.703  1.00  0.00     0.049 A 
ATOM     29  C   UNL A   1      41.007  30.874  30.052  1.00  0.00     0.074 A 
ATOM     30  C   UNL A   1      46.890  30.763  27.685  1.00  0.00     0.029 A 
ATOM     31  N   UNL A   1      44.826  30.235  28.314  1.00  0.00    -0.354 N 
ATOM     32  N   UNL A   1      42.185  30.772  29.487  1.00  0.00    -0.248 NA
ATOM     33  C   UNL A   1      40.742  32.176  30.675  1.00  0.00     0.031 C 
ATOM     34  C   UNL A   1      46.319  31.878  28.306  1.00  0.00     0.029 A 
ATOM     35  C   UNL A   1      45.025  31.556  28.681  1.00  0.00     0.049 A 
ATOM     36  H   UNL A   1      43.996  29.726  28.465  1.00  0.00     0.167 HD
ATOM     37  C   UNL A   1      42.799  32.002  29.674  1.00  0.00     0.074 A 
ATOM     38  C   UNL A   1      41.840  32.846  30.360  1.00  0.00     0.031 C 
ATOM     39  C   UNL A   1      44.050  32.393  29.332  1.00  0.00     0.034 A 
BRANCH  26  40
ATOM     40  C   UNL A   1      47.434  28.012  26.579  1.00  0.00     0.023 A 
ATOM     41  C   UNL A   1      48.525  27.675  27.406  1.00  0.00     0.012 A 
ATOM     42  C   UNL A   1      47.570  27.896  25.180  1.00  0.00     0.148 A 
ATOM     43  C   UNL A   1      49.734  27.251  26.853  1.00  0.00     0.002 A 
ATOM     44  C   UNL A   1      48.765  27.432  24.638  1.00  0.00     0.091 A 
ATOM     45  F   UNL A   1      46.527  28.232  24.408  1.00  0.00    -0.205 F 
ATOM     46  C   UNL A   1      49.849  27.120  25.472  1.00  0.00     0.022 A 
BRANCH  44  47
ATOM     47  S   UNL A   1      48.993  27.151  22.877  1.00  0.00     0.127 S 
ATOM     48  O   UNL A   1      48.371  28.345  22.306  1.00  0.00    -0.237 OA
ATOM     49  O   UNL A   1      50.452  27.110  22.763  1.00  0.00    -0.237 OA
ATOM     50  O   UNL A   1      48.321  25.896  22.577  1.00  0.00    -0.744 OA
ENDBRANCH  44  47
ENDBRANCH  26  40
BRANCH  27  51
ATOM     51  C   UNL A   1      38.613  30.158  30.797  1.00  0.00     0.023 A 
ATOM     52  C   UNL A   1      38.363  29.660  32.090  1.00  0.00     0.012 A 
ATOM     53  C   UNL A   1      37.640  30.960  30.171  1.00  0.00     0.148 A 
ATOM     54  C   UNL A   1      37.151  29.924  32.729  1.00  0.00     0.002 A 
ATOM     55  C   UNL A   1      36.467  31.279  30.840  1.00  0.00     0.091 A 
ATOM     56  F   UNL A   1      37.890  31.414  28.933  1.00  0.00    -0.205 F 
ATOM     57  C   UNL A   1      36.210  30.744  32.110  1.00  0.00     0.022 A 
BRANCH  55  58
ATOM     58  S   UNL A   1      35.285  32.456  30.176  1.00  0.00     0.127 S 
ATOM     59  O   UNL A   1      34.813  31.763  28.982  1.00  0.00    -0.237 OA
ATOM     60  O   UNL A   1      34.309  32.552  31.262  1.00  0.00    -0.237 OA
ATOM     61  O   UNL A   1      36.043  33.680  29.948  1.00  0.00    -0.744 OA
ENDBRANCH  55  58
ENDBRANCH  27  51
BRANCH  39  62
ATOM     62  C   UNL A   1      44.439  33.806  29.677  1.00  0.00     0.023 A 
ATOM     63  C   UNL A   1      44.963  34.099  30.954  1.00  0.00     0.012 A 
ATOM     64  C   UNL A   1      44.298  34.842  28.734  1.00  0.00     0.148 A 
ATOM     65  C   UNL A   1      45.292  35.408  31.302  1.00  0.00     0.002 A 
ATOM     66  C   UNL A   1      44.680  36.134  29.070  1.00  0.00     0.091 A 
ATOM     67  F   UNL A   1      43.779  34.547  27.533  1.00  0.00    -0.205 F 
ATOM     68  C   UNL A   1      45.159  36.423  30.357  1.00  0.00     0.022 A 
BRANCH  66  69
ATOM     69  S   UNL A   1      44.632  37.486  27.889  1.00  0.00     0.127 S 
ATOM     70  O   UNL A   1      43.213  37.522  27.536  1.00  0.00    -0.237 OA
ATOM     71  O   UNL A   1      45.088  38.618  28.697  1.00  0.00    -0.237 OA
ATOM     72  O   UNL A   1      45.536  37.110  26.811  1.00  0.00    -0.744 OA
ENDBRANCH  66  69
ENDBRANCH  39  62
ENDBRANCH  13  14
ENDBRANCH   6   8
ENDBRANCH   3   4
ENDBRANCH   2   3
ENDBRANCH   1   2
BRANCH   1  73
ATOM     73  C   UNL A   1      34.337  23.015  23.802  1.00  0.00     0.116 C 
BRANCH  73  74
ATOM     74  N   UNL A   1      33.856  21.683  24.162  1.00  0.00    -0.354 N 
ATOM     75  C   UNL A   1      33.160  21.283  25.278  1.00  0.00     0.244 C 
ATOM     76  H   UNL A   1      34.061  20.970  23.513  1.00  0.00     0.163 HD
ATOM     77  O   UNL A   1      32.804  20.111  25.392  1.00  0.00    -0.273 OA
BRANCH  75  78
ATOM     78  C   UNL A   1      32.894  22.319  26.371  1.00  0.00     0.197 C 
BRANCH  78  79
ATOM     79  N   UNL A   1      31.490  22.687  26.540  1.00  0.00    -0.342 N 
ATOM     80  C   UNL A   1      30.893  23.910  26.598  1.00  0.00     0.226 C 
ATOM     81  H   UNL A   1      30.873  21.923  26.627  1.00  0.00     0.164 HD
ATOM     82  O   UNL A   1      29.750  23.941  27.070  1.00  0.00    -0.275 OA
BRANCH  80  83
ATOM     83  C   UNL A   1      31.481  25.182  25.974  1.00  0.00     0.107 C 
ATOM     84  C   UNL A   1      30.653  25.660  24.767  1.00  0.00     0.115 C 
ATOM     85  C   UNL A   1      31.578  26.439  26.804  1.00  0.00     0.133 C 
ATOM     86  C   UNL A   1      30.903  27.153  24.707  1.00  0.00     0.223 C 
ATOM     87  N   UNL A   1      31.507  27.530  25.886  1.00  0.00    -0.333 N 
ATOM     88  O   UNL A   1      30.584  27.897  23.794  1.00  0.00    -0.275 OA
BRANCH  87  89
ATOM     89  C   UNL A   1      31.806  28.906  26.307  1.00  0.00     0.234 C 
BRANCH  89  90
ATOM     90  C   UNL A   1      33.292  29.282  26.289  1.00  0.00     0.406 C 
ATOM     91  F   UNL A   1      33.865  28.918  25.114  1.00  0.00    -0.169 F 
ATOM     92  F   UNL A   1      33.459  30.617  26.414  1.00  0.00    -0.169 F 
ATOM     93  F   UNL A   1      33.978  28.681  27.283  1.00  0.00    -0.169 F 
ENDBRANCH  89  90
ENDBRANCH  87  89
ENDBRANCH  80  83
ENDBRANCH  78  79
BRANCH  78  94
ATOM     94  C   UNL A   1      33.538  21.868  27.687  1.00  0.00     0.191 C 
BRANCH  94  95
ATOM     95  O   UNL A   1      34.852  21.361  27.443  1.00  0.00    -0.394 OA
ATOM     96  H   UNL A   1      34.823  20.730  26.707  1.00  0.00     0.210 HD
ENDBRANCH  94  95
ENDBRANCH  78  94
ENDBRANCH  75  78
ENDBRANCH  73  74
ENDBRANCH   1  73
TORSDOF 20
ENDMDL
MODEL 2
REMARK VINA RESULT:     -11.1      5.185      7.484
REMARK SMILES O=C(NCCCCNC(=O)[C@H](CO)NC(=O)[C@H]1CC(=O)N(CC(F)(F)F)C1)c1ccc(-c2c3nc(c(-c4cccc(S(=O)(=O)[O-])c4F)c4ccc([nH]4)c(-c4cccc(S(=O)(=O)[O-])c4F)c4nc(c(-c5cccc(S(=O)(=O)[O-])c5F)c5ccc2[nH]5)C=C4)C=C3)cc1
REMARK SMILES IDX 6 1 5 2 4 3 3 4 1 5 2 6 28 8 29 9 90 10 30 11 89 12 31 13
REMARK SMILES IDX 32 14 33 15 83 16 34 17 88 18 82 19 84 20 35 21 87 22 81 23
REMARK SMILES IDX 80 24 36 26 68 27 48 28 67 29 49 30 52 31 66 32 85 33 50 34
REMARK SMILES IDX 51 35 65 37 86 38 53 39 37 40 38 41 46 42 39 43 41 44 47 45
REMARK SMILES IDX 40 46 42 47 43 48 44 49 45 50 69 51 70 52 78 53 71 54 73 55
REMARK SMILES IDX 79 56 72 57 74 58 75 59 76 60 77 61 54 62 55 63 63 64 56 65
REMARK SMILES IDX 58 66 64 67 57 68 59 69 60 70 61 71 62 72 7 73 8 74 9 75
REMARK SMILES IDX 10 77 11 78 14 79 15 80 16 82 17 83 18 84 27 85 19 86 21 87
REMARK SMILES IDX 20 88 22 89 23 90 24 91 25 92 26 93 12 94 13 95
REMARK H PARENT 3 7 84 25 52 36 8 76 14 81 13 96
REMARK Flexibility Score: inf
ROOT
ATOM      1  C   UNL A   1      33.164  26.907  25.954  1.00  0.00     0.023 C 
ENDROOT
BRANCH   1   2
ATOM      2  C   UNL A   1      32.464  27.977  25.135  1.00  0.00     0.023 C 
BRANCH   2   3
ATOM      3  C   UNL A   1      33.217  29.294  25.055  1.00  0.00     0.116 C 
BRANCH   3   4
ATOM      4  N   UNL A   1      32.538  30.399  25.721  1.00  0.00    -0.352 N 
ATOM      5  O   UNL A   1      32.231  31.935  27.358  1.00  0.00    -0.269 OA
ATOM      6  C   UNL A   1      32.960  31.105  26.830  1.00  0.00     0.251 C 
ATOM      7  H   UNL A   1      31.676  30.674  25.333  1.00  0.00     0.163 HD
BRANCH   6   8
ATOM      8  C   UNL A   1      34.297  30.795  27.383  1.00  0.00     0.039 A 
ATOM      9  C   UNL A   1      34.560  29.501  27.829  1.00  0.00     0.014 A 
ATOM     10  C   UNL A   1      35.231  31.816  27.573  1.00  0.00     0.014 A 
ATOM     11  C   UNL A   1      35.646  29.280  28.658  1.00  0.00     0.010 A 
ATOM     12  C   UNL A   1      36.406  31.546  28.284  1.00  0.00     0.010 A 
ATOM     13  C   UNL A   1      36.606  30.287  28.868  1.00  0.00    -0.014 A 
BRANCH  13  14
ATOM     14  C   UNL A   1      37.840  29.925  29.613  1.00  0.00     0.031 A 
ATOM     15  C   UNL A   1      38.900  29.027  29.036  1.00  0.00     0.074 A 
ATOM     16  C   UNL A   1      38.014  30.483  30.830  1.00  0.00     0.049 A 
ATOM     17  N   UNL A   1      40.054  28.690  29.555  1.00  0.00    -0.248 NA
ATOM     18  C   UNL A   1      38.640  28.419  27.722  1.00  0.00     0.031 C 
ATOM     19  C   UNL A   1      37.027  31.328  31.513  1.00  0.00     0.029 A 
ATOM     20  N   UNL A   1      39.072  30.451  31.698  1.00  0.00    -0.354 N 
ATOM     21  C   UNL A   1      40.643  27.810  28.656  1.00  0.00     0.074 A 
ATOM     22  C   UNL A   1      39.713  27.654  27.557  1.00  0.00     0.031 C 
ATOM     23  C   UNL A   1      37.545  31.780  32.659  1.00  0.00     0.029 A 
ATOM     24  C   UNL A   1      38.863  31.187  32.841  1.00  0.00     0.049 A 
ATOM     25  H   UNL A   1      39.901  29.950  31.522  1.00  0.00     0.167 HD
ATOM     26  C   UNL A   1      41.851  27.200  28.734  1.00  0.00     0.034 A 
ATOM     27  C   UNL A   1      39.626  31.345  33.937  1.00  0.00     0.034 A 
ATOM     28  C   UNL A   1      42.777  27.377  29.826  1.00  0.00     0.049 A 
ATOM     29  C   UNL A   1      40.962  30.670  33.981  1.00  0.00     0.074 A 
ATOM     30  C   UNL A   1      44.040  26.831  29.980  1.00  0.00     0.029 A 
ATOM     31  N   UNL A   1      42.542  28.152  30.953  1.00  0.00    -0.354 N 
ATOM     32  N   UNL A   1      41.540  29.928  33.069  1.00  0.00    -0.248 NA
ATOM     33  C   UNL A   1      41.763  30.876  35.194  1.00  0.00     0.031 C 
ATOM     34  C   UNL A   1      44.557  27.254  31.209  1.00  0.00     0.029 A 
ATOM     35  C   UNL A   1      43.632  28.094  31.807  1.00  0.00     0.049 A 
ATOM     36  H   UNL A   1      41.720  28.668  31.120  1.00  0.00     0.167 HD
ATOM     37  C   UNL A   1      42.780  29.589  33.591  1.00  0.00     0.074 A 
ATOM     38  C   UNL A   1      42.885  30.249  34.877  1.00  0.00     0.031 C 
ATOM     39  C   UNL A   1      43.736  28.783  33.067  1.00  0.00     0.034 A 
BRANCH  26  40
ATOM     40  C   UNL A   1      42.275  26.307  27.594  1.00  0.00     0.023 A 
ATOM     41  C   UNL A   1      43.162  26.801  26.616  1.00  0.00     0.012 A 
ATOM     42  C   UNL A   1      41.877  24.955  27.541  1.00  0.00     0.148 A 
ATOM     43  C   UNL A   1      43.630  25.974  25.595  1.00  0.00     0.002 A 
ATOM     44  C   UNL A   1      42.380  24.125  26.545  1.00  0.00     0.091 A 
ATOM     45  F   UNL A   1      41.023  24.505  28.472  1.00  0.00    -0.205 F 
ATOM     46  C   UNL A   1      43.248  24.635  25.566  1.00  0.00     0.022 A 
BRANCH  44  47
ATOM     47  S   UNL A   1      42.015  22.367  26.461  1.00  0.00     0.127 S 
ATOM     48  O   UNL A   1      40.556  22.375  26.357  1.00  0.00    -0.237 OA
ATOM     49  O   UNL A   1      42.711  21.969  25.237  1.00  0.00    -0.237 OA
ATOM     50  O   UNL A   1      42.548  21.785  27.684  1.00  0.00    -0.744 OA
ENDBRANCH  44  47
ENDBRANCH  26  40
BRANCH  27  51
ATOM     51  C   UNL A   1      39.131  32.172  35.072  1.00  0.00     0.023 A 
ATOM     52  C   UNL A   1      39.184  33.576  34.997  1.00  0.00     0.012 A 
ATOM     53  C   UNL A   1      38.580  31.565  36.218  1.00  0.00     0.148 A 
ATOM     54  C   UNL A   1      38.733  34.360  36.060  1.00  0.00     0.002 A 
ATOM     55  C   UNL A   1      38.067  32.351  37.240  1.00  0.00     0.091 A 
ATOM     56  F   UNL A   1      38.551  30.226  36.278  1.00  0.00    -0.205 F 
ATOM     57  C   UNL A   1      38.162  33.748  37.174  1.00  0.00     0.022 A 
BRANCH  55  58
ATOM     58  S   UNL A   1      37.174  31.641  38.627  1.00  0.00     0.127 S 
ATOM     59  O   UNL A   1      36.922  30.283  38.154  1.00  0.00    -0.237 OA
ATOM     60  O   UNL A   1      38.156  31.747  39.707  1.00  0.00    -0.237 OA
ATOM     61  O   UNL A   1      36.000  32.485  38.805  1.00  0.00    -0.744 OA
ENDBRANCH  55  58
ENDBRANCH  27  51
BRANCH  39  62
ATOM     62  C   UNL A   1      44.988  28.597  33.882  1.00  0.00     0.023 A 
ATOM     63  C   UNL A   1      46.108  29.421  33.649  1.00  0.00     0.012 A 
ATOM     64  C   UNL A   1      45.052  27.614  34.887  1.00  0.00     0.148 A 
ATOM     65  C   UNL A   1      47.287  29.237  34.368  1.00  0.00     0.002 A 
ATOM     66  C   UNL A   1      46.212  27.472  35.638  1.00  0.00     0.091 A 
ATOM     67  F   UNL A   1      43.984  26.825  35.080  1.00  0.00    -0.205 F 
ATOM     68  C   UNL A   1      47.335  28.269  35.369  1.00  0.00     0.022 A 
BRANCH  66  69
ATOM     69  S   UNL A   1      46.333  26.316  37.007  1.00  0.00     0.127 S 
ATOM     70  O   UNL A   1      45.005  26.426  37.608  1.00  0.00    -0.237 OA
ATOM     71  O   UNL A   1      46.588  25.050  36.320  1.00  0.00    -0.237 OA
ATOM     72  O   UNL A   1      47.435  26.788  37.834  1.00  0.00    -0.744 OA
ENDBRANCH  66  69
ENDBRANCH  39  62
ENDBRANCH  13  14
ENDBRANCH   6   8
ENDBRANCH   3   4
ENDBRANCH   2   3
ENDBRANCH   1   2
BRANCH   1  73
ATOM     73  C   UNL A   1      32.569  25.513  25.790  1.00  0.00     0.116 C 
BRANCH  73  74
ATOM     74  N   UNL A   1      33.074  24.557  26.773  1.00  0.00    -0.354 N 
ATOM     75  C   UNL A   1      32.714  23.245  26.972  1.00  0.00     0.244 C 
ATOM     76  H   UNL A   1      33.770  24.901  27.379  1.00  0.00     0.163 HD
ATOM     77  O   UNL A   1      33.283  22.577  27.835  1.00  0.00    -0.273 OA
BRANCH  75  78
ATOM     78  C   UNL A   1      31.570  22.675  26.131  1.00  0.00     0.197 C 
BRANCH  78  79
ATOM     79  N   UNL A   1      31.677  21.248  25.836  1.00  0.00    -0.342 N 
ATOM     80  C   UNL A   1      32.254  20.599  24.785  1.00  0.00     0.226 C 
ATOM     81  H   UNL A   1      31.264  20.658  26.507  1.00  0.00     0.164 HD
ATOM     82  O   UNL A   1      31.919  19.420  24.618  1.00  0.00    -0.275 OA
BRANCH  80  83
ATOM     83  C   UNL A   1      33.385  21.185  23.930  1.00  0.00     0.107 C 
ATOM     84  C   UNL A   1      32.995  22.547  23.327  1.00  0.00     0.115 C 
ATOM     85  C   UNL A   1      34.715  21.496  24.572  1.00  0.00     0.133 C 
ATOM     86  C   UNL A   1      34.316  23.260  23.127  1.00  0.00     0.223 C 
ATOM     87  N   UNL A   1      35.285  22.562  23.812  1.00  0.00    -0.333 N 
ATOM     88  O   UNL A   1      34.483  24.298  22.505  1.00  0.00    -0.275 OA
BRANCH  87  89
ATOM     89  C   UNL A   1      36.683  22.972  23.998  1.00  0.00     0.234 C 
BRANCH  89  90
ATOM     90  C   UNL A   1      37.017  23.529  25.388  1.00  0.00     0.406 C 
ATOM     91  F   UNL A   1      38.187  24.216  25.361  1.00  0.00    -0.169 F 
ATOM     92  F   UNL A   1      36.064  24.387  25.812  1.00  0.00    -0.169 F 
ATOM     93  F   UNL A   1      37.137  22.550  26.308  1.00  0.00    -0.169 F 
ENDBRANCH  89  90
ENDBRANCH  87  89
ENDBRANCH  80  83
ENDBRANCH  78  79
BRANCH  78  94
ATOM     94  C   UNL A   1      30.223  23.036  26.766  1.00  0.00     0.191 C 
BRANCH  94  95
ATOM     95  O   UNL A   1      29.329  21.924  26.690  1.00  0.00    -0.394 OA
ATOM     96  H   UNL A   1      28.610  22.130  26.071  1.00  0.00     0.210 HD
ENDBRANCH  94  95
ENDBRANCH  78  94
ENDBRANCH  75  78
ENDBRANCH  73  74
ENDBRANCH   1  73
TORSDOF 20
ENDMDL
MODEL 3
REMARK VINA RESULT:     -10.8      2.933      8.538
REMARK SMILES O=C(NCCCCNC(=O)[C@H](CO)NC(=O)[C@H]1CC(=O)N(CC(F)(F)F)C1)c1ccc(-c2c3nc(c(-c4cccc(S(=O)(=O)[O-])c4F)c4ccc([nH]4)c(-c4cccc(S(=O)(=O)[O-])c4F)c4nc(c(-c5cccc(S(=O)(=O)[O-])c5F)c5ccc2[nH]5)C=C4)C=C3)cc1
REMARK SMILES IDX 6 1 5 2 4 3 3 4 1 5 2 6 28 8 29 9 90 10 30 11 89 12 31 13
REMARK SMILES IDX 32 14 33 15 83 16 34 17 88 18 82 19 84 20 35 21 87 22 81 23
REMARK SMILES IDX 80 24 36 26 68 27 48 28 67 29 49 30 52 31 66 32 85 33 50 34
REMARK SMILES IDX 51 35 65 37 86 38 53 39 37 40 38 41 46 42 39 43 41 44 47 45
REMARK SMILES IDX 40 46 42 47 43 48 44 49 45 50 69 51 70 52 78 53 71 54 73 55
REMARK SMILES IDX 79 56 72 57 74 58 75 59 76 60 77 61 54 62 55 63 63 64 56 65
REMARK SMILES IDX 58 66 64 67 57 68 59 69 60 70 61 71 62 72 7 73 8 74 9 75
REMARK SMILES IDX 10 77 11 78 14 79 15 80 16 82 17 83 18 84 27 85 19 86 21 87
REMARK SMILES IDX 20 88 22 89 23 90 24 91 25 92 26 93 12 94 13 95
REMARK H PARENT 3 7 84 25 52 36 8 76 14 81 13 96
REMARK Flexibility Score: inf
ROOT
ATOM      1  C   UNL A   1      36.637  20.820  25.048  1.00  0.00     0.023 C 
ENDROOT
BRANCH   1   2
ATOM      2  C   UNL A   1      37.972  20.128  24.840  1.00  0.00     0.023 C 
BRANCH   2   3
ATOM      3  C   UNL A   1      39.026  20.482  25.875  1.00  0.00     0.116 C 
BRANCH   3   4
ATOM      4  N   UNL A   1      39.999  19.422  26.108  1.00  0.00    -0.352 N 
ATOM      5  O   UNL A   1      42.076  18.571  26.418  1.00  0.00    -0.269 OA
ATOM      6  C   UNL A   1      41.350  19.556  26.358  1.00  0.00     0.251 C 
ATOM      7  H   UNL A   1      39.651  18.502  26.083  1.00  0.00     0.163 HD
BRANCH   6   8
ATOM      8  C   UNL A   1      41.897  20.922  26.509  1.00  0.00     0.039 A 
ATOM      9  C   UNL A   1      42.047  21.452  27.789  1.00  0.00     0.014 A 
ATOM     10  C   UNL A   1      42.136  21.710  25.381  1.00  0.00     0.014 A 
ATOM     11  C   UNL A   1      42.211  22.818  27.939  1.00  0.00     0.010 A 
ATOM     12  C   UNL A   1      42.455  23.063  25.545  1.00  0.00     0.010 A 
ATOM     13  C   UNL A   1      42.456  23.639  26.823  1.00  0.00    -0.014 A 
BRANCH  13  14
ATOM     14  C   UNL A   1      42.809  25.062  27.072  1.00  0.00     0.031 A 
ATOM     15  C   UNL A   1      41.937  25.983  27.880  1.00  0.00     0.074 A 
ATOM     16  C   UNL A   1      43.990  25.499  26.587  1.00  0.00     0.049 A 
ATOM     17  N   UNL A   1      42.165  27.224  28.228  1.00  0.00    -0.248 NA
ATOM     18  C   UNL A   1      40.645  25.461  28.353  1.00  0.00     0.031 C 
ATOM     19  C   UNL A   1      44.894  24.708  25.743  1.00  0.00     0.029 A 
ATOM     20  N   UNL A   1      44.648  26.690  26.743  1.00  0.00    -0.354 N 
ATOM     21  C   UNL A   1      41.040  27.646  28.927  1.00  0.00     0.074 A 
ATOM     22  C   UNL A   1      40.121  26.527  28.948  1.00  0.00     0.031 C 
ATOM     23  C   UNL A   1      46.008  25.409  25.506  1.00  0.00     0.029 A 
ATOM     24  C   UNL A   1      45.863  26.730  26.100  1.00  0.00     0.049 A 
ATOM     25  H   UNL A   1      44.287  27.443  27.263  1.00  0.00     0.167 HD
ATOM     26  C   UNL A   1      40.804  28.847  29.508  1.00  0.00     0.034 A 
ATOM     27  C   UNL A   1      46.755  27.728  25.968  1.00  0.00     0.034 A 
ATOM     28  C   UNL A   1      41.736  29.948  29.497  1.00  0.00     0.049 A 
ATOM     29  C   UNL A   1      46.469  29.037  26.637  1.00  0.00     0.074 A 
ATOM     30  C   UNL A   1      41.603  31.194  30.087  1.00  0.00     0.029 A 
ATOM     31  N   UNL A   1      42.968  29.943  28.859  1.00  0.00    -0.354 N 
ATOM     32  N   UNL A   1      45.445  29.373  27.383  1.00  0.00    -0.248 NA
ATOM     33  C   UNL A   1      47.473  30.094  26.471  1.00  0.00     0.031 C 
ATOM     34  C   UNL A   1      42.742  31.948  29.786  1.00  0.00     0.029 A 
ATOM     35  C   UNL A   1      43.603  31.162  29.038  1.00  0.00     0.049 A 
ATOM     36  H   UNL A   1      43.338  29.182  28.355  1.00  0.00     0.167 HD
ATOM     37  C   UNL A   1      45.687  30.678  27.787  1.00  0.00     0.074 A 
ATOM     38  C   UNL A   1      46.978  31.050  27.243  1.00  0.00     0.031 C 
ATOM     39  C   UNL A   1      44.902  31.505  28.520  1.00  0.00     0.034 A 
BRANCH  26  40
ATOM     40  C   UNL A   1      39.501  29.039  30.245  1.00  0.00     0.023 A 
ATOM     41  C   UNL A   1      39.310  28.415  31.494  1.00  0.00     0.012 A 
ATOM     42  C   UNL A   1      38.509  29.913  29.754  1.00  0.00     0.148 A 
ATOM     43  C   UNL A   1      38.147  28.637  32.232  1.00  0.00     0.002 A 
ATOM     44  C   UNL A   1      37.371  30.163  30.514  1.00  0.00     0.091 A 
ATOM     45  F   UNL A   1      38.701  30.489  28.559  1.00  0.00    -0.205 F 
ATOM     46  C   UNL A   1      37.185  29.518  31.747  1.00  0.00     0.022 A 
BRANCH  44  47
ATOM     47  S   UNL A   1      36.105  31.340  30.020  1.00  0.00     0.127 S 
ATOM     48  O   UNL A   1      35.351  31.498  31.262  1.00  0.00    -0.237 OA
ATOM     49  O   UNL A   1      36.905  32.505  29.640  1.00  0.00    -0.237 OA
ATOM     50  O   UNL A   1      35.377  30.715  28.926  1.00  0.00    -0.744 OA
ENDBRANCH  44  47
ENDBRANCH  26  40
BRANCH  27  51
ATOM     51  C   UNL A   1      47.990  27.517  25.163  1.00  0.00     0.023 A 
ATOM     52  C   UNL A   1      49.180  27.105  25.793  1.00  0.00     0.012 A 
ATOM     53  C   UNL A   1      47.979  27.697  23.766  1.00  0.00     0.148 A 
ATOM     54  C   UNL A   1      50.345  26.914  25.050  1.00  0.00     0.002 A 
ATOM     55  C   UNL A   1      49.122  27.436  23.024  1.00  0.00     0.091 A 
ATOM     56  F   UNL A   1      46.841  28.104  23.186  1.00  0.00    -0.205 F 
ATOM     57  C   UNL A   1      50.313  27.066  23.665  1.00  0.00     0.022 A 
BRANCH  55  58
ATOM     58  S   UNL A   1      49.112  27.453  21.229  1.00  0.00     0.127 S 
ATOM     59  O   UNL A   1      50.010  28.565  20.937  1.00  0.00    -0.237 OA
ATOM     60  O   UNL A   1      49.645  26.128  20.909  1.00  0.00    -0.237 OA
ATOM     61  O   UNL A   1      47.718  27.639  20.850  1.00  0.00    -0.744 OA
ENDBRANCH  55  58
ENDBRANCH  27  51
BRANCH  39  62
ATOM     62  C   UNL A   1      45.438  32.885  28.793  1.00  0.00     0.023 A 
ATOM     63  C   UNL A   1      46.175  33.133  29.969  1.00  0.00     0.012 A 
ATOM     64  C   UNL A   1      45.224  33.934  27.878  1.00  0.00     0.148 A 
ATOM     65  C   UNL A   1      46.646  34.413  30.255  1.00  0.00     0.002 A 
ATOM     66  C   UNL A   1      45.743  35.194  28.143  1.00  0.00     0.091 A 
ATOM     67  F   UNL A   1      44.503  33.684  26.775  1.00  0.00    -0.205 F 
ATOM     68  C   UNL A   1      46.438  35.440  29.338  1.00  0.00     0.022 A 
BRANCH  66  69
ATOM     69  S   UNL A   1      45.605  36.553  26.978  1.00  0.00     0.127 S 
ATOM     70  O   UNL A   1      44.155  36.692  26.855  1.00  0.00    -0.237 OA
ATOM     71  O   UNL A   1      46.263  37.645  27.697  1.00  0.00    -0.237 OA
ATOM     72  O   UNL A   1      46.297  36.120  25.773  1.00  0.00    -0.744 OA
ENDBRANCH  66  69
ENDBRANCH  39  62
ENDBRANCH  13  14
ENDBRANCH   6   8
ENDBRANCH   3   4
ENDBRANCH   2   3
ENDBRANCH   1   2
BRANCH   1  73
ATOM     73  C   UNL A   1      36.752  22.235  25.604  1.00  0.00     0.116 C 
BRANCH  73  74
ATOM     74  N   UNL A   1      35.723  22.546  26.594  1.00  0.00    -0.354 N 
ATOM     75  C   UNL A   1      34.560  23.263  26.443  1.00  0.00     0.244 C 
ATOM     76  H   UNL A   1      35.887  22.191  27.499  1.00  0.00     0.163 HD
ATOM     77  O   UNL A   1      33.789  23.390  27.393  1.00  0.00    -0.273 OA
BRANCH  75  78
ATOM     78  C   UNL A   1      34.292  23.924  25.090  1.00  0.00     0.197 C 
BRANCH  78  79
ATOM     79  N   UNL A   1      32.984  23.627  24.510  1.00  0.00    -0.342 N 
ATOM     80  C   UNL A   1      32.511  22.493  23.921  1.00  0.00     0.226 C 
ATOM     81  H   UNL A   1      32.338  24.369  24.551  1.00  0.00     0.164 HD
ATOM     82  O   UNL A   1      31.493  22.617  23.231  1.00  0.00    -0.275 OA
BRANCH  80  83
ATOM     83  C   UNL A   1      33.063  21.088  24.196  1.00  0.00     0.107 C 
ATOM     84  C   UNL A   1      32.526  20.514  25.520  1.00  0.00     0.115 C 
ATOM     85  C   UNL A   1      32.765  19.971  23.226  1.00  0.00     0.133 C 
ATOM     86  C   UNL A   1      32.576  19.013  25.326  1.00  0.00     0.223 C 
ATOM     87  N   UNL A   1      32.789  18.764  23.989  1.00  0.00    -0.333 N 
ATOM     88  O   UNL A   1      32.410  18.172  26.195  1.00  0.00    -0.275 OA
BRANCH  87  89
ATOM     89  C   UNL A   1      32.775  17.447  23.337  1.00  0.00     0.234 C 
BRANCH  89  90
ATOM     90  C   UNL A   1      34.050  16.616  23.523  1.00  0.00     0.406 C 
ATOM     91  F   UNL A   1      33.809  15.534  24.305  1.00  0.00    -0.169 F 
ATOM     92  F   UNL A   1      34.509  16.155  22.339  1.00  0.00    -0.169 F 
ATOM     93  F   UNL A   1      35.037  17.330  24.104  1.00  0.00    -0.169 F 
ENDBRANCH  89  90
ENDBRANCH  87  89
ENDBRANCH  80  83
ENDBRANCH  78  79
BRANCH  78  94
ATOM     94  C   UNL A   1      34.557  25.431  25.182  1.00  0.00     0.191 C 
BRANCH  94  95
ATOM     95  O   UNL A   1      33.715  26.019  26.176  1.00  0.00    -0.394 OA
ATOM     96  H   UNL A   1      32.881  26.301  25.767  1.00  0.00     0.210 HD
ENDBRANCH  94  95
ENDBRANCH  78  94
ENDBRANCH  75  78
ENDBRANCH  73  74
ENDBRANCH   1  73
TORSDOF 20
ENDMDL
