MODEL 1
REMARK VINA RESULT:     -10.4      0.000      0.000
REMARK SMILES CS(=O)(=O)CCCNC(=O)N[C@H]1C=C[C@@H](C(=O)NCCCCNC(=O)c2ccc(-c3c4nc(c(-c5cccc(S(=O)(=O)[O-])c5F)c5ccc([nH]5)c(-c5cccc(S(=O)(=O)[O-])c5F)c5nc(c(-c6cccc(S(=O)(=O)[O-])c6F)c6ccc3[nH]6)C=C5)C=C4)cc2)C1
REMARK SMILES IDX 19 1 18 2 16 3 17 4 15 6 12 7 13 8 89 9 14 10 11 11 8 12
REMARK SMILES IDX 9 13 10 15 7 17 6 18 5 19 2 20 1 21 3 22 4 23 20 24 21 25
REMARK SMILES IDX 22 26 23 27 24 28 25 30 26 31 27 32 88 33 28 34 87 35 29 36
REMARK SMILES IDX 30 37 31 38 81 39 32 40 86 41 80 42 82 43 33 44 85 45 79 46
REMARK SMILES IDX 78 47 34 49 66 50 46 51 65 52 47 53 50 54 64 55 83 56 48 57
REMARK SMILES IDX 49 58 63 60 84 61 51 62 35 63 36 64 44 65 37 66 39 67 45 68
REMARK SMILES IDX 38 69 40 70 41 71 42 72 43 73 67 74 68 75 76 76 69 77 71 78
REMARK SMILES IDX 77 79 70 80 72 81 73 82 74 83 75 84 52 85 53 86 61 87 54 88
REMARK SMILES IDX 56 89 62 90 55 91 57 92 58 93 59 94 60 95
REMARK H PARENT 18 5 8 14 11 16 23 29 82 48 50 59
REMARK Flexibility Score: inf
ROOT
ATOM      1  C   UNL A   1      31.736  30.016  25.062  1.00  0.00     0.116 C 
ENDROOT
BRANCH   1   2
ATOM      2  N   UNL A   1      30.595  30.822  24.701  1.00  0.00    -0.356 N 
ATOM      3  C   UNL A   1      29.606  30.610  23.800  1.00  0.00     0.227 C 
ATOM      4  O   UNL A   1      28.673  31.422  23.807  1.00  0.00    -0.274 OA
ATOM      5  H   UNL A   1      30.522  31.671  25.195  1.00  0.00     0.163 HD
BRANCH   3   6
ATOM      6  C   UNL A   1      29.543  29.414  22.843  1.00  0.00     0.103 C 
ATOM      7  C   UNL A   1      30.980  27.418  22.469  1.00  0.00     0.107 C 
ATOM      8  C   UNL A   1      29.719  27.108  23.184  1.00  0.00    -0.006 C 
ATOM      9  C   UNL A   1      30.791  28.913  22.110  1.00  0.00     0.047 C 
ATOM     10  C   UNL A   1      28.972  28.180  23.456  1.00  0.00    -0.016 C 
BRANCH   7  11
ATOM     11  N   UNL A   1      32.270  27.190  23.144  1.00  0.00    -0.332 N 
ATOM     12  N   UNL A   1      32.932  24.952  23.647  1.00  0.00    -0.338 N 
ATOM     13  C   UNL A   1      33.085  26.281  23.682  1.00  0.00     0.315 C 
ATOM     14  H   UNL A   1      33.571  24.442  24.197  1.00  0.00     0.165 HD
ATOM     15  O   UNL A   1      34.077  26.712  24.279  1.00  0.00    -0.249 OA
ATOM     16  H   UNL A   1      32.710  28.067  23.235  1.00  0.00     0.165 HD
BRANCH  12  17
ATOM     17  C   UNL A   1      31.975  24.163  22.932  1.00  0.00     0.119 C 
BRANCH  17  18
ATOM     18  C   UNL A   1      30.742  23.705  23.690  1.00  0.00     0.037 C 
BRANCH  18  19
ATOM     19  C   UNL A   1      30.944  22.879  24.945  1.00  0.00     0.138 C 
BRANCH  19  20
ATOM     20  S   UNL A   1      31.063  23.793  26.471  1.00  0.00     0.147 S 
ATOM     21  C   UNL A   1      32.690  23.436  27.093  1.00  0.00     0.158 C 
ATOM     22  O   UNL A   1      30.113  23.190  27.384  1.00  0.00    -0.229 OA
ATOM     23  O   UNL A   1      30.991  25.213  26.169  1.00  0.00    -0.229 OA
ENDBRANCH  19  20
ENDBRANCH  18  19
ENDBRANCH  17  18
ENDBRANCH  12  17
ENDBRANCH   7  11
ENDBRANCH   3   6
ENDBRANCH   1   2
BRANCH   1  24
ATOM     24  C   UNL A   1      31.410  28.978  26.136  1.00  0.00     0.023 C 
BRANCH  24  25
ATOM     25  C   UNL A   1      32.540  28.709  27.127  1.00  0.00     0.023 C 
BRANCH  25  26
ATOM     26  C   UNL A   1      33.782  29.564  26.930  1.00  0.00     0.116 C 
BRANCH  26  27
ATOM     27  N   UNL A   1      33.692  30.852  27.601  1.00  0.00    -0.352 N 
ATOM     28  C   UNL A   1      34.559  31.414  28.508  1.00  0.00     0.251 C 
ATOM     29  H   UNL A   1      32.905  31.396  27.373  1.00  0.00     0.163 HD
ATOM     30  O   UNL A   1      34.262  32.462  29.073  1.00  0.00    -0.269 OA
BRANCH  28  31
ATOM     31  C   UNL A   1      35.832  30.732  28.822  1.00  0.00     0.039 A 
ATOM     32  C   UNL A   1      36.977  31.079  28.102  1.00  0.00     0.014 A 
ATOM     33  C   UNL A   1      35.903  29.779  29.842  1.00  0.00     0.014 A 
ATOM     34  C   UNL A   1      38.206  30.512  28.447  1.00  0.00     0.010 A 
ATOM     35  C   UNL A   1      37.141  29.285  30.241  1.00  0.00     0.010 A 
ATOM     36  C   UNL A   1      38.305  29.638  29.542  1.00  0.00    -0.014 A 
BRANCH  36  37
ATOM     37  C   UNL A   1      39.620  29.097  29.972  1.00  0.00     0.031 A 
ATOM     38  C   UNL A   1      40.399  29.765  31.072  1.00  0.00     0.074 A 
ATOM     39  C   UNL A   1      40.152  28.045  29.319  1.00  0.00     0.049 A 
ATOM     40  N   UNL A   1      41.570  29.449  31.562  1.00  0.00    -0.248 NA
ATOM     41  C   UNL A   1      39.798  30.962  31.681  1.00  0.00     0.031 C 
ATOM     42  C   UNL A   1      39.544  27.367  28.172  1.00  0.00     0.029 A 
ATOM     43  N   UNL A   1      41.338  27.380  29.509  1.00  0.00    -0.354 N 
ATOM     44  C   UNL A   1      41.859  30.422  32.512  1.00  0.00     0.074 A 
ATOM     45  C   UNL A   1      40.763  31.365  32.494  1.00  0.00     0.031 C 
ATOM     46  C   UNL A   1      40.359  26.384  27.760  1.00  0.00     0.029 A 
ATOM     47  C   UNL A   1      41.559  26.380  28.591  1.00  0.00     0.049 A 
ATOM     48  H   UNL A   1      41.968  27.597  30.231  1.00  0.00     0.167 HD
ATOM     49  C   UNL A   1      42.922  30.507  33.348  1.00  0.00     0.034 A 
ATOM     50  C   UNL A   1      42.614  25.558  28.426  1.00  0.00     0.034 A 
ATOM     51  C   UNL A   1      44.003  29.557  33.376  1.00  0.00     0.049 A 
ATOM     52  C   UNL A   1      43.767  25.644  29.386  1.00  0.00     0.074 A 
ATOM     53  C   UNL A   1      45.082  29.506  34.240  1.00  0.00     0.029 A 
ATOM     54  N   UNL A   1      44.153  28.502  32.488  1.00  0.00    -0.354 N 
ATOM     55  N   UNL A   1      43.943  26.467  30.391  1.00  0.00    -0.248 NA
ATOM     56  C   UNL A   1      44.846  24.661  29.216  1.00  0.00     0.031 C 
ATOM     57  C   UNL A   1      45.905  28.442  33.849  1.00  0.00     0.029 A 
ATOM     58  C   UNL A   1      45.316  27.804  32.770  1.00  0.00     0.049 A 
ATOM     59  H   UNL A   1      43.526  28.283  31.761  1.00  0.00     0.167 HD
ATOM     60  C   UNL A   1      45.140  26.089  30.989  1.00  0.00     0.074 A 
ATOM     61  C   UNL A   1      45.629  24.942  30.249  1.00  0.00     0.031 C 
ATOM     62  C   UNL A   1      45.782  26.648  32.046  1.00  0.00     0.034 A 
BRANCH  49  63
ATOM     63  C   UNL A   1      42.941  31.655  34.326  1.00  0.00     0.023 A 
ATOM     64  C   UNL A   1      43.568  32.869  33.968  1.00  0.00     0.012 A 
ATOM     65  C   UNL A   1      42.325  31.547  35.589  1.00  0.00     0.148 A 
ATOM     66  C   UNL A   1      43.633  33.931  34.869  1.00  0.00     0.002 A 
ATOM     67  C   UNL A   1      42.349  32.629  36.461  1.00  0.00     0.091 A 
ATOM     68  F   UNL A   1      41.750  30.383  35.923  1.00  0.00    -0.205 F 
ATOM     69  C   UNL A   1      43.017  33.815  36.111  1.00  0.00     0.022 A 
BRANCH  67  70
ATOM     70  S   UNL A   1      41.510  32.609  38.049  1.00  0.00     0.127 S 
ATOM     71  O   UNL A   1      42.296  31.620  38.785  1.00  0.00    -0.237 OA
ATOM     72  O   UNL A   1      41.684  33.988  38.506  1.00  0.00    -0.237 OA
ATOM     73  O   UNL A   1      40.132  32.233  37.769  1.00  0.00    -0.744 OA
ENDBRANCH  67  70
ENDBRANCH  49  63
BRANCH  50  74
ATOM     74  C   UNL A   1      42.598  24.557  27.323  1.00  0.00     0.023 A 
ATOM     75  C   UNL A   1      43.227  24.853  26.099  1.00  0.00     0.012 A 
ATOM     76  C   UNL A   1      42.011  23.290  27.509  1.00  0.00     0.148 A 
ATOM     77  C   UNL A   1      43.249  23.912  25.068  1.00  0.00     0.002 A 
ATOM     78  C   UNL A   1      42.090  22.337  26.500  1.00  0.00     0.091 A 
ATOM     79  F   UNL A   1      41.414  23.034  28.680  1.00  0.00    -0.205 F 
ATOM     80  C   UNL A   1      42.692  22.652  25.273  1.00  0.00     0.022 A 
BRANCH  78  81
ATOM     81  S   UNL A   1      41.529  20.646  26.726  1.00  0.00     0.127 S 
ATOM     82  O   UNL A   1      41.983  20.013  25.490  1.00  0.00    -0.237 OA
ATOM     83  O   UNL A   1      42.260  20.248  27.929  1.00  0.00    -0.237 OA
ATOM     84  O   UNL A   1      40.085  20.727  26.897  1.00  0.00    -0.744 OA
ENDBRANCH  78  81
ENDBRANCH  50  74
BRANCH  62  85
ATOM     85  C   UNL A   1      47.079  26.014  32.485  1.00  0.00     0.023 A 
ATOM     86  C   UNL A   1      48.301  26.458  31.940  1.00  0.00     0.012 A 
ATOM     87  C   UNL A   1      47.089  25.012  33.475  1.00  0.00     0.148 A 
ATOM     88  C   UNL A   1      49.508  25.883  32.340  1.00  0.00     0.002 A 
ATOM     89  C   UNL A   1      48.299  24.482  33.908  1.00  0.00     0.091 A 
ATOM     90  F   UNL A   1      45.917  24.589  33.971  1.00  0.00    -0.205 F 
ATOM     91  C   UNL A   1      49.507  24.904  33.330  1.00  0.00     0.022 A 
BRANCH  89  92
ATOM     92  S   UNL A   1      48.404  23.288  35.246  1.00  0.00     0.127 S 
ATOM     93  O   UNL A   1      47.773  24.016  36.346  1.00  0.00    -0.237 OA
ATOM     94  O   UNL A   1      47.619  22.168  34.726  1.00  0.00    -0.237 OA
ATOM     95  O   UNL A   1      49.822  23.002  35.419  1.00  0.00    -0.744 OA
ENDBRANCH  89  92
ENDBRANCH  62  85
ENDBRANCH  36  37
ENDBRANCH  28  31
ENDBRANCH  26  27
ENDBRANCH  25  26
ENDBRANCH  24  25
ENDBRANCH   1  24
TORSDOF 19
ENDMDL
MODEL 2
REMARK VINA RESULT:      -9.8      4.355     10.360
REMARK SMILES CS(=O)(=O)CCCNC(=O)N[C@H]1C=C[C@@H](C(=O)NCCCCNC(=O)c2ccc(-c3c4nc(c(-c5cccc(S(=O)(=O)[O-])c5F)c5ccc([nH]5)c(-c5cccc(S(=O)(=O)[O-])c5F)c5nc(c(-c6cccc(S(=O)(=O)[O-])c6F)c6ccc3[nH]6)C=C5)C=C4)cc2)C1
REMARK SMILES IDX 19 1 18 2 16 3 17 4 15 6 12 7 13 8 89 9 14 10 11 11 8 12
REMARK SMILES IDX 9 13 10 15 7 17 6 18 5 19 2 20 1 21 3 22 4 23 20 24 21 25
REMARK SMILES IDX 22 26 23 27 24 28 25 30 26 31 27 32 88 33 28 34 87 35 29 36
REMARK SMILES IDX 30 37 31 38 81 39 32 40 86 41 80 42 82 43 33 44 85 45 79 46
REMARK SMILES IDX 78 47 34 49 66 50 46 51 65 52 47 53 50 54 64 55 83 56 48 57
REMARK SMILES IDX 49 58 63 60 84 61 51 62 35 63 36 64 44 65 37 66 39 67 45 68
REMARK SMILES IDX 38 69 40 70 41 71 42 72 43 73 67 74 68 75 76 76 69 77 71 78
REMARK SMILES IDX 77 79 70 80 72 81 73 82 74 83 75 84 52 85 53 86 61 87 54 88
REMARK SMILES IDX 56 89 62 90 55 91 57 92 58 93 59 94 60 95
REMARK H PARENT 18 5 8 14 11 16 23 29 82 48 50 59
REMARK Flexibility Score: inf
ROOT
ATOM      1  C   UNL A   1      38.828  33.354  30.284  1.00  0.00     0.116 C 
ENDROOT
BRANCH   1   2
ATOM      2  N   UNL A   1      40.127  33.980  30.284  1.00  0.00    -0.356 N 
ATOM      3  C   UNL A   1      40.881  34.464  31.301  1.00  0.00     0.227 C 
ATOM      4  O   UNL A   1      42.030  34.821  31.012  1.00  0.00    -0.274 OA
ATOM      5  H   UNL A   1      40.538  34.069  29.394  1.00  0.00     0.163 HD
BRANCH   3   6
ATOM      6  C   UNL A   1      40.429  34.526  32.765  1.00  0.00     0.103 C 
ATOM      7  C   UNL A   1      38.760  33.272  34.117  1.00  0.00     0.107 C 
ATOM      8  C   UNL A   1      40.161  32.885  34.407  1.00  0.00    -0.006 C 
ATOM      9  C   UNL A   1      38.947  34.463  33.145  1.00  0.00     0.047 C 
ATOM     10  C   UNL A   1      41.064  33.497  33.638  1.00  0.00    -0.016 C 
BRANCH   7  11
ATOM     11  N   UNL A   1      37.831  32.271  33.563  1.00  0.00    -0.332 N 
ATOM     12  N   UNL A   1      35.498  32.776  33.488  1.00  0.00    -0.338 N 
ATOM     13  C   UNL A   1      36.554  31.969  33.323  1.00  0.00     0.315 C 
ATOM     14  H   UNL A   1      34.620  32.346  33.371  1.00  0.00     0.165 HD
ATOM     15  O   UNL A   1      36.323  30.826  32.917  1.00  0.00    -0.249 OA
ATOM     16  H   UNL A   1      38.376  31.518  33.238  1.00  0.00     0.165 HD
BRANCH  12  17
ATOM     17  C   UNL A   1      35.459  34.170  33.810  1.00  0.00     0.119 C 
BRANCH  17  18
ATOM     18  C   UNL A   1      35.291  35.148  32.659  1.00  0.00     0.037 C 
BRANCH  18  19
ATOM     19  C   UNL A   1      34.254  36.243  32.802  1.00  0.00     0.138 C 
BRANCH  19  20
ATOM     20  S   UNL A   1      32.912  36.206  31.627  1.00  0.00     0.147 S 
ATOM     21  C   UNL A   1      31.444  36.039  32.616  1.00  0.00     0.158 C 
ATOM     22  O   UNL A   1      33.063  34.979  30.872  1.00  0.00    -0.229 OA
ATOM     23  O   UNL A   1      32.859  37.487  30.943  1.00  0.00    -0.229 OA
ENDBRANCH  19  20
ENDBRANCH  18  19
ENDBRANCH  17  18
ENDBRANCH  12  17
ENDBRANCH   7  11
ENDBRANCH   3   6
ENDBRANCH   1   2
BRANCH   1  24
ATOM     24  C   UNL A   1      37.794  34.139  29.478  1.00  0.00     0.023 C 
BRANCH  24  25
ATOM     25  C   UNL A   1      36.761  33.278  28.754  1.00  0.00     0.023 C 
BRANCH  25  26
ATOM     26  C   UNL A   1      35.805  32.522  29.664  1.00  0.00     0.116 C 
BRANCH  26  27
ATOM     27  N   UNL A   1      34.964  31.580  28.942  1.00  0.00    -0.352 N 
ATOM     28  C   UNL A   1      35.303  30.366  28.394  1.00  0.00     0.251 C 
ATOM     29  H   UNL A   1      34.024  31.849  28.830  1.00  0.00     0.163 HD
ATOM     30  O   UNL A   1      34.492  29.756  27.704  1.00  0.00    -0.269 OA
BRANCH  28  31
ATOM     31  C   UNL A   1      36.658  29.817  28.613  1.00  0.00     0.039 A 
ATOM     32  C   UNL A   1      37.629  30.011  27.629  1.00  0.00     0.014 A 
ATOM     33  C   UNL A   1      36.977  29.143  29.795  1.00  0.00     0.014 A 
ATOM     34  C   UNL A   1      38.938  29.580  27.858  1.00  0.00     0.010 A 
ATOM     35  C   UNL A   1      38.298  28.796  30.057  1.00  0.00     0.010 A 
ATOM     36  C   UNL A   1      39.292  29.001  29.088  1.00  0.00    -0.014 A 
BRANCH  36  37
ATOM     37  C   UNL A   1      40.698  28.619  29.377  1.00  0.00     0.031 A 
ATOM     38  C   UNL A   1      41.329  27.444  28.682  1.00  0.00     0.074 A 
ATOM     39  C   UNL A   1      41.386  29.284  30.326  1.00  0.00     0.049 A 
ATOM     40  N   UNL A   1      42.532  26.949  28.825  1.00  0.00    -0.248 NA
ATOM     41  C   UNL A   1      40.490  26.708  27.722  1.00  0.00     0.031 C 
ATOM     42  C   UNL A   1      40.858  30.378  31.142  1.00  0.00     0.029 A 
ATOM     43  N   UNL A   1      42.670  29.117  30.783  1.00  0.00    -0.354 N 
ATOM     44  C   UNL A   1      42.584  25.832  28.000  1.00  0.00     0.074 A 
ATOM     45  C   UNL A   1      41.277  25.693  27.398  1.00  0.00     0.031 C 
ATOM     46  C   UNL A   1      41.806  30.785  32.000  1.00  0.00     0.029 A 
ATOM     47  C   UNL A   1      42.999  29.962  31.817  1.00  0.00     0.049 A 
ATOM     48  H   UNL A   1      43.294  28.456  30.408  1.00  0.00     0.167 HD
ATOM     49  C   UNL A   1      43.632  25.014  27.739  1.00  0.00     0.034 A 
ATOM     50  C   UNL A   1      44.127  30.059  32.546  1.00  0.00     0.034 A 
ATOM     51  C   UNL A   1      44.937  25.165  28.326  1.00  0.00     0.049 A 
ATOM     52  C   UNL A   1      45.291  29.167  32.217  1.00  0.00     0.074 A 
ATOM     53  C   UNL A   1      46.088  24.443  28.064  1.00  0.00     0.029 A 
ATOM     54  N   UNL A   1      45.262  26.090  29.308  1.00  0.00    -0.354 N 
ATOM     55  N   UNL A   1      45.377  28.225  31.310  1.00  0.00    -0.248 NA
ATOM     56  C   UNL A   1      46.527  29.381  32.982  1.00  0.00     0.031 C 
ATOM     57  C   UNL A   1      47.098  24.907  28.916  1.00  0.00     0.029 A 
ATOM     58  C   UNL A   1      46.590  25.946  29.677  1.00  0.00     0.049 A 
ATOM     59  H   UNL A   1      44.639  26.751  29.688  1.00  0.00     0.167 HD
ATOM     60  C   UNL A   1      46.681  27.747  31.378  1.00  0.00     0.074 A 
ATOM     61  C   UNL A   1      47.356  28.529  32.395  1.00  0.00     0.031 C 
ATOM     62  C   UNL A   1      47.262  26.745  30.671  1.00  0.00     0.034 A 
BRANCH  49  63
ATOM     63  C   UNL A   1      43.409  23.903  26.743  1.00  0.00     0.023 A 
ATOM     64  C   UNL A   1      43.927  24.022  25.435  1.00  0.00     0.012 A 
ATOM     65  C   UNL A   1      42.706  22.735  27.100  1.00  0.00     0.148 A 
ATOM     66  C   UNL A   1      43.700  23.027  24.484  1.00  0.00     0.002 A 
ATOM     67  C   UNL A   1      42.530  21.725  26.162  1.00  0.00     0.091 A 
ATOM     68  F   UNL A   1      42.204  22.644  28.339  1.00  0.00    -0.205 F 
ATOM     69  C   UNL A   1      43.010  21.876  24.850  1.00  0.00     0.022 A 
BRANCH  67  70
ATOM     70  S   UNL A   1      41.730  20.166  26.559  1.00  0.00     0.127 S 
ATOM     71  O   UNL A   1      40.343  20.587  26.748  1.00  0.00    -0.237 OA
ATOM     72  O   UNL A   1      41.968  19.381  25.347  1.00  0.00    -0.237 OA
ATOM     73  O   UNL A   1      42.401  19.663  27.749  1.00  0.00    -0.744 OA
ENDBRANCH  67  70
ENDBRANCH  49  63
BRANCH  50  74
ATOM     74  C   UNL A   1      44.212  31.073  33.634  1.00  0.00     0.023 A 
ATOM     75  C   UNL A   1      44.695  32.365  33.352  1.00  0.00     0.012 A 
ATOM     76  C   UNL A   1      43.757  30.776  34.934  1.00  0.00     0.148 A 
ATOM     77  C   UNL A   1      44.749  33.336  34.352  1.00  0.00     0.002 A 
ATOM     78  C   UNL A   1      43.757  31.766  35.910  1.00  0.00     0.091 A 
ATOM     79  F   UNL A   1      43.306  29.538  35.180  1.00  0.00    -0.205 F 
ATOM     80  C   UNL A   1      44.270  33.040  35.626  1.00  0.00     0.022 A 
BRANCH  78  81
ATOM     81  S   UNL A   1      43.030  31.519  37.533  1.00  0.00     0.127 S 
ATOM     82  O   UNL A   1      43.269  32.813  38.167  1.00  0.00    -0.237 OA
ATOM     83  O   UNL A   1      41.633  31.245  37.194  1.00  0.00    -0.237 OA
ATOM     84  O   UNL A   1      43.740  30.390  38.119  1.00  0.00    -0.744 OA
ENDBRANCH  78  81
ENDBRANCH  50  74
BRANCH  62  85
ATOM     85  C   UNL A   1      48.713  26.445  30.956  1.00  0.00     0.023 A 
ATOM     86  C   UNL A   1      49.059  25.550  31.988  1.00  0.00     0.012 A 
ATOM     87  C   UNL A   1      49.731  27.015  30.166  1.00  0.00     0.148 A 
ATOM     88  C   UNL A   1      50.397  25.262  32.259  1.00  0.00     0.002 A 
ATOM     89  C   UNL A   1      51.059  26.680  30.407  1.00  0.00     0.091 A 
ATOM     90  F   UNL A   1      49.387  27.877  29.199  1.00  0.00    -0.205 F 
ATOM     91  C   UNL A   1      51.395  25.817  31.463  1.00  0.00     0.022 A 
BRANCH  89  92
ATOM     92  S   UNL A   1      52.404  27.270  29.373  1.00  0.00     0.127 S 
ATOM     93  O   UNL A   1      51.980  26.822  28.047  1.00  0.00    -0.237 OA
ATOM     94  O   UNL A   1      52.340  28.718  29.576  1.00  0.00    -0.237 OA
ATOM     95  O   UNL A   1      53.613  26.641  29.888  1.00  0.00    -0.744 OA
ENDBRANCH  89  92
ENDBRANCH  62  85
ENDBRANCH  36  37
ENDBRANCH  28  31
ENDBRANCH  26  27
ENDBRANCH  25  26
ENDBRANCH  24  25
ENDBRANCH   1  24
TORSDOF 19
ENDMDL
MODEL 3
REMARK VINA RESULT:      -9.8      2.993      8.361
REMARK SMILES CS(=O)(=O)CCCNC(=O)N[C@H]1C=C[C@@H](C(=O)NCCCCNC(=O)c2ccc(-c3c4nc(c(-c5cccc(S(=O)(=O)[O-])c5F)c5ccc([nH]5)c(-c5cccc(S(=O)(=O)[O-])c5F)c5nc(c(-c6cccc(S(=O)(=O)[O-])c6F)c6ccc3[nH]6)C=C5)C=C4)cc2)C1
REMARK SMILES IDX 19 1 18 2 16 3 17 4 15 6 12 7 13 8 89 9 14 10 11 11 8 12
REMARK SMILES IDX 9 13 10 15 7 17 6 18 5 19 2 20 1 21 3 22 4 23 20 24 21 25
REMARK SMILES IDX 22 26 23 27 24 28 25 30 26 31 27 32 88 33 28 34 87 35 29 36
REMARK SMILES IDX 30 37 31 38 81 39 32 40 86 41 80 42 82 43 33 44 85 45 79 46
REMARK SMILES IDX 78 47 34 49 66 50 46 51 65 52 47 53 50 54 64 55 83 56 48 57
REMARK SMILES IDX 49 58 63 60 84 61 51 62 35 63 36 64 44 65 37 66 39 67 45 68
REMARK SMILES IDX 38 69 40 70 41 71 42 72 43 73 67 74 68 75 76 76 69 77 71 78
REMARK SMILES IDX 77 79 70 80 72 81 73 82 74 83 75 84 52 85 53 86 61 87 54 88
REMARK SMILES IDX 56 89 62 90 55 91 57 92 58 93 59 94 60 95
REMARK H PARENT 18 5 8 14 11 16 23 29 82 48 50 59
REMARK Flexibility Score: inf
ROOT
ATOM      1  C   UNL A   1      34.040  28.941  26.221  1.00  0.00     0.116 C 
ENDROOT
BRANCH   1   2
ATOM      2  N   UNL A   1      32.774  28.587  25.630  1.00  0.00    -0.356 N 
ATOM      3  C   UNL A   1      32.410  27.519  24.880  1.00  0.00     0.227 C 
ATOM      4  O   UNL A   1      31.203  27.410  24.627  1.00  0.00    -0.274 OA
ATOM      5  H   UNL A   1      32.049  29.231  25.801  1.00  0.00     0.163 HD
BRANCH   3   6
ATOM      6  C   UNL A   1      33.371  26.426  24.398  1.00  0.00     0.103 C 
ATOM      7  C   UNL A   1      33.947  24.146  25.208  1.00  0.00     0.107 C 
ATOM      8  C   UNL A   1      33.093  24.140  23.997  1.00  0.00    -0.006 C 
ATOM      9  C   UNL A   1      34.257  25.654  25.381  1.00  0.00     0.047 C 
ATOM     10  C   UNL A   1      32.716  25.356  23.593  1.00  0.00    -0.016 C 
BRANCH   7  11
ATOM     11  N   UNL A   1      33.435  23.558  26.459  1.00  0.00    -0.332 N 
ATOM     12  N   UNL A   1      32.989  21.214  26.538  1.00  0.00    -0.338 N 
ATOM     13  C   UNL A   1      32.991  22.449  27.053  1.00  0.00     0.315 C 
ATOM     14  H   UNL A   1      32.516  20.537  27.074  1.00  0.00     0.165 HD
ATOM     15  O   UNL A   1      32.527  22.580  28.190  1.00  0.00    -0.249 OA
ATOM     16  H   UNL A   1      33.410  24.279  27.130  1.00  0.00     0.165 HD
BRANCH  12  17
ATOM     17  C   UNL A   1      33.570  20.733  25.321  1.00  0.00     0.119 C 
BRANCH  17  18
ATOM     18  C   UNL A   1      32.746  19.767  24.488  1.00  0.00     0.037 C 
BRANCH  18  19
ATOM     19  C   UNL A   1      32.650  18.328  24.955  1.00  0.00     0.138 C 
BRANCH  19  20
ATOM     20  S   UNL A   1      33.784  17.182  24.193  1.00  0.00     0.147 S 
ATOM     21  C   UNL A   1      33.617  15.682  25.132  1.00  0.00     0.158 C 
ATOM     22  O   UNL A   1      35.115  17.698  24.441  1.00  0.00    -0.229 OA
ATOM     23  O   UNL A   1      33.339  16.923  22.834  1.00  0.00    -0.229 OA
ENDBRANCH  19  20
ENDBRANCH  18  19
ENDBRANCH  17  18
ENDBRANCH  12  17
ENDBRANCH   7  11
ENDBRANCH   3   6
ENDBRANCH   1   2
BRANCH   1  24
ATOM     24  C   UNL A   1      34.023  30.324  26.872  1.00  0.00     0.023 C 
BRANCH  24  25
ATOM     25  C   UNL A   1      32.869  31.222  26.432  1.00  0.00     0.023 C 
BRANCH  25  26
ATOM     26  C   UNL A   1      32.214  32.019  27.549  1.00  0.00     0.116 C 
BRANCH  26  27
ATOM     27  N   UNL A   1      32.524  33.439  27.486  1.00  0.00    -0.352 N 
ATOM     28  C   UNL A   1      33.623  34.104  27.977  1.00  0.00     0.251 C 
ATOM     29  H   UNL A   1      31.858  34.001  27.029  1.00  0.00     0.163 HD
ATOM     30  O   UNL A   1      33.663  35.330  27.947  1.00  0.00    -0.269 OA
BRANCH  28  31
ATOM     31  C   UNL A   1      34.738  33.335  28.570  1.00  0.00     0.039 A 
ATOM     32  C   UNL A   1      36.027  33.524  28.069  1.00  0.00     0.014 A 
ATOM     33  C   UNL A   1      34.518  32.456  29.635  1.00  0.00     0.014 A 
ATOM     34  C   UNL A   1      37.105  32.877  28.677  1.00  0.00     0.010 A 
ATOM     35  C   UNL A   1      35.601  31.884  30.293  1.00  0.00     0.010 A 
ATOM     36  C   UNL A   1      36.906  32.079  29.816  1.00  0.00    -0.014 A 
BRANCH  36  37
ATOM     37  C   UNL A   1      38.054  31.455  30.523  1.00  0.00     0.031 A 
ATOM     38  C   UNL A   1      38.860  30.370  29.864  1.00  0.00     0.074 A 
ATOM     39  C   UNL A   1      38.326  31.813  31.794  1.00  0.00     0.049 A 
ATOM     40  N   UNL A   1      39.877  29.695  30.336  1.00  0.00    -0.248 NA
ATOM     41  C   UNL A   1      38.452  29.967  28.509  1.00  0.00     0.031 C 
ATOM     42  C   UNL A   1      37.560  32.781  32.581  1.00  0.00     0.029 A 
ATOM     43  N   UNL A   1      39.303  31.381  32.656  1.00  0.00    -0.354 N 
ATOM     44  C   UNL A   1      40.210  28.772  29.352  1.00  0.00     0.074 A 
ATOM     45  C   UNL A   1      39.256  28.940  28.278  1.00  0.00     0.031 C 
ATOM     46  C   UNL A   1      38.095  32.871  33.808  1.00  0.00     0.029 A 
ATOM     47  C   UNL A   1      39.220  31.946  33.907  1.00  0.00     0.049 A 
ATOM     48  H   UNL A   1      39.996  30.730  32.404  1.00  0.00     0.167 HD
ATOM     49  C   UNL A   1      41.236  27.887  29.327  1.00  0.00     0.034 A 
ATOM     50  C   UNL A   1      39.957  31.736  35.015  1.00  0.00     0.034 A 
ATOM     51  C   UNL A   1      42.194  27.734  30.389  1.00  0.00     0.049 A 
ATOM     52  C   UNL A   1      41.113  30.777  34.956  1.00  0.00     0.074 A 
ATOM     53  C   UNL A   1      43.317  26.928  30.426  1.00  0.00     0.029 A 
ATOM     54  N   UNL A   1      42.132  28.387  31.612  1.00  0.00    -0.354 N 
ATOM     55  N   UNL A   1      41.518  30.036  33.954  1.00  0.00    -0.248 NA
ATOM     56  C   UNL A   1      41.939  30.659  36.165  1.00  0.00     0.031 C 
ATOM     57  C   UNL A   1      43.914  27.065  31.686  1.00  0.00     0.029 A 
ATOM     58  C   UNL A   1      43.187  27.990  32.418  1.00  0.00     0.049 A 
ATOM     59  H   UNL A   1      41.439  29.037  31.869  1.00  0.00     0.167 HD
ATOM     60  C   UNL A   1      42.658  29.378  34.402  1.00  0.00     0.074 A 
ATOM     61  C   UNL A   1      42.896  29.837  35.756  1.00  0.00     0.031 C 
ATOM     62  C   UNL A   1      43.431  28.470  33.755  1.00  0.00     0.034 A 
BRANCH  49  63
ATOM     63  C   UNL A   1      41.387  27.042  28.086  1.00  0.00     0.023 A 
ATOM     64  C   UNL A   1      41.960  27.603  26.923  1.00  0.00     0.012 A 
ATOM     65  C   UNL A   1      40.983  25.693  28.070  1.00  0.00     0.148 A 
ATOM     66  C   UNL A   1      42.074  26.856  25.752  1.00  0.00     0.002 A 
ATOM     67  C   UNL A   1      41.150  24.939  26.914  1.00  0.00     0.091 A 
ATOM     68  F   UNL A   1      40.425  25.178  29.174  1.00  0.00    -0.205 F 
ATOM     69  C   UNL A   1      41.678  25.522  25.750  1.00  0.00     0.022 A 
BRANCH  67  70
ATOM     70  S   UNL A   1      40.750  23.189  26.835  1.00  0.00     0.127 S 
ATOM     71  O   UNL A   1      41.512  22.765  25.661  1.00  0.00    -0.237 OA
ATOM     72  O   UNL A   1      41.273  22.697  28.111  1.00  0.00    -0.237 OA
ATOM     73  O   UNL A   1      39.303  23.115  26.703  1.00  0.00    -0.744 OA
ENDBRANCH  67  70
ENDBRANCH  49  63
BRANCH  50  74
ATOM     74  C   UNL A   1      39.637  32.487  36.261  1.00  0.00     0.023 A 
ATOM     75  C   UNL A   1      40.269  33.719  36.518  1.00  0.00     0.012 A 
ATOM     76  C   UNL A   1      38.664  32.010  37.161  1.00  0.00     0.148 A 
ATOM     77  C   UNL A   1      39.955  34.451  37.664  1.00  0.00     0.002 A 
ATOM     78  C   UNL A   1      38.313  32.773  38.268  1.00  0.00     0.091 A 
ATOM     79  F   UNL A   1      38.081  30.833  36.898  1.00  0.00    -0.205 F 
ATOM     80  C   UNL A   1      38.970  33.984  38.532  1.00  0.00     0.022 A 
BRANCH  78  81
ATOM     81  S   UNL A   1      36.960  32.322  39.360  1.00  0.00     0.127 S 
ATOM     82  O   UNL A   1      37.168  33.231  40.484  1.00  0.00    -0.237 OA
ATOM     83  O   UNL A   1      35.795  32.624  38.528  1.00  0.00    -0.237 OA
ATOM     84  O   UNL A   1      37.141  30.907  39.653  1.00  0.00    -0.744 OA
ENDBRANCH  78  81
ENDBRANCH  50  74
BRANCH  62  85
ATOM     85  C   UNL A   1      44.625  27.921  34.495  1.00  0.00     0.023 A 
ATOM     86  C   UNL A   1      45.866  28.586  34.423  1.00  0.00     0.012 A 
ATOM     87  C   UNL A   1      44.504  26.773  35.303  1.00  0.00     0.148 A 
ATOM     88  C   UNL A   1      46.978  28.091  35.105  1.00  0.00     0.002 A 
ATOM     89  C   UNL A   1      45.602  26.318  36.024  1.00  0.00     0.091 A 
ATOM     90  F   UNL A   1      43.322  26.143  35.348  1.00  0.00    -0.205 F 
ATOM     91  C   UNL A   1      46.843  26.965  35.913  1.00  0.00     0.022 A 
BRANCH  89  92
ATOM     92  S   UNL A   1      45.499  24.934  37.164  1.00  0.00     0.127 S 
ATOM     93  O   UNL A   1      44.428  25.365  38.061  1.00  0.00    -0.237 OA
ATOM     94  O   UNL A   1      45.143  23.826  36.277  1.00  0.00    -0.237 OA
ATOM     95  O   UNL A   1      46.817  24.818  37.776  1.00  0.00    -0.744 OA
ENDBRANCH  89  92
ENDBRANCH  62  85
ENDBRANCH  36  37
ENDBRANCH  28  31
ENDBRANCH  26  27
ENDBRANCH  25  26
ENDBRANCH  24  25
ENDBRANCH   1  24
TORSDOF 19
ENDMDL
