MODEL 1
REMARK VINA RESULT:     -11.1      0.000      0.000
REMARK SMILES CC[C@](C)(C(=O)NCCCCNC(=O)c1ccc(-c2c3nc(c(-c4cccc(S(=O)(=O)[O-])c4F)c4ccc([nH]4)c(-c4cccc(S(=O)(=O)[O-])c4F)c4nc(c(-c5cccc(S(=O)(=O)[O-])c5F)c5ccc2[nH]5)C=C4)C=C3)cc1)[C@H]1CCC[C@H](OC)C1
REMARK SMILES IDX 10 1 9 2 8 3 7 4 5 5 6 6 3 8 4 9 2 10 1 11 78 12 79 13 85 14
REMARK SMILES IDX 80 15 82 16 81 17 83 18 84 19 11 20 12 21 13 22 14 24 15 25
REMARK SMILES IDX 16 26 77 27 17 28 76 29 18 30 19 31 20 32 70 33 21 34 75 35
REMARK SMILES IDX 69 36 71 37 22 38 74 39 68 40 67 41 23 43 55 44 35 45 54 46
REMARK SMILES IDX 36 47 39 48 53 49 72 50 37 51 38 52 52 54 73 55 40 56 24 57
REMARK SMILES IDX 25 58 33 59 26 60 28 61 34 62 27 63 29 64 30 65 31 66 32 67
REMARK SMILES IDX 56 68 57 69 65 70 58 71 60 72 66 73 59 74 61 75 62 76 63 77
REMARK SMILES IDX 64 78 41 79 42 80 50 81 43 82 45 83 51 84 44 85 46 86 47 87
REMARK SMILES IDX 48 88 49 89
REMARK H PARENT 7 7 12 23 71 42 39 53
REMARK Flexibility Score: inf
ROOT
ATOM      1  C   UNL A   1      31.587  28.940  25.421  1.00  0.00     0.023 C 
ENDROOT
BRANCH   1   2
ATOM      2  C   UNL A   1      31.206  29.168  23.964  1.00  0.00     0.023 C 
BRANCH   2   3
ATOM      3  C   UNL A   1      30.939  27.896  23.168  1.00  0.00     0.116 C 
BRANCH   3   4
ATOM      4  N   UNL A   1      32.059  27.501  22.332  1.00  0.00    -0.356 N 
ATOM      5  C   UNL A   1      32.796  26.351  22.266  1.00  0.00     0.226 C 
ATOM      6  O   UNL A   1      33.628  26.295  21.357  1.00  0.00    -0.274 OA
ATOM      7  H   UNL A   1      32.342  28.193  21.690  1.00  0.00     0.163 HD
BRANCH   5   8
ATOM      8  C   UNL A   1      32.566  25.149  23.246  1.00  0.00     0.049 C 
ATOM      9  C   UNL A   1      31.039  24.817  23.184  1.00  0.00     0.022 C 
BRANCH   8  10
ATOM     10  C   UNL A   1      33.366  23.926  22.679  1.00  0.00     0.013 C 
ATOM     11  C   UNL A   1      32.717  22.541  22.740  1.00  0.00     0.005 C 
ENDBRANCH   8  10
BRANCH   8  12
ATOM     12  C   UNL A   1      32.986  25.622  24.745  1.00  0.00     0.007 C 
ATOM     13  C   UNL A   1      32.048  25.241  25.919  1.00  0.00     0.005 C 
ATOM     14  C   UNL A   1      34.420  25.295  25.238  1.00  0.00     0.036 C 
ATOM     15  C   UNL A   1      32.127  23.758  26.260  1.00  0.00     0.003 C 
ATOM     16  C   UNL A   1      34.606  23.841  25.727  1.00  0.00     0.118 C 
ATOM     17  C   UNL A   1      33.533  23.399  26.730  1.00  0.00     0.032 C 
BRANCH  16  18
ATOM     18  O   UNL A   1      35.930  23.538  26.171  1.00  0.00    -0.381 OA
ATOM     19  C   UNL A   1      36.976  23.685  25.229  1.00  0.00     0.195 C 
ENDBRANCH  16  18
ENDBRANCH   8  12
ENDBRANCH   5   8
ENDBRANCH   3   4
ENDBRANCH   2   3
ENDBRANCH   1   2
BRANCH   1  20
ATOM     20  C   UNL A   1      32.836  29.678  25.889  1.00  0.00     0.116 C 
BRANCH  20  21
ATOM     21  N   UNL A   1      32.568  31.020  26.402  1.00  0.00    -0.352 N 
ATOM     22  C   UNL A   1      33.344  31.773  27.253  1.00  0.00     0.251 C 
ATOM     23  H   UNL A   1      31.729  31.437  26.101  1.00  0.00     0.163 HD
ATOM     24  O   UNL A   1      32.956  32.861  27.667  1.00  0.00    -0.269 OA
BRANCH  22  25
ATOM     25  C   UNL A   1      34.641  31.219  27.689  1.00  0.00     0.039 A 
ATOM     26  C   UNL A   1      35.695  32.093  27.963  1.00  0.00     0.014 A 
ATOM     27  C   UNL A   1      34.756  29.851  27.945  1.00  0.00     0.014 A 
ATOM     28  C   UNL A   1      36.845  31.602  28.584  1.00  0.00     0.010 A 
ATOM     29  C   UNL A   1      35.865  29.383  28.636  1.00  0.00     0.010 A 
ATOM     30  C   UNL A   1      36.916  30.253  28.970  1.00  0.00    -0.014 A 
BRANCH  30  31
ATOM     31  C   UNL A   1      38.059  29.716  29.748  1.00  0.00     0.031 A 
ATOM     32  C   UNL A   1      38.290  30.196  31.152  1.00  0.00     0.074 A 
ATOM     33  C   UNL A   1      38.969  28.925  29.144  1.00  0.00     0.049 A 
ATOM     34  N   UNL A   1      39.310  29.981  31.941  1.00  0.00    -0.248 NA
ATOM     35  C   UNL A   1      37.257  31.071  31.730  1.00  0.00     0.031 C 
ATOM     36  C   UNL A   1      38.904  28.471  27.753  1.00  0.00     0.029 A 
ATOM     37  N   UNL A   1      40.151  28.405  29.608  1.00  0.00    -0.354 N 
ATOM     38  C   UNL A   1      39.071  30.739  33.079  1.00  0.00     0.074 A 
ATOM     39  C   UNL A   1      37.823  31.439  32.871  1.00  0.00     0.031 C 
ATOM     40  C   UNL A   1      40.008  27.759  27.472  1.00  0.00     0.029 A 
ATOM     41  C   UNL A   1      40.870  27.729  28.649  1.00  0.00     0.049 A 
ATOM     42  H   UNL A   1      40.456  28.506  30.539  1.00  0.00     0.167 HD
ATOM     43  C   UNL A   1      39.811  30.823  34.210  1.00  0.00     0.034 A 
ATOM     44  C   UNL A   1      42.093  27.166  28.704  1.00  0.00     0.034 A 
ATOM     45  C   UNL A   1      41.012  30.070  34.440  1.00  0.00     0.049 A 
ATOM     46  C   UNL A   1      42.857  27.201  30.000  1.00  0.00     0.074 A 
ATOM     47  C   UNL A   1      41.763  29.982  35.597  1.00  0.00     0.029 A 
ATOM     48  N   UNL A   1      41.640  29.280  33.490  1.00  0.00    -0.354 N 
ATOM     49  N   UNL A   1      42.527  27.771  31.133  1.00  0.00    -0.248 NA
ATOM     50  C   UNL A   1      44.143  26.489  30.039  1.00  0.00     0.031 C 
ATOM     51  C   UNL A   1      42.854  29.146  35.345  1.00  0.00     0.029 A 
ATOM     52  C   UNL A   1      42.776  28.703  34.033  1.00  0.00     0.049 A 
ATOM     53  H   UNL A   1      41.326  29.147  32.567  1.00  0.00     0.167 HD
ATOM     54  C   UNL A   1      43.543  27.461  32.028  1.00  0.00     0.074 A 
ATOM     55  C   UNL A   1      44.495  26.639  31.310  1.00  0.00     0.031 C 
ATOM     56  C   UNL A   1      43.682  27.836  33.324  1.00  0.00     0.034 A 
BRANCH  43  57
ATOM     57  C   UNL A   1      39.302  31.718  35.308  1.00  0.00     0.023 A 
ATOM     58  C   UNL A   1      38.361  31.220  36.231  1.00  0.00     0.012 A 
ATOM     59  C   UNL A   1      39.776  33.037  35.448  1.00  0.00     0.148 A 
ATOM     60  C   UNL A   1      37.868  32.031  37.252  1.00  0.00     0.002 A 
ATOM     61  C   UNL A   1      39.312  33.825  36.495  1.00  0.00     0.091 A 
ATOM     62  F   UNL A   1      40.650  33.505  34.546  1.00  0.00    -0.205 F 
ATOM     63  C   UNL A   1      38.350  33.329  37.390  1.00  0.00     0.022 A 
BRANCH  61  64
ATOM     64  S   UNL A   1      39.939  35.482  36.796  1.00  0.00     0.127 S 
ATOM     65  O   UNL A   1      39.298  35.815  38.067  1.00  0.00    -0.237 OA
ATOM     66  O   UNL A   1      41.383  35.260  36.882  1.00  0.00    -0.237 OA
ATOM     67  O   UNL A   1      39.521  36.275  35.649  1.00  0.00    -0.744 OA
ENDBRANCH  61  64
ENDBRANCH  43  57
BRANCH  44  68
ATOM     68  C   UNL A   1      42.634  26.465  27.505  1.00  0.00     0.023 A 
ATOM     69  C   UNL A   1      43.495  27.156  26.632  1.00  0.00     0.012 A 
ATOM     70  C   UNL A   1      42.354  25.106  27.262  1.00  0.00     0.148 A 
ATOM     71  C   UNL A   1      44.053  26.512  25.527  1.00  0.00     0.002 A 
ATOM     72  C   UNL A   1      42.955  24.456  26.190  1.00  0.00     0.091 A 
ATOM     73  F   UNL A   1      41.523  24.469  28.100  1.00  0.00    -0.205 F 
ATOM     74  C   UNL A   1      43.793  25.161  25.312  1.00  0.00     0.022 A 
BRANCH  72  75
ATOM     75  S   UNL A   1      42.790  22.688  25.918  1.00  0.00     0.127 S 
ATOM     76  O   UNL A   1      43.459  22.140  27.094  1.00  0.00    -0.237 OA
ATOM     77  O   UNL A   1      41.337  22.520  25.900  1.00  0.00    -0.237 OA
ATOM     78  O   UNL A   1      43.438  22.425  24.640  1.00  0.00    -0.744 OA
ENDBRANCH  72  75
ENDBRANCH  44  68
BRANCH  56  79
ATOM     79  C   UNL A   1      44.888  27.344  34.077  1.00  0.00     0.023 A 
ATOM     80  C   UNL A   1      46.040  28.149  34.152  1.00  0.00     0.012 A 
ATOM     81  C   UNL A   1      44.835  26.138  34.806  1.00  0.00     0.148 A 
ATOM     82  C   UNL A   1      47.128  27.757  34.930  1.00  0.00     0.002 A 
ATOM     83  C   UNL A   1      45.904  25.775  35.614  1.00  0.00     0.091 A 
ATOM     84  F   UNL A   1      43.733  25.379  34.706  1.00  0.00    -0.205 F 
ATOM     85  C   UNL A   1      47.055  26.579  35.671  1.00  0.00     0.022 A 
BRANCH  83  86
ATOM     86  S   UNL A   1      45.862  24.329  36.678  1.00  0.00     0.127 S 
ATOM     87  O   UNL A   1      44.837  24.704  37.651  1.00  0.00    -0.237 OA
ATOM     88  O   UNL A   1      45.463  23.271  35.749  1.00  0.00    -0.237 OA
ATOM     89  O   UNL A   1      47.209  24.185  37.216  1.00  0.00    -0.744 OA
ENDBRANCH  83  86
ENDBRANCH  56  79
ENDBRANCH  30  31
ENDBRANCH  22  25
ENDBRANCH  20  21
ENDBRANCH   1  20
TORSDOF 17
ENDMDL
MODEL 2
REMARK VINA RESULT:     -10.9      1.692      7.873
REMARK SMILES CC[C@](C)(C(=O)NCCCCNC(=O)c1ccc(-c2c3nc(c(-c4cccc(S(=O)(=O)[O-])c4F)c4ccc([nH]4)c(-c4cccc(S(=O)(=O)[O-])c4F)c4nc(c(-c5cccc(S(=O)(=O)[O-])c5F)c5ccc2[nH]5)C=C4)C=C3)cc1)[C@H]1CCC[C@H](OC)C1
REMARK SMILES IDX 10 1 9 2 8 3 7 4 5 5 6 6 3 8 4 9 2 10 1 11 78 12 79 13 85 14
REMARK SMILES IDX 80 15 82 16 81 17 83 18 84 19 11 20 12 21 13 22 14 24 15 25
REMARK SMILES IDX 16 26 77 27 17 28 76 29 18 30 19 31 20 32 70 33 21 34 75 35
REMARK SMILES IDX 69 36 71 37 22 38 74 39 68 40 67 41 23 43 55 44 35 45 54 46
REMARK SMILES IDX 36 47 39 48 53 49 72 50 37 51 38 52 52 54 73 55 40 56 24 57
REMARK SMILES IDX 25 58 33 59 26 60 28 61 34 62 27 63 29 64 30 65 31 66 32 67
REMARK SMILES IDX 56 68 57 69 65 70 58 71 60 72 66 73 59 74 61 75 62 76 63 77
REMARK SMILES IDX 64 78 41 79 42 80 50 81 43 82 45 83 51 84 44 85 46 86 47 87
REMARK SMILES IDX 48 88 49 89
REMARK H PARENT 7 7 12 23 71 42 39 53
REMARK Flexibility Score: inf
ROOT
ATOM      1  C   UNL A   1      32.655  29.523  25.135  1.00  0.00     0.023 C 
ENDROOT
BRANCH   1   2
ATOM      2  C   UNL A   1      32.501  28.039  24.827  1.00  0.00     0.023 C 
BRANCH   2   3
ATOM      3  C   UNL A   1      33.772  27.355  24.338  1.00  0.00     0.116 C 
BRANCH   3   4
ATOM      4  N   UNL A   1      33.671  26.875  22.971  1.00  0.00    -0.356 N 
ATOM      5  C   UNL A   1      33.397  25.642  22.448  1.00  0.00     0.226 C 
ATOM      6  O   UNL A   1      33.281  25.589  21.221  1.00  0.00    -0.274 OA
ATOM      7  H   UNL A   1      33.830  27.569  22.291  1.00  0.00     0.163 HD
BRANCH   5   8
ATOM      8  C   UNL A   1      33.185  24.375  23.348  1.00  0.00     0.049 C 
ATOM      9  C   UNL A   1      31.761  24.519  23.980  1.00  0.00     0.022 C 
BRANCH   8  10
ATOM     10  C   UNL A   1      33.187  23.125  22.402  1.00  0.00     0.013 C 
ATOM     11  C   UNL A   1      32.193  21.996  22.687  1.00  0.00     0.005 C 
ENDBRANCH   8  10
BRANCH   8  12
ATOM     12  C   UNL A   1      34.326  24.374  24.508  1.00  0.00     0.007 C 
ATOM     13  C   UNL A   1      33.936  23.846  25.912  1.00  0.00     0.005 C 
ATOM     14  C   UNL A   1      35.694  23.718  24.184  1.00  0.00     0.036 C 
ATOM     15  C   UNL A   1      33.776  22.331  25.933  1.00  0.00     0.003 C 
ATOM     16  C   UNL A   1      35.697  22.176  24.284  1.00  0.00     0.118 C 
ATOM     17  C   UNL A   1      35.101  21.655  25.598  1.00  0.00     0.032 C 
BRANCH  16  18
ATOM     18  O   UNL A   1      36.955  21.572  23.976  1.00  0.00    -0.381 OA
ATOM     19  C   UNL A   1      37.574  20.815  24.999  1.00  0.00     0.195 C 
ENDBRANCH  16  18
ENDBRANCH   8  12
ENDBRANCH   5   8
ENDBRANCH   3   4
ENDBRANCH   2   3
ENDBRANCH   1   2
BRANCH   1  20
ATOM     20  C   UNL A   1      32.484  29.904  26.601  1.00  0.00     0.116 C 
BRANCH  20  21
ATOM     21  N   UNL A   1      32.216  31.324  26.813  1.00  0.00    -0.352 N 
ATOM     22  C   UNL A   1      33.044  32.268  27.377  1.00  0.00     0.251 C 
ATOM     23  H   UNL A   1      31.335  31.646  26.515  1.00  0.00     0.163 HD
ATOM     24  O   UNL A   1      32.657  33.417  27.566  1.00  0.00    -0.269 OA
BRANCH  22  25
ATOM     25  C   UNL A   1      34.399  31.852  27.788  1.00  0.00     0.039 A 
ATOM     26  C   UNL A   1      35.391  32.823  27.941  1.00  0.00     0.014 A 
ATOM     27  C   UNL A   1      34.636  30.522  28.139  1.00  0.00     0.014 A 
ATOM     28  C   UNL A   1      36.602  32.473  28.539  1.00  0.00     0.010 A 
ATOM     29  C   UNL A   1      35.809  30.196  28.806  1.00  0.00     0.010 A 
ATOM     30  C   UNL A   1      36.800  31.168  29.021  1.00  0.00    -0.014 A 
BRANCH  30  31
ATOM     31  C   UNL A   1      38.016  30.784  29.779  1.00  0.00     0.031 A 
ATOM     32  C   UNL A   1      38.968  29.782  29.193  1.00  0.00     0.074 A 
ATOM     33  C   UNL A   1      38.177  31.213  31.047  1.00  0.00     0.049 A 
ATOM     34  N   UNL A   1      39.992  29.192  29.752  1.00  0.00    -0.248 NA
ATOM     35  C   UNL A   1      38.708  29.352  27.809  1.00  0.00     0.031 C 
ATOM     36  C   UNL A   1      37.266  32.111  31.760  1.00  0.00     0.029 A 
ATOM     37  N   UNL A   1      39.139  30.909  31.978  1.00  0.00    -0.354 N 
ATOM     38  C   UNL A   1      40.460  28.282  28.813  1.00  0.00     0.074 A 
ATOM     39  C   UNL A   1      39.595  28.379  27.658  1.00  0.00     0.031 C 
ATOM     40  C   UNL A   1      37.701  32.269  33.021  1.00  0.00     0.029 A 
ATOM     41  C   UNL A   1      38.902  31.463  33.215  1.00  0.00     0.049 A 
ATOM     42  H   UNL A   1      39.924  30.349  31.780  1.00  0.00     0.167 HD
ATOM     43  C   UNL A   1      41.531  27.459  28.893  1.00  0.00     0.034 A 
ATOM     44  C   UNL A   1      39.566  31.323  34.381  1.00  0.00     0.034 A 
ATOM     45  C   UNL A   1      42.430  27.420  30.014  1.00  0.00     0.049 A 
ATOM     46  C   UNL A   1      40.803  30.469  34.419  1.00  0.00     0.074 A 
ATOM     47  C   UNL A   1      43.616  26.722  30.141  1.00  0.00     0.029 A 
ATOM     48  N   UNL A   1      42.236  28.105  31.203  1.00  0.00    -0.354 N 
ATOM     49  N   UNL A   1      41.340  29.756  33.460  1.00  0.00    -0.248 NA
ATOM     50  C   UNL A   1      41.548  30.426  35.687  1.00  0.00     0.031 C 
ATOM     51  C   UNL A   1      44.136  26.974  31.414  1.00  0.00     0.029 A 
ATOM     52  C   UNL A   1      43.278  27.841  32.075  1.00  0.00     0.049 A 
ATOM     53  H   UNL A   1      41.471  28.692  31.400  1.00  0.00     0.167 HD
ATOM     54  C   UNL A   1      42.499  29.205  33.993  1.00  0.00     0.074 A 
ATOM     55  C   UNL A   1      42.596  29.681  35.359  1.00  0.00     0.031 C 
ATOM     56  C   UNL A   1      43.394  28.371  33.409  1.00  0.00     0.034 A 
BRANCH  43  57
ATOM     57  C   UNL A   1      41.823  26.581  27.707  1.00  0.00     0.023 A 
ATOM     58  C   UNL A   1      42.463  27.128  26.576  1.00  0.00     0.012 A 
ATOM     59  C   UNL A   1      41.498  25.211  27.720  1.00  0.00     0.148 A 
ATOM     60  C   UNL A   1      42.737  26.338  25.462  1.00  0.00     0.002 A 
ATOM     61  C   UNL A   1      41.814  24.419  26.622  1.00  0.00     0.091 A 
ATOM     62  F   UNL A   1      40.865  24.711  28.791  1.00  0.00    -0.205 F 
ATOM     63  C   UNL A   1      42.422  24.982  25.488  1.00  0.00     0.022 A 
BRANCH  61  64
ATOM     64  S   UNL A   1      41.516  22.647  26.602  1.00  0.00     0.127 S 
ATOM     65  O   UNL A   1      42.116  22.261  25.326  1.00  0.00    -0.237 OA
ATOM     66  O   UNL A   1      42.252  22.193  27.783  1.00  0.00    -0.237 OA
ATOM     67  O   UNL A   1      40.072  22.489  26.697  1.00  0.00    -0.744 OA
ENDBRANCH  61  64
ENDBRANCH  43  57
BRANCH  44  68
ATOM     68  C   UNL A   1      39.100  32.068  35.585  1.00  0.00     0.023 A 
ATOM     69  C   UNL A   1      39.298  33.460  35.655  1.00  0.00     0.012 A 
ATOM     70  C   UNL A   1      38.406  31.419  36.624  1.00  0.00     0.148 A 
ATOM     71  C   UNL A   1      38.832  34.190  36.749  1.00  0.00     0.002 A 
ATOM     72  C   UNL A   1      37.897  32.160  37.686  1.00  0.00     0.091 A 
ATOM     73  F   UNL A   1      38.237  30.091  36.543  1.00  0.00    -0.205 F 
ATOM     74  C   UNL A   1      38.122  33.543  37.757  1.00  0.00     0.022 A 
BRANCH  72  75
ATOM     75  S   UNL A   1      36.853  31.436  38.955  1.00  0.00     0.127 S 
ATOM     76  O   UNL A   1      37.701  31.546  40.139  1.00  0.00    -0.237 OA
ATOM     77  O   UNL A   1      35.695  32.329  38.940  1.00  0.00    -0.237 OA
ATOM     78  O   UNL A   1      36.569  30.080  38.504  1.00  0.00    -0.744 OA
ENDBRANCH  72  75
ENDBRANCH  44  68
BRANCH  56  79
ATOM     79  C   UNL A   1      44.583  27.930  34.220  1.00  0.00     0.023 A 
ATOM     80  C   UNL A   1      45.718  28.758  34.298  1.00  0.00     0.012 A 
ATOM     81  C   UNL A   1      44.525  26.755  34.997  1.00  0.00     0.148 A 
ATOM     82  C   UNL A   1      46.787  28.417  35.126  1.00  0.00     0.002 A 
ATOM     83  C   UNL A   1      45.574  26.445  35.853  1.00  0.00     0.091 A 
ATOM     84  F   UNL A   1      43.439  25.974  34.894  1.00  0.00    -0.205 F 
ATOM     85  C   UNL A   1      46.709  27.270  35.913  1.00  0.00     0.022 A 
BRANCH  83  86
ATOM     86  S   UNL A   1      45.519  25.043  36.974  1.00  0.00     0.127 S 
ATOM     87  O   UNL A   1      46.802  25.164  37.665  1.00  0.00    -0.237 OA
ATOM     88  O   UNL A   1      44.351  25.349  37.800  1.00  0.00    -0.237 OA
ATOM     89  O   UNL A   1      45.373  23.861  36.134  1.00  0.00    -0.744 OA
ENDBRANCH  83  86
ENDBRANCH  56  79
ENDBRANCH  30  31
ENDBRANCH  22  25
ENDBRANCH  20  21
ENDBRANCH   1  20
TORSDOF 17
ENDMDL
MODEL 3
REMARK VINA RESULT:     -10.9      4.790     10.125
REMARK SMILES CC[C@](C)(C(=O)NCCCCNC(=O)c1ccc(-c2c3nc(c(-c4cccc(S(=O)(=O)[O-])c4F)c4ccc([nH]4)c(-c4cccc(S(=O)(=O)[O-])c4F)c4nc(c(-c5cccc(S(=O)(=O)[O-])c5F)c5ccc2[nH]5)C=C4)C=C3)cc1)[C@H]1CCC[C@H](OC)C1
REMARK SMILES IDX 10 1 9 2 8 3 7 4 5 5 6 6 3 8 4 9 2 10 1 11 78 12 79 13 85 14
REMARK SMILES IDX 80 15 82 16 81 17 83 18 84 19 11 20 12 21 13 22 14 24 15 25
REMARK SMILES IDX 16 26 77 27 17 28 76 29 18 30 19 31 20 32 70 33 21 34 75 35
REMARK SMILES IDX 69 36 71 37 22 38 74 39 68 40 67 41 23 43 55 44 35 45 54 46
REMARK SMILES IDX 36 47 39 48 53 49 72 50 37 51 38 52 52 54 73 55 40 56 24 57
REMARK SMILES IDX 25 58 33 59 26 60 28 61 34 62 27 63 29 64 30 65 31 66 32 67
REMARK SMILES IDX 56 68 57 69 65 70 58 71 60 72 66 73 59 74 61 75 62 76 63 77
REMARK SMILES IDX 64 78 41 79 42 80 50 81 43 82 45 83 51 84 44 85 46 86 47 87
REMARK SMILES IDX 48 88 49 89
REMARK H PARENT 7 7 12 23 71 42 39 53
REMARK Flexibility Score: inf
ROOT
ATOM      1  C   UNL A   1      35.809  20.907  24.917  1.00  0.00     0.023 C 
ENDROOT
BRANCH   1   2
ATOM      2  C   UNL A   1      34.637  21.874  24.806  1.00  0.00     0.023 C 
BRANCH   2   3
ATOM      3  C   UNL A   1      34.676  23.039  25.786  1.00  0.00     0.116 C 
BRANCH   3   4
ATOM      4  N   UNL A   1      33.463  23.163  26.574  1.00  0.00    -0.356 N 
ATOM      5  C   UNL A   1      32.450  24.081  26.563  1.00  0.00     0.226 C 
ATOM      6  O   UNL A   1      31.493  23.838  27.304  1.00  0.00    -0.274 OA
ATOM      7  H   UNL A   1      33.347  22.450  27.244  1.00  0.00     0.163 HD
BRANCH   5   8
ATOM      8  C   UNL A   1      32.466  25.340  25.629  1.00  0.00     0.049 C 
ATOM      9  C   UNL A   1      33.831  26.061  25.887  1.00  0.00     0.022 C 
BRANCH   8  10
ATOM     10  C   UNL A   1      32.448  24.822  24.149  1.00  0.00     0.013 C 
ATOM     11  C   UNL A   1      33.448  25.421  23.157  1.00  0.00     0.005 C 
ENDBRANCH   8  10
BRANCH   8  12
ATOM     12  C   UNL A   1      31.224  26.304  26.046  1.00  0.00     0.007 C 
ATOM     13  C   UNL A   1      31.537  27.577  26.873  1.00  0.00     0.005 C 
ATOM     14  C   UNL A   1      30.252  26.765  24.928  1.00  0.00     0.036 C 
ATOM     15  C   UNL A   1      32.218  28.654  26.037  1.00  0.00     0.003 C 
ATOM     16  C   UNL A   1      30.778  27.939  24.074  1.00  0.00     0.118 C 
ATOM     17  C   UNL A   1      31.294  29.114  24.914  1.00  0.00     0.032 C 
BRANCH  16  18
ATOM     18  O   UNL A   1      29.885  28.356  23.038  1.00  0.00    -0.381 OA
ATOM     19  C   UNL A   1      30.315  29.417  22.206  1.00  0.00     0.195 C 
ENDBRANCH  16  18
ENDBRANCH   8  12
ENDBRANCH   5   8
ENDBRANCH   3   4
ENDBRANCH   2   3
ENDBRANCH   1   2
BRANCH   1  20
ATOM     20  C   UNL A   1      37.119  21.526  25.391  1.00  0.00     0.116 C 
BRANCH  20  21
ATOM     21  N   UNL A   1      38.194  20.555  25.581  1.00  0.00    -0.352 N 
ATOM     22  C   UNL A   1      39.440  20.765  26.126  1.00  0.00     0.251 C 
ATOM     23  H   UNL A   1      38.004  19.637  25.281  1.00  0.00     0.163 HD
ATOM     24  O   UNL A   1      40.278  19.870  26.151  1.00  0.00    -0.269 OA
BRANCH  22  25
ATOM     25  C   UNL A   1      39.757  22.110  26.645  1.00  0.00     0.039 A 
ATOM     26  C   UNL A   1      40.753  22.247  27.614  1.00  0.00     0.014 A 
ATOM     27  C   UNL A   1      39.154  23.231  26.072  1.00  0.00     0.014 A 
ATOM     28  C   UNL A   1      41.212  23.522  27.946  1.00  0.00     0.010 A 
ATOM     29  C   UNL A   1      39.669  24.490  26.344  1.00  0.00     0.010 A 
ATOM     30  C   UNL A   1      40.707  24.649  27.276  1.00  0.00    -0.014 A 
BRANCH  30  31
ATOM     31  C   UNL A   1      41.256  26.010  27.499  1.00  0.00     0.031 A 
ATOM     32  C   UNL A   1      42.668  26.315  27.091  1.00  0.00     0.074 A 
ATOM     33  C   UNL A   1      40.544  26.912  28.205  1.00  0.00     0.049 A 
ATOM     34  N   UNL A   1      43.388  27.377  27.341  1.00  0.00    -0.248 NA
ATOM     35  C   UNL A   1      43.381  25.268  26.340  1.00  0.00     0.031 C 
ATOM     36  C   UNL A   1      39.198  26.695  28.741  1.00  0.00     0.029 A 
ATOM     37  N   UNL A   1      40.874  28.172  28.635  1.00  0.00    -0.354 N 
ATOM     38  C   UNL A   1      44.651  27.103  26.832  1.00  0.00     0.074 A 
ATOM     39  C   UNL A   1      44.608  25.766  26.282  1.00  0.00     0.031 C 
ATOM     40  C   UNL A   1      38.826  27.777  29.445  1.00  0.00     0.029 A 
ATOM     41  C   UNL A   1      39.915  28.749  29.436  1.00  0.00     0.049 A 
ATOM     42  H   UNL A   1      41.717  28.621  28.395  1.00  0.00     0.167 HD
ATOM     43  C   UNL A   1      45.742  27.903  26.801  1.00  0.00     0.034 A 
ATOM     44  C   UNL A   1      39.918  29.921  30.103  1.00  0.00     0.034 A 
ATOM     45  C   UNL A   1      45.758  29.256  27.283  1.00  0.00     0.049 A 
ATOM     46  C   UNL A   1      41.111  30.829  29.981  1.00  0.00     0.074 A 
ATOM     47  C   UNL A   1      46.769  30.194  27.179  1.00  0.00     0.029 A 
ATOM     48  N   UNL A   1      44.715  29.861  27.967  1.00  0.00    -0.354 N 
ATOM     49  N   UNL A   1      42.234  30.628  29.335  1.00  0.00    -0.248 NA
ATOM     50  C   UNL A   1      41.028  32.138  30.646  1.00  0.00     0.031 C 
ATOM     51  C   UNL A   1      46.342  31.365  27.811  1.00  0.00     0.029 A 
ATOM     52  C   UNL A   1      45.059  31.160  28.298  1.00  0.00     0.049 A 
ATOM     53  H   UNL A   1      43.857  29.431  28.185  1.00  0.00     0.167 HD
ATOM     54  C   UNL A   1      42.977  31.792  29.487  1.00  0.00     0.074 A 
ATOM     55  C   UNL A   1      42.170  32.702  30.275  1.00  0.00     0.031 C 
ATOM     56  C   UNL A   1      44.221  32.076  29.029  1.00  0.00     0.034 A 
BRANCH  43  57
ATOM     57  C   UNL A   1      46.990  27.351  26.165  1.00  0.00     0.023 A 
ATOM     58  C   UNL A   1      47.224  27.565  24.792  1.00  0.00     0.012 A 
ATOM     59  C   UNL A   1      47.946  26.653  26.928  1.00  0.00     0.148 A 
ATOM     60  C   UNL A   1      48.368  27.057  24.178  1.00  0.00     0.002 A 
ATOM     61  C   UNL A   1      49.105  26.188  26.318  1.00  0.00     0.091 A 
ATOM     62  F   UNL A   1      47.696  26.434  28.227  1.00  0.00    -0.205 F 
ATOM     63  C   UNL A   1      49.313  26.378  24.942  1.00  0.00     0.022 A 
BRANCH  61  64
ATOM     64  S   UNL A   1      50.412  25.373  27.242  1.00  0.00     0.127 S 
ATOM     65  O   UNL A   1      50.790  26.411  28.199  1.00  0.00    -0.237 OA
ATOM     66  O   UNL A   1      49.713  24.229  27.830  1.00  0.00    -0.237 OA
ATOM     67  O   UNL A   1      51.426  25.016  26.261  1.00  0.00    -0.744 OA
ENDBRANCH  61  64
ENDBRANCH  43  57
BRANCH  44  68
ATOM     68  C   UNL A   1      38.717  30.320  30.891  1.00  0.00     0.023 A 
ATOM     69  C   UNL A   1      38.673  30.040  32.270  1.00  0.00     0.012 A 
ATOM     70  C   UNL A   1      37.656  31.032  30.299  1.00  0.00     0.148 A 
ATOM     71  C   UNL A   1      37.583  30.442  33.042  1.00  0.00     0.002 A 
ATOM     72  C   UNL A   1      36.597  31.477  31.084  1.00  0.00     0.091 A 
ATOM     73  F   UNL A   1      37.713  31.279  28.982  1.00  0.00    -0.205 F 
ATOM     74  C   UNL A   1      36.552  31.170  32.453  1.00  0.00     0.022 A 
BRANCH  72  75
ATOM     75  S   UNL A   1      35.298  32.537  30.441  1.00  0.00     0.127 S 
ATOM     76  O   UNL A   1      34.842  31.780  29.279  1.00  0.00    -0.237 OA
ATOM     77  O   UNL A   1      34.357  32.575  31.561  1.00  0.00    -0.237 OA
ATOM     78  O   UNL A   1      35.939  33.814  30.155  1.00  0.00    -0.744 OA
ENDBRANCH  72  75
ENDBRANCH  44  68
BRANCH  56  79
ATOM     79  C   UNL A   1      44.793  33.435  29.330  1.00  0.00     0.023 A 
ATOM     80  C   UNL A   1      45.536  33.633  30.509  1.00  0.00     0.012 A 
ATOM     81  C   UNL A   1      44.692  34.480  28.389  1.00  0.00     0.148 A 
ATOM     82  C   UNL A   1      46.160  34.855  30.755  1.00  0.00     0.002 A 
ATOM     83  C   UNL A   1      45.353  35.679  28.619  1.00  0.00     0.091 A 
ATOM     84  F   UNL A   1      43.964  34.274  27.281  1.00  0.00    -0.205 F 
ATOM     85  C   UNL A   1      46.081  35.871  29.806  1.00  0.00     0.022 A 
BRANCH  83  86
ATOM     86  S   UNL A   1      45.388  37.008  27.412  1.00  0.00     0.127 S 
ATOM     87  O   UNL A   1      43.963  37.233  27.175  1.00  0.00    -0.237 OA
ATOM     88  O   UNL A   1      46.060  38.080  28.147  1.00  0.00    -0.237 OA
ATOM     89  O   UNL A   1      46.136  36.496  26.271  1.00  0.00    -0.744 OA
ENDBRANCH  83  86
ENDBRANCH  56  79
ENDBRANCH  30  31
ENDBRANCH  22  25
ENDBRANCH  20  21
ENDBRANCH   1  20
TORSDOF 17
ENDMDL
