MODEL 1
REMARK VINA RESULT:     -11.8      0.000      0.000
REMARK SMILES CC[C@@](C)(NC(=O)c1cc(C)c(Br)s1)C(=O)NCCCCNC(=O)c1ccc(-c2c3nc(c(-c4cccc(S(=O)(=O)[O-])c4F)c4ccc([nH]4)c(-c4cccc(S(=O)(=O)[O-])c4F)c4nc(c(-c5cccc(S(=O)(=O)[O-])c5F)c5ccc2[nH]5)C=C4)C=C3)cc1
REMARK SMILES IDX 20 1 19 2 18 3 17 4 15 5 16 6 3 8 4 9 2 10 1 11 5 12 6 13
REMARK SMILES IDX 7 15 8 16 9 17 14 18 10 19 12 20 11 21 13 22 21 23 22 24
REMARK SMILES IDX 23 25 24 27 25 28 26 29 87 30 27 31 86 32 28 33 29 34 30 35
REMARK SMILES IDX 80 36 31 37 85 38 79 39 81 40 32 41 84 42 78 43 77 44 33 46
REMARK SMILES IDX 65 47 45 48 64 49 46 50 49 51 63 52 82 53 47 54 48 55 62 57
REMARK SMILES IDX 83 58 50 59 34 60 35 61 43 62 36 63 38 64 44 65 37 66 39 67
REMARK SMILES IDX 40 68 41 69 42 70 66 71 67 72 75 73 68 74 70 75 76 76 69 77
REMARK SMILES IDX 71 78 72 79 73 80 74 81 51 82 52 83 60 84 53 85 55 86 61 87
REMARK SMILES IDX 54 88 56 89 57 90 58 91 59 92
REMARK H PARENT 17 7 5 14 22 26 81 45 49 56
REMARK Flexibility Score: inf
ROOT
ATOM      1  C   UNL A   1      38.168  19.297  24.926  1.00  0.00     0.023 C 
ENDROOT
BRANCH   1   2
ATOM      2  C   UNL A   1      36.967  20.223  24.671  1.00  0.00     0.023 C 
BRANCH   2   3
ATOM      3  C   UNL A   1      36.661  21.461  25.544  1.00  0.00     0.116 C 
BRANCH   3   4
ATOM      4  N   UNL A   1      35.610  21.423  26.555  1.00  0.00    -0.354 N 
ATOM      5  C   UNL A   1      34.384  22.029  26.714  1.00  0.00     0.245 C 
ATOM      6  O   UNL A   1      33.729  21.669  27.693  1.00  0.00    -0.272 OA
ATOM      7  H   UNL A   1      35.831  20.821  27.302  1.00  0.00     0.163 HD
BRANCH   5   8
ATOM      8  C   UNL A   1      33.820  23.067  25.720  1.00  0.00     0.116 C 
ATOM      9  C   UNL A   1      34.707  24.325  25.904  1.00  0.00     0.045 C 
BRANCH   8  10
ATOM     10  C   UNL A   1      33.878  22.687  24.207  1.00  0.00     0.035 C 
ATOM     11  C   UNL A   1      32.626  22.118  23.546  1.00  0.00     0.007 C 
ENDBRANCH   8  10
BRANCH   8  12
ATOM     12  N   UNL A   1      32.400  23.387  26.020  1.00  0.00    -0.337 N 
ATOM     13  C   UNL A   1      31.792  24.584  26.384  1.00  0.00     0.262 C 
ATOM     14  H   UNL A   1      31.786  22.621  25.949  1.00  0.00     0.164 HD
ATOM     15  O   UNL A   1      30.793  24.433  27.097  1.00  0.00    -0.268 OA
BRANCH  13  16
ATOM     16  C   UNL A   1      32.218  25.904  25.907  1.00  0.00     0.093 A 
ATOM     17  C   UNL A   1      32.805  26.977  26.543  1.00  0.00     0.030 A 
ATOM     18  S   UNL A   1      32.213  26.240  24.210  1.00  0.00    -0.123 S 
ATOM     19  C   UNL A   1      33.233  28.063  25.726  1.00  0.00    -0.025 A 
ATOM     20  C   UNL A   1      32.982  27.747  24.416  1.00  0.00     0.074 A 
ATOM     21  C   UNL A   1      33.888  29.279  26.306  1.00  0.00     0.046 C 
ATOM     22  Br  UNL A   1      33.477  28.831  22.966  1.00  0.00    -0.039 Br
ENDBRANCH  13  16
ENDBRANCH   8  12
ENDBRANCH   5   8
ENDBRANCH   3   4
ENDBRANCH   2   3
ENDBRANCH   1   2
BRANCH   1  23
ATOM     23  C   UNL A   1      39.263  19.845  25.810  1.00  0.00     0.116 C 
BRANCH  23  24
ATOM     24  N   UNL A   1      40.461  18.997  25.835  1.00  0.00    -0.352 N 
ATOM     25  C   UNL A   1      41.792  19.401  25.887  1.00  0.00     0.251 C 
ATOM     26  H   UNL A   1      40.304  18.025  25.812  1.00  0.00     0.163 HD
ATOM     27  O   UNL A   1      42.690  18.673  25.505  1.00  0.00    -0.269 OA
BRANCH  25  28
ATOM     28  C   UNL A   1      42.078  20.736  26.444  1.00  0.00     0.039 A 
ATOM     29  C   UNL A   1      42.687  21.769  25.730  1.00  0.00     0.014 A 
ATOM     30  C   UNL A   1      41.653  20.938  27.746  1.00  0.00     0.014 A 
ATOM     31  C   UNL A   1      42.817  23.008  26.359  1.00  0.00     0.010 A 
ATOM     32  C   UNL A   1      41.445  22.201  28.190  1.00  0.00     0.010 A 
ATOM     33  C   UNL A   1      42.190  23.197  27.600  1.00  0.00    -0.014 A 
BRANCH  33  34
ATOM     34  C   UNL A   1      42.268  24.421  28.369  1.00  0.00     0.031 A 
ATOM     35  C   UNL A   1      41.097  25.301  28.229  1.00  0.00     0.074 A 
ATOM     36  C   UNL A   1      43.223  24.620  29.305  1.00  0.00     0.049 A 
ATOM     37  N   UNL A   1      41.015  26.351  27.487  1.00  0.00    -0.248 NA
ATOM     38  C   UNL A   1      39.823  24.876  28.820  1.00  0.00     0.031 C 
ATOM     39  C   UNL A   1      44.262  23.695  29.794  1.00  0.00     0.029 A 
ATOM     40  N   UNL A   1      43.381  25.690  30.121  1.00  0.00    -0.354 N 
ATOM     41  C   UNL A   1      39.757  26.878  27.742  1.00  0.00     0.074 A 
ATOM     42  C   UNL A   1      38.998  25.815  28.350  1.00  0.00     0.031 C 
ATOM     43  C   UNL A   1      44.774  24.158  30.957  1.00  0.00     0.029 A 
ATOM     44  C   UNL A   1      44.245  25.485  31.190  1.00  0.00     0.049 A 
ATOM     45  H   UNL A   1      42.920  26.546  29.969  1.00  0.00     0.167 HD
ATOM     46  C   UNL A   1      39.548  28.222  27.693  1.00  0.00     0.034 A 
ATOM     47  C   UNL A   1      44.482  26.355  32.200  1.00  0.00     0.034 A 
ATOM     48  C   UNL A   1      40.684  28.907  27.117  1.00  0.00     0.049 A 
ATOM     49  C   UNL A   1      44.131  27.701  31.684  1.00  0.00     0.074 A 
ATOM     50  C   UNL A   1      41.356  28.846  25.913  1.00  0.00     0.029 A 
ATOM     51  N   UNL A   1      41.551  29.508  28.001  1.00  0.00    -0.354 N 
ATOM     52  N   UNL A   1      44.773  28.274  30.703  1.00  0.00    -0.248 NA
ATOM     53  C   UNL A   1      42.789  28.200  31.930  1.00  0.00     0.031 C 
ATOM     54  C   UNL A   1      42.737  28.969  26.256  1.00  0.00     0.029 A 
ATOM     55  C   UNL A   1      42.827  29.167  27.636  1.00  0.00     0.049 A 
ATOM     56  H   UNL A   1      41.299  30.082  28.760  1.00  0.00     0.167 HD
ATOM     57  C   UNL A   1      43.775  28.853  29.927  1.00  0.00     0.074 A 
ATOM     58  C   UNL A   1      42.595  28.874  30.792  1.00  0.00     0.031 C 
ATOM     59  C   UNL A   1      43.916  28.986  28.574  1.00  0.00     0.034 A 
BRANCH  46  60
ATOM     60  C   UNL A   1      38.515  28.974  28.496  1.00  0.00     0.023 A 
ATOM     61  C   UNL A   1      37.710  29.897  27.790  1.00  0.00     0.012 A 
ATOM     62  C   UNL A   1      38.469  29.031  29.907  1.00  0.00     0.148 A 
ATOM     63  C   UNL A   1      36.949  30.864  28.453  1.00  0.00     0.002 A 
ATOM     64  C   UNL A   1      37.651  29.944  30.562  1.00  0.00     0.091 A 
ATOM     65  F   UNL A   1      39.312  28.299  30.638  1.00  0.00    -0.205 F 
ATOM     66  C   UNL A   1      36.916  30.886  29.841  1.00  0.00     0.022 A 
BRANCH  64  67
ATOM     67  S   UNL A   1      37.540  29.988  32.355  1.00  0.00     0.127 S 
ATOM     68  O   UNL A   1      36.450  30.938  32.555  1.00  0.00    -0.237 OA
ATOM     69  O   UNL A   1      37.218  28.596  32.668  1.00  0.00    -0.237 OA
ATOM     70  O   UNL A   1      38.855  30.413  32.817  1.00  0.00    -0.744 OA
ENDBRANCH  64  67
ENDBRANCH  46  60
BRANCH  47  71
ATOM     71  C   UNL A   1      44.726  26.083  33.633  1.00  0.00     0.023 A 
ATOM     72  C   UNL A   1      46.040  26.091  34.139  1.00  0.00     0.012 A 
ATOM     73  C   UNL A   1      43.656  26.104  34.556  1.00  0.00     0.148 A 
ATOM     74  C   UNL A   1      46.282  26.158  35.518  1.00  0.00     0.002 A 
ATOM     75  C   UNL A   1      43.900  26.170  35.924  1.00  0.00     0.091 A 
ATOM     76  F   UNL A   1      42.402  26.154  34.084  1.00  0.00    -0.205 F 
ATOM     77  C   UNL A   1      45.214  26.210  36.409  1.00  0.00     0.022 A 
BRANCH  75  78
ATOM     78  S   UNL A   1      42.575  26.275  37.133  1.00  0.00     0.127 S 
ATOM     79  O   UNL A   1      43.320  26.356  38.391  1.00  0.00    -0.237 OA
ATOM     80  O   UNL A   1      41.903  27.511  36.739  1.00  0.00    -0.237 OA
ATOM     81  O   UNL A   1      41.798  25.055  36.971  1.00  0.00    -0.744 OA
ENDBRANCH  75  78
ENDBRANCH  47  71
BRANCH  59  82
ATOM     82  C   UNL A   1      45.269  28.668  27.973  1.00  0.00     0.023 A 
ATOM     83  C   UNL A   1      46.368  29.548  28.087  1.00  0.00     0.012 A 
ATOM     84  C   UNL A   1      45.488  27.387  27.439  1.00  0.00     0.148 A 
ATOM     85  C   UNL A   1      47.646  29.171  27.664  1.00  0.00     0.002 A 
ATOM     86  C   UNL A   1      46.768  27.000  27.056  1.00  0.00     0.091 A 
ATOM     87  F   UNL A   1      44.442  26.553  27.349  1.00  0.00    -0.205 F 
ATOM     88  C   UNL A   1      47.848  27.892  27.157  1.00  0.00     0.022 A 
BRANCH  86  89
ATOM     89  S   UNL A   1      47.127  25.330  26.505  1.00  0.00     0.127 S 
ATOM     90  O   UNL A   1      46.324  25.231  25.288  1.00  0.00    -0.237 OA
ATOM     91  O   UNL A   1      48.573  25.380  26.281  1.00  0.00    -0.237 OA
ATOM     92  O   UNL A   1      46.721  24.451  27.594  1.00  0.00    -0.744 OA
ENDBRANCH  86  89
ENDBRANCH  59  82
ENDBRANCH  33  34
ENDBRANCH  25  28
ENDBRANCH  23  24
ENDBRANCH   1  23
TORSDOF 17
ENDMDL
MODEL 2
REMARK VINA RESULT:     -11.6      4.371      9.734
REMARK SMILES CC[C@@](C)(NC(=O)c1cc(C)c(Br)s1)C(=O)NCCCCNC(=O)c1ccc(-c2c3nc(c(-c4cccc(S(=O)(=O)[O-])c4F)c4ccc([nH]4)c(-c4cccc(S(=O)(=O)[O-])c4F)c4nc(c(-c5cccc(S(=O)(=O)[O-])c5F)c5ccc2[nH]5)C=C4)C=C3)cc1
REMARK SMILES IDX 20 1 19 2 18 3 17 4 15 5 16 6 3 8 4 9 2 10 1 11 5 12 6 13
REMARK SMILES IDX 7 15 8 16 9 17 14 18 10 19 12 20 11 21 13 22 21 23 22 24
REMARK SMILES IDX 23 25 24 27 25 28 26 29 87 30 27 31 86 32 28 33 29 34 30 35
REMARK SMILES IDX 80 36 31 37 85 38 79 39 81 40 32 41 84 42 78 43 77 44 33 46
REMARK SMILES IDX 65 47 45 48 64 49 46 50 49 51 63 52 82 53 47 54 48 55 62 57
REMARK SMILES IDX 83 58 50 59 34 60 35 61 43 62 36 63 38 64 44 65 37 66 39 67
REMARK SMILES IDX 40 68 41 69 42 70 66 71 67 72 75 73 68 74 70 75 76 76 69 77
REMARK SMILES IDX 71 78 72 79 73 80 74 81 51 82 52 83 60 84 53 85 55 86 61 87
REMARK SMILES IDX 54 88 56 89 57 90 58 91 59 92
REMARK H PARENT 17 7 5 14 22 26 81 45 49 56
REMARK Flexibility Score: inf
ROOT
ATOM      1  C   UNL A   1      31.528  32.179  26.823  1.00  0.00     0.023 C 
ENDROOT
BRANCH   1   2
ATOM      2  C   UNL A   1      31.781  30.672  26.653  1.00  0.00     0.023 C 
BRANCH   2   3
ATOM      3  C   UNL A   1      31.439  29.904  25.356  1.00  0.00     0.116 C 
BRANCH   3   4
ATOM      4  N   UNL A   1      32.488  29.501  24.425  1.00  0.00    -0.354 N 
ATOM      5  C   UNL A   1      32.547  28.699  23.308  1.00  0.00     0.245 C 
ATOM      6  O   UNL A   1      33.631  28.671  22.723  1.00  0.00    -0.272 OA
ATOM      7  H   UNL A   1      33.360  29.899  24.649  1.00  0.00     0.163 HD
BRANCH   5   8
ATOM      8  C   UNL A   1      31.336  27.906  22.772  1.00  0.00     0.116 C 
ATOM      9  C   UNL A   1      30.839  27.068  23.978  1.00  0.00     0.045 C 
BRANCH   8  10
ATOM     10  C   UNL A   1      30.120  28.746  22.268  1.00  0.00     0.035 C 
ATOM     11  C   UNL A   1      28.779  28.592  22.979  1.00  0.00     0.007 C 
ENDBRANCH   8  10
BRANCH   8  12
ATOM     12  N   UNL A   1      31.727  27.015  21.649  1.00  0.00    -0.337 N 
ATOM     13  C   UNL A   1      32.667  25.992  21.581  1.00  0.00     0.262 C 
ATOM     14  H   UNL A   1      31.239  27.178  20.809  1.00  0.00     0.164 HD
ATOM     15  O   UNL A   1      33.161  25.848  20.456  1.00  0.00    -0.268 OA
BRANCH  13  16
ATOM     16  C   UNL A   1      32.990  25.094  22.696  1.00  0.00     0.093 A 
ATOM     17  C   UNL A   1      33.924  25.169  23.707  1.00  0.00     0.030 A 
ATOM     18  S   UNL A   1      31.960  23.746  23.032  1.00  0.00    -0.123 S 
ATOM     19  C   UNL A   1      33.856  24.178  24.729  1.00  0.00    -0.025 A 
ATOM     20  C   UNL A   1      32.788  23.359  24.470  1.00  0.00     0.074 A 
ATOM     21  C   UNL A   1      34.815  24.161  25.880  1.00  0.00     0.046 C 
ATOM     22  Br  UNL A   1      32.237  21.969  25.606  1.00  0.00    -0.039 Br
ENDBRANCH  13  16
ENDBRANCH   8  12
ENDBRANCH   5   8
ENDBRANCH   3   4
ENDBRANCH   2   3
ENDBRANCH   1   2
BRANCH   1  23
ATOM     23  C   UNL A   1      32.749  33.050  26.998  1.00  0.00     0.116 C 
BRANCH  23  24
ATOM     24  N   UNL A   1      32.501  34.228  27.839  1.00  0.00    -0.352 N 
ATOM     25  C   UNL A   1      33.047  34.517  29.086  1.00  0.00     0.251 C 
ATOM     26  H   UNL A   1      31.871  34.893  27.477  1.00  0.00     0.163 HD
ATOM     27  O   UNL A   1      32.494  35.280  29.858  1.00  0.00    -0.269 OA
BRANCH  25  28
ATOM     28  C   UNL A   1      34.334  33.885  29.430  1.00  0.00     0.039 A 
ATOM     29  C   UNL A   1      34.526  33.046  30.529  1.00  0.00     0.014 A 
ATOM     30  C   UNL A   1      35.372  34.135  28.548  1.00  0.00     0.014 A 
ATOM     31  C   UNL A   1      35.778  32.450  30.682  1.00  0.00     0.010 A 
ATOM     32  C   UNL A   1      36.421  33.281  28.496  1.00  0.00     0.010 A 
ATOM     33  C   UNL A   1      36.717  32.589  29.649  1.00  0.00    -0.014 A 
BRANCH  33  34
ATOM     34  C   UNL A   1      38.057  32.045  29.694  1.00  0.00     0.031 A 
ATOM     35  C   UNL A   1      38.184  30.697  29.116  1.00  0.00     0.074 A 
ATOM     36  C   UNL A   1      39.129  32.801  30.022  1.00  0.00     0.049 A 
ATOM     37  N   UNL A   1      38.240  29.588  29.770  1.00  0.00    -0.248 NA
ATOM     38  C   UNL A   1      38.043  30.537  27.664  1.00  0.00     0.031 C 
ATOM     39  C   UNL A   1      39.204  34.247  30.298  1.00  0.00     0.029 A 
ATOM     40  N   UNL A   1      40.432  32.432  30.057  1.00  0.00    -0.354 N 
ATOM     41  C   UNL A   1      38.427  28.608  28.806  1.00  0.00     0.074 A 
ATOM     42  C   UNL A   1      38.046  29.206  27.553  1.00  0.00     0.031 C 
ATOM     43  C   UNL A   1      40.491  34.656  30.240  1.00  0.00     0.029 A 
ATOM     44  C   UNL A   1      41.335  33.486  30.117  1.00  0.00     0.049 A 
ATOM     45  H   UNL A   1      40.717  31.490  30.041  1.00  0.00     0.167 HD
ATOM     46  C   UNL A   1      39.149  27.490  29.089  1.00  0.00     0.034 A 
ATOM     47  C   UNL A   1      42.683  33.384  30.049  1.00  0.00     0.034 A 
ATOM     48  C   UNL A   1      39.423  27.389  30.505  1.00  0.00     0.049 A 
ATOM     49  C   UNL A   1      43.019  32.000  30.465  1.00  0.00     0.074 A 
ATOM     50  C   UNL A   1      38.653  27.326  31.648  1.00  0.00     0.029 A 
ATOM     51  N   UNL A   1      40.676  27.782  30.918  1.00  0.00    -0.354 N 
ATOM     52  N   UNL A   1      42.793  31.546  31.667  1.00  0.00    -0.248 NA
ATOM     53  C   UNL A   1      43.161  30.990  29.430  1.00  0.00     0.031 C 
ATOM     54  C   UNL A   1      39.341  28.137  32.601  1.00  0.00     0.029 A 
ATOM     55  C   UNL A   1      40.523  28.592  32.012  1.00  0.00     0.049 A 
ATOM     56  H   UNL A   1      41.531  27.525  30.502  1.00  0.00     0.167 HD
ATOM     57  C   UNL A   1      42.302  30.261  31.465  1.00  0.00     0.074 A 
ATOM     58  C   UNL A   1      42.662  29.936  30.084  1.00  0.00     0.031 C 
ATOM     59  C   UNL A   1      41.401  29.702  32.327  1.00  0.00     0.034 A 
BRANCH  46  60
ATOM     60  C   UNL A   1      39.944  26.688  28.087  1.00  0.00     0.023 A 
ATOM     61  C   UNL A   1      39.775  25.285  28.118  1.00  0.00     0.012 A 
ATOM     62  C   UNL A   1      41.022  27.187  27.321  1.00  0.00     0.148 A 
ATOM     63  C   UNL A   1      40.666  24.424  27.473  1.00  0.00     0.002 A 
ATOM     64  C   UNL A   1      41.859  26.329  26.618  1.00  0.00     0.091 A 
ATOM     65  F   UNL A   1      41.337  28.483  27.367  1.00  0.00    -0.205 F 
ATOM     66  C   UNL A   1      41.708  24.946  26.718  1.00  0.00     0.022 A 
BRANCH  64  67
ATOM     67  S   UNL A   1      43.198  26.954  25.594  1.00  0.00     0.127 S 
ATOM     68  O   UNL A   1      42.480  27.854  24.696  1.00  0.00    -0.237 OA
ATOM     69  O   UNL A   1      44.050  27.611  26.584  1.00  0.00    -0.237 OA
ATOM     70  O   UNL A   1      43.799  25.778  24.978  1.00  0.00    -0.744 OA
ENDBRANCH  64  67
ENDBRANCH  46  60
BRANCH  47  71
ATOM     71  C   UNL A   1      43.660  34.289  29.407  1.00  0.00     0.023 A 
ATOM     72  C   UNL A   1      44.373  35.224  30.183  1.00  0.00     0.012 A 
ATOM     73  C   UNL A   1      44.105  34.039  28.089  1.00  0.00     0.148 A 
ATOM     74  C   UNL A   1      45.514  35.860  29.677  1.00  0.00     0.002 A 
ATOM     75  C   UNL A   1      45.239  34.674  27.590  1.00  0.00     0.091 A 
ATOM     76  F   UNL A   1      43.468  33.110  27.361  1.00  0.00    -0.205 F 
ATOM     77  C   UNL A   1      45.954  35.577  28.387  1.00  0.00     0.022 A 
BRANCH  75  78
ATOM     78  S   UNL A   1      45.887  34.335  25.949  1.00  0.00     0.127 S 
ATOM     79  O   UNL A   1      46.963  35.321  25.840  1.00  0.00    -0.237 OA
ATOM     80  O   UNL A   1      46.336  32.951  26.082  1.00  0.00    -0.237 OA
ATOM     81  O   UNL A   1      44.775  34.553  25.035  1.00  0.00    -0.744 OA
ENDBRANCH  75  78
ENDBRANCH  47  71
BRANCH  59  82
ATOM     82  C   UNL A   1      41.103  30.444  33.613  1.00  0.00     0.023 A 
ATOM     83  C   UNL A   1      42.034  30.513  34.673  1.00  0.00     0.012 A 
ATOM     84  C   UNL A   1      39.943  31.233  33.686  1.00  0.00     0.148 A 
ATOM     85  C   UNL A   1      41.807  31.329  35.786  1.00  0.00     0.002 A 
ATOM     86  C   UNL A   1      39.739  32.075  34.775  1.00  0.00     0.091 A 
ATOM     87  F   UNL A   1      39.073  31.173  32.667  1.00  0.00    -0.205 F 
ATOM     88  C   UNL A   1      40.663  32.119  35.831  1.00  0.00     0.022 A 
BRANCH  86  89
ATOM     89  S   UNL A   1      38.349  33.208  34.848  1.00  0.00     0.127 S 
ATOM     90  O   UNL A   1      38.870  34.276  35.697  1.00  0.00    -0.237 OA
ATOM     91  O   UNL A   1      38.173  33.576  33.442  1.00  0.00    -0.237 OA
ATOM     92  O   UNL A   1      37.239  32.448  35.409  1.00  0.00    -0.744 OA
ENDBRANCH  86  89
ENDBRANCH  59  82
ENDBRANCH  33  34
ENDBRANCH  25  28
ENDBRANCH  23  24
ENDBRANCH   1  23
TORSDOF 17
ENDMDL
MODEL 3
REMARK VINA RESULT:     -11.5      1.554      1.916
REMARK SMILES CC[C@@](C)(NC(=O)c1cc(C)c(Br)s1)C(=O)NCCCCNC(=O)c1ccc(-c2c3nc(c(-c4cccc(S(=O)(=O)[O-])c4F)c4ccc([nH]4)c(-c4cccc(S(=O)(=O)[O-])c4F)c4nc(c(-c5cccc(S(=O)(=O)[O-])c5F)c5ccc2[nH]5)C=C4)C=C3)cc1
REMARK SMILES IDX 20 1 19 2 18 3 17 4 15 5 16 6 3 8 4 9 2 10 1 11 5 12 6 13
REMARK SMILES IDX 7 15 8 16 9 17 14 18 10 19 12 20 11 21 13 22 21 23 22 24
REMARK SMILES IDX 23 25 24 27 25 28 26 29 87 30 27 31 86 32 28 33 29 34 30 35
REMARK SMILES IDX 80 36 31 37 85 38 79 39 81 40 32 41 84 42 78 43 77 44 33 46
REMARK SMILES IDX 65 47 45 48 64 49 46 50 49 51 63 52 82 53 47 54 48 55 62 57
REMARK SMILES IDX 83 58 50 59 34 60 35 61 43 62 36 63 38 64 44 65 37 66 39 67
REMARK SMILES IDX 40 68 41 69 42 70 66 71 67 72 75 73 68 74 70 75 76 76 69 77
REMARK SMILES IDX 71 78 72 79 73 80 74 81 51 82 52 83 60 84 53 85 55 86 61 87
REMARK SMILES IDX 54 88 56 89 57 90 58 91 59 92
REMARK H PARENT 17 7 5 14 22 26 81 45 49 56
REMARK Flexibility Score: inf
ROOT
ATOM      1  C   UNL A   1      37.618  19.728  24.909  1.00  0.00     0.023 C 
ENDROOT
BRANCH   1   2
ATOM      2  C   UNL A   1      36.474  20.713  24.617  1.00  0.00     0.023 C 
BRANCH   2   3
ATOM      3  C   UNL A   1      35.343  21.011  25.629  1.00  0.00     0.116 C 
BRANCH   3   4
ATOM      4  N   UNL A   1      34.072  20.299  25.563  1.00  0.00    -0.354 N 
ATOM      5  C   UNL A   1      32.766  20.651  25.304  1.00  0.00     0.245 C 
ATOM      6  O   UNL A   1      31.958  19.722  25.256  1.00  0.00    -0.272 OA
ATOM      7  H   UNL A   1      34.172  19.337  25.747  1.00  0.00     0.163 HD
BRANCH   5   8
ATOM      8  C   UNL A   1      32.320  22.106  25.043  1.00  0.00     0.116 C 
ATOM      9  C   UNL A   1      33.504  22.982  25.525  1.00  0.00     0.045 C 
BRANCH   8  10
ATOM     10  C   UNL A   1      32.041  22.494  23.557  1.00  0.00     0.035 C 
ATOM     11  C   UNL A   1      33.210  22.937  22.684  1.00  0.00     0.007 C 
ENDBRANCH   8  10
BRANCH   8  12
ATOM     12  N   UNL A   1      31.087  22.437  25.804  1.00  0.00    -0.337 N 
ATOM     13  C   UNL A   1      30.610  23.654  26.281  1.00  0.00     0.262 C 
ATOM     14  H   UNL A   1      30.512  21.665  26.005  1.00  0.00     0.164 HD
ATOM     15  O   UNL A   1      29.930  23.548  27.310  1.00  0.00    -0.268 OA
BRANCH  13  16
ATOM     16  C   UNL A   1      30.800  24.939  25.600  1.00  0.00     0.093 A 
ATOM     17  C   UNL A   1      30.327  25.434  24.403  1.00  0.00     0.030 A 
ATOM     18  S   UNL A   1      31.589  26.236  26.427  1.00  0.00    -0.123 S 
ATOM     19  C   UNL A   1      30.588  26.805  24.118  1.00  0.00    -0.025 A 
ATOM     20  C   UNL A   1      31.254  27.352  25.185  1.00  0.00     0.074 A 
ATOM     21  C   UNL A   1      30.119  27.454  22.852  1.00  0.00     0.046 C 
ATOM     22  Br  UNL A   1      31.716  29.167  25.310  1.00  0.00    -0.039 Br
ENDBRANCH  13  16
ENDBRANCH   8  12
ENDBRANCH   5   8
ENDBRANCH   3   4
ENDBRANCH   2   3
ENDBRANCH   1   2
BRANCH   1  23
ATOM     23  C   UNL A   1      38.833  20.296  25.602  1.00  0.00     0.116 C 
BRANCH  23  24
ATOM     24  N   UNL A   1      39.896  19.304  25.807  1.00  0.00    -0.352 N 
ATOM     25  C   UNL A   1      41.254  19.536  26.001  1.00  0.00     0.251 C 
ATOM     26  H   UNL A   1      39.613  18.361  25.807  1.00  0.00     0.163 HD
ATOM     27  O   UNL A   1      42.083  18.677  25.761  1.00  0.00    -0.269 OA
BRANCH  25  28
ATOM     28  C   UNL A   1      41.653  20.853  26.531  1.00  0.00     0.039 A 
ATOM     29  C   UNL A   1      42.300  21.837  25.780  1.00  0.00     0.014 A 
ATOM     30  C   UNL A   1      41.296  21.095  27.847  1.00  0.00     0.014 A 
ATOM     31  C   UNL A   1      42.539  23.069  26.390  1.00  0.00     0.010 A 
ATOM     32  C   UNL A   1      41.192  22.373  28.284  1.00  0.00     0.010 A 
ATOM     33  C   UNL A   1      41.978  23.311  27.652  1.00  0.00    -0.014 A 
BRANCH  33  34
ATOM     34  C   UNL A   1      42.170  24.533  28.403  1.00  0.00     0.031 A 
ATOM     35  C   UNL A   1      41.071  25.504  28.274  1.00  0.00     0.074 A 
ATOM     36  C   UNL A   1      43.157  24.666  29.319  1.00  0.00     0.049 A 
ATOM     37  N   UNL A   1      41.060  26.548  27.520  1.00  0.00    -0.248 NA
ATOM     38  C   UNL A   1      39.779  25.191  28.895  1.00  0.00     0.031 C 
ATOM     39  C   UNL A   1      44.127  23.665  29.800  1.00  0.00     0.029 A 
ATOM     40  N   UNL A   1      43.417  25.728  30.117  1.00  0.00    -0.354 N 
ATOM     41  C   UNL A   1      39.854  27.178  27.792  1.00  0.00     0.074 A 
ATOM     42  C   UNL A   1      39.024  26.188  28.428  1.00  0.00     0.031 C 
ATOM     43  C   UNL A   1      44.698  24.098  30.947  1.00  0.00     0.029 A 
ATOM     44  C   UNL A   1      44.283  25.467  31.172  1.00  0.00     0.049 A 
ATOM     45  H   UNL A   1      43.024  26.617  29.962  1.00  0.00     0.167 HD
ATOM     46  C   UNL A   1      39.753  28.534  27.729  1.00  0.00     0.034 A 
ATOM     47  C   UNL A   1      44.610  26.326  32.166  1.00  0.00     0.034 A 
ATOM     48  C   UNL A   1      40.929  29.118  27.123  1.00  0.00     0.049 A 
ATOM     49  C   UNL A   1      44.359  27.690  31.639  1.00  0.00     0.074 A 
ATOM     50  C   UNL A   1      41.570  28.988  25.907  1.00  0.00     0.029 A 
ATOM     51  N   UNL A   1      41.859  29.658  27.982  1.00  0.00    -0.354 N 
ATOM     52  N   UNL A   1      45.025  28.198  30.638  1.00  0.00    -0.248 NA
ATOM     53  C   UNL A   1      43.066  28.299  31.903  1.00  0.00     0.031 C 
ATOM     54  C   UNL A   1      42.963  29.004  26.222  1.00  0.00     0.029 A 
ATOM     55  C   UNL A   1      43.096  29.210  27.597  1.00  0.00     0.049 A 
ATOM     56  H   UNL A   1      41.670  30.259  28.738  1.00  0.00     0.167 HD
ATOM     57  C   UNL A   1      44.062  28.846  29.874  1.00  0.00     0.074 A 
ATOM     58  C   UNL A   1      42.904  28.973  30.760  1.00  0.00     0.031 C 
ATOM     59  C   UNL A   1      44.186  28.952  28.517  1.00  0.00     0.034 A 
BRANCH  46  60
ATOM     60  C   UNL A   1      38.801  29.378  28.541  1.00  0.00     0.023 A 
ATOM     61  C   UNL A   1      38.890  29.262  29.947  1.00  0.00     0.012 A 
ATOM     62  C   UNL A   1      37.673  30.054  28.023  1.00  0.00     0.148 A 
ATOM     63  C   UNL A   1      37.880  29.738  30.788  1.00  0.00     0.002 A 
ATOM     64  C   UNL A   1      36.710  30.593  28.868  1.00  0.00     0.091 A 
ATOM     65  F   UNL A   1      37.442  30.069  26.709  1.00  0.00    -0.205 F 
ATOM     66  C   UNL A   1      36.791  30.408  30.249  1.00  0.00     0.022 A 
BRANCH  64  67
ATOM     67  S   UNL A   1      35.301  31.505  28.225  1.00  0.00     0.127 S 
ATOM     68  O   UNL A   1      34.612  30.471  27.459  1.00  0.00    -0.237 OA
ATOM     69  O   UNL A   1      34.629  31.920  29.455  1.00  0.00    -0.237 OA
ATOM     70  O   UNL A   1      35.867  32.605  27.455  1.00  0.00    -0.744 OA
ENDBRANCH  64  67
ENDBRANCH  46  60
BRANCH  47  71
ATOM     71  C   UNL A   1      44.859  26.052  33.597  1.00  0.00     0.023 A 
ATOM     72  C   UNL A   1      46.177  26.040  34.094  1.00  0.00     0.012 A 
ATOM     73  C   UNL A   1      43.796  26.092  34.528  1.00  0.00     0.148 A 
ATOM     74  C   UNL A   1      46.430  26.105  35.471  1.00  0.00     0.002 A 
ATOM     75  C   UNL A   1      44.052  26.155  35.894  1.00  0.00     0.091 A 
ATOM     76  F   UNL A   1      42.540  26.161  34.065  1.00  0.00    -0.205 F 
ATOM     77  C   UNL A   1      45.369  26.175  36.369  1.00  0.00     0.022 A 
BRANCH  75  78
ATOM     78  S   UNL A   1      42.736  26.283  37.113  1.00  0.00     0.127 S 
ATOM     79  O   UNL A   1      42.001  25.036  36.893  1.00  0.00    -0.237 OA
ATOM     80  O   UNL A   1      43.488  26.337  38.364  1.00  0.00    -0.237 OA
ATOM     81  O   UNL A   1      41.996  27.487  36.766  1.00  0.00    -0.744 OA
ENDBRANCH  75  78
ENDBRANCH  47  71
BRANCH  59  82
ATOM     82  C   UNL A   1      45.496  28.518  27.894  1.00  0.00     0.023 A 
ATOM     83  C   UNL A   1      46.667  29.303  27.983  1.00  0.00     0.012 A 
ATOM     84  C   UNL A   1      45.598  27.220  27.366  1.00  0.00     0.148 A 
ATOM     85  C   UNL A   1      47.901  28.819  27.539  1.00  0.00     0.002 A 
ATOM     86  C   UNL A   1      46.834  26.725  26.963  1.00  0.00     0.091 A 
ATOM     87  F   UNL A   1      44.484  26.476  27.301  1.00  0.00    -0.205 F 
ATOM     88  C   UNL A   1      47.986  27.524  27.039  1.00  0.00     0.022 A 
BRANCH  86  89
ATOM     89  S   UNL A   1      47.041  25.028  26.419  1.00  0.00     0.127 S 
ATOM     90  O   UNL A   1      45.658  24.584  26.267  1.00  0.00    -0.237 OA
ATOM     91  O   UNL A   1      47.772  25.191  25.161  1.00  0.00    -0.237 OA
ATOM     92  O   UNL A   1      47.800  24.358  27.467  1.00  0.00    -0.744 OA
ENDBRANCH  86  89
ENDBRANCH  59  82
ENDBRANCH  33  34
ENDBRANCH  25  28
ENDBRANCH  23  24
ENDBRANCH   1  23
TORSDOF 17
ENDMDL
