MODEL 1
REMARK VINA RESULT:     -11.6      0.000      0.000
REMARK SMILES CCCOc1ccccc1/C=C1\SC(=S)N([C@@H](C(=O)NCCCCNC(=O)c2ccc(-c3c4nc(c(-c5cccc(S(=O)(=O)[O-])c5F)c5ccc([nH]5)c(-c5cccc(S(=O)(=O)[O-])c5F)c5nc(c(-c6cccc(S(=O)(=O)[O-])c6F)c6ccc3[nH]6)C=C5)C=C4)cc2)C(C)C)C1=O
REMARK SMILES IDX 21 1 20 2 18 3 19 4 17 6 16 7 11 8 12 9 13 10 94 11 14 12
REMARK SMILES IDX 95 13 15 14 10 15 5 16 6 17 7 18 9 19 8 20 4 21 3 22 2 23
REMARK SMILES IDX 1 24 91 25 92 26 93 27 22 28 23 29 24 30 25 31 26 32 27 34
REMARK SMILES IDX 28 35 29 36 90 37 30 38 89 39 31 40 32 41 33 42 83 43 34 44
REMARK SMILES IDX 88 45 82 46 84 47 35 48 87 49 81 50 80 51 36 53 68 54 48 55
REMARK SMILES IDX 67 56 49 57 52 58 66 59 85 60 50 61 51 62 65 64 86 65 53 66
REMARK SMILES IDX 37 67 38 68 46 69 39 70 41 71 47 72 40 73 42 74 43 75 44 76
REMARK SMILES IDX 45 77 69 78 70 79 78 80 71 81 73 82 79 83 72 84 74 85 75 86
REMARK SMILES IDX 76 87 77 88 54 89 55 90 63 91 56 92 58 93 64 94 57 95 59 96
REMARK SMILES IDX 60 97 61 98 62 99
REMARK H PARENT 20 5 25 33 84 52 52 63
REMARK Flexibility Score: inf
ROOT
ATOM      1  C   UNL A   1      36.888  22.437  25.582  1.00  0.00     0.116 C 
ENDROOT
BRANCH   1   2
ATOM      2  N   UNL A   1      35.881  21.910  26.475  1.00  0.00    -0.354 N 
ATOM      3  C   UNL A   1      34.524  21.831  26.342  1.00  0.00     0.243 C 
ATOM      4  O   UNL A   1      33.926  21.238  27.244  1.00  0.00    -0.273 OA
ATOM      5  H   UNL A   1      36.232  21.547  27.320  1.00  0.00     0.163 HD
BRANCH   3   6
ATOM      6  C   UNL A   1      33.813  22.312  25.042  1.00  0.00     0.184 C 
BRANCH   6   7
ATOM      7  N   UNL A   1      33.215  23.654  25.244  1.00  0.00    -0.280 N 
ATOM      8  C   UNL A   1      33.787  27.204  24.984  1.00  0.00     0.033 C 
ATOM      9  C   UNL A   1      33.209  26.013  25.182  1.00  0.00     0.081 C 
ATOM     10  S   UNL A   1      31.724  25.641  25.948  1.00  0.00    -0.054 SA
ATOM     11  C   UNL A   1      33.939  24.765  24.839  1.00  0.00     0.266 C 
ATOM     12  C   UNL A   1      32.035  23.911  25.916  1.00  0.00     0.149 C 
ATOM     13  O   UNL A   1      35.042  24.754  24.315  1.00  0.00    -0.268 OA
ATOM     14  S   UNL A   1      30.980  22.831  26.631  1.00  0.00    -0.052 S 
BRANCH   8  15
ATOM     15  C   UNL A   1      33.418  28.473  25.629  1.00  0.00     0.018 A 
ATOM     16  C   UNL A   1      32.396  29.286  25.100  1.00  0.00     0.126 A 
ATOM     17  C   UNL A   1      31.995  30.448  25.758  1.00  0.00     0.047 A 
ATOM     18  C   UNL A   1      32.557  30.772  26.992  1.00  0.00     0.004 A 
ATOM     19  C   UNL A   1      33.959  28.798  26.878  1.00  0.00     0.012 A 
ATOM     20  C   UNL A   1      33.529  29.943  27.555  1.00  0.00     0.001 A 
BRANCH  16  21
ATOM     21  O   UNL A   1      31.839  28.987  23.882  1.00  0.00    -0.493 OA
BRANCH  21  22
ATOM     22  C   UNL A   1      30.412  28.841  23.913  1.00  0.00     0.229 C 
BRANCH  22  23
ATOM     23  C   UNL A   1      29.965  27.714  22.979  1.00  0.00     0.038 C 
ATOM     24  C   UNL A   1      31.128  27.027  22.275  1.00  0.00     0.007 C 
ENDBRANCH  22  23
ENDBRANCH  21  22
ENDBRANCH  16  21
ENDBRANCH   8  15
ENDBRANCH   6   7
BRANCH   6  25
ATOM     25  C   UNL A   1      32.786  21.273  24.484  1.00  0.00     0.015 C 
ATOM     26  C   UNL A   1      32.345  21.589  23.048  1.00  0.00     0.010 C 
ATOM     27  C   UNL A   1      33.358  19.845  24.477  1.00  0.00     0.010 C 
ENDBRANCH   6  25
ENDBRANCH   3   6
ENDBRANCH   1   2
BRANCH   1  28
ATOM     28  C   UNL A   1      37.322  21.405  24.544  1.00  0.00     0.023 C 
BRANCH  28  29
ATOM     29  C   UNL A   1      38.058  20.197  25.116  1.00  0.00     0.023 C 
BRANCH  29  30
ATOM     30  C   UNL A   1      39.337  20.536  25.863  1.00  0.00     0.116 C 
BRANCH  30  31
ATOM     31  N   UNL A   1      40.276  19.422  25.917  1.00  0.00    -0.352 N 
ATOM     32  C   UNL A   1      41.636  19.472  26.117  1.00  0.00     0.251 C 
ATOM     33  H   UNL A   1      39.889  18.525  25.797  1.00  0.00     0.163 HD
ATOM     34  O   UNL A   1      42.320  18.464  26.022  1.00  0.00    -0.269 OA
BRANCH  32  35
ATOM     35  C   UNL A   1      42.250  20.782  26.409  1.00  0.00     0.039 A 
ATOM     36  C   UNL A   1      42.631  21.602  25.346  1.00  0.00     0.014 A 
ATOM     37  C   UNL A   1      42.361  21.222  27.730  1.00  0.00     0.014 A 
ATOM     38  C   UNL A   1      43.064  22.901  25.609  1.00  0.00     0.010 A 
ATOM     39  C   UNL A   1      42.714  22.540  27.983  1.00  0.00     0.010 A 
ATOM     40  C   UNL A   1      43.074  23.391  26.926  1.00  0.00    -0.014 A 
BRANCH  40  41
ATOM     41  C   UNL A   1      43.453  24.792  27.230  1.00  0.00     0.031 A 
ATOM     42  C   UNL A   1      44.898  25.203  27.171  1.00  0.00     0.074 A 
ATOM     43  C   UNL A   1      42.514  25.659  27.656  1.00  0.00     0.049 A 
ATOM     44  N   UNL A   1      45.440  26.352  27.479  1.00  0.00    -0.248 NA
ATOM     45  C   UNL A   1      45.867  24.178  26.745  1.00  0.00     0.031 C 
ATOM     46  C   UNL A   1      41.094  25.351  27.836  1.00  0.00     0.029 A 
ATOM     47  N   UNL A   1      42.620  26.971  28.043  1.00  0.00    -0.354 N 
ATOM     48  C   UNL A   1      46.810  26.177  27.323  1.00  0.00     0.074 A 
ATOM     49  C   UNL A   1      47.020  24.801  26.932  1.00  0.00     0.031 C 
ATOM     50  C   UNL A   1      40.460  26.443  28.296  1.00  0.00     0.029 A 
ATOM     51  C   UNL A   1      41.431  27.519  28.467  1.00  0.00     0.049 A 
ATOM     52  H   UNL A   1      43.466  27.474  28.020  1.00  0.00     0.167 HD
ATOM     53  C   UNL A   1      47.800  27.089  27.460  1.00  0.00     0.034 A 
ATOM     54  C   UNL A   1      41.157  28.749  28.943  1.00  0.00     0.034 A 
ATOM     55  C   UNL A   1      47.579  28.469  27.792  1.00  0.00     0.049 A 
ATOM     56  C   UNL A   1      42.269  29.760  29.031  1.00  0.00     0.074 A 
ATOM     57  C   UNL A   1      48.502  29.496  27.859  1.00  0.00     0.029 A 
ATOM     58  N   UNL A   1      46.347  29.015  28.115  1.00  0.00    -0.354 N 
ATOM     59  N   UNL A   1      43.535  29.622  28.718  1.00  0.00    -0.248 NA
ATOM     60  C   UNL A   1      41.909  31.106  29.502  1.00  0.00     0.031 C 
ATOM     61  C   UNL A   1      47.829  30.662  28.237  1.00  0.00     0.029 A 
ATOM     62  C   UNL A   1      46.484  30.364  28.386  1.00  0.00     0.049 A 
ATOM     63  H   UNL A   1      45.498  28.515  28.147  1.00  0.00     0.167 HD
ATOM     64  C   UNL A   1      44.116  30.870  28.919  1.00  0.00     0.074 A 
ATOM     65  C   UNL A   1      43.057  31.756  29.361  1.00  0.00     0.031 C 
ATOM     66  C   UNL A   1      45.409  31.245  28.766  1.00  0.00     0.034 A 
BRANCH  53  67
ATOM     67  C   UNL A   1      49.209  26.635  27.182  1.00  0.00     0.023 A 
ATOM     68  C   UNL A   1      49.863  25.800  28.112  1.00  0.00     0.012 A 
ATOM     69  C   UNL A   1      49.867  26.989  25.988  1.00  0.00     0.148 A 
ATOM     70  C   UNL A   1      51.162  25.353  27.875  1.00  0.00     0.002 A 
ATOM     71  C   UNL A   1      51.146  26.503  25.739  1.00  0.00     0.091 A 
ATOM     72  F   UNL A   1      49.239  27.804  25.128  1.00  0.00    -0.205 F 
ATOM     73  C   UNL A   1      51.798  25.695  26.686  1.00  0.00     0.022 A 
BRANCH  71  74
ATOM     74  S   UNL A   1      52.020  26.823  24.202  1.00  0.00     0.127 S 
ATOM     75  O   UNL A   1      52.616  28.131  24.469  1.00  0.00    -0.237 OA
ATOM     76  O   UNL A   1      52.976  25.715  24.155  1.00  0.00    -0.237 OA
ATOM     77  O   UNL A   1      51.010  26.795  23.155  1.00  0.00    -0.744 OA
ENDBRANCH  71  74
ENDBRANCH  53  67
BRANCH  54  78
ATOM     78  C   UNL A   1      39.757  29.117  29.297  1.00  0.00     0.023 A 
ATOM     79  C   UNL A   1      38.805  29.271  28.268  1.00  0.00     0.012 A 
ATOM     80  C   UNL A   1      39.352  29.284  30.635  1.00  0.00     0.148 A 
ATOM     81  C   UNL A   1      37.487  29.617  28.563  1.00  0.00     0.002 A 
ATOM     82  C   UNL A   1      38.024  29.575  30.926  1.00  0.00     0.091 A 
ATOM     83  F   UNL A   1      40.274  29.145  31.599  1.00  0.00    -0.205 F 
ATOM     84  C   UNL A   1      37.093  29.758  29.891  1.00  0.00     0.022 A 
BRANCH  82  85
ATOM     85  S   UNL A   1      37.401  29.646  32.609  1.00  0.00     0.127 S 
ATOM     86  O   UNL A   1      36.042  30.138  32.405  1.00  0.00    -0.237 OA
ATOM     87  O   UNL A   1      37.493  28.246  33.026  1.00  0.00    -0.237 OA
ATOM     88  O   UNL A   1      38.302  30.542  33.321  1.00  0.00    -0.744 OA
ENDBRANCH  82  85
ENDBRANCH  54  78
BRANCH  66  89
ATOM     89  C   UNL A   1      45.758  32.683  29.043  1.00  0.00     0.023 A 
ATOM     90  C   UNL A   1      46.198  33.059  30.327  1.00  0.00     0.012 A 
ATOM     91  C   UNL A   1      45.734  33.639  28.010  1.00  0.00     0.148 A 
ATOM     92  C   UNL A   1      46.584  34.374  30.586  1.00  0.00     0.002 A 
ATOM     93  C   UNL A   1      46.165  34.936  28.263  1.00  0.00     0.091 A 
ATOM     94  F   UNL A   1      45.294  33.264  26.800  1.00  0.00    -0.205 F 
ATOM     95  C   UNL A   1      46.579  35.308  29.552  1.00  0.00     0.022 A 
BRANCH  93  96
ATOM     96  S   UNL A   1      46.285  36.178  26.970  1.00  0.00     0.127 S 
ATOM     97  O   UNL A   1      47.016  37.246  27.651  1.00  0.00    -0.237 OA
ATOM     98  O   UNL A   1      47.050  35.479  25.936  1.00  0.00    -0.237 OA
ATOM     99  O   UNL A   1      44.915  36.498  26.594  1.00  0.00    -0.744 OA
ENDBRANCH  93  96
ENDBRANCH  66  89
ENDBRANCH  40  41
ENDBRANCH  32  35
ENDBRANCH  30  31
ENDBRANCH  29  30
ENDBRANCH  28  29
ENDBRANCH   1  28
TORSDOF 20
ENDMDL
MODEL 2
REMARK VINA RESULT:     -11.4      0.708      7.552
REMARK SMILES CCCOc1ccccc1/C=C1\SC(=S)N([C@@H](C(=O)NCCCCNC(=O)c2ccc(-c3c4nc(c(-c5cccc(S(=O)(=O)[O-])c5F)c5ccc([nH]5)c(-c5cccc(S(=O)(=O)[O-])c5F)c5nc(c(-c6cccc(S(=O)(=O)[O-])c6F)c6ccc3[nH]6)C=C5)C=C4)cc2)C(C)C)C1=O
REMARK SMILES IDX 21 1 20 2 18 3 19 4 17 6 16 7 11 8 12 9 13 10 94 11 14 12
REMARK SMILES IDX 95 13 15 14 10 15 5 16 6 17 7 18 9 19 8 20 4 21 3 22 2 23
REMARK SMILES IDX 1 24 91 25 92 26 93 27 22 28 23 29 24 30 25 31 26 32 27 34
REMARK SMILES IDX 28 35 29 36 90 37 30 38 89 39 31 40 32 41 33 42 83 43 34 44
REMARK SMILES IDX 88 45 82 46 84 47 35 48 87 49 81 50 80 51 36 53 68 54 48 55
REMARK SMILES IDX 67 56 49 57 52 58 66 59 85 60 50 61 51 62 65 64 86 65 53 66
REMARK SMILES IDX 37 67 38 68 46 69 39 70 41 71 47 72 40 73 42 74 43 75 44 76
REMARK SMILES IDX 45 77 69 78 70 79 78 80 71 81 73 82 79 83 72 84 74 85 75 86
REMARK SMILES IDX 76 87 77 88 54 89 55 90 63 91 56 92 58 93 64 94 57 95 59 96
REMARK SMILES IDX 60 97 61 98 62 99
REMARK H PARENT 20 5 25 33 84 52 52 63
REMARK Flexibility Score: inf
ROOT
ATOM      1  C   UNL A   1      36.898  21.797  25.544  1.00  0.00     0.116 C 
ENDROOT
BRANCH   1   2
ATOM      2  N   UNL A   1      35.878  21.506  26.524  1.00  0.00    -0.354 N 
ATOM      3  C   UNL A   1      34.520  21.649  26.470  1.00  0.00     0.243 C 
ATOM      4  O   UNL A   1      33.892  21.225  27.443  1.00  0.00    -0.273 OA
ATOM      5  H   UNL A   1      36.217  21.145  27.375  1.00  0.00     0.163 HD
BRANCH   3   6
ATOM      6  C   UNL A   1      33.816  22.159  25.176  1.00  0.00     0.184 C 
BRANCH   6   7
ATOM      7  N   UNL A   1      33.253  23.513  25.392  1.00  0.00    -0.280 N 
ATOM      8  C   UNL A   1      33.877  27.050  25.071  1.00  0.00     0.033 C 
ATOM      9  C   UNL A   1      33.287  25.871  25.307  1.00  0.00     0.081 C 
ATOM     10  S   UNL A   1      31.832  25.535  26.143  1.00  0.00    -0.054 SA
ATOM     11  C   UNL A   1      33.977  24.607  24.943  1.00  0.00     0.266 C 
ATOM     12  C   UNL A   1      32.110  23.799  26.115  1.00  0.00     0.149 C 
ATOM     13  O   UNL A   1      35.055  24.571  24.369  1.00  0.00    -0.268 OA
ATOM     14  S   UNL A   1      31.070  22.745  26.889  1.00  0.00    -0.052 S 
BRANCH   8  15
ATOM     15  C   UNL A   1      33.561  28.331  25.719  1.00  0.00     0.018 A 
ATOM     16  C   UNL A   1      32.339  28.987  25.473  1.00  0.00     0.126 A 
ATOM     17  C   UNL A   1      32.010  30.161  26.150  1.00  0.00     0.047 A 
ATOM     18  C   UNL A   1      32.864  30.652  27.136  1.00  0.00     0.004 A 
ATOM     19  C   UNL A   1      34.400  28.822  26.725  1.00  0.00     0.012 A 
ATOM     20  C   UNL A   1      34.050  29.979  27.430  1.00  0.00     0.001 A 
BRANCH  16  21
ATOM     21  O   UNL A   1      31.491  28.523  24.499  1.00  0.00    -0.493 OA
BRANCH  21  22
ATOM     22  C   UNL A   1      31.586  29.230  23.255  1.00  0.00     0.229 C 
BRANCH  22  23
ATOM     23  C   UNL A   1      30.399  28.893  22.351  1.00  0.00     0.038 C 
ATOM     24  C   UNL A   1      29.694  30.130  21.809  1.00  0.00     0.007 C 
ENDBRANCH  22  23
ENDBRANCH  21  22
ENDBRANCH  16  21
ENDBRANCH   8  15
ENDBRANCH   6   7
BRANCH   6  25
ATOM     25  C   UNL A   1      32.762  21.151  24.614  1.00  0.00     0.015 C 
ATOM     26  C   UNL A   1      32.089  21.653  23.328  1.00  0.00     0.010 C 
ATOM     27  C   UNL A   1      33.388  19.783  24.292  1.00  0.00     0.010 C 
ENDBRANCH   6  25
ENDBRANCH   3   6
ENDBRANCH   1   2
BRANCH   1  28
ATOM     28  C   UNL A   1      37.108  20.631  24.581  1.00  0.00     0.023 C 
BRANCH  28  29
ATOM     29  C   UNL A   1      38.114  19.586  25.055  1.00  0.00     0.023 C 
BRANCH  29  30
ATOM     30  C   UNL A   1      39.216  20.133  25.947  1.00  0.00     0.116 C 
BRANCH  30  31
ATOM     31  N   UNL A   1      40.365  19.241  26.041  1.00  0.00    -0.352 N 
ATOM     32  C   UNL A   1      41.673  19.574  26.306  1.00  0.00     0.251 C 
ATOM     33  H   UNL A   1      40.182  18.284  25.900  1.00  0.00     0.163 HD
ATOM     34  O   UNL A   1      42.558  18.734  26.241  1.00  0.00    -0.269 OA
BRANCH  32  35
ATOM     35  C   UNL A   1      41.983  20.979  26.632  1.00  0.00     0.039 A 
ATOM     36  C   UNL A   1      42.220  21.329  27.962  1.00  0.00     0.014 A 
ATOM     37  C   UNL A   1      42.123  21.919  25.608  1.00  0.00     0.014 A 
ATOM     38  C   UNL A   1      42.666  22.616  28.259  1.00  0.00     0.010 A 
ATOM     39  C   UNL A   1      42.645  23.172  25.898  1.00  0.00     0.010 A 
ATOM     40  C   UNL A   1      42.916  23.535  27.226  1.00  0.00    -0.014 A 
BRANCH  40  41
ATOM     41  C   UNL A   1      43.467  24.884  27.504  1.00  0.00     0.031 A 
ATOM     42  C   UNL A   1      42.556  25.976  27.989  1.00  0.00     0.074 A 
ATOM     43  C   UNL A   1      44.759  25.147  27.222  1.00  0.00     0.049 A 
ATOM     44  N   UNL A   1      42.826  27.236  28.210  1.00  0.00    -0.248 NA
ATOM     45  C   UNL A   1      41.147  25.615  28.223  1.00  0.00     0.031 C 
ATOM     46  C   UNL A   1      45.718  24.191  26.665  1.00  0.00     0.029 A 
ATOM     47  N   UNL A   1      45.478  26.310  27.337  1.00  0.00    -0.354 N 
ATOM     48  C   UNL A   1      41.618  27.823  28.567  1.00  0.00     0.074 A 
ATOM     49  C   UNL A   1      40.606  26.792  28.497  1.00  0.00     0.031 C 
ATOM     50  C   UNL A   1      46.901  24.804  26.491  1.00  0.00     0.029 A 
ATOM     51  C   UNL A   1      46.778  26.200  26.898  1.00  0.00     0.049 A 
ATOM     52  H   UNL A   1      45.102  27.143  27.701  1.00  0.00     0.167 HD
ATOM     53  C   UNL A   1      41.379  29.098  28.953  1.00  0.00     0.034 A 
ATOM     54  C   UNL A   1      47.756  27.123  26.828  1.00  0.00     0.034 A 
ATOM     55  C   UNL A   1      42.398  30.103  29.077  1.00  0.00     0.049 A 
ATOM     56  C   UNL A   1      47.477  28.519  27.316  1.00  0.00     0.074 A 
ATOM     57  C   UNL A   1      42.278  31.395  29.553  1.00  0.00     0.029 A 
ATOM     58  N   UNL A   1      43.726  29.927  28.721  1.00  0.00    -0.354 N 
ATOM     59  N   UNL A   1      46.367  29.013  27.811  1.00  0.00    -0.248 NA
ATOM     60  C   UNL A   1      48.593  29.475  27.274  1.00  0.00     0.031 C 
ATOM     61  C   UNL A   1      43.533  32.007  29.471  1.00  0.00     0.029 A 
ATOM     62  C   UNL A   1      44.437  31.089  28.961  1.00  0.00     0.049 A 
ATOM     63  H   UNL A   1      44.107  29.098  28.350  1.00  0.00     0.167 HD
ATOM     64  C   UNL A   1      46.659  30.324  28.171  1.00  0.00     0.074 A 
ATOM     65  C   UNL A   1      48.058  30.540  27.857  1.00  0.00     0.031 C 
ATOM     66  C   UNL A   1      45.843  31.268  28.699  1.00  0.00     0.034 A 
BRANCH  53  67
ATOM     67  C   UNL A   1      39.967  29.458  29.335  1.00  0.00     0.023 A 
ATOM     68  C   UNL A   1      39.033  29.765  28.324  1.00  0.00     0.012 A 
ATOM     69  C   UNL A   1      39.551  29.446  30.681  1.00  0.00     0.148 A 
ATOM     70  C   UNL A   1      37.716  30.088  28.647  1.00  0.00     0.002 A 
ATOM     71  C   UNL A   1      38.224  29.726  30.991  1.00  0.00     0.091 A 
ATOM     72  F   UNL A   1      40.458  29.177  31.630  1.00  0.00    -0.205 F 
ATOM     73  C   UNL A   1      37.310  30.058  29.977  1.00  0.00     0.022 A 
BRANCH  71  74
ATOM     74  S   UNL A   1      37.584  29.638  32.667  1.00  0.00     0.127 S 
ATOM     75  O   UNL A   1      38.553  30.454  33.396  1.00  0.00    -0.237 OA
ATOM     76  O   UNL A   1      36.260  30.245  32.524  1.00  0.00    -0.237 OA
ATOM     77  O   UNL A   1      37.567  28.224  33.015  1.00  0.00    -0.744 OA
ENDBRANCH  71  74
ENDBRANCH  53  67
BRANCH  54  78
ATOM     78  C   UNL A   1      49.113  26.736  26.348  1.00  0.00     0.023 A 
ATOM     79  C   UNL A   1      49.909  25.890  27.146  1.00  0.00     0.012 A 
ATOM     80  C   UNL A   1      49.608  27.169  25.103  1.00  0.00     0.148 A 
ATOM     81  C   UNL A   1      51.184  25.509  26.729  1.00  0.00     0.002 A 
ATOM     82  C   UNL A   1      50.858  26.742  24.668  1.00  0.00     0.091 A 
ATOM     83  F   UNL A   1      48.842  27.983  24.363  1.00  0.00    -0.205 F 
ATOM     84  C   UNL A   1      51.655  25.926  25.487  1.00  0.00     0.022 A 
BRANCH  82  85
ATOM     85  S   UNL A   1      51.488  27.122  23.030  1.00  0.00     0.127 S 
ATOM     86  O   UNL A   1      51.682  28.567  23.111  1.00  0.00    -0.237 OA
ATOM     87  O   UNL A   1      52.722  26.336  22.988  1.00  0.00    -0.237 OA
ATOM     88  O   UNL A   1      50.460  26.670  22.102  1.00  0.00    -0.744 OA
ENDBRANCH  82  85
ENDBRANCH  54  78
BRANCH  66  89
ATOM     89  C   UNL A   1      46.438  32.615  29.008  1.00  0.00     0.023 A 
ATOM     90  C   UNL A   1      46.963  32.869  30.289  1.00  0.00     0.012 A 
ATOM     91  C   UNL A   1      46.555  33.596  28.003  1.00  0.00     0.148 A 
ATOM     92  C   UNL A   1      47.573  34.090  30.576  1.00  0.00     0.002 A 
ATOM     93  C   UNL A   1      47.206  34.792  28.282  1.00  0.00     0.091 A 
ATOM     94  F   UNL A   1      46.031  33.340  26.795  1.00  0.00    -0.205 F 
ATOM     95  C   UNL A   1      47.705  35.045  29.570  1.00  0.00     0.022 A 
BRANCH  93  96
ATOM     96  S   UNL A   1      47.508  36.037  27.023  1.00  0.00     0.127 S 
ATOM     97  O   UNL A   1      48.282  37.030  27.767  1.00  0.00    -0.237 OA
ATOM     98  O   UNL A   1      48.273  35.291  26.023  1.00  0.00    -0.237 OA
ATOM     99  O   UNL A   1      46.195  36.477  26.572  1.00  0.00    -0.744 OA
ENDBRANCH  93  96
ENDBRANCH  66  89
ENDBRANCH  40  41
ENDBRANCH  32  35
ENDBRANCH  30  31
ENDBRANCH  29  30
ENDBRANCH  28  29
ENDBRANCH   1  28
TORSDOF 20
ENDMDL
MODEL 3
REMARK VINA RESULT:     -11.3      1.786      2.192
REMARK SMILES CCCOc1ccccc1/C=C1\SC(=S)N([C@@H](C(=O)NCCCCNC(=O)c2ccc(-c3c4nc(c(-c5cccc(S(=O)(=O)[O-])c5F)c5ccc([nH]5)c(-c5cccc(S(=O)(=O)[O-])c5F)c5nc(c(-c6cccc(S(=O)(=O)[O-])c6F)c6ccc3[nH]6)C=C5)C=C4)cc2)C(C)C)C1=O
REMARK SMILES IDX 21 1 20 2 18 3 19 4 17 6 16 7 11 8 12 9 13 10 94 11 14 12
REMARK SMILES IDX 95 13 15 14 10 15 5 16 6 17 7 18 9 19 8 20 4 21 3 22 2 23
REMARK SMILES IDX 1 24 91 25 92 26 93 27 22 28 23 29 24 30 25 31 26 32 27 34
REMARK SMILES IDX 28 35 29 36 90 37 30 38 89 39 31 40 32 41 33 42 83 43 34 44
REMARK SMILES IDX 88 45 82 46 84 47 35 48 87 49 81 50 80 51 36 53 68 54 48 55
REMARK SMILES IDX 67 56 49 57 52 58 66 59 85 60 50 61 51 62 65 64 86 65 53 66
REMARK SMILES IDX 37 67 38 68 46 69 39 70 41 71 47 72 40 73 42 74 43 75 44 76
REMARK SMILES IDX 45 77 69 78 70 79 78 80 71 81 73 82 79 83 72 84 74 85 75 86
REMARK SMILES IDX 76 87 77 88 54 89 55 90 63 91 56 92 58 93 64 94 57 95 59 96
REMARK SMILES IDX 60 97 61 98 62 99
REMARK H PARENT 20 5 25 33 84 52 52 63
REMARK Flexibility Score: inf
ROOT
ATOM      1  C   UNL A   1      36.518  21.558  25.603  1.00  0.00     0.116 C 
ENDROOT
BRANCH   1   2
ATOM      2  N   UNL A   1      35.486  21.494  26.613  1.00  0.00    -0.354 N 
ATOM      3  C   UNL A   1      34.149  21.767  26.542  1.00  0.00     0.243 C 
ATOM      4  O   UNL A   1      33.494  21.529  27.559  1.00  0.00    -0.273 OA
ATOM      5  H   UNL A   1      35.798  21.203  27.500  1.00  0.00     0.163 HD
BRANCH   3   6
ATOM      6  C   UNL A   1      33.484  22.187  25.197  1.00  0.00     0.184 C 
BRANCH   6   7
ATOM      7  N   UNL A   1      32.884  23.538  25.315  1.00  0.00    -0.280 N 
ATOM      8  C   UNL A   1      33.518  27.078  25.055  1.00  0.00     0.033 C 
ATOM      9  C   UNL A   1      32.910  25.895  25.214  1.00  0.00     0.081 C 
ATOM     10  S   UNL A   1      31.351  25.551  25.831  1.00  0.00    -0.054 SA
ATOM     11  C   UNL A   1      33.657  24.635  24.967  1.00  0.00     0.266 C 
ATOM     12  C   UNL A   1      31.645  23.818  25.860  1.00  0.00     0.149 C 
ATOM     13  O   UNL A   1      34.807  24.605  24.558  1.00  0.00    -0.268 OA
ATOM     14  S   UNL A   1      30.511  22.760  26.483  1.00  0.00    -0.052 S 
BRANCH   8  15
ATOM     15  C   UNL A   1      33.100  28.361  25.638  1.00  0.00     0.018 A 
ATOM     16  C   UNL A   1      32.184  29.198  24.970  1.00  0.00     0.126 A 
ATOM     17  C   UNL A   1      31.729  30.375  25.563  1.00  0.00     0.047 A 
ATOM     18  C   UNL A   1      32.126  30.693  26.860  1.00  0.00     0.004 A 
ATOM     19  C   UNL A   1      33.474  28.680  26.948  1.00  0.00     0.012 A 
ATOM     20  C   UNL A   1      32.987  29.843  27.555  1.00  0.00     0.001 A 
BRANCH  16  21
ATOM     21  O   UNL A   1      31.791  28.904  23.689  1.00  0.00    -0.493 OA
BRANCH  21  22
ATOM     22  C   UNL A   1      30.369  28.821  23.519  1.00  0.00     0.229 C 
BRANCH  22  23
ATOM     23  C   UNL A   1      29.985  27.515  22.820  1.00  0.00     0.038 C 
ATOM     24  C   UNL A   1      31.158  26.855  22.106  1.00  0.00     0.007 C 
ENDBRANCH  22  23
ENDBRANCH  21  22
ENDBRANCH  16  21
ENDBRANCH   8  15
ENDBRANCH   6   7
BRANCH   6  25
ATOM     25  C   UNL A   1      32.474  21.125  24.654  1.00  0.00     0.015 C 
ATOM     26  C   UNL A   1      32.207  21.276  23.149  1.00  0.00     0.010 C 
ATOM     27  C   UNL A   1      32.972  19.687  24.883  1.00  0.00     0.010 C 
ENDBRANCH   6  25
ENDBRANCH   3   6
ENDBRANCH   1   2
BRANCH   1  28
ATOM     28  C   UNL A   1      36.701  20.219  24.893  1.00  0.00     0.023 C 
BRANCH  28  29
ATOM     29  C   UNL A   1      38.143  19.725  24.826  1.00  0.00     0.023 C 
BRANCH  29  30
ATOM     30  C   UNL A   1      39.054  20.295  25.900  1.00  0.00     0.116 C 
BRANCH  30  31
ATOM     31  N   UNL A   1      40.265  19.508  26.095  1.00  0.00    -0.352 N 
ATOM     32  C   UNL A   1      41.513  19.955  26.461  1.00  0.00     0.251 C 
ATOM     33  H   UNL A   1      40.178  18.539  25.948  1.00  0.00     0.163 HD
ATOM     34  O   UNL A   1      42.471  19.197  26.474  1.00  0.00    -0.269 OA
BRANCH  32  35
ATOM     35  C   UNL A   1      41.671  21.384  26.798  1.00  0.00     0.039 A 
ATOM     36  C   UNL A   1      42.226  21.730  28.031  1.00  0.00     0.014 A 
ATOM     37  C   UNL A   1      41.351  22.363  25.855  1.00  0.00     0.014 A 
ATOM     38  C   UNL A   1      42.524  23.068  28.292  1.00  0.00     0.010 A 
ATOM     39  C   UNL A   1      41.724  23.680  26.085  1.00  0.00     0.010 A 
ATOM     40  C   UNL A   1      42.308  24.046  27.307  1.00  0.00    -0.014 A 
BRANCH  40  41
ATOM     41  C   UNL A   1      42.689  25.463  27.525  1.00  0.00     0.031 A 
ATOM     42  C   UNL A   1      44.039  25.949  27.078  1.00  0.00     0.074 A 
ATOM     43  C   UNL A   1      41.864  26.276  28.214  1.00  0.00     0.049 A 
ATOM     44  N   UNL A   1      44.589  27.123  27.249  1.00  0.00    -0.248 NA
ATOM     45  C   UNL A   1      44.899  24.980  26.377  1.00  0.00     0.031 C 
ATOM     46  C   UNL A   1      40.566  25.893  28.774  1.00  0.00     0.029 A 
ATOM     47  N   UNL A   1      42.010  27.589  28.586  1.00  0.00    -0.354 N 
ATOM     48  C   UNL A   1      45.868  27.021  26.716  1.00  0.00     0.074 A 
ATOM     49  C   UNL A   1      46.028  25.661  26.251  1.00  0.00     0.031 C 
ATOM     50  C   UNL A   1      40.034  26.946  29.415  1.00  0.00     0.029 A 
ATOM     51  C   UNL A   1      40.961  28.070  29.335  1.00  0.00     0.049 A 
ATOM     52  H   UNL A   1      42.792  28.135  28.341  1.00  0.00     0.167 HD
ATOM     53  C   UNL A   1      46.813  27.982  26.593  1.00  0.00     0.034 A 
ATOM     54  C   UNL A   1      40.772  29.280  29.896  1.00  0.00     0.034 A 
ATOM     55  C   UNL A   1      46.627  29.345  27.005  1.00  0.00     0.049 A 
ATOM     56  C   UNL A   1      41.814  30.347  29.696  1.00  0.00     0.074 A 
ATOM     57  C   UNL A   1      47.482  30.419  26.837  1.00  0.00     0.029 A 
ATOM     58  N   UNL A   1      45.508  29.824  27.669  1.00  0.00    -0.354 N 
ATOM     59  N   UNL A   1      42.949  30.278  29.041  1.00  0.00    -0.248 NA
ATOM     60  C   UNL A   1      41.536  31.668  30.277  1.00  0.00     0.031 C 
ATOM     61  C   UNL A   1      46.885  31.545  27.412  1.00  0.00     0.029 A 
ATOM     62  C   UNL A   1      45.651  31.176  27.922  1.00  0.00     0.049 A 
ATOM     63  H   UNL A   1      44.727  29.280  27.924  1.00  0.00     0.167 HD
ATOM     64  C   UNL A   1      43.502  31.552  29.101  1.00  0.00     0.074 A 
ATOM     65  C   UNL A   1      42.567  32.379  29.839  1.00  0.00     0.031 C 
ATOM     66  C   UNL A   1      44.683  31.996  28.605  1.00  0.00     0.034 A 
BRANCH  53  67
ATOM     67  C   UNL A   1      48.110  27.604  25.926  1.00  0.00     0.023 A 
ATOM     68  C   UNL A   1      49.183  27.137  26.713  1.00  0.00     0.012 A 
ATOM     69  C   UNL A   1      48.253  27.663  24.526  1.00  0.00     0.148 A 
ATOM     70  C   UNL A   1      50.390  26.768  26.122  1.00  0.00     0.002 A 
ATOM     71  C   UNL A   1      49.445  27.251  23.941  1.00  0.00     0.091 A 
ATOM     72  F   UNL A   1      47.231  28.134  23.797  1.00  0.00    -0.205 F 
ATOM     73  C   UNL A   1      50.516  26.814  24.737  1.00  0.00     0.022 A 
BRANCH  71  74
ATOM     74  S   UNL A   1      49.681  27.200  22.160  1.00  0.00     0.127 S 
ATOM     75  O   UNL A   1      49.388  28.582  21.785  1.00  0.00    -0.237 OA
ATOM     76  O   UNL A   1      51.090  26.823  22.047  1.00  0.00    -0.237 OA
ATOM     77  O   UNL A   1      48.745  26.202  21.662  1.00  0.00    -0.744 OA
ENDBRANCH  71  74
ENDBRANCH  53  67
BRANCH  54  78
ATOM     78  C   UNL A   1      39.509  29.571  30.632  1.00  0.00     0.023 A 
ATOM     79  C   UNL A   1      39.332  29.047  31.928  1.00  0.00     0.012 A 
ATOM     80  C   UNL A   1      38.500  30.382  30.077  1.00  0.00     0.148 A 
ATOM     81  C   UNL A   1      38.162  29.298  32.645  1.00  0.00     0.002 A 
ATOM     82  C   UNL A   1      37.360  30.673  30.818  1.00  0.00     0.091 A 
ATOM     83  F   UNL A   1      38.681  30.862  28.838  1.00  0.00    -0.205 F 
ATOM     84  C   UNL A   1      37.181  30.119  32.095  1.00  0.00     0.022 A 
BRANCH  82  85
ATOM     85  S   UNL A   1      36.107  31.824  30.242  1.00  0.00     0.127 S 
ATOM     86  O   UNL A   1      36.861  33.073  30.165  1.00  0.00    -0.237 OA
ATOM     87  O   UNL A   1      35.736  31.248  28.949  1.00  0.00    -0.237 OA
ATOM     88  O   UNL A   1      35.049  31.781  31.242  1.00  0.00    -0.744 OA
ENDBRANCH  82  85
ENDBRANCH  54  78
BRANCH  66  89
ATOM     89  C   UNL A   1      45.026  33.448  28.807  1.00  0.00     0.023 A 
ATOM     90  C   UNL A   1      44.613  34.401  27.856  1.00  0.00     0.012 A 
ATOM     91  C   UNL A   1      45.679  33.875  29.979  1.00  0.00     0.148 A 
ATOM     92  C   UNL A   1      44.869  35.757  28.056  1.00  0.00     0.002 A 
ATOM     93  C   UNL A   1      45.889  35.232  30.194  1.00  0.00     0.091 A 
ATOM     94  F   UNL A   1      46.080  32.949  30.863  1.00  0.00    -0.205 F 
ATOM     95  C   UNL A   1      45.495  36.173  29.229  1.00  0.00     0.022 A 
BRANCH  93  96
ATOM     96  S   UNL A   1      46.597  35.865  31.719  1.00  0.00     0.127 S 
ATOM     97  O   UNL A   1      46.784  37.279  31.396  1.00  0.00    -0.237 OA
ATOM     98  O   UNL A   1      45.537  35.597  32.691  1.00  0.00    -0.237 OA
ATOM     99  O   UNL A   1      47.821  35.106  31.937  1.00  0.00    -0.744 OA
ENDBRANCH  93  96
ENDBRANCH  66  89
ENDBRANCH  40  41
ENDBRANCH  32  35
ENDBRANCH  30  31
ENDBRANCH  29  30
ENDBRANCH  28  29
ENDBRANCH   1  28
TORSDOF 20
ENDMDL
