MODEL 1
REMARK VINA RESULT:     -12.3      0.000      0.000
REMARK SMILES CN(Cc1ncc(C(=O)NCCCCNC(=O)c2ccc(-c3c4nc(c(-c5cccc(S(=O)(=O)[O-])c5F)c5ccc([nH]5)c(-c5cccc(S(=O)(=O)[O-])c5F)c5nc(c(-c6cccc(S(=O)(=O)[O-])c6F)c6ccc3[nH]6)C=C5)C=C4)cc2)cn1)S(=O)(=O)c1ccc(Cl)cc1
REMARK SMILES IDX 12 1 11 2 10 3 8 4 9 5 7 7 4 8 5 9 82 10 6 11 81 12 3 13
REMARK SMILES IDX 2 14 1 15 83 16 84 17 85 18 86 19 87 20 92 21 88 22 91 23
REMARK SMILES IDX 89 24 90 25 13 26 14 27 15 28 16 29 17 31 18 32 19 33 80 34
REMARK SMILES IDX 20 35 79 36 21 37 22 38 23 39 73 40 24 41 78 42 72 43 74 44
REMARK SMILES IDX 25 45 77 46 71 47 70 48 26 50 58 51 38 52 57 53 39 54 42 55
REMARK SMILES IDX 56 56 75 57 40 58 41 59 55 61 76 62 43 63 27 64 28 65 36 66
REMARK SMILES IDX 29 67 31 68 37 69 30 70 32 71 33 72 34 73 35 74 59 75 60 76
REMARK SMILES IDX 68 77 61 78 63 79 69 80 62 81 64 82 65 83 66 84 67 85 44 86
REMARK SMILES IDX 45 87 53 88 46 89 48 90 54 91 47 92 49 93 50 94 51 95 52 96
REMARK H PARENT 10 6 15 30 74 49 42 60
REMARK Flexibility Score: inf
ROOT
ATOM      1  C   UNL A   1      32.664  29.399  24.746  1.00  0.00     0.023 C 
ENDROOT
BRANCH   1   2
ATOM      2  C   UNL A   1      31.190  29.784  24.877  1.00  0.00     0.116 C 
BRANCH   2   3
ATOM      3  N   UNL A   1      30.515  29.797  23.593  1.00  0.00    -0.352 N 
ATOM      4  C   UNL A   1      30.128  28.827  22.707  1.00  0.00     0.254 C 
ATOM      5  O   UNL A   1      29.534  29.208  21.696  1.00  0.00    -0.269 OA
ATOM      6  H   UNL A   1      30.284  30.705  23.291  1.00  0.00     0.163 HD
BRANCH   4   7
ATOM      7  C   UNL A   1      30.367  27.375  22.856  1.00  0.00     0.076 A 
ATOM      8  C   UNL A   1      31.081  24.740  23.059  1.00  0.00     0.143 A 
ATOM      9  N   UNL A   1      30.024  25.170  23.773  1.00  0.00    -0.239 NA
ATOM     10  N   UNL A   1      31.760  25.497  22.180  1.00  0.00    -0.239 NA
ATOM     11  C   UNL A   1      29.718  26.484  23.674  1.00  0.00     0.128 A 
ATOM     12  C   UNL A   1      31.379  26.798  22.104  1.00  0.00     0.128 A 
BRANCH   8  13
ATOM     13  C   UNL A   1      31.624  23.363  23.389  1.00  0.00     0.179 C 
BRANCH  13  14
ATOM     14  N   UNL A   1      32.995  23.314  24.007  1.00  0.00    -0.193 NA
ATOM     15  C   UNL A   1      34.045  22.944  23.026  1.00  0.00     0.125 C 
BRANCH  14  16
ATOM     16  S   UNL A   1      33.128  22.420  25.462  1.00  0.00     0.243 S 
ATOM     17  O   UNL A   1      34.291  22.859  26.188  1.00  0.00    -0.207 OA
ATOM     18  O   UNL A   1      31.819  22.418  26.089  1.00  0.00    -0.207 OA
BRANCH  16  19
ATOM     19  C   UNL A   1      33.401  20.762  24.886  1.00  0.00     0.082 A 
ATOM     20  C   UNL A   1      32.324  20.058  24.338  1.00  0.00     0.023 A 
ATOM     21  C   UNL A   1      34.662  20.170  25.006  1.00  0.00     0.023 A 
ATOM     22  C   UNL A   1      32.511  18.746  23.904  1.00  0.00     0.022 A 
ATOM     23  C   UNL A   1      34.839  18.853  24.577  1.00  0.00     0.022 A 
ATOM     24  C   UNL A   1      33.765  18.147  24.030  1.00  0.00     0.041 A 
ATOM     25  Cl  UNL A   1      33.985  16.522  23.511  1.00  0.00    -0.084 Cl
ENDBRANCH  16  19
ENDBRANCH  14  16
ENDBRANCH  13  14
ENDBRANCH   8  13
ENDBRANCH   4   7
ENDBRANCH   2   3
ENDBRANCH   1   2
BRANCH   1  26
ATOM     26  C   UNL A   1      33.501  29.688  26.001  1.00  0.00     0.023 C 
BRANCH  26  27
ATOM     27  C   UNL A   1      32.742  30.341  27.157  1.00  0.00     0.116 C 
BRANCH  27  28
ATOM     28  N   UNL A   1      32.830  31.792  27.161  1.00  0.00    -0.352 N 
ATOM     29  C   UNL A   1      33.820  32.585  27.692  1.00  0.00     0.251 C 
ATOM     30  H   UNL A   1      32.085  32.269  26.728  1.00  0.00     0.163 HD
ATOM     31  O   UNL A   1      33.684  33.805  27.703  1.00  0.00    -0.269 OA
BRANCH  29  32
ATOM     32  C   UNL A   1      35.024  31.963  28.286  1.00  0.00     0.039 A 
ATOM     33  C   UNL A   1      36.241  32.643  28.196  1.00  0.00     0.014 A 
ATOM     34  C   UNL A   1      34.959  30.720  28.919  1.00  0.00     0.014 A 
ATOM     35  C   UNL A   1      37.385  32.098  28.783  1.00  0.00     0.010 A 
ATOM     36  C   UNL A   1      36.085  30.208  29.560  1.00  0.00     0.010 A 
ATOM     37  C   UNL A   1      37.312  30.884  29.486  1.00  0.00    -0.014 A 
BRANCH  37  38
ATOM     38  C   UNL A   1      38.514  30.298  30.130  1.00  0.00     0.031 A 
ATOM     39  C   UNL A   1      38.907  30.723  31.520  1.00  0.00     0.074 A 
ATOM     40  C   UNL A   1      39.293  29.443  29.440  1.00  0.00     0.049 A 
ATOM     41  N   UNL A   1      39.930  30.341  32.239  1.00  0.00    -0.248 NA
ATOM     42  C   UNL A   1      38.057  31.731  32.176  1.00  0.00     0.031 C 
ATOM     43  C   UNL A   1      39.070  29.026  28.053  1.00  0.00     0.029 A 
ATOM     44  N   UNL A   1      40.443  28.788  29.802  1.00  0.00    -0.354 N 
ATOM     45  C   UNL A   1      39.869  31.085  33.412  1.00  0.00     0.074 A 
ATOM     46  C   UNL A   1      38.729  31.967  33.294  1.00  0.00     0.031 C 
ATOM     47  C   UNL A   1      40.047  28.181  27.686  1.00  0.00     0.029 A 
ATOM     48  C   UNL A   1      40.971  28.004  28.803  1.00  0.00     0.049 A 
ATOM     49  H   UNL A   1      40.851  28.870  30.694  1.00  0.00     0.167 HD
ATOM     50  C   UNL A   1      40.664  31.015  34.506  1.00  0.00     0.034 A 
ATOM     51  C   UNL A   1      42.068  27.223  28.794  1.00  0.00     0.034 A 
ATOM     52  C   UNL A   1      41.757  30.092  34.646  1.00  0.00     0.049 A 
ATOM     53  C   UNL A   1      42.885  27.096  30.052  1.00  0.00     0.074 A 
ATOM     54  C   UNL A   1      42.566  29.875  35.747  1.00  0.00     0.029 A 
ATOM     55  N   UNL A   1      42.189  29.225  33.655  1.00  0.00    -0.354 N 
ATOM     56  N   UNL A   1      42.706  27.680  31.214  1.00  0.00    -0.248 NA
ATOM     57  C   UNL A   1      44.023  26.167  30.016  1.00  0.00     0.031 C 
ATOM     58  C   UNL A   1      43.491  28.876  35.419  1.00  0.00     0.029 A 
ATOM     59  C   UNL A   1      43.250  28.466  34.117  1.00  0.00     0.049 A 
ATOM     60  H   UNL A   1      41.799  29.158  32.753  1.00  0.00     0.167 HD
ATOM     61  C   UNL A   1      43.684  27.162  32.055  1.00  0.00     0.074 A 
ATOM     62  C   UNL A   1      44.438  26.200  31.276  1.00  0.00     0.031 C 
ATOM     63  C   UNL A   1      43.946  27.466  33.350  1.00  0.00     0.034 A 
BRANCH  50  64
ATOM     64  C   UNL A   1      40.330  31.911  35.669  1.00  0.00     0.023 A 
ATOM     65  C   UNL A   1      41.156  33.022  35.941  1.00  0.00     0.012 A 
ATOM     66  C   UNL A   1      39.188  31.689  36.461  1.00  0.00     0.148 A 
ATOM     67  C   UNL A   1      40.870  33.877  37.004  1.00  0.00     0.002 A 
ATOM     68  C   UNL A   1      38.887  32.569  37.495  1.00  0.00     0.091 A 
ATOM     69  F   UNL A   1      38.428  30.615  36.204  1.00  0.00    -0.205 F 
ATOM     70  C   UNL A   1      39.733  33.656  37.774  1.00  0.00     0.022 A 
BRANCH  68  71
ATOM     71  S   UNL A   1      37.405  32.410  38.497  1.00  0.00     0.127 S 
ATOM     72  O   UNL A   1      37.798  33.111  39.719  1.00  0.00    -0.237 OA
ATOM     73  O   UNL A   1      36.406  33.111  37.688  1.00  0.00    -0.237 OA
ATOM     74  O   UNL A   1      37.171  30.981  38.639  1.00  0.00    -0.744 OA
ENDBRANCH  68  71
ENDBRANCH  50  64
BRANCH  51  75
ATOM     75  C   UNL A   1      42.398  26.419  27.584  1.00  0.00     0.023 A 
ATOM     76  C   UNL A   1      43.116  27.023  26.533  1.00  0.00     0.012 A 
ATOM     77  C   UNL A   1      42.040  25.062  27.479  1.00  0.00     0.148 A 
ATOM     78  C   UNL A   1      43.444  26.300  25.387  1.00  0.00     0.002 A 
ATOM     79  C   UNL A   1      42.415  24.333  26.355  1.00  0.00     0.091 A 
ATOM     80  F   UNL A   1      41.345  24.507  28.483  1.00  0.00    -0.205 F 
ATOM     81  C   UNL A   1      43.103  24.953  25.301  1.00  0.00     0.022 A 
BRANCH  79  82
ATOM     82  S   UNL A   1      42.127  22.564  26.223  1.00  0.00     0.127 S 
ATOM     83  O   UNL A   1      42.812  22.059  27.409  1.00  0.00    -0.237 OA
ATOM     84  O   UNL A   1      40.666  22.486  26.274  1.00  0.00    -0.237 OA
ATOM     85  O   UNL A   1      42.699  22.174  24.941  1.00  0.00    -0.744 OA
ENDBRANCH  79  82
ENDBRANCH  51  75
BRANCH  63  86
ATOM     86  C   UNL A   1      45.075  26.734  34.025  1.00  0.00     0.023 A 
ATOM     87  C   UNL A   1      46.385  27.244  33.940  1.00  0.00     0.012 A 
ATOM     88  C   UNL A   1      44.828  25.587  34.804  1.00  0.00     0.148 A 
ATOM     89  C   UNL A   1      47.437  26.608  34.596  1.00  0.00     0.002 A 
ATOM     90  C   UNL A   1      45.874  24.984  35.493  1.00  0.00     0.091 A 
ATOM     91  F   UNL A   1      43.578  25.103  34.854  1.00  0.00    -0.205 F 
ATOM     92  C   UNL A   1      47.180  25.486  35.381  1.00  0.00     0.022 A 
BRANCH  90  93
ATOM     93  S   UNL A   1      45.606  23.593  36.598  1.00  0.00     0.127 S 
ATOM     94  O   UNL A   1      46.975  23.220  36.948  1.00  0.00    -0.237 OA
ATOM     95  O   UNL A   1      44.841  24.199  37.689  1.00  0.00    -0.237 OA
ATOM     96  O   UNL A   1      44.862  22.612  35.820  1.00  0.00    -0.744 OA
ENDBRANCH  90  93
ENDBRANCH  63  86
ENDBRANCH  37  38
ENDBRANCH  29  32
ENDBRANCH  27  28
ENDBRANCH  26  27
ENDBRANCH   1  26
TORSDOF 18
ENDMDL
MODEL 2
REMARK VINA RESULT:     -12.3      2.346      8.002
REMARK SMILES CN(Cc1ncc(C(=O)NCCCCNC(=O)c2ccc(-c3c4nc(c(-c5cccc(S(=O)(=O)[O-])c5F)c5ccc([nH]5)c(-c5cccc(S(=O)(=O)[O-])c5F)c5nc(c(-c6cccc(S(=O)(=O)[O-])c6F)c6ccc3[nH]6)C=C5)C=C4)cc2)cn1)S(=O)(=O)c1ccc(Cl)cc1
REMARK SMILES IDX 12 1 11 2 10 3 8 4 9 5 7 7 4 8 5 9 82 10 6 11 81 12 3 13
REMARK SMILES IDX 2 14 1 15 83 16 84 17 85 18 86 19 87 20 92 21 88 22 91 23
REMARK SMILES IDX 89 24 90 25 13 26 14 27 15 28 16 29 17 31 18 32 19 33 80 34
REMARK SMILES IDX 20 35 79 36 21 37 22 38 23 39 73 40 24 41 78 42 72 43 74 44
REMARK SMILES IDX 25 45 77 46 71 47 70 48 26 50 58 51 38 52 57 53 39 54 42 55
REMARK SMILES IDX 56 56 75 57 40 58 41 59 55 61 76 62 43 63 27 64 28 65 36 66
REMARK SMILES IDX 29 67 31 68 37 69 30 70 32 71 33 72 34 73 35 74 59 75 60 76
REMARK SMILES IDX 68 77 61 78 63 79 69 80 62 81 64 82 65 83 66 84 67 85 44 86
REMARK SMILES IDX 45 87 53 88 46 89 48 90 54 91 47 92 49 93 50 94 51 95 52 96
REMARK H PARENT 10 6 15 30 74 49 42 60
REMARK Flexibility Score: inf
ROOT
ATOM      1  C   UNL A   1      31.465  30.628  26.698  1.00  0.00     0.023 C 
ENDROOT
BRANCH   1   2
ATOM      2  C   UNL A   1      31.954  30.041  25.373  1.00  0.00     0.116 C 
BRANCH   2   3
ATOM      3  N   UNL A   1      30.960  30.164  24.324  1.00  0.00    -0.352 N 
ATOM      4  C   UNL A   1      30.318  29.274  23.506  1.00  0.00     0.254 C 
ATOM      5  O   UNL A   1      29.486  29.741  22.724  1.00  0.00    -0.269 OA
ATOM      6  H   UNL A   1      30.686  31.097  24.165  1.00  0.00     0.163 HD
BRANCH   4   7
ATOM      7  C   UNL A   1      30.542  27.812  23.474  1.00  0.00     0.076 A 
ATOM      8  C   UNL A   1      30.682  25.078  23.482  1.00  0.00     0.143 A 
ATOM      9  N   UNL A   1      31.573  25.759  22.737  1.00  0.00    -0.239 NA
ATOM     10  N   UNL A   1      29.780  25.652  24.296  1.00  0.00    -0.239 NA
ATOM     11  C   UNL A   1      31.456  27.107  22.731  1.00  0.00     0.128 A 
ATOM     12  C   UNL A   1      29.739  27.009  24.269  1.00  0.00     0.128 A 
BRANCH   8  13
ATOM     13  C   UNL A   1      30.599  23.580  23.263  1.00  0.00     0.179 C 
BRANCH  13  14
ATOM     14  N   UNL A   1      31.862  22.797  23.502  1.00  0.00    -0.193 NA
ATOM     15  C   UNL A   1      32.082  21.750  22.474  1.00  0.00     0.125 C 
BRANCH  14  16
ATOM     16  S   UNL A   1      32.079  22.197  25.091  1.00  0.00     0.243 S 
ATOM     17  O   UNL A   1      31.307  22.990  26.011  1.00  0.00    -0.207 OA
ATOM     18  O   UNL A   1      31.916  20.756  25.035  1.00  0.00    -0.207 OA
BRANCH  16  19
ATOM     19  C   UNL A   1      33.806  22.486  25.392  1.00  0.00     0.082 A 
ATOM     20  C   UNL A   1      34.330  23.754  25.115  1.00  0.00     0.023 A 
ATOM     21  C   UNL A   1      34.623  21.457  25.868  1.00  0.00     0.023 A 
ATOM     22  C   UNL A   1      35.687  23.994  25.318  1.00  0.00     0.022 A 
ATOM     23  C   UNL A   1      35.985  21.703  26.061  1.00  0.00     0.022 A 
ATOM     24  C   UNL A   1      36.510  22.968  25.785  1.00  0.00     0.041 A 
ATOM     25  Cl  UNL A   1      38.189  23.265  26.016  1.00  0.00    -0.084 Cl
ENDBRANCH  16  19
ENDBRANCH  14  16
ENDBRANCH  13  14
ENDBRANCH   8  13
ENDBRANCH   4   7
ENDBRANCH   2   3
ENDBRANCH   1   2
BRANCH   1  26
ATOM     26  C   UNL A   1      31.422  32.164  26.726  1.00  0.00     0.023 C 
BRANCH  26  27
ATOM     27  C   UNL A   1      32.722  32.846  27.151  1.00  0.00     0.116 C 
BRANCH  27  28
ATOM     28  N   UNL A   1      32.529  34.196  27.656  1.00  0.00    -0.352 N 
ATOM     29  C   UNL A   1      33.186  34.823  28.688  1.00  0.00     0.251 C 
ATOM     30  H   UNL A   1      31.839  34.730  27.200  1.00  0.00     0.163 HD
ATOM     31  O   UNL A   1      32.823  35.936  29.056  1.00  0.00    -0.269 OA
BRANCH  29  32
ATOM     32  C   UNL A   1      34.299  34.135  29.379  1.00  0.00     0.039 A 
ATOM     33  C   UNL A   1      35.611  34.467  29.028  1.00  0.00     0.014 A 
ATOM     34  C   UNL A   1      34.057  33.168  30.358  1.00  0.00     0.014 A 
ATOM     35  C   UNL A   1      36.681  33.863  29.692  1.00  0.00     0.010 A 
ATOM     36  C   UNL A   1      35.123  32.614  31.064  1.00  0.00     0.010 A 
ATOM     37  C   UNL A   1      36.444  32.944  30.728  1.00  0.00    -0.014 A 
BRANCH  37  38
ATOM     38  C   UNL A   1      37.569  32.305  31.456  1.00  0.00     0.031 A 
ATOM     39  C   UNL A   1      38.336  31.177  30.818  1.00  0.00     0.074 A 
ATOM     40  C   UNL A   1      37.853  32.687  32.717  1.00  0.00     0.049 A 
ATOM     41  N   UNL A   1      39.333  30.483  31.302  1.00  0.00    -0.248 NA
ATOM     42  C   UNL A   1      37.908  30.755  29.474  1.00  0.00     0.031 C 
ATOM     43  C   UNL A   1      37.122  33.703  33.478  1.00  0.00     0.029 A 
ATOM     44  N   UNL A   1      38.817  32.249  33.589  1.00  0.00    -0.354 N 
ATOM     45  C   UNL A   1      39.627  29.521  30.342  1.00  0.00     0.074 A 
ATOM     46  C   UNL A   1      38.680  29.698  29.263  1.00  0.00     0.031 C 
ATOM     47  C   UNL A   1      37.669  33.814  34.699  1.00  0.00     0.029 A 
ATOM     48  C   UNL A   1      38.779  32.873  34.814  1.00  0.00     0.049 A 
ATOM     49  H   UNL A   1      39.475  31.554  33.359  1.00  0.00     0.167 HD
ATOM     50  C   UNL A   1      40.618  28.599  30.338  1.00  0.00     0.034 A 
ATOM     51  C   UNL A   1      39.559  32.712  35.900  1.00  0.00     0.034 A 
ATOM     52  C   UNL A   1      41.597  28.469  31.382  1.00  0.00     0.049 A 
ATOM     53  C   UNL A   1      40.709  31.743  35.836  1.00  0.00     0.074 A 
ATOM     54  C   UNL A   1      42.697  27.631  31.432  1.00  0.00     0.029 A 
ATOM     55  N   UNL A   1      41.600  29.204  32.557  1.00  0.00    -0.354 N 
ATOM     56  N   UNL A   1      41.077  30.963  34.847  1.00  0.00    -0.248 NA
ATOM     57  C   UNL A   1      41.581  31.665  37.017  1.00  0.00     0.031 C 
ATOM     58  C   UNL A   1      43.364  27.859  32.642  1.00  0.00     0.029 A 
ATOM     59  C   UNL A   1      42.683  28.844  33.340  1.00  0.00     0.049 A 
ATOM     60  H   UNL A   1      40.929  29.881  32.800  1.00  0.00     0.167 HD
ATOM     61  C   UNL A   1      42.240  30.332  35.271  1.00  0.00     0.074 A 
ATOM     62  C   UNL A   1      42.529  30.837  36.599  1.00  0.00     0.031 C 
ATOM     63  C   UNL A   1      42.993  29.405  34.628  1.00  0.00     0.034 A 
BRANCH  50  64
ATOM     64  C   UNL A   1      40.738  27.710  29.129  1.00  0.00     0.023 A 
ATOM     65  C   UNL A   1      39.937  26.552  29.043  1.00  0.00     0.012 A 
ATOM     66  C   UNL A   1      41.599  28.035  28.063  1.00  0.00     0.148 A 
ATOM     67  C   UNL A   1      40.017  25.712  27.934  1.00  0.00     0.002 A 
ATOM     68  C   UNL A   1      41.643  27.213  26.942  1.00  0.00     0.091 A 
ATOM     69  F   UNL A   1      42.371  29.125  28.171  1.00  0.00    -0.205 F 
ATOM     70  C   UNL A   1      40.862  26.047  26.881  1.00  0.00     0.022 A 
BRANCH  68  71
ATOM     71  S   UNL A   1      42.647  27.598  25.502  1.00  0.00     0.127 S 
ATOM     72  O   UNL A   1      42.417  26.425  24.659  1.00  0.00    -0.237 OA
ATOM     73  O   UNL A   1      42.028  28.830  25.013  1.00  0.00    -0.237 OA
ATOM     74  O   UNL A   1      44.007  27.760  25.996  1.00  0.00    -0.744 OA
ENDBRANCH  68  71
ENDBRANCH  50  64
BRANCH  51  75
ATOM     75  C   UNL A   1      39.343  33.564  37.102  1.00  0.00     0.023 A 
ATOM     76  C   UNL A   1      39.827  34.887  37.102  1.00  0.00     0.012 A 
ATOM     77  C   UNL A   1      38.637  33.093  38.225  1.00  0.00     0.148 A 
ATOM     78  C   UNL A   1      39.640  35.715  38.209  1.00  0.00     0.002 A 
ATOM     79  C   UNL A   1      38.410  33.940  39.306  1.00  0.00     0.091 A 
ATOM     80  F   UNL A   1      38.195  31.827  38.214  1.00  0.00    -0.205 F 
ATOM     81  C   UNL A   1      38.924  35.245  39.306  1.00  0.00     0.022 A 
BRANCH  79  82
ATOM     82  S   UNL A   1      37.388  33.456  40.702  1.00  0.00     0.127 S 
ATOM     83  O   UNL A   1      37.311  34.700  41.463  1.00  0.00    -0.237 OA
ATOM     84  O   UNL A   1      36.141  33.058  40.046  1.00  0.00    -0.237 OA
ATOM     85  O   UNL A   1      38.101  32.359  41.341  1.00  0.00    -0.744 OA
ENDBRANCH  79  82
ENDBRANCH  51  75
BRANCH  63  86
ATOM     86  C   UNL A   1      44.222  28.894  35.332  1.00  0.00     0.023 A 
ATOM     87  C   UNL A   1      45.461  29.528  35.118  1.00  0.00     0.012 A 
ATOM     88  C   UNL A   1      44.135  27.838  36.259  1.00  0.00     0.148 A 
ATOM     89  C   UNL A   1      46.602  29.100  35.794  1.00  0.00     0.002 A 
ATOM     90  C   UNL A   1      45.268  27.445  36.964  1.00  0.00     0.091 A 
ATOM     91  F   UNL A   1      42.952  27.231  36.432  1.00  0.00    -0.205 F 
ATOM     92  C   UNL A   1      46.504  28.068  36.725  1.00  0.00     0.022 A 
BRANCH  90  93
ATOM     93  S   UNL A   1      45.201  26.188  38.246  1.00  0.00     0.127 S 
ATOM     94  O   UNL A   1      44.204  26.746  39.159  1.00  0.00    -0.237 OA
ATOM     95  O   UNL A   1      44.755  25.006  37.506  1.00  0.00    -0.237 OA
ATOM     96  O   UNL A   1      46.556  26.090  38.770  1.00  0.00    -0.744 OA
ENDBRANCH  90  93
ENDBRANCH  63  86
ENDBRANCH  37  38
ENDBRANCH  29  32
ENDBRANCH  27  28
ENDBRANCH  26  27
ENDBRANCH   1  26
TORSDOF 18
ENDMDL
MODEL 3
REMARK VINA RESULT:     -11.8      2.306      7.937
REMARK SMILES CN(Cc1ncc(C(=O)NCCCCNC(=O)c2ccc(-c3c4nc(c(-c5cccc(S(=O)(=O)[O-])c5F)c5ccc([nH]5)c(-c5cccc(S(=O)(=O)[O-])c5F)c5nc(c(-c6cccc(S(=O)(=O)[O-])c6F)c6ccc3[nH]6)C=C5)C=C4)cc2)cn1)S(=O)(=O)c1ccc(Cl)cc1
REMARK SMILES IDX 12 1 11 2 10 3 8 4 9 5 7 7 4 8 5 9 82 10 6 11 81 12 3 13
REMARK SMILES IDX 2 14 1 15 83 16 84 17 85 18 86 19 87 20 92 21 88 22 91 23
REMARK SMILES IDX 89 24 90 25 13 26 14 27 15 28 16 29 17 31 18 32 19 33 80 34
REMARK SMILES IDX 20 35 79 36 21 37 22 38 23 39 73 40 24 41 78 42 72 43 74 44
REMARK SMILES IDX 25 45 77 46 71 47 70 48 26 50 58 51 38 52 57 53 39 54 42 55
REMARK SMILES IDX 56 56 75 57 40 58 41 59 55 61 76 62 43 63 27 64 28 65 36 66
REMARK SMILES IDX 29 67 31 68 37 69 30 70 32 71 33 72 34 73 35 74 59 75 60 76
REMARK SMILES IDX 68 77 61 78 63 79 69 80 62 81 64 82 65 83 66 84 67 85 44 86
REMARK SMILES IDX 45 87 53 88 46 89 48 90 54 91 47 92 49 93 50 94 51 95 52 96
REMARK H PARENT 10 6 15 30 74 49 42 60
REMARK Flexibility Score: inf
ROOT
ATOM      1  C   UNL A   1      32.136  30.086  26.708  1.00  0.00     0.023 C 
ENDROOT
BRANCH   1   2
ATOM      2  C   UNL A   1      32.536  29.889  25.245  1.00  0.00     0.116 C 
BRANCH   2   3
ATOM      3  N   UNL A   1      31.390  29.932  24.357  1.00  0.00    -0.352 N 
ATOM      4  C   UNL A   1      30.643  28.982  23.713  1.00  0.00     0.254 C 
ATOM      5  O   UNL A   1      29.693  29.388  23.039  1.00  0.00    -0.269 OA
ATOM      6  H   UNL A   1      31.079  30.849  24.177  1.00  0.00     0.163 HD
BRANCH   4   7
ATOM      7  C   UNL A   1      30.882  27.523  23.750  1.00  0.00     0.076 A 
ATOM      8  C   UNL A   1      31.076  24.793  23.682  1.00  0.00     0.143 A 
ATOM      9  N   UNL A   1      32.213  25.510  23.760  1.00  0.00    -0.239 NA
ATOM     10  N   UNL A   1      29.842  25.323  23.726  1.00  0.00    -0.239 NA
ATOM     11  C   UNL A   1      32.083  26.857  23.759  1.00  0.00     0.128 A 
ATOM     12  C   UNL A   1      29.783  26.679  23.760  1.00  0.00     0.128 A 
BRANCH   8  13
ATOM     13  C   UNL A   1      31.212  23.314  23.373  1.00  0.00     0.179 C 
BRANCH  13  14
ATOM     14  N   UNL A   1      31.682  22.435  24.500  1.00  0.00    -0.193 NA
ATOM     15  C   UNL A   1      31.125  22.850  25.812  1.00  0.00     0.125 C 
BRANCH  14  16
ATOM     16  S   UNL A   1      33.370  22.154  24.575  1.00  0.00     0.243 S 
ATOM     17  O   UNL A   1      33.999  22.717  23.410  1.00  0.00    -0.207 OA
ATOM     18  O   UNL A   1      33.811  22.523  25.908  1.00  0.00    -0.207 OA
BRANCH  16  19
ATOM     19  C   UNL A   1      33.482  20.384  24.490  1.00  0.00     0.082 A 
ATOM     20  C   UNL A   1      34.722  19.780  24.724  1.00  0.00     0.023 A 
ATOM     21  C   UNL A   1      32.357  19.618  24.169  1.00  0.00     0.023 A 
ATOM     22  C   UNL A   1      34.838  18.394  24.636  1.00  0.00     0.022 A 
ATOM     23  C   UNL A   1      32.483  18.230  24.073  1.00  0.00     0.022 A 
ATOM     24  C   UNL A   1      33.721  17.625  24.306  1.00  0.00     0.041 A 
ATOM     25  Cl  UNL A   1      33.874  15.916  24.179  1.00  0.00    -0.084 Cl
ENDBRANCH  16  19
ENDBRANCH  14  16
ENDBRANCH  13  14
ENDBRANCH   8  13
ENDBRANCH   4   7
ENDBRANCH   2   3
ENDBRANCH   1   2
BRANCH   1  26
ATOM     26  C   UNL A   1      31.764  31.534  27.066  1.00  0.00     0.023 C 
BRANCH  26  27
ATOM     27  C   UNL A   1      32.908  32.544  26.972  1.00  0.00     0.116 C 
BRANCH  27  28
ATOM     28  N   UNL A   1      32.559  33.862  27.476  1.00  0.00    -0.352 N 
ATOM     29  C   UNL A   1      33.100  34.538  28.545  1.00  0.00     0.251 C 
ATOM     30  H   UNL A   1      31.843  34.332  26.991  1.00  0.00     0.163 HD
ATOM     31  O   UNL A   1      32.611  35.605  28.902  1.00  0.00    -0.269 OA
BRANCH  29  32
ATOM     32  C   UNL A   1      34.240  33.954  29.285  1.00  0.00     0.039 A 
ATOM     33  C   UNL A   1      33.980  32.987  30.260  1.00  0.00     0.014 A 
ATOM     34  C   UNL A   1      35.553  34.356  29.027  1.00  0.00     0.014 A 
ATOM     35  C   UNL A   1      35.040  32.390  30.945  1.00  0.00     0.010 A 
ATOM     36  C   UNL A   1      36.612  33.714  29.665  1.00  0.00     0.010 A 
ATOM     37  C   UNL A   1      36.366  32.736  30.639  1.00  0.00    -0.014 A 
BRANCH  37  38
ATOM     38  C   UNL A   1      37.506  32.099  31.346  1.00  0.00     0.031 A 
ATOM     39  C   UNL A   1      38.269  30.980  30.690  1.00  0.00     0.074 A 
ATOM     40  C   UNL A   1      37.806  32.475  32.605  1.00  0.00     0.049 A 
ATOM     41  N   UNL A   1      39.278  30.288  31.154  1.00  0.00    -0.248 NA
ATOM     42  C   UNL A   1      37.824  30.564  29.349  1.00  0.00     0.031 C 
ATOM     43  C   UNL A   1      37.081  33.482  33.383  1.00  0.00     0.029 A 
ATOM     44  N   UNL A   1      38.786  32.036  33.459  1.00  0.00    -0.354 N 
ATOM     45  C   UNL A   1      39.562  29.334  30.184  1.00  0.00     0.074 A 
ATOM     46  C   UNL A   1      38.598  29.513  29.120  1.00  0.00     0.031 C 
ATOM     47  C   UNL A   1      37.646  33.588  34.597  1.00  0.00     0.029 A 
ATOM     48  C   UNL A   1      38.763  32.653  34.689  1.00  0.00     0.049 A 
ATOM     49  H   UNL A   1      39.445  31.347  33.216  1.00  0.00     0.167 HD
ATOM     50  C   UNL A   1      40.559  28.418  30.159  1.00  0.00     0.034 A 
ATOM     51  C   UNL A   1      39.560  32.489  35.762  1.00  0.00     0.034 A 
ATOM     52  C   UNL A   1      41.554  28.287  31.187  1.00  0.00     0.049 A 
ATOM     53  C   UNL A   1      40.714  31.527  35.675  1.00  0.00     0.074 A 
ATOM     54  C   UNL A   1      42.660  27.455  31.215  1.00  0.00     0.029 A 
ATOM     55  N   UNL A   1      41.570  29.014  32.367  1.00  0.00    -0.354 N 
ATOM     56  N   UNL A   1      41.071  30.755  34.676  1.00  0.00    -0.248 NA
ATOM     57  C   UNL A   1      41.604  31.447  36.842  1.00  0.00     0.031 C 
ATOM     58  C   UNL A   1      43.343  27.679  32.417  1.00  0.00     0.029 A 
ATOM     59  C   UNL A   1      42.667  28.656  33.131  1.00  0.00     0.049 A 
ATOM     60  H   UNL A   1      40.899  29.686  32.625  1.00  0.00     0.167 HD
ATOM     61  C   UNL A   1      42.245  30.129  35.078  1.00  0.00     0.074 A 
ATOM     62  C   UNL A   1      42.551  30.627  36.405  1.00  0.00     0.031 C 
ATOM     63  C   UNL A   1      42.993  29.211  34.418  1.00  0.00     0.034 A 
BRANCH  50  64
ATOM     64  C   UNL A   1      40.666  27.537  28.942  1.00  0.00     0.023 A 
ATOM     65  C   UNL A   1      39.775  26.454  28.796  1.00  0.00     0.012 A 
ATOM     66  C   UNL A   1      41.606  27.800  27.928  1.00  0.00     0.148 A 
ATOM     67  C   UNL A   1      39.841  25.624  27.678  1.00  0.00     0.002 A 
ATOM     68  C   UNL A   1      41.639  26.992  26.796  1.00  0.00     0.091 A 
ATOM     69  F   UNL A   1      42.461  28.818  28.094  1.00  0.00    -0.205 F 
ATOM     70  C   UNL A   1      40.765  25.898  26.675  1.00  0.00     0.022 A 
BRANCH  68  71
ATOM     71  S   UNL A   1      42.745  27.307  25.417  1.00  0.00     0.127 S 
ATOM     72  O   UNL A   1      42.592  26.085  24.629  1.00  0.00    -0.237 OA
ATOM     73  O   UNL A   1      42.153  28.500  24.810  1.00  0.00    -0.237 OA
ATOM     74  O   UNL A   1      44.061  27.518  26.001  1.00  0.00    -0.744 OA
ENDBRANCH  68  71
ENDBRANCH  50  64
BRANCH  51  75
ATOM     75  C   UNL A   1      39.357  33.332  36.973  1.00  0.00     0.023 A 
ATOM     76  C   UNL A   1      38.467  32.894  37.974  1.00  0.00     0.012 A 
ATOM     77  C   UNL A   1      40.057  34.539  37.161  1.00  0.00     0.148 A 
ATOM     78  C   UNL A   1      38.254  33.656  39.122  1.00  0.00     0.002 A 
ATOM     79  C   UNL A   1      39.879  35.269  38.331  1.00  0.00     0.091 A 
ATOM     80  F   UNL A   1      40.890  34.947  36.192  1.00  0.00    -0.205 F 
ATOM     81  C   UNL A   1      38.967  34.838  39.306  1.00  0.00     0.022 A 
BRANCH  79  82
ATOM     82  S   UNL A   1      40.852  36.733  38.703  1.00  0.00     0.127 S 
ATOM     83  O   UNL A   1      39.815  37.708  39.027  1.00  0.00    -0.237 OA
ATOM     84  O   UNL A   1      41.655  36.286  39.843  1.00  0.00    -0.237 OA
ATOM     85  O   UNL A   1      41.626  36.999  37.498  1.00  0.00    -0.744 OA
ENDBRANCH  79  82
ENDBRANCH  51  75
BRANCH  63  86
ATOM     86  C   UNL A   1      44.236  28.702  35.100  1.00  0.00     0.023 A 
ATOM     87  C   UNL A   1      45.481  29.292  34.808  1.00  0.00     0.012 A 
ATOM     88  C   UNL A   1      44.159  27.695  36.081  1.00  0.00     0.148 A 
ATOM     89  C   UNL A   1      46.636  28.867  35.463  1.00  0.00     0.002 A 
ATOM     90  C   UNL A   1      45.308  27.308  36.762  1.00  0.00     0.091 A 
ATOM     91  F   UNL A   1      42.969  27.129  36.328  1.00  0.00    -0.205 F 
ATOM     92  C   UNL A   1      46.548  27.885  36.447  1.00  0.00     0.022 A 
BRANCH  90  93
ATOM     93  S   UNL A   1      45.259  26.117  38.107  1.00  0.00     0.127 S 
ATOM     94  O   UNL A   1      46.616  26.215  38.642  1.00  0.00    -0.237 OA
ATOM     95  O   UNL A   1      44.219  26.667  38.978  1.00  0.00    -0.237 OA
ATOM     96  O   UNL A   1      44.912  24.844  37.491  1.00  0.00    -0.744 OA
ENDBRANCH  90  93
ENDBRANCH  63  86
ENDBRANCH  37  38
ENDBRANCH  29  32
ENDBRANCH  27  28
ENDBRANCH  26  27
ENDBRANCH   1  26
TORSDOF 18
ENDMDL
