MODEL 1
REMARK VINA RESULT:     -13.3      0.000      0.000
REMARK SMILES O=C(NCCCCNC(=O)c1ccccc1NC(=O)c1cc2cc(Cl)cc(Cl)c2oc1=O)c1ccc(-c2c3nc(c(-c4cccc(S(=O)(=O)[O-])c4F)c4ccc([nH]4)c(-c4cccc(S(=O)(=O)[O-])c4F)c4nc(c(-c5cccc(S(=O)(=O)[O-])c5F)c5ccc2[nH]5)C=C4)C=C3)cc1
REMARK SMILES IDX 5 1 4 2 3 3 1 4 2 5 33 7 34 8 95 9 35 10 94 11 36 12 37 13
REMARK SMILES IDX 38 14 88 15 39 16 93 17 87 18 89 19 40 20 92 21 86 22 85 23
REMARK SMILES IDX 41 25 73 26 53 27 72 28 54 29 57 30 71 31 90 32 55 33 56 34
REMARK SMILES IDX 70 36 91 37 58 38 42 39 43 40 51 41 44 42 46 43 52 44 45 45
REMARK SMILES IDX 47 46 48 47 49 48 50 49 74 50 75 51 83 52 76 53 78 54 84 55
REMARK SMILES IDX 77 56 79 57 80 58 81 59 82 60 59 61 60 62 68 63 61 64 63 65
REMARK SMILES IDX 69 66 62 67 64 68 65 69 66 70 67 71 6 72 7 73 8 74 9 75
REMARK SMILES IDX 10 77 11 78 12 79 16 80 13 81 15 82 14 83 17 84 18 85 19 87
REMARK SMILES IDX 20 88 21 89 31 90 22 91 30 92 32 93 23 94 29 95 24 96 27 97
REMARK SMILES IDX 25 98 26 99 28 100
REMARK H PARENT 3 6 89 24 57 35 8 76 17 86
REMARK Flexibility Score: inf
ROOT
ATOM      1  C   UNL A   1      32.179  28.815  26.653  1.00  0.00     0.023 C 
ENDROOT
BRANCH   1   2
ATOM      2  C   UNL A   1      33.013  29.925  26.022  1.00  0.00     0.116 C 
BRANCH   2   3
ATOM      3  N   UNL A   1      32.780  31.232  26.615  1.00  0.00    -0.352 N 
ATOM      4  O   UNL A   1      33.093  32.985  27.991  1.00  0.00    -0.269 OA
ATOM      5  C   UNL A   1      33.541  31.947  27.513  1.00  0.00     0.251 C 
ATOM      6  H   UNL A   1      31.948  31.674  26.332  1.00  0.00     0.163 HD
BRANCH   5   7
ATOM      7  C   UNL A   1      34.870  31.446  27.936  1.00  0.00     0.039 A 
ATOM      8  C   UNL A   1      35.053  30.115  28.312  1.00  0.00     0.014 A 
ATOM      9  C   UNL A   1      35.952  32.332  27.965  1.00  0.00     0.014 A 
ATOM     10  C   UNL A   1      36.255  29.722  28.896  1.00  0.00     0.010 A 
ATOM     11  C   UNL A   1      37.186  31.911  28.473  1.00  0.00     0.010 A 
ATOM     12  C   UNL A   1      37.331  30.619  29.002  1.00  0.00    -0.014 A 
BRANCH  12  13
ATOM     13  C   UNL A   1      38.585  30.179  29.670  1.00  0.00     0.031 A 
ATOM     14  C   UNL A   1      38.916  30.620  31.073  1.00  0.00     0.074 A 
ATOM     15  C   UNL A   1      39.414  29.335  29.025  1.00  0.00     0.049 A 
ATOM     16  N   UNL A   1      39.909  30.243  31.840  1.00  0.00    -0.248 NA
ATOM     17  C   UNL A   1      38.029  31.616  31.698  1.00  0.00     0.031 C 
ATOM     18  C   UNL A   1      39.236  28.875  27.647  1.00  0.00     0.029 A 
ATOM     19  N   UNL A   1      40.555  28.699  29.445  1.00  0.00    -0.354 N 
ATOM     20  C   UNL A   1      39.793  30.983  33.011  1.00  0.00     0.074 A 
ATOM     21  C   UNL A   1      38.637  31.838  32.856  1.00  0.00     0.031 C 
ATOM     22  C   UNL A   1      40.203  27.992  27.351  1.00  0.00     0.029 A 
ATOM     23  C   UNL A   1      41.083  27.844  28.506  1.00  0.00     0.049 A 
ATOM     24  H   UNL A   1      40.958  28.842  30.331  1.00  0.00     0.167 HD
ATOM     25  C   UNL A   1      40.562  30.938  34.125  1.00  0.00     0.034 A 
ATOM     26  C   UNL A   1      42.143  27.014  28.571  1.00  0.00     0.034 A 
ATOM     27  C   UNL A   1      41.667  30.038  34.314  1.00  0.00     0.049 A 
ATOM     28  C   UNL A   1      42.928  26.924  29.850  1.00  0.00     0.074 A 
ATOM     29  C   UNL A   1      42.459  29.872  35.437  1.00  0.00     0.029 A 
ATOM     30  N   UNL A   1      42.133  29.147  33.361  1.00  0.00    -0.354 N 
ATOM     31  N   UNL A   1      42.714  27.531  30.992  1.00  0.00    -0.248 NA
ATOM     32  C   UNL A   1      44.081  26.012  29.858  1.00  0.00     0.031 C 
ATOM     33  C   UNL A   1      43.401  28.871  35.165  1.00  0.00     0.029 A 
ATOM     34  C   UNL A   1      43.198  28.423  33.870  1.00  0.00     0.049 A 
ATOM     35  H   UNL A   1      41.760  29.042  32.456  1.00  0.00     0.167 HD
ATOM     36  C   UNL A   1      43.695  27.065  31.859  1.00  0.00     0.074 A 
ATOM     37  C   UNL A   1      44.484  26.100  31.119  1.00  0.00     0.031 C 
ATOM     38  C   UNL A   1      43.936  27.424  33.143  1.00  0.00     0.034 A 
BRANCH  25  39
ATOM     39  C   UNL A   1      40.194  31.847  35.267  1.00  0.00     0.023 A 
ATOM     40  C   UNL A   1      40.790  33.121  35.350  1.00  0.00     0.012 A 
ATOM     41  C   UNL A   1      39.218  31.476  36.211  1.00  0.00     0.148 A 
ATOM     42  C   UNL A   1      40.431  34.007  36.365  1.00  0.00     0.002 A 
ATOM     43  C   UNL A   1      38.844  32.376  37.204  1.00  0.00     0.091 A 
ATOM     44  F   UNL A   1      38.682  30.249  36.135  1.00  0.00    -0.205 F 
ATOM     45  C   UNL A   1      39.451  33.639  37.285  1.00  0.00     0.022 A 
BRANCH  43  46
ATOM     46  S   UNL A   1      37.545  31.996  38.387  1.00  0.00     0.127 S 
ATOM     47  O   UNL A   1      38.222  32.240  39.659  1.00  0.00    -0.237 OA
ATOM     48  O   UNL A   1      36.510  32.974  38.052  1.00  0.00    -0.237 OA
ATOM     49  O   UNL A   1      37.171  30.615  38.117  1.00  0.00    -0.744 OA
ENDBRANCH  43  46
ENDBRANCH  25  39
BRANCH  26  50
ATOM     50  C   UNL A   1      42.449  26.127  27.415  1.00  0.00     0.023 A 
ATOM     51  C   UNL A   1      43.276  26.608  26.383  1.00  0.00     0.012 A 
ATOM     52  C   UNL A   1      41.990  24.798  27.365  1.00  0.00     0.148 A 
ATOM     53  C   UNL A   1      43.633  25.783  25.316  1.00  0.00     0.002 A 
ATOM     54  C   UNL A   1      42.393  23.965  26.327  1.00  0.00     0.091 A 
ATOM     55  F   UNL A   1      41.182  24.362  28.342  1.00  0.00    -0.205 F 
ATOM     56  C   UNL A   1      43.206  24.458  25.295  1.00  0.00     0.022 A 
BRANCH  54  57
ATOM     57  S   UNL A   1      41.993  22.214  26.334  1.00  0.00     0.127 S 
ATOM     58  O   UNL A   1      40.547  22.232  26.140  1.00  0.00    -0.237 OA
ATOM     59  O   UNL A   1      42.760  21.707  25.194  1.00  0.00    -0.237 OA
ATOM     60  O   UNL A   1      42.469  21.732  27.625  1.00  0.00    -0.744 OA
ENDBRANCH  54  57
ENDBRANCH  26  50
BRANCH  38  61
ATOM     61  C   UNL A   1      45.101  26.774  33.837  1.00  0.00     0.023 A 
ATOM     62  C   UNL A   1      46.376  27.365  33.731  1.00  0.00     0.012 A 
ATOM     63  C   UNL A   1      44.931  25.635  34.642  1.00  0.00     0.148 A 
ATOM     64  C   UNL A   1      47.469  26.817  34.400  1.00  0.00     0.002 A 
ATOM     65  C   UNL A   1      46.020  25.112  35.334  1.00  0.00     0.091 A 
ATOM     66  F   UNL A   1      43.717  25.069  34.714  1.00  0.00    -0.205 F 
ATOM     67  C   UNL A   1      47.290  25.698  35.210  1.00  0.00     0.022 A 
BRANCH  65  68
ATOM     68  S   UNL A   1      45.828  23.717  36.450  1.00  0.00     0.127 S 
ATOM     69  O   UNL A   1      45.320  22.680  35.556  1.00  0.00    -0.237 OA
ATOM     70  O   UNL A   1      47.194  23.493  36.929  1.00  0.00    -0.237 OA
ATOM     71  O   UNL A   1      44.908  24.182  37.482  1.00  0.00    -0.744 OA
ENDBRANCH  65  68
ENDBRANCH  38  61
ENDBRANCH  12  13
ENDBRANCH   5   7
ENDBRANCH   2   3
ENDBRANCH   1   2
BRANCH   1  72
ATOM     72  C   UNL A   1      32.210  27.461  25.942  1.00  0.00     0.023 C 
BRANCH  72  73
ATOM     73  C   UNL A   1      33.571  27.014  25.421  1.00  0.00     0.116 C 
BRANCH  73  74
ATOM     74  N   UNL A   1      33.793  27.337  24.019  1.00  0.00    -0.352 N 
ATOM     75  C   UNL A   1      33.380  26.664  22.896  1.00  0.00     0.253 C 
ATOM     76  H   UNL A   1      34.314  28.155  23.852  1.00  0.00     0.163 HD
ATOM     77  O   UNL A   1      33.725  27.048  21.781  1.00  0.00    -0.269 OA
BRANCH  75  78
ATOM     78  C   UNL A   1      32.530  25.460  23.018  1.00  0.00     0.063 A 
ATOM     79  C   UNL A   1      31.165  25.704  23.227  1.00  0.00     0.016 A 
ATOM     80  C   UNL A   1      33.041  24.142  22.949  1.00  0.00     0.054 A 
ATOM     81  C   UNL A   1      30.277  24.641  23.323  1.00  0.00     0.001 A 
ATOM     82  C   UNL A   1      32.126  23.091  23.035  1.00  0.00     0.027 A 
ATOM     83  C   UNL A   1      30.758  23.339  23.219  1.00  0.00     0.002 A 
BRANCH  80  84
ATOM     84  N   UNL A   1      34.432  23.975  22.777  1.00  0.00    -0.321 N 
ATOM     85  C   UNL A   1      35.466  23.548  23.552  1.00  0.00     0.263 C 
ATOM     86  H   UNL A   1      34.729  24.231  21.873  1.00  0.00     0.170 HD
ATOM     87  O   UNL A   1      36.550  23.348  23.000  1.00  0.00    -0.269 OA
BRANCH  85  88
ATOM     88  C   UNL A   1      35.295  23.341  25.014  1.00  0.00     0.126 A 
ATOM     89  C   UNL A   1      34.371  22.439  25.416  1.00  0.00     0.033 A 
ATOM     90  C   UNL A   1      36.589  23.094  25.709  1.00  0.00     0.349 A 
ATOM     91  C   UNL A   1      34.784  21.038  25.176  1.00  0.00     0.021 A 
ATOM     92  O   UNL A   1      37.056  21.779  25.604  1.00  0.00    -0.421 OA
ATOM     93  O   UNL A   1      37.186  23.973  26.303  1.00  0.00    -0.245 OA
ATOM     94  C   UNL A   1      33.874  20.023  24.897  1.00  0.00     0.032 A 
ATOM     95  C   UNL A   1      36.157  20.755  25.220  1.00  0.00     0.157 A 
ATOM     96  C   UNL A   1      34.353  18.739  24.627  1.00  0.00     0.043 A 
ATOM     97  C   UNL A   1      36.634  19.478  24.929  1.00  0.00     0.085 A 
ATOM     98  Cl  UNL A   1      33.235  17.471  24.304  1.00  0.00    -0.084 Cl
ATOM     99  C   UNL A   1      35.724  18.465  24.625  1.00  0.00     0.045 A 
ATOM    100  Cl  UNL A   1      38.317  19.124  24.941  1.00  0.00    -0.080 Cl
ENDBRANCH  85  88
ENDBRANCH  80  84
ENDBRANCH  75  78
ENDBRANCH  73  74
ENDBRANCH  72  73
ENDBRANCH   1  72
TORSDOF 16
ENDMDL
MODEL 2
REMARK VINA RESULT:     -13.2      5.402     10.361
REMARK SMILES O=C(NCCCCNC(=O)c1ccccc1NC(=O)c1cc2cc(Cl)cc(Cl)c2oc1=O)c1ccc(-c2c3nc(c(-c4cccc(S(=O)(=O)[O-])c4F)c4ccc([nH]4)c(-c4cccc(S(=O)(=O)[O-])c4F)c4nc(c(-c5cccc(S(=O)(=O)[O-])c5F)c5ccc2[nH]5)C=C4)C=C3)cc1
REMARK SMILES IDX 5 1 4 2 3 3 1 4 2 5 33 7 34 8 95 9 35 10 94 11 36 12 37 13
REMARK SMILES IDX 38 14 88 15 39 16 93 17 87 18 89 19 40 20 92 21 86 22 85 23
REMARK SMILES IDX 41 25 73 26 53 27 72 28 54 29 57 30 71 31 90 32 55 33 56 34
REMARK SMILES IDX 70 36 91 37 58 38 42 39 43 40 51 41 44 42 46 43 52 44 45 45
REMARK SMILES IDX 47 46 48 47 49 48 50 49 74 50 75 51 83 52 76 53 78 54 84 55
REMARK SMILES IDX 77 56 79 57 80 58 81 59 82 60 59 61 60 62 68 63 61 64 63 65
REMARK SMILES IDX 69 66 62 67 64 68 65 69 66 70 67 71 6 72 7 73 8 74 9 75
REMARK SMILES IDX 10 77 11 78 12 79 16 80 13 81 15 82 14 83 17 84 18 85 19 87
REMARK SMILES IDX 20 88 21 89 31 90 22 91 30 92 32 93 23 94 29 95 24 96 27 97
REMARK SMILES IDX 25 98 26 99 28 100
REMARK H PARENT 3 6 89 24 57 35 8 76 17 86
REMARK Flexibility Score: inf
ROOT
ATOM      1  C   UNL A   1      36.199  22.412  24.298  1.00  0.00     0.023 C 
ENDROOT
BRANCH   1   2
ATOM      2  C   UNL A   1      36.820  22.247  25.682  1.00  0.00     0.116 C 
BRANCH   2   3
ATOM      3  N   UNL A   1      37.920  21.297  25.711  1.00  0.00    -0.352 N 
ATOM      4  O   UNL A   1      40.032  20.556  25.944  1.00  0.00    -0.269 OA
ATOM      5  C   UNL A   1      39.223  21.461  26.126  1.00  0.00     0.251 C 
ATOM      6  H   UNL A   1      37.700  20.395  25.384  1.00  0.00     0.163 HD
BRANCH   5   7
ATOM      7  C   UNL A   1      39.658  22.735  26.745  1.00  0.00     0.039 A 
ATOM      8  C   UNL A   1      39.093  23.953  26.363  1.00  0.00     0.014 A 
ATOM      9  C   UNL A   1      40.661  22.709  27.719  1.00  0.00     0.014 A 
ATOM     10  C   UNL A   1      39.658  25.146  26.808  1.00  0.00     0.010 A 
ATOM     11  C   UNL A   1      41.169  23.909  28.230  1.00  0.00     0.010 A 
ATOM     12  C   UNL A   1      40.716  25.139  27.732  1.00  0.00    -0.014 A 
BRANCH  12  13
ATOM     13  C   UNL A   1      41.324  26.431  28.153  1.00  0.00     0.031 A 
ATOM     14  C   UNL A   1      42.737  26.788  27.767  1.00  0.00     0.074 A 
ATOM     15  C   UNL A   1      40.582  27.312  28.851  1.00  0.00     0.049 A 
ATOM     16  N   UNL A   1      43.380  27.913  27.957  1.00  0.00    -0.248 NA
ATOM     17  C   UNL A   1      43.537  25.754  27.088  1.00  0.00     0.031 C 
ATOM     18  C   UNL A   1      39.221  27.068  29.332  1.00  0.00     0.029 A 
ATOM     19  N   UNL A   1      40.855  28.594  29.260  1.00  0.00    -0.354 N 
ATOM     20  C   UNL A   1      44.665  27.709  27.466  1.00  0.00     0.074 A 
ATOM     21  C   UNL A   1      44.716  26.350  26.974  1.00  0.00     0.031 C 
ATOM     22  C   UNL A   1      38.759  28.179  29.925  1.00  0.00     0.029 A 
ATOM     23  C   UNL A   1      39.796  29.205  29.891  1.00  0.00     0.049 A 
ATOM     24  H   UNL A   1      41.724  29.032  29.115  1.00  0.00     0.167 HD
ATOM     25  C   UNL A   1      45.701  28.580  27.407  1.00  0.00     0.034 A 
ATOM     26  C   UNL A   1      39.665  30.458  30.370  1.00  0.00     0.034 A 
ATOM     27  C   UNL A   1      45.633  29.953  27.827  1.00  0.00     0.049 A 
ATOM     28  C   UNL A   1      40.802  31.427  30.214  1.00  0.00     0.074 A 
ATOM     29  C   UNL A   1      46.611  30.929  27.737  1.00  0.00     0.029 A 
ATOM     30  N   UNL A   1      44.525  30.549  28.406  1.00  0.00    -0.354 N 
ATOM     31  N   UNL A   1      41.958  31.253  29.621  1.00  0.00    -0.248 NA
ATOM     32  C   UNL A   1      40.606  32.775  30.768  1.00  0.00     0.031 C 
ATOM     33  C   UNL A   1      46.090  32.120  28.257  1.00  0.00     0.029 A 
ATOM     34  C   UNL A   1      44.792  31.881  28.677  1.00  0.00     0.049 A 
ATOM     35  H   UNL A   1      43.674  30.094  28.597  1.00  0.00     0.167 HD
ATOM     36  C   UNL A   1      42.620  32.471  29.715  1.00  0.00     0.074 A 
ATOM     37  C   UNL A   1      41.724  33.384  30.394  1.00  0.00     0.031 C 
ATOM     38  C   UNL A   1      43.869  32.794  29.299  1.00  0.00     0.034 A 
BRANCH  25  39
ATOM     39  C   UNL A   1      46.989  28.094  26.799  1.00  0.00     0.023 A 
ATOM     40  C   UNL A   1      48.018  27.637  27.647  1.00  0.00     0.012 A 
ATOM     41  C   UNL A   1      47.160  28.023  25.404  1.00  0.00     0.148 A 
ATOM     42  C   UNL A   1      49.203  27.130  27.115  1.00  0.00     0.002 A 
ATOM     43  C   UNL A   1      48.333  27.490  24.880  1.00  0.00     0.091 A 
ATOM     44  F   UNL A   1      46.183  28.490  24.612  1.00  0.00    -0.205 F 
ATOM     45  C   UNL A   1      49.357  27.048  25.733  1.00  0.00     0.022 A 
BRANCH  43  46
ATOM     46  S   UNL A   1      48.577  27.295  23.110  1.00  0.00     0.127 S 
ATOM     47  O   UNL A   1      49.987  27.647  22.964  1.00  0.00    -0.237 OA
ATOM     48  O   UNL A   1      48.280  25.878  22.900  1.00  0.00    -0.237 OA
ATOM     49  O   UNL A   1      47.624  28.203  22.487  1.00  0.00    -0.744 OA
ENDBRANCH  43  46
ENDBRANCH  25  39
BRANCH  26  50
ATOM     50  C   UNL A   1      38.360  30.886  30.945  1.00  0.00     0.023 A 
ATOM     51  C   UNL A   1      38.145  30.751  32.329  1.00  0.00     0.012 A 
ATOM     52  C   UNL A   1      37.367  31.488  30.151  1.00  0.00     0.148 A 
ATOM     53  C   UNL A   1      36.958  31.199  32.911  1.00  0.00     0.002 A 
ATOM     54  C   UNL A   1      36.210  31.981  30.745  1.00  0.00     0.091 A 
ATOM     55  F   UNL A   1      37.576  31.586  28.830  1.00  0.00    -0.205 F 
ATOM     56  C   UNL A   1      35.997  31.828  32.123  1.00  0.00     0.022 A 
BRANCH  54  57
ATOM     57  S   UNL A   1      35.014  32.930  29.798  1.00  0.00     0.127 S 
ATOM     58  O   UNL A   1      35.850  33.973  29.212  1.00  0.00    -0.237 OA
ATOM     59  O   UNL A   1      34.505  31.942  28.846  1.00  0.00    -0.237 OA
ATOM     60  O   UNL A   1      34.028  33.365  30.780  1.00  0.00    -0.744 OA
ENDBRANCH  54  57
ENDBRANCH  26  50
BRANCH  38  61
ATOM     61  C   UNL A   1      44.347  34.194  29.567  1.00  0.00     0.023 A 
ATOM     62  C   UNL A   1      44.951  34.486  30.806  1.00  0.00     0.012 A 
ATOM     63  C   UNL A   1      44.267  35.196  28.584  1.00  0.00     0.148 A 
ATOM     64  C   UNL A   1      45.449  35.761  31.069  1.00  0.00     0.002 A 
ATOM     65  C   UNL A   1      44.795  36.458  28.841  1.00  0.00     0.091 A 
ATOM     66  F   UNL A   1      43.667  34.912  27.418  1.00  0.00    -0.205 F 
ATOM     67  C   UNL A   1      45.381  36.744  30.084  1.00  0.00     0.022 A 
BRANCH  65  68
ATOM     68  S   UNL A   1      44.802  37.737  27.580  1.00  0.00     0.127 S 
ATOM     69  O   UNL A   1      43.379  37.877  27.282  1.00  0.00    -0.237 OA
ATOM     70  O   UNL A   1      45.392  38.880  28.278  1.00  0.00    -0.237 OA
ATOM     71  O   UNL A   1      45.633  37.205  26.506  1.00  0.00    -0.744 OA
ENDBRANCH  65  68
ENDBRANCH  38  61
ENDBRANCH  12  13
ENDBRANCH   5   7
ENDBRANCH   2   3
ENDBRANCH   1   2
BRANCH   1  72
ATOM     72  C   UNL A   1      35.214  23.571  24.135  1.00  0.00     0.023 C 
BRANCH  72  73
ATOM     73  C   UNL A   1      34.950  24.401  25.387  1.00  0.00     0.116 C 
BRANCH  73  74
ATOM     74  N   UNL A   1      34.206  23.686  26.414  1.00  0.00    -0.352 N 
ATOM     75  C   UNL A   1      32.858  23.443  26.500  1.00  0.00     0.253 C 
ATOM     76  H   UNL A   1      34.747  23.325  27.152  1.00  0.00     0.163 HD
ATOM     77  O   UNL A   1      32.392  22.878  27.487  1.00  0.00    -0.269 OA
BRANCH  75  78
ATOM     78  C   UNL A   1      31.951  23.872  25.414  1.00  0.00     0.063 A 
ATOM     79  C   UNL A   1      31.892  23.019  24.303  1.00  0.00     0.016 A 
ATOM     80  C   UNL A   1      31.198  25.070  25.465  1.00  0.00     0.054 A 
ATOM     81  C   UNL A   1      31.046  23.317  23.244  1.00  0.00     0.001 A 
ATOM     82  C   UNL A   1      30.345  25.340  24.392  1.00  0.00     0.027 A 
ATOM     83  C   UNL A   1      30.270  24.471  23.294  1.00  0.00     0.002 A 
BRANCH  80  84
ATOM     84  N   UNL A   1      31.340  25.899  26.599  1.00  0.00    -0.321 N 
ATOM     85  C   UNL A   1      31.991  27.060  26.882  1.00  0.00     0.263 C 
ATOM     86  H   UNL A   1      30.846  25.552  27.377  1.00  0.00     0.170 HD
ATOM     87  O   UNL A   1      31.733  27.614  27.952  1.00  0.00    -0.269 OA
BRANCH  85  88
ATOM     88  C   UNL A   1      32.986  27.631  25.938  1.00  0.00     0.126 A 
ATOM     89  C   UNL A   1      32.597  27.828  24.658  1.00  0.00     0.033 A 
ATOM     90  C   UNL A   1      33.634  28.862  26.471  1.00  0.00     0.349 A 
ATOM     91  C   UNL A   1      31.663  28.966  24.504  1.00  0.00     0.021 A 
ATOM     92  O   UNL A   1      32.869  30.024  26.326  1.00  0.00    -0.421 OA
ATOM     93  O   UNL A   1      34.732  28.842  26.998  1.00  0.00    -0.245 OA
ATOM     94  C   UNL A   1      30.674  29.001  23.526  1.00  0.00     0.032 A 
ATOM     95  C   UNL A   1      31.794  30.033  25.405  1.00  0.00     0.157 A 
ATOM     96  C   UNL A   1      29.799  30.088  23.485  1.00  0.00     0.043 A 
ATOM     97  C   UNL A   1      30.906  31.107  25.376  1.00  0.00     0.085 A 
ATOM     98  Cl  UNL A   1      28.587  30.153  22.265  1.00  0.00    -0.084 Cl
ATOM     99  C   UNL A   1      29.898  31.131  24.412  1.00  0.00     0.045 A 
ATOM    100  Cl  UNL A   1      31.029  32.404  26.501  1.00  0.00    -0.080 Cl
ENDBRANCH  85  88
ENDBRANCH  80  84
ENDBRANCH  75  78
ENDBRANCH  73  74
ENDBRANCH  72  73
ENDBRANCH   1  72
TORSDOF 16
ENDMDL
MODEL 3
REMARK VINA RESULT:     -12.8      2.497      8.066
REMARK SMILES O=C(NCCCCNC(=O)c1ccccc1NC(=O)c1cc2cc(Cl)cc(Cl)c2oc1=O)c1ccc(-c2c3nc(c(-c4cccc(S(=O)(=O)[O-])c4F)c4ccc([nH]4)c(-c4cccc(S(=O)(=O)[O-])c4F)c4nc(c(-c5cccc(S(=O)(=O)[O-])c5F)c5ccc2[nH]5)C=C4)C=C3)cc1
REMARK SMILES IDX 5 1 4 2 3 3 1 4 2 5 33 7 34 8 95 9 35 10 94 11 36 12 37 13
REMARK SMILES IDX 38 14 88 15 39 16 93 17 87 18 89 19 40 20 92 21 86 22 85 23
REMARK SMILES IDX 41 25 73 26 53 27 72 28 54 29 57 30 71 31 90 32 55 33 56 34
REMARK SMILES IDX 70 36 91 37 58 38 42 39 43 40 51 41 44 42 46 43 52 44 45 45
REMARK SMILES IDX 47 46 48 47 49 48 50 49 74 50 75 51 83 52 76 53 78 54 84 55
REMARK SMILES IDX 77 56 79 57 80 58 81 59 82 60 59 61 60 62 68 63 61 64 63 65
REMARK SMILES IDX 69 66 62 67 64 68 65 69 66 70 67 71 6 72 7 73 8 74 9 75
REMARK SMILES IDX 10 77 11 78 12 79 16 80 13 81 15 82 14 83 17 84 18 85 19 87
REMARK SMILES IDX 20 88 21 89 31 90 22 91 30 92 32 93 23 94 29 95 24 96 27 97
REMARK SMILES IDX 25 98 26 99 28 100
REMARK H PARENT 3 6 89 24 57 35 8 76 17 86
REMARK Flexibility Score: inf
ROOT
ATOM      1  C   UNL A   1      31.461  32.072  26.922  1.00  0.00     0.023 C 
ENDROOT
BRANCH   1   2
ATOM      2  C   UNL A   1      32.754  32.719  27.411  1.00  0.00     0.116 C 
BRANCH   2   3
ATOM      3  N   UNL A   1      32.636  34.150  27.634  1.00  0.00    -0.352 N 
ATOM      4  O   UNL A   1      32.938  36.137  28.647  1.00  0.00    -0.269 OA
ATOM      5  C   UNL A   1      33.284  34.964  28.535  1.00  0.00     0.251 C 
ATOM      6  H   UNL A   1      31.991  34.610  27.049  1.00  0.00     0.163 HD
BRANCH   5   7
ATOM      7  C   UNL A   1      34.359  34.421  29.398  1.00  0.00     0.039 A 
ATOM      8  C   UNL A   1      35.702  34.530  29.033  1.00  0.00     0.014 A 
ATOM      9  C   UNL A   1      34.013  33.780  30.592  1.00  0.00     0.014 A 
ATOM     10  C   UNL A   1      36.671  33.837  29.754  1.00  0.00     0.010 A 
ATOM     11  C   UNL A   1      35.002  33.157  31.362  1.00  0.00     0.010 A 
ATOM     12  C   UNL A   1      36.331  33.126  30.917  1.00  0.00    -0.014 A 
BRANCH  12  13
ATOM     13  C   UNL A   1      37.385  32.362  31.639  1.00  0.00     0.031 A 
ATOM     14  C   UNL A   1      38.141  31.248  30.960  1.00  0.00     0.074 A 
ATOM     15  C   UNL A   1      37.698  32.704  32.904  1.00  0.00     0.049 A 
ATOM     16  N   UNL A   1      39.159  30.556  31.406  1.00  0.00    -0.248 NA
ATOM     17  C   UNL A   1      37.697  30.849  29.613  1.00  0.00     0.031 C 
ATOM     18  C   UNL A   1      37.007  33.727  33.691  1.00  0.00     0.029 A 
ATOM     19  N   UNL A   1      38.684  32.247  33.741  1.00  0.00    -0.354 N 
ATOM     20  C   UNL A   1      39.448  29.618  30.422  1.00  0.00     0.074 A 
ATOM     21  C   UNL A   1      38.494  29.821  29.354  1.00  0.00     0.031 C 
ATOM     22  C   UNL A   1      37.622  33.857  34.877  1.00  0.00     0.029 A 
ATOM     23  C   UNL A   1      38.730  32.910  34.946  1.00  0.00     0.049 A 
ATOM     24  H   UNL A   1      39.298  31.516  33.504  1.00  0.00     0.167 HD
ATOM     25  C   UNL A   1      40.433  28.688  30.397  1.00  0.00     0.034 A 
ATOM     26  C   UNL A   1      39.583  32.787  35.983  1.00  0.00     0.034 A 
ATOM     27  C   UNL A   1      41.429  28.530  31.421  1.00  0.00     0.049 A 
ATOM     28  C   UNL A   1      40.716  31.806  35.890  1.00  0.00     0.074 A 
ATOM     29  C   UNL A   1      42.508  27.663  31.446  1.00  0.00     0.029 A 
ATOM     30  N   UNL A   1      41.476  29.261  32.597  1.00  0.00    -0.354 N 
ATOM     31  N   UNL A   1      41.052  31.027  34.891  1.00  0.00    -0.248 NA
ATOM     32  C   UNL A   1      41.605  31.707  37.057  1.00  0.00     0.031 C 
ATOM     33  C   UNL A   1      43.213  27.875  32.637  1.00  0.00     0.029 A 
ATOM     34  C   UNL A   1      42.567  28.868  33.354  1.00  0.00     0.049 A 
ATOM     35  H   UNL A   1      40.830  29.956  32.856  1.00  0.00     0.167 HD
ATOM     36  C   UNL A   1      42.199  30.358  35.300  1.00  0.00     0.074 A 
ATOM     37  C   UNL A   1      42.518  30.846  36.627  1.00  0.00     0.031 C 
ATOM     38  C   UNL A   1      42.907  29.405  34.646  1.00  0.00     0.034 A 
BRANCH  25  39
ATOM     39  C   UNL A   1      40.529  27.804  29.182  1.00  0.00     0.023 A 
ATOM     40  C   UNL A   1      39.667  26.694  29.071  1.00  0.00     0.012 A 
ATOM     41  C   UNL A   1      41.412  28.103  28.127  1.00  0.00     0.148 A 
ATOM     42  C   UNL A   1      39.693  25.887  27.935  1.00  0.00     0.002 A 
ATOM     43  C   UNL A   1      41.413  27.310  26.985  1.00  0.00     0.091 A 
ATOM     44  F   UNL A   1      42.246  29.145  28.262  1.00  0.00    -0.205 F 
ATOM     45  C   UNL A   1      40.558  26.200  26.888  1.00  0.00     0.022 A 
BRANCH  43  46
ATOM     46  S   UNL A   1      42.455  27.687  25.570  1.00  0.00     0.127 S 
ATOM     47  O   UNL A   1      43.781  27.735  26.182  1.00  0.00    -0.237 OA
ATOM     48  O   UNL A   1      42.232  26.538  24.692  1.00  0.00    -0.237 OA
ATOM     49  O   UNL A   1      41.949  28.947  25.044  1.00  0.00    -0.744 OA
ENDBRANCH  43  46
ENDBRANCH  25  39
BRANCH  26  50
ATOM     50  C   UNL A   1      39.448  33.702  37.151  1.00  0.00     0.023 A 
ATOM     51  C   UNL A   1      39.880  35.035  37.029  1.00  0.00     0.012 A 
ATOM     52  C   UNL A   1      38.836  33.284  38.347  1.00  0.00     0.148 A 
ATOM     53  C   UNL A   1      39.713  35.935  38.082  1.00  0.00     0.002 A 
ATOM     54  C   UNL A   1      38.623  34.200  39.372  1.00  0.00     0.091 A 
ATOM     55  F   UNL A   1      38.453  32.004  38.457  1.00  0.00    -0.205 F 
ATOM     56  C   UNL A   1      39.071  35.523  39.247  1.00  0.00     0.022 A 
BRANCH  54  57
ATOM     57  S   UNL A   1      37.669  33.756  40.828  1.00  0.00     0.127 S 
ATOM     58  O   UNL A   1      36.484  33.142  40.238  1.00  0.00    -0.237 OA
ATOM     59  O   UNL A   1      38.562  32.827  41.523  1.00  0.00    -0.237 OA
ATOM     60  O   UNL A   1      37.465  35.016  41.532  1.00  0.00    -0.744 OA
ENDBRANCH  54  57
ENDBRANCH  26  50
BRANCH  38  61
ATOM     61  C   UNL A   1      44.099  28.821  35.352  1.00  0.00     0.023 A 
ATOM     62  C   UNL A   1      45.373  29.373  35.113  1.00  0.00     0.012 A 
ATOM     63  C   UNL A   1      43.959  27.787  36.295  1.00  0.00     0.148 A 
ATOM     64  C   UNL A   1      46.493  28.890  35.787  1.00  0.00     0.002 A 
ATOM     65  C   UNL A   1      45.077  27.331  36.988  1.00  0.00     0.091 A 
ATOM     66  F   UNL A   1      42.744  27.254  36.495  1.00  0.00    -0.205 F 
ATOM     67  C   UNL A   1      46.345  27.876  36.732  1.00  0.00     0.022 A 
BRANCH  65  68
ATOM     68  S   UNL A   1      44.928  26.081  38.270  1.00  0.00     0.127 S 
ATOM     69  O   UNL A   1      46.318  25.906  38.685  1.00  0.00    -0.237 OA
ATOM     70  O   UNL A   1      44.074  26.734  39.264  1.00  0.00    -0.237 OA
ATOM     71  O   UNL A   1      44.305  24.938  37.613  1.00  0.00    -0.744 OA
ENDBRANCH  65  68
ENDBRANCH  38  61
ENDBRANCH  12  13
ENDBRANCH   5   7
ENDBRANCH   2   3
ENDBRANCH   1   2
BRANCH   1  72
ATOM     72  C   UNL A   1      31.619  30.868  25.992  1.00  0.00     0.023 C 
BRANCH  72  73
ATOM     73  C   UNL A   1      32.789  29.939  26.299  1.00  0.00     0.116 C 
BRANCH  73  74
ATOM     74  N   UNL A   1      33.550  29.553  25.120  1.00  0.00    -0.352 N 
ATOM     75  C   UNL A   1      33.167  28.781  24.052  1.00  0.00     0.253 C 
ATOM     76  H   UNL A   1      34.473  29.894  25.084  1.00  0.00     0.163 HD
ATOM     77  O   UNL A   1      33.975  28.496  23.172  1.00  0.00    -0.269 OA
BRANCH  75  78
ATOM     78  C   UNL A   1      31.782  28.271  23.958  1.00  0.00     0.063 A 
ATOM     79  C   UNL A   1      30.882  29.093  23.265  1.00  0.00     0.016 A 
ATOM     80  C   UNL A   1      31.368  27.048  24.538  1.00  0.00     0.054 A 
ATOM     81  C   UNL A   1      29.565  28.689  23.094  1.00  0.00     0.001 A 
ATOM     82  C   UNL A   1      30.041  26.659  24.341  1.00  0.00     0.027 A 
ATOM     83  C   UNL A   1      29.150  27.471  23.624  1.00  0.00     0.002 A 
BRANCH  80  84
ATOM     84  N   UNL A   1      32.321  26.294  25.256  1.00  0.00    -0.321 N 
ATOM     85  C   UNL A   1      33.302  25.406  24.939  1.00  0.00     0.263 C 
ATOM     86  H   UNL A   1      32.262  26.449  26.227  1.00  0.00     0.170 HD
ATOM     87  O   UNL A   1      34.088  25.079  25.830  1.00  0.00    -0.269 OA
BRANCH  85  88
ATOM     88  C   UNL A   1      33.413  24.843  23.568  1.00  0.00     0.126 A 
ATOM     89  C   UNL A   1      34.607  24.327  23.196  1.00  0.00     0.033 A 
ATOM     90  C   UNL A   1      32.320  23.880  23.259  1.00  0.00     0.349 A 
ATOM     91  C   UNL A   1      34.909  23.034  23.849  1.00  0.00     0.021 A 
ATOM     92  O   UNL A   1      32.522  22.595  23.774  1.00  0.00    -0.421 OA
ATOM     93  O   UNL A   1      31.333  24.200  22.621  1.00  0.00    -0.245 OA
ATOM     94  C   UNL A   1      36.205  22.628  24.152  1.00  0.00     0.032 A 
ATOM     95  C   UNL A   1      33.823  22.210  24.181  1.00  0.00     0.157 A 
ATOM     96  C   UNL A   1      36.398  21.417  24.819  1.00  0.00     0.043 A 
ATOM     97  C   UNL A   1      34.016  21.012  24.866  1.00  0.00     0.085 A 
ATOM     98  Cl  UNL A   1      37.998  20.894  25.177  1.00  0.00    -0.084 Cl
ATOM     99  C   UNL A   1      35.314  20.616  25.192  1.00  0.00     0.045 A 
ATOM    100  Cl  UNL A   1      32.691  20.010  25.315  1.00  0.00    -0.080 Cl
ENDBRANCH  85  88
ENDBRANCH  80  84
ENDBRANCH  75  78
ENDBRANCH  73  74
ENDBRANCH  72  73
ENDBRANCH   1  72
TORSDOF 16
ENDMDL
