MODEL 1
REMARK VINA RESULT:     -12.4      0.000      0.000
REMARK SMILES CCc1noc(C)c1C(=O)Nc1cc(Cl)ccc1C(=O)NCCCCNC(=O)c1ccc(-c2c3nc(c(-c4cccc(S(=O)(=O)[O-])c4F)c4ccc([nH]4)c(-c4cccc(S(=O)(=O)[O-])c4F)c4nc(c(-c5cccc(S(=O)(=O)[O-])c5F)c5ccc2[nH]5)C=C4)C=C3)cc1
REMARK SMILES IDX 23 1 22 2 21 3 19 4 20 5 18 7 12 8 13 9 14 10 17 11 15 12
REMARK SMILES IDX 16 13 11 14 9 15 10 16 8 18 3 19 4 20 5 21 6 22 7 23 2 24
REMARK SMILES IDX 1 25 24 26 25 27 26 28 27 29 28 31 29 32 30 33 91 34 31 35
REMARK SMILES IDX 90 36 32 37 33 38 34 39 84 40 35 41 89 42 83 43 85 44 36 45
REMARK SMILES IDX 88 46 82 47 81 48 37 50 69 51 49 52 68 53 50 54 53 55 67 56
REMARK SMILES IDX 86 57 51 58 52 59 66 61 87 62 54 63 38 64 39 65 47 66 40 67
REMARK SMILES IDX 42 68 48 69 41 70 43 71 44 72 45 73 46 74 70 75 71 76 79 77
REMARK SMILES IDX 72 78 74 79 80 80 73 81 75 82 76 83 77 84 78 85 55 86 56 87
REMARK SMILES IDX 64 88 57 89 59 90 65 91 58 92 60 93 61 94 62 95 63 96
REMARK H PARENT 21 6 11 17 26 30 85 49 53 60
REMARK Flexibility Score: inf
ROOT
ATOM      1  C   UNL A   1      34.663  20.641  24.856  1.00  0.00     0.023 C 
ENDROOT
BRANCH   1   2
ATOM      2  C   UNL A   1      33.316  20.607  25.569  1.00  0.00     0.116 C 
BRANCH   2   3
ATOM      3  N   UNL A   1      33.273  21.116  26.918  1.00  0.00    -0.352 N 
ATOM      4  C   UNL A   1      32.700  22.231  27.484  1.00  0.00     0.253 C 
ATOM      5  O   UNL A   1      32.824  22.321  28.710  1.00  0.00    -0.269 OA
ATOM      6  H   UNL A   1      33.751  20.550  27.567  1.00  0.00     0.163 HD
BRANCH   4   7
ATOM      7  C   UNL A   1      31.982  23.363  26.785  1.00  0.00     0.063 A 
ATOM      8  C   UNL A   1      32.497  24.459  26.062  1.00  0.00     0.055 A 
ATOM      9  C   UNL A   1      31.634  25.367  25.413  1.00  0.00     0.047 A 
ATOM     10  C   UNL A   1      30.253  25.242  25.528  1.00  0.00     0.043 A 
ATOM     11  C   UNL A   1      30.571  23.294  26.904  1.00  0.00     0.017 A 
ATOM     12  Cl  UNL A   1      29.221  26.365  24.737  1.00  0.00    -0.084 Cl
ATOM     13  C   UNL A   1      29.716  24.219  26.293  1.00  0.00     0.021 A 
BRANCH   8  14
ATOM     14  N   UNL A   1      33.848  24.632  25.803  1.00  0.00    -0.321 N 
ATOM     15  C   UNL A   1      34.563  24.629  24.623  1.00  0.00     0.261 C 
ATOM     16  O   UNL A   1      35.788  24.601  24.774  1.00  0.00    -0.269 OA
ATOM     17  H   UNL A   1      34.396  24.783  26.608  1.00  0.00     0.170 HD
BRANCH  15  18
ATOM     18  C   UNL A   1      33.989  24.796  23.281  1.00  0.00     0.105 A 
ATOM     19  C   UNL A   1      33.786  26.093  22.669  1.00  0.00     0.096 A 
ATOM     20  N   UNL A   1      33.321  25.986  21.423  1.00  0.00    -0.084 NA
ATOM     21  O   UNL A   1      33.083  24.659  21.229  1.00  0.00    -0.361 OA
ATOM     22  C   UNL A   1      33.394  23.952  22.350  1.00  0.00     0.146 A 
ATOM     23  C   UNL A   1      32.957  22.548  22.224  1.00  0.00     0.092 C 
BRANCH  19  24
ATOM     24  C   UNL A   1      33.956  27.450  23.287  1.00  0.00     0.057 C 
ATOM     25  C   UNL A   1      34.049  28.602  22.291  1.00  0.00     0.011 C 
ENDBRANCH  19  24
ENDBRANCH  15  18
ENDBRANCH   8  14
ENDBRANCH   4   7
ENDBRANCH   2   3
ENDBRANCH   1   2
BRANCH   1  26
ATOM     26  C   UNL A   1      35.842  21.250  25.611  1.00  0.00     0.023 C 
BRANCH  26  27
ATOM     27  C   UNL A   1      37.155  21.404  24.847  1.00  0.00     0.116 C 
BRANCH  27  28
ATOM     28  N   UNL A   1      38.168  20.406  25.170  1.00  0.00    -0.352 N 
ATOM     29  C   UNL A   1      39.315  20.499  25.927  1.00  0.00     0.251 C 
ATOM     30  H   UNL A   1      38.003  19.516  24.783  1.00  0.00     0.163 HD
ATOM     31  O   UNL A   1      40.055  19.522  26.030  1.00  0.00    -0.269 OA
BRANCH  29  32
ATOM     32  C   UNL A   1      39.699  21.776  26.570  1.00  0.00     0.039 A 
ATOM     33  C   UNL A   1      40.673  21.754  27.574  1.00  0.00     0.014 A 
ATOM     34  C   UNL A   1      39.138  22.989  26.174  1.00  0.00     0.014 A 
ATOM     35  C   UNL A   1      41.178  22.956  28.080  1.00  0.00     0.010 A 
ATOM     36  C   UNL A   1      39.703  24.184  26.612  1.00  0.00     0.010 A 
ATOM     37  C   UNL A   1      40.749  24.182  27.548  1.00  0.00    -0.014 A 
BRANCH  37  38
ATOM     38  C   UNL A   1      41.423  25.464  27.890  1.00  0.00     0.031 A 
ATOM     39  C   UNL A   1      40.667  26.566  28.584  1.00  0.00     0.074 A 
ATOM     40  C   UNL A   1      42.677  25.691  27.448  1.00  0.00     0.049 A 
ATOM     41  N   UNL A   1      41.044  27.791  28.836  1.00  0.00    -0.248 NA
ATOM     42  C   UNL A   1      39.295  26.258  29.021  1.00  0.00     0.031 C 
ATOM     43  C   UNL A   1      43.491  24.740  26.684  1.00  0.00     0.029 A 
ATOM     44  N   UNL A   1      43.476  26.805  27.539  1.00  0.00    -0.354 N 
ATOM     45  C   UNL A   1      39.945  28.416  29.416  1.00  0.00     0.074 A 
ATOM     46  C   UNL A   1      38.878  27.439  29.455  1.00  0.00     0.031 C 
ATOM     47  C   UNL A   1      44.666  25.311  26.377  1.00  0.00     0.029 A 
ATOM     48  C   UNL A   1      44.682  26.677  26.886  1.00  0.00     0.049 A 
ATOM     49  H   UNL A   1      43.212  27.618  28.028  1.00  0.00     0.167 HD
ATOM     50  C   UNL A   1      39.843  29.677  29.898  1.00  0.00     0.034 A 
ATOM     51  C   UNL A   1      45.680  27.562  26.700  1.00  0.00     0.034 A 
ATOM     52  C   UNL A   1      40.923  30.626  29.917  1.00  0.00     0.049 A 
ATOM     53  C   UNL A   1      45.558  28.941  27.289  1.00  0.00     0.074 A 
ATOM     54  C   UNL A   1      40.951  31.885  30.492  1.00  0.00     0.029 A 
ATOM     55  N   UNL A   1      42.164  30.424  29.335  1.00  0.00    -0.354 N 
ATOM     56  N   UNL A   1      44.575  29.454  27.988  1.00  0.00    -0.248 NA
ATOM     57  C   UNL A   1      46.692  29.856  27.089  1.00  0.00     0.031 C 
ATOM     58  C   UNL A   1      42.206  32.451  30.242  1.00  0.00     0.029 A 
ATOM     59  C   UNL A   1      42.962  31.540  29.523  1.00  0.00     0.049 A 
ATOM     60  H   UNL A   1      42.438  29.609  28.857  1.00  0.00     0.167 HD
ATOM     61  C   UNL A   1      44.981  30.737  28.333  1.00  0.00     0.074 A 
ATOM     62  C   UNL A   1      46.310  30.917  27.787  1.00  0.00     0.031 C 
ATOM     63  C   UNL A   1      44.305  31.688  29.023  1.00  0.00     0.034 A 
BRANCH  50  64
ATOM     64  C   UNL A   1      38.530  30.087  30.509  1.00  0.00     0.023 A 
ATOM     65  C   UNL A   1      38.258  29.753  31.852  1.00  0.00     0.012 A 
ATOM     66  C   UNL A   1      37.596  30.854  29.786  1.00  0.00     0.148 A 
ATOM     67  C   UNL A   1      37.065  30.145  32.455  1.00  0.00     0.002 A 
ATOM     68  C   UNL A   1      36.425  31.276  30.407  1.00  0.00     0.091 A 
ATOM     69  F   UNL A   1      37.861  31.145  28.504  1.00  0.00    -0.205 F 
ATOM     70  C   UNL A   1      36.154  30.914  31.737  1.00  0.00     0.022 A 
BRANCH  68  71
ATOM     71  S   UNL A   1      35.223  32.332  29.590  1.00  0.00     0.127 S 
ATOM     72  O   UNL A   1      34.314  32.652  30.691  1.00  0.00    -0.237 OA
ATOM     73  O   UNL A   1      36.050  33.452  29.138  1.00  0.00    -0.237 OA
ATOM     74  O   UNL A   1      34.650  31.531  28.518  1.00  0.00    -0.744 OA
ENDBRANCH  68  71
ENDBRANCH  50  64
BRANCH  51  75
ATOM     75  C   UNL A   1      46.915  27.149  25.973  1.00  0.00     0.023 A 
ATOM     76  C   UNL A   1      47.010  27.388  24.589  1.00  0.00     0.012 A 
ATOM     77  C   UNL A   1      48.003  26.557  26.644  1.00  0.00     0.148 A 
ATOM     78  C   UNL A   1      48.154  27.023  23.879  1.00  0.00     0.002 A 
ATOM     79  C   UNL A   1      49.161  26.243  25.940  1.00  0.00     0.091 A 
ATOM     80  F   UNL A   1      47.889  26.321  27.958  1.00  0.00    -0.205 F 
ATOM     81  C   UNL A   1      49.234  26.461  24.556  1.00  0.00     0.022 A 
BRANCH  79  82
ATOM     82  S   UNL A   1      50.646  25.642  26.756  1.00  0.00     0.127 S 
ATOM     83  O   UNL A   1      50.162  24.422  27.396  1.00  0.00    -0.237 OA
ATOM     84  O   UNL A   1      51.550  25.429  25.625  1.00  0.00    -0.237 OA
ATOM     85  O   UNL A   1      51.056  26.714  27.653  1.00  0.00    -0.744 OA
ENDBRANCH  79  82
ENDBRANCH  51  75
BRANCH  63  86
ATOM     86  C   UNL A   1      44.988  33.009  29.251  1.00  0.00     0.023 A 
ATOM     87  C   UNL A   1      45.778  33.190  30.404  1.00  0.00     0.012 A 
ATOM     88  C   UNL A   1      44.928  34.032  28.283  1.00  0.00     0.148 A 
ATOM     89  C   UNL A   1      46.481  34.378  30.600  1.00  0.00     0.002 A 
ATOM     90  C   UNL A   1      45.667  35.194  28.465  1.00  0.00     0.091 A 
ATOM     91  F   UNL A   1      44.158  33.844  27.203  1.00  0.00    -0.205 F 
ATOM     92  C   UNL A   1      46.437  35.373  29.627  1.00  0.00     0.022 A 
BRANCH  90  93
ATOM     93  S   UNL A   1      45.746  36.492  27.225  1.00  0.00     0.127 S 
ATOM     94  O   UNL A   1      44.377  37.005  27.243  1.00  0.00    -0.237 OA
ATOM     95  O   UNL A   1      46.745  37.400  27.788  1.00  0.00    -0.237 OA
ATOM     96  O   UNL A   1      46.152  35.840  25.986  1.00  0.00    -0.744 OA
ENDBRANCH  90  93
ENDBRANCH  63  86
ENDBRANCH  37  38
ENDBRANCH  29  32
ENDBRANCH  27  28
ENDBRANCH  26  27
ENDBRANCH   1  26
TORSDOF 17
ENDMDL
MODEL 2
REMARK VINA RESULT:     -12.4      4.908     10.026
REMARK SMILES CCc1noc(C)c1C(=O)Nc1cc(Cl)ccc1C(=O)NCCCCNC(=O)c1ccc(-c2c3nc(c(-c4cccc(S(=O)(=O)[O-])c4F)c4ccc([nH]4)c(-c4cccc(S(=O)(=O)[O-])c4F)c4nc(c(-c5cccc(S(=O)(=O)[O-])c5F)c5ccc2[nH]5)C=C4)C=C3)cc1
REMARK SMILES IDX 23 1 22 2 21 3 19 4 20 5 18 7 12 8 13 9 14 10 17 11 15 12
REMARK SMILES IDX 16 13 11 14 9 15 10 16 8 18 3 19 4 20 5 21 6 22 7 23 2 24
REMARK SMILES IDX 1 25 24 26 25 27 26 28 27 29 28 31 29 32 30 33 91 34 31 35
REMARK SMILES IDX 90 36 32 37 33 38 34 39 84 40 35 41 89 42 83 43 85 44 36 45
REMARK SMILES IDX 88 46 82 47 81 48 37 50 69 51 49 52 68 53 50 54 53 55 67 56
REMARK SMILES IDX 86 57 51 58 52 59 66 61 87 62 54 63 38 64 39 65 47 66 40 67
REMARK SMILES IDX 42 68 48 69 41 70 43 71 44 72 45 73 46 74 70 75 71 76 79 77
REMARK SMILES IDX 72 78 74 79 80 80 73 81 75 82 76 83 77 84 78 85 55 86 56 87
REMARK SMILES IDX 64 88 57 89 59 90 65 91 58 92 60 93 61 94 62 95 63 96
REMARK H PARENT 21 6 11 17 26 30 85 49 53 60
REMARK Flexibility Score: inf
ROOT
ATOM      1  C   UNL A   1      30.964  29.333  24.396  1.00  0.00     0.023 C 
ENDROOT
BRANCH   1   2
ATOM      2  C   UNL A   1      31.138  28.807  22.975  1.00  0.00     0.116 C 
BRANCH   2   3
ATOM      3  N   UNL A   1      32.463  28.866  22.410  1.00  0.00    -0.352 N 
ATOM      4  C   UNL A   1      33.384  27.903  22.069  1.00  0.00     0.253 C 
ATOM      5  O   UNL A   1      34.420  28.327  21.547  1.00  0.00    -0.269 OA
ATOM      6  H   UNL A   1      32.773  29.784  22.231  1.00  0.00     0.163 HD
BRANCH   4   7
ATOM      7  C   UNL A   1      33.293  26.410  22.293  1.00  0.00     0.063 A 
ATOM      8  C   UNL A   1      33.556  25.645  23.449  1.00  0.00     0.055 A 
ATOM      9  C   UNL A   1      33.326  24.254  23.463  1.00  0.00     0.047 A 
ATOM     10  C   UNL A   1      32.898  23.592  22.316  1.00  0.00     0.043 A 
ATOM     11  C   UNL A   1      32.891  25.691  21.139  1.00  0.00     0.017 A 
ATOM     12  Cl  UNL A   1      32.633  21.895  22.352  1.00  0.00    -0.084 Cl
ATOM     13  C   UNL A   1      32.702  24.304  21.143  1.00  0.00     0.021 A 
BRANCH   8  14
ATOM     14  N   UNL A   1      33.895  26.206  24.670  1.00  0.00    -0.321 N 
ATOM     15  C   UNL A   1      33.232  26.236  25.880  1.00  0.00     0.261 C 
ATOM     16  O   UNL A   1      33.724  27.008  26.708  1.00  0.00    -0.269 OA
ATOM     17  H   UNL A   1      34.765  26.667  24.675  1.00  0.00     0.170 HD
BRANCH  15  18
ATOM     18  C   UNL A   1      32.129  25.347  26.267  1.00  0.00     0.105 A 
ATOM     19  C   UNL A   1      32.340  24.067  26.913  1.00  0.00     0.096 A 
ATOM     20  N   UNL A   1      31.187  23.476  27.231  1.00  0.00    -0.084 NA
ATOM     21  O   UNL A   1      30.209  24.261  26.700  1.00  0.00    -0.361 OA
ATOM     22  C   UNL A   1      30.755  25.328  26.054  1.00  0.00     0.146 A 
ATOM     23  C   UNL A   1      29.723  26.075  25.310  1.00  0.00     0.092 C 
BRANCH  19  24
ATOM     24  C   UNL A   1      33.637  23.354  27.163  1.00  0.00     0.057 C 
ATOM     25  C   UNL A   1      33.515  21.845  27.347  1.00  0.00     0.011 C 
ENDBRANCH  19  24
ENDBRANCH  15  18
ENDBRANCH   8  14
ENDBRANCH   4   7
ENDBRANCH   2   3
ENDBRANCH   1   2
BRANCH   1  26
ATOM     26  C   UNL A   1      32.217  29.806  25.128  1.00  0.00     0.023 C 
BRANCH  26  27
ATOM     27  C   UNL A   1      32.073  30.147  26.610  1.00  0.00     0.116 C 
BRANCH  27  28
ATOM     28  N   UNL A   1      31.991  31.574  26.899  1.00  0.00    -0.352 N 
ATOM     29  C   UNL A   1      32.926  32.444  27.415  1.00  0.00     0.251 C 
ATOM     30  H   UNL A   1      31.120  31.984  26.691  1.00  0.00     0.163 HD
ATOM     31  O   UNL A   1      32.617  33.617  27.619  1.00  0.00    -0.269 OA
BRANCH  29  32
ATOM     32  C   UNL A   1      34.281  31.973  27.781  1.00  0.00     0.039 A 
ATOM     33  C   UNL A   1      35.305  32.916  27.914  1.00  0.00     0.014 A 
ATOM     34  C   UNL A   1      34.542  30.626  28.025  1.00  0.00     0.014 A 
ATOM     35  C   UNL A   1      36.549  32.526  28.422  1.00  0.00     0.010 A 
ATOM     36  C   UNL A   1      35.748  30.255  28.614  1.00  0.00     0.010 A 
ATOM     37  C   UNL A   1      36.755  31.204  28.846  1.00  0.00    -0.014 A 
BRANCH  37  38
ATOM     38  C   UNL A   1      37.974  30.805  29.601  1.00  0.00     0.031 A 
ATOM     39  C   UNL A   1      38.931  29.793  29.030  1.00  0.00     0.074 A 
ATOM     40  C   UNL A   1      38.145  31.247  30.864  1.00  0.00     0.049 A 
ATOM     41  N   UNL A   1      39.963  29.224  29.596  1.00  0.00    -0.248 NA
ATOM     42  C   UNL A   1      38.675  29.336  27.654  1.00  0.00     0.031 C 
ATOM     43  C   UNL A   1      37.242  32.162  31.570  1.00  0.00     0.029 A 
ATOM     44  N   UNL A   1      39.112  30.958  31.796  1.00  0.00    -0.354 N 
ATOM     45  C   UNL A   1      40.449  28.309  28.669  1.00  0.00     0.074 A 
ATOM     46  C   UNL A   1      39.584  28.382  27.512  1.00  0.00     0.031 C 
ATOM     47  C   UNL A   1      37.697  32.355  32.818  1.00  0.00     0.029 A 
ATOM     48  C   UNL A   1      38.899  31.555  33.019  1.00  0.00     0.049 A 
ATOM     49  H   UNL A   1      39.887  30.380  31.606  1.00  0.00     0.167 HD
ATOM     50  C   UNL A   1      41.534  27.504  28.760  1.00  0.00     0.034 A 
ATOM     51  C   UNL A   1      39.580  31.456  34.176  1.00  0.00     0.034 A 
ATOM     52  C   UNL A   1      42.430  27.479  29.884  1.00  0.00     0.049 A 
ATOM     53  C   UNL A   1      40.810  30.591  34.234  1.00  0.00     0.074 A 
ATOM     54  C   UNL A   1      43.621  26.786  30.018  1.00  0.00     0.029 A 
ATOM     55  N   UNL A   1      42.237  28.174  31.067  1.00  0.00    -0.354 N 
ATOM     56  N   UNL A   1      41.352  29.867  33.285  1.00  0.00    -0.248 NA
ATOM     57  C   UNL A   1      41.538  30.548  35.510  1.00  0.00     0.031 C 
ATOM     58  C   UNL A   1      44.139  27.050  31.291  1.00  0.00     0.029 A 
ATOM     59  C   UNL A   1      43.277  27.917  31.943  1.00  0.00     0.049 A 
ATOM     60  H   UNL A   1      41.472  28.764  31.257  1.00  0.00     0.167 HD
ATOM     61  C   UNL A   1      42.496  29.306  33.839  1.00  0.00     0.074 A 
ATOM     62  C   UNL A   1      42.583  29.793  35.200  1.00  0.00     0.031 C 
ATOM     63  C   UNL A   1      43.383  28.449  33.277  1.00  0.00     0.034 A 
BRANCH  50  64
ATOM     64  C   UNL A   1      41.854  26.625  27.580  1.00  0.00     0.023 A 
ATOM     65  C   UNL A   1      42.533  27.175  26.473  1.00  0.00     0.012 A 
ATOM     66  C   UNL A   1      41.545  25.251  27.589  1.00  0.00     0.148 A 
ATOM     67  C   UNL A   1      42.869  26.380  25.379  1.00  0.00     0.002 A 
ATOM     68  C   UNL A   1      41.921  24.456  26.512  1.00  0.00     0.091 A 
ATOM     69  F   UNL A   1      40.881  24.750  28.640  1.00  0.00    -0.205 F 
ATOM     70  C   UNL A   1      42.573  25.020  25.403  1.00  0.00     0.022 A 
BRANCH  68  71
ATOM     71  S   UNL A   1      41.649  22.680  26.479  1.00  0.00     0.127 S 
ATOM     72  O   UNL A   1      40.189  22.605  26.452  1.00  0.00    -0.237 OA
ATOM     73  O   UNL A   1      42.302  22.290  25.229  1.00  0.00    -0.237 OA
ATOM     74  O   UNL A   1      42.282  22.157  27.681  1.00  0.00    -0.744 OA
ENDBRANCH  68  71
ENDBRANCH  50  64
BRANCH  51  75
ATOM     75  C   UNL A   1      39.150  32.251  35.363  1.00  0.00     0.023 A 
ATOM     76  C   UNL A   1      38.246  31.681  36.280  1.00  0.00     0.012 A 
ATOM     77  C   UNL A   1      39.654  33.543  35.608  1.00  0.00     0.148 A 
ATOM     78  C   UNL A   1      37.829  32.392  37.405  1.00  0.00     0.002 A 
ATOM     79  C   UNL A   1      39.275  34.226  36.759  1.00  0.00     0.091 A 
ATOM     80  F   UNL A   1      40.500  34.077  34.716  1.00  0.00    -0.205 F 
ATOM     81  C   UNL A   1      38.351  33.659  37.651  1.00  0.00     0.022 A 
BRANCH  79  82
ATOM     82  S   UNL A   1      40.001  35.804  37.221  1.00  0.00     0.127 S 
ATOM     83  O   UNL A   1      39.667  36.636  36.069  1.00  0.00    -0.237 OA
ATOM     84  O   UNL A   1      39.272  36.128  38.448  1.00  0.00    -0.237 OA
ATOM     85  O   UNL A   1      41.418  35.534  37.424  1.00  0.00    -0.744 OA
ENDBRANCH  79  82
ENDBRANCH  51  75
BRANCH  63  86
ATOM     86  C   UNL A   1      44.543  27.988  34.118  1.00  0.00     0.023 A 
ATOM     87  C   UNL A   1      45.707  28.780  34.186  1.00  0.00     0.012 A 
ATOM     88  C   UNL A   1      44.446  26.829  34.912  1.00  0.00     0.148 A 
ATOM     89  C   UNL A   1      46.765  28.412  35.016  1.00  0.00     0.002 A 
ATOM     90  C   UNL A   1      45.486  26.493  35.770  1.00  0.00     0.091 A 
ATOM     91  F   UNL A   1      43.337  26.082  34.819  1.00  0.00    -0.205 F 
ATOM     92  C   UNL A   1      46.650  27.279  35.817  1.00  0.00     0.022 A 
BRANCH  90  93
ATOM     93  S   UNL A   1      45.391  25.104  36.906  1.00  0.00     0.127 S 
ATOM     94  O   UNL A   1      45.668  23.975  36.020  1.00  0.00    -0.237 OA
ATOM     95  O   UNL A   1      46.460  25.408  37.859  1.00  0.00    -0.237 OA
ATOM     96  O   UNL A   1      44.049  25.140  37.472  1.00  0.00    -0.744 OA
ENDBRANCH  90  93
ENDBRANCH  63  86
ENDBRANCH  37  38
ENDBRANCH  29  32
ENDBRANCH  27  28
ENDBRANCH  26  27
ENDBRANCH   1  26
TORSDOF 17
ENDMDL
MODEL 3
REMARK VINA RESULT:     -12.3      1.966      2.622
REMARK SMILES CCc1noc(C)c1C(=O)Nc1cc(Cl)ccc1C(=O)NCCCCNC(=O)c1ccc(-c2c3nc(c(-c4cccc(S(=O)(=O)[O-])c4F)c4ccc([nH]4)c(-c4cccc(S(=O)(=O)[O-])c4F)c4nc(c(-c5cccc(S(=O)(=O)[O-])c5F)c5ccc2[nH]5)C=C4)C=C3)cc1
REMARK SMILES IDX 23 1 22 2 21 3 19 4 20 5 18 7 12 8 13 9 14 10 17 11 15 12
REMARK SMILES IDX 16 13 11 14 9 15 10 16 8 18 3 19 4 20 5 21 6 22 7 23 2 24
REMARK SMILES IDX 1 25 24 26 25 27 26 28 27 29 28 31 29 32 30 33 91 34 31 35
REMARK SMILES IDX 90 36 32 37 33 38 34 39 84 40 35 41 89 42 83 43 85 44 36 45
REMARK SMILES IDX 88 46 82 47 81 48 37 50 69 51 49 52 68 53 50 54 53 55 67 56
REMARK SMILES IDX 86 57 51 58 52 59 66 61 87 62 54 63 38 64 39 65 47 66 40 67
REMARK SMILES IDX 42 68 48 69 41 70 43 71 44 72 45 73 46 74 70 75 71 76 79 77
REMARK SMILES IDX 72 78 74 79 80 80 73 81 75 82 76 83 77 84 78 85 55 86 56 87
REMARK SMILES IDX 64 88 57 89 59 90 65 91 58 92 60 93 61 94 62 95 63 96
REMARK H PARENT 21 6 11 17 26 30 85 49 53 60
REMARK Flexibility Score: inf
ROOT
ATOM      1  C   UNL A   1      34.088  21.861  26.479  1.00  0.00     0.023 C 
ENDROOT
BRANCH   1   2
ATOM      2  C   UNL A   1      33.381  22.886  27.359  1.00  0.00     0.116 C 
BRANCH   2   3
ATOM      3  N   UNL A   1      31.958  22.733  27.533  1.00  0.00    -0.352 N 
ATOM      4  C   UNL A   1      30.871  23.155  26.804  1.00  0.00     0.253 C 
ATOM      5  O   UNL A   1      29.774  22.786  27.234  1.00  0.00    -0.269 OA
ATOM      6  H   UNL A   1      31.713  22.221  28.338  1.00  0.00     0.163 HD
BRANCH   4   7
ATOM      7  C   UNL A   1      30.862  24.040  25.578  1.00  0.00     0.063 A 
ATOM      8  C   UNL A   1      30.695  25.436  25.463  1.00  0.00     0.055 A 
ATOM      9  C   UNL A   1      30.803  26.077  24.211  1.00  0.00     0.047 A 
ATOM     10  C   UNL A   1      31.011  25.339  23.050  1.00  0.00     0.043 A 
ATOM     11  C   UNL A   1      31.038  23.325  24.366  1.00  0.00     0.017 A 
ATOM     12  Cl  UNL A   1      31.130  26.140  21.534  1.00  0.00    -0.084 Cl
ATOM     13  C   UNL A   1      31.106  23.959  23.119  1.00  0.00     0.021 A 
BRANCH   8  14
ATOM     14  N   UNL A   1      30.576  26.279  26.557  1.00  0.00    -0.321 N 
ATOM     15  C   UNL A   1      31.312  27.378  26.951  1.00  0.00     0.261 C 
ATOM     16  O   UNL A   1      31.063  27.769  28.095  1.00  0.00    -0.269 OA
ATOM     17  H   UNL A   1      29.832  26.053  27.162  1.00  0.00     0.170 HD
BRANCH  15  18
ATOM     18  C   UNL A   1      32.215  28.150  26.088  1.00  0.00     0.105 A 
ATOM     19  C   UNL A   1      33.465  27.620  25.583  1.00  0.00     0.096 A 
ATOM     20  N   UNL A   1      34.074  28.480  24.765  1.00  0.00    -0.084 NA
ATOM     21  O   UNL A   1      33.333  29.622  24.808  1.00  0.00    -0.361 OA
ATOM     22  C   UNL A   1      32.276  29.470  25.653  1.00  0.00     0.146 A 
ATOM     23  C   UNL A   1      31.582  30.755  25.861  1.00  0.00     0.092 C 
BRANCH  19  24
ATOM     24  C   UNL A   1      34.135  26.324  25.936  1.00  0.00     0.057 C 
ATOM     25  C   UNL A   1      34.344  25.371  24.764  1.00  0.00     0.011 C 
ENDBRANCH  19  24
ENDBRANCH  15  18
ENDBRANCH   8  14
ENDBRANCH   4   7
ENDBRANCH   2   3
ENDBRANCH   1   2
BRANCH   1  26
ATOM     26  C   UNL A   1      35.608  21.766  26.592  1.00  0.00     0.023 C 
BRANCH  26  27
ATOM     27  C   UNL A   1      36.408  21.784  25.292  1.00  0.00     0.116 C 
BRANCH  27  28
ATOM     28  N   UNL A   1      37.511  20.831  25.244  1.00  0.00    -0.352 N 
ATOM     29  C   UNL A   1      38.802  20.924  25.714  1.00  0.00     0.251 C 
ATOM     30  H   UNL A   1      37.296  19.978  24.801  1.00  0.00     0.163 HD
ATOM     31  O   UNL A   1      39.587  19.997  25.520  1.00  0.00    -0.269 OA
BRANCH  29  32
ATOM     32  C   UNL A   1      39.275  22.148  26.399  1.00  0.00     0.039 A 
ATOM     33  C   UNL A   1      40.307  22.036  27.337  1.00  0.00     0.014 A 
ATOM     34  C   UNL A   1      38.738  23.401  26.105  1.00  0.00     0.014 A 
ATOM     35  C   UNL A   1      40.889  23.189  27.873  1.00  0.00     0.010 A 
ATOM     36  C   UNL A   1      39.375  24.549  26.569  1.00  0.00     0.010 A 
ATOM     37  C   UNL A   1      40.475  24.457  27.436  1.00  0.00    -0.014 A 
BRANCH  37  38
ATOM     38  C   UNL A   1      41.219  25.693  27.803  1.00  0.00     0.031 A 
ATOM     39  C   UNL A   1      40.532  26.808  28.545  1.00  0.00     0.074 A 
ATOM     40  C   UNL A   1      42.475  25.872  27.342  1.00  0.00     0.049 A 
ATOM     41  N   UNL A   1      40.974  28.006  28.826  1.00  0.00    -0.248 NA
ATOM     42  C   UNL A   1      39.155  26.556  29.000  1.00  0.00     0.031 C 
ATOM     43  C   UNL A   1      43.225  24.906  26.533  1.00  0.00     0.029 A 
ATOM     44  N   UNL A   1      43.329  26.942  27.451  1.00  0.00    -0.354 N 
ATOM     45  C   UNL A   1      39.919  28.666  29.446  1.00  0.00     0.074 A 
ATOM     46  C   UNL A   1      38.806  27.742  29.478  1.00  0.00     0.031 C 
ATOM     47  C   UNL A   1      44.422  25.427  26.220  1.00  0.00     0.029 A 
ATOM     48  C   UNL A   1      44.515  26.775  26.770  1.00  0.00     0.049 A 
ATOM     49  H   UNL A   1      43.115  27.751  27.969  1.00  0.00     0.167 HD
ATOM     50  C   UNL A   1      39.889  29.915  29.968  1.00  0.00     0.034 A 
ATOM     51  C   UNL A   1      45.552  27.615  26.590  1.00  0.00     0.034 A 
ATOM     52  C   UNL A   1      41.015  30.808  29.993  1.00  0.00     0.049 A 
ATOM     53  C   UNL A   1      45.510  28.979  27.223  1.00  0.00     0.074 A 
ATOM     54  C   UNL A   1      41.116  32.045  30.605  1.00  0.00     0.029 A 
ATOM     55  N   UNL A   1      42.234  30.564  29.380  1.00  0.00    -0.354 N 
ATOM     56  N   UNL A   1      44.567  29.518  27.956  1.00  0.00    -0.248 NA
ATOM     57  C   UNL A   1      46.684  29.843  27.028  1.00  0.00     0.031 C 
ATOM     58  C   UNL A   1      42.393  32.557  30.347  1.00  0.00     0.029 A 
ATOM     59  C   UNL A   1      43.090  31.632  29.586  1.00  0.00     0.049 A 
ATOM     60  H   UNL A   1      42.458  29.751  28.873  1.00  0.00     0.167 HD
ATOM     61  C   UNL A   1      45.043  30.769  28.332  1.00  0.00     0.074 A 
ATOM     62  C   UNL A   1      46.369  30.899  27.765  1.00  0.00     0.031 C 
ATOM     63  C   UNL A   1      44.428  31.729  29.064  1.00  0.00     0.034 A 
BRANCH  50  64
ATOM     64  C   UNL A   1      38.609  30.370  30.618  1.00  0.00     0.023 A 
ATOM     65  C   UNL A   1      38.419  30.150  31.998  1.00  0.00     0.012 A 
ATOM     66  C   UNL A   1      37.628  31.068  29.888  1.00  0.00     0.148 A 
ATOM     67  C   UNL A   1      37.258  30.586  32.634  1.00  0.00     0.002 A 
ATOM     68  C   UNL A   1      36.492  31.537  30.538  1.00  0.00     0.091 A 
ATOM     69  F   UNL A   1      37.817  31.250  28.573  1.00  0.00    -0.205 F 
ATOM     70  C   UNL A   1      36.301  31.288  31.907  1.00  0.00     0.022 A 
BRANCH  68  71
ATOM     71  S   UNL A   1      35.235  32.515  29.706  1.00  0.00     0.127 S 
ATOM     72  O   UNL A   1      34.724  31.562  28.721  1.00  0.00    -0.237 OA
ATOM     73  O   UNL A   1      34.308  32.820  30.796  1.00  0.00    -0.237 OA
ATOM     74  O   UNL A   1      35.927  33.673  29.158  1.00  0.00    -0.744 OA
ENDBRANCH  68  71
ENDBRANCH  50  64
BRANCH  51  75
ATOM     75  C   UNL A   1      46.751  27.164  25.826  1.00  0.00     0.023 A 
ATOM     76  C   UNL A   1      47.616  26.215  26.403  1.00  0.00     0.012 A 
ATOM     77  C   UNL A   1      47.020  27.638  24.527  1.00  0.00     0.148 A 
ATOM     78  C   UNL A   1      48.743  25.765  25.713  1.00  0.00     0.002 A 
ATOM     79  C   UNL A   1      48.114  27.146  23.824  1.00  0.00     0.091 A 
ATOM     80  F   UNL A   1      46.195  28.554  24.000  1.00  0.00    -0.205 F 
ATOM     81  C   UNL A   1      48.985  26.221  24.420  1.00  0.00     0.022 A 
BRANCH  79  82
ATOM     82  S   UNL A   1      48.424  27.579  22.107  1.00  0.00     0.127 S 
ATOM     83  O   UNL A   1      48.737  26.278  21.522  1.00  0.00    -0.237 OA
ATOM     84  O   UNL A   1      47.138  28.146  21.698  1.00  0.00    -0.237 OA
ATOM     85  O   UNL A   1      49.516  28.542  22.141  1.00  0.00    -0.744 OA
ENDBRANCH  79  82
ENDBRANCH  51  75
BRANCH  63  86
ATOM     86  C   UNL A   1      45.181  33.008  29.317  1.00  0.00     0.023 A 
ATOM     87  C   UNL A   1      46.019  33.105  30.445  1.00  0.00     0.012 A 
ATOM     88  C   UNL A   1      45.134  34.071  28.394  1.00  0.00     0.148 A 
ATOM     89  C   UNL A   1      46.784  34.250  30.662  1.00  0.00     0.002 A 
ATOM     90  C   UNL A   1      45.933  35.190  28.593  1.00  0.00     0.091 A 
ATOM     91  F   UNL A   1      44.317  33.963  27.337  1.00  0.00    -0.205 F 
ATOM     92  C   UNL A   1      46.752  35.286  29.731  1.00  0.00     0.022 A 
BRANCH  90  93
ATOM     93  S   UNL A   1      46.027  36.533  27.403  1.00  0.00     0.127 S 
ATOM     94  O   UNL A   1      44.666  37.063  27.443  1.00  0.00    -0.237 OA
ATOM     95  O   UNL A   1      47.040  37.406  27.998  1.00  0.00    -0.237 OA
ATOM     96  O   UNL A   1      46.423  35.923  26.140  1.00  0.00    -0.744 OA
ENDBRANCH  90  93
ENDBRANCH  63  86
ENDBRANCH  37  38
ENDBRANCH  29  32
ENDBRANCH  27  28
ENDBRANCH  26  27
ENDBRANCH   1  26
TORSDOF 17
ENDMDL
