MODEL 1
REMARK VINA RESULT:     -12.8      0.000      0.000
REMARK SMILES CC(C)c1cc(C(=O)N[C@@H](Cc2c[nH]c3ccccc23)C(=O)NCCCCNC(=O)c2ccc(-c3c4nc(c(-c5cccc(S(=O)(=O)[O-])c5F)c5ccc([nH]5)c(-c5cccc(S(=O)(=O)[O-])c5F)c5nc(c(-c6cccc(S(=O)(=O)[O-])c6F)c6ccc3[nH]6)C=C5)C=C4)cc2)n(C)n1
REMARK SMILES IDX 25 1 24 2 23 3 21 4 22 5 10 7 9 8 7 9 8 10 6 12 4 13 5 14
REMARK SMILES IDX 96 15 94 16 95 17 2 18 1 19 3 20 11 21 12 22 13 23 20 24
REMARK SMILES IDX 14 25 15 26 19 27 16 29 18 30 17 31 26 32 27 33 28 34 29 35
REMARK SMILES IDX 30 37 31 38 32 39 93 40 33 41 92 42 34 43 35 44 36 45 86 46
REMARK SMILES IDX 37 47 91 48 85 49 87 50 38 51 90 52 84 53 83 54 39 56 71 57
REMARK SMILES IDX 51 58 70 59 52 60 55 61 69 62 88 63 53 64 54 65 68 67 89 68
REMARK SMILES IDX 56 69 40 70 41 71 49 72 42 73 44 74 50 75 43 76 45 77 46 78
REMARK SMILES IDX 47 79 48 80 72 81 73 82 81 83 74 84 76 85 82 86 75 87 77 88
REMARK SMILES IDX 78 89 79 90 80 91 57 92 58 93 66 94 59 95 61 96 67 97 60 98
REMARK SMILES IDX 62 99 63 100 64 101 65 102
REMARK H PARENT 23 6 9 11 14 28 28 36 87 55 55 66
REMARK Flexibility Score: inf
ROOT
ATOM      1  C   UNL A   1      31.583  27.394  26.863  1.00  0.00     0.023 C 
ENDROOT
BRANCH   1   2
ATOM      2  C   UNL A   1      32.223  26.142  26.287  1.00  0.00     0.116 C 
BRANCH   2   3
ATOM      3  N   UNL A   1      31.453  24.935  26.471  1.00  0.00    -0.354 N 
ATOM      4  C   UNL A   1      31.108  23.996  25.549  1.00  0.00     0.242 C 
ATOM      5  O   UNL A   1      30.896  22.851  25.969  1.00  0.00    -0.273 OA
ATOM      6  H   UNL A   1      31.132  24.771  27.387  1.00  0.00     0.163 HD
BRANCH   4   7
ATOM      7  C   UNL A   1      31.062  24.254  24.025  1.00  0.00     0.176 C 
BRANCH   7   8
ATOM      8  N   UNL A   1      31.141  23.103  23.137  1.00  0.00    -0.339 N 
ATOM      9  C   UNL A   1      32.042  22.096  22.950  1.00  0.00     0.270 C 
ATOM     10  O   UNL A   1      31.695  21.310  22.057  1.00  0.00    -0.268 OA
ATOM     11  H   UNL A   1      30.367  23.038  22.531  1.00  0.00     0.164 HD
BRANCH   9  12
ATOM     12  C   UNL A   1      33.276  21.863  23.683  1.00  0.00     0.126 A 
ATOM     13  C   UNL A   1      35.377  22.275  24.421  1.00  0.00     0.066 A 
ATOM     14  C   UNL A   1      34.374  22.717  23.541  1.00  0.00     0.059 A 
ATOM     15  N   UNL A   1      34.987  21.153  25.020  1.00  0.00    -0.177 NA
ATOM     16  N   UNL A   1      33.700  20.985  24.658  1.00  0.00    -0.263 N 
ATOM     17  C   UNL A   1      32.987  20.036  25.477  1.00  0.00     0.174 C 
BRANCH  13  18
ATOM     18  C   UNL A   1      36.722  22.879  24.726  1.00  0.00     0.034 C 
ATOM     19  C   UNL A   1      36.678  23.792  25.957  1.00  0.00     0.014 C 
ATOM     20  C   UNL A   1      37.803  21.809  24.949  1.00  0.00     0.014 C 
ENDBRANCH  13  18
ENDBRANCH   9  12
ENDBRANCH   7   8
BRANCH   7  21
ATOM     21  C   UNL A   1      29.982  25.255  23.566  1.00  0.00     0.072 C 
BRANCH  21  22
ATOM     22  C   UNL A   1      30.450  26.581  23.050  1.00  0.00    -0.020 A 
ATOM     23  C   UNL A   1      31.731  26.933  22.661  1.00  0.00     0.087 A 
ATOM     24  C   UNL A   1      29.640  27.754  22.902  1.00  0.00     0.003 A 
ATOM     25  N   UNL A   1      31.700  28.222  22.191  1.00  0.00    -0.361 N 
ATOM     26  C   UNL A   1      30.431  28.740  22.315  1.00  0.00     0.046 A 
ATOM     27  C   UNL A   1      28.294  28.053  23.190  1.00  0.00     0.010 A 
ATOM     28  H   UNL A   1      32.473  28.706  21.822  1.00  0.00     0.166 HD
ATOM     29  C   UNL A   1      29.929  29.995  21.949  1.00  0.00     0.026 A 
ATOM     30  C   UNL A   1      27.784  29.313  22.866  1.00  0.00     0.001 A 
ATOM     31  C   UNL A   1      28.588  30.263  22.239  1.00  0.00     0.002 A 
ENDBRANCH  21  22
ENDBRANCH   7  21
ENDBRANCH   4   7
ENDBRANCH   2   3
ENDBRANCH   1   2
BRANCH   1  32
ATOM     32  C   UNL A   1      31.614  28.619  25.954  1.00  0.00     0.023 C 
BRANCH  32  33
ATOM     33  C   UNL A   1      32.857  29.499  26.054  1.00  0.00     0.116 C 
BRANCH  33  34
ATOM     34  N   UNL A   1      32.589  30.855  26.518  1.00  0.00    -0.352 N 
ATOM     35  C   UNL A   1      33.374  31.670  27.300  1.00  0.00     0.251 C 
ATOM     36  H   UNL A   1      31.729  31.239  26.235  1.00  0.00     0.163 HD
ATOM     37  O   UNL A   1      32.976  32.782  27.636  1.00  0.00    -0.269 OA
BRANCH  35  38
ATOM     38  C   UNL A   1      34.686  31.170  27.758  1.00  0.00     0.039 A 
ATOM     39  C   UNL A   1      35.756  32.061  27.863  1.00  0.00     0.014 A 
ATOM     40  C   UNL A   1      34.826  29.841  28.165  1.00  0.00     0.014 A 
ATOM     41  C   UNL A   1      36.945  31.638  28.464  1.00  0.00     0.010 A 
ATOM     42  C   UNL A   1      35.980  29.448  28.836  1.00  0.00     0.010 A 
ATOM     43  C   UNL A   1      37.050  30.342  28.998  1.00  0.00    -0.014 A 
BRANCH  43  44
ATOM     44  C   UNL A   1      38.262  29.910  29.743  1.00  0.00     0.031 A 
ATOM     45  C   UNL A   1      38.537  30.452  31.121  1.00  0.00     0.074 A 
ATOM     46  C   UNL A   1      39.157  29.093  29.150  1.00  0.00     0.049 A 
ATOM     47  N   UNL A   1      39.557  30.228  31.907  1.00  0.00    -0.248 NA
ATOM     48  C   UNL A   1      37.548  31.392  31.678  1.00  0.00     0.031 C 
ATOM     49  C   UNL A   1      39.054  28.567  27.786  1.00  0.00     0.029 A 
ATOM     50  N   UNL A   1      40.342  28.576  29.612  1.00  0.00    -0.354 N 
ATOM     51  C   UNL A   1      39.347  31.012  33.036  1.00  0.00     0.074 A 
ATOM     52  C   UNL A   1      38.128  31.757  32.812  1.00  0.00     0.031 C 
ATOM     53  C   UNL A   1      40.121  27.792  27.529  1.00  0.00     0.029 A 
ATOM     54  C   UNL A   1      40.996  27.782  28.696  1.00  0.00     0.049 A 
ATOM     55  H   UNL A   1      40.693  28.757  30.514  1.00  0.00     0.167 HD
ATOM     56  C   UNL A   1      40.077  31.075  34.174  1.00  0.00     0.034 A 
ATOM     57  C   UNL A   1      42.163  27.116  28.792  1.00  0.00     0.034 A 
ATOM     58  C   UNL A   1      41.262  30.299  34.416  1.00  0.00     0.049 A 
ATOM     59  C   UNL A   1      42.931  27.173  30.087  1.00  0.00     0.074 A 
ATOM     60  C   UNL A   1      42.039  30.248  35.560  1.00  0.00     0.029 A 
ATOM     61  N   UNL A   1      41.839  29.434  33.501  1.00  0.00    -0.354 N 
ATOM     62  N   UNL A   1      42.633  27.802  31.198  1.00  0.00    -0.248 NA
ATOM     63  C   UNL A   1      44.178  26.394  30.155  1.00  0.00     0.031 C 
ATOM     64  C   UNL A   1      43.089  29.350  35.335  1.00  0.00     0.029 A 
ATOM     65  C   UNL A   1      42.956  28.835  34.056  1.00  0.00     0.049 A 
ATOM     66  H   UNL A   1      41.503  29.267  32.591  1.00  0.00     0.167 HD
ATOM     67  C   UNL A   1      43.628  27.461  32.108  1.00  0.00     0.074 A 
ATOM     68  C   UNL A   1      44.525  26.552  31.424  1.00  0.00     0.031 C 
ATOM     69  C   UNL A   1      43.798  27.878  33.386  1.00  0.00     0.034 A 
BRANCH  56  70
ATOM     70  C   UNL A   1      39.560  31.955  35.283  1.00  0.00     0.023 A 
ATOM     71  C   UNL A   1      38.638  31.421  36.207  1.00  0.00     0.012 A 
ATOM     72  C   UNL A   1      40.023  33.274  35.452  1.00  0.00     0.148 A 
ATOM     73  C   UNL A   1      38.158  32.194  37.262  1.00  0.00     0.002 A 
ATOM     74  C   UNL A   1      39.572  34.026  36.532  1.00  0.00     0.091 A 
ATOM     75  F   UNL A   1      40.885  33.771  34.553  1.00  0.00    -0.205 F 
ATOM     76  C   UNL A   1      38.633  33.492  37.430  1.00  0.00     0.022 A 
BRANCH  74  77
ATOM     77  S   UNL A   1      40.174  35.682  36.883  1.00  0.00     0.127 S 
ATOM     78  O   UNL A   1      39.637  35.912  38.224  1.00  0.00    -0.237 OA
ATOM     79  O   UNL A   1      41.624  35.498  36.830  1.00  0.00    -0.237 OA
ATOM     80  O   UNL A   1      39.630  36.538  35.838  1.00  0.00    -0.744 OA
ENDBRANCH  74  77
ENDBRANCH  56  70
BRANCH  57  81
ATOM     81  C   UNL A   1      42.642  26.262  27.667  1.00  0.00     0.023 A 
ATOM     82  C   UNL A   1      43.504  26.821  26.701  1.00  0.00     0.012 A 
ATOM     83  C   UNL A   1      42.254  24.915  27.539  1.00  0.00     0.148 A 
ATOM     84  C   UNL A   1      43.934  26.068  25.607  1.00  0.00     0.002 A 
ATOM     85  C   UNL A   1      42.731  24.155  26.476  1.00  0.00     0.091 A 
ATOM     86  F   UNL A   1      41.421  24.402  28.455  1.00  0.00    -0.205 F 
ATOM     87  C   UNL A   1      43.555  24.734  25.499  1.00  0.00     0.022 A 
BRANCH  85  88
ATOM     88  S   UNL A   1      42.392  22.396  26.337  1.00  0.00     0.127 S 
ATOM     89  O   UNL A   1      40.942  22.381  26.171  1.00  0.00    -0.237 OA
ATOM     90  O   UNL A   1      43.154  22.028  25.142  1.00  0.00    -0.237 OA
ATOM     91  O   UNL A   1      42.904  21.810  27.569  1.00  0.00    -0.744 OA
ENDBRANCH  85  88
ENDBRANCH  57  81
BRANCH  69  92
ATOM     92  C   UNL A   1      44.969  27.322  34.152  1.00  0.00     0.023 A 
ATOM     93  C   UNL A   1      46.213  27.980  34.097  1.00  0.00     0.012 A 
ATOM     94  C   UNL A   1      44.818  26.191  34.977  1.00  0.00     0.148 A 
ATOM     95  C   UNL A   1      47.300  27.499  34.827  1.00  0.00     0.002 A 
ATOM     96  C   UNL A   1      45.893  25.746  35.738  1.00  0.00     0.091 A 
ATOM     97  F   UNL A   1      43.631  25.567  35.000  1.00  0.00    -0.205 F 
ATOM     98  C   UNL A   1      47.137  26.391  35.654  1.00  0.00     0.022 A 
BRANCH  96  99
ATOM     99  S   UNL A   1      45.745  24.385  36.901  1.00  0.00     0.127 S 
ATOM    100  O   UNL A   1      44.441  24.649  37.506  1.00  0.00    -0.237 OA
ATOM    101  O   UNL A   1      45.784  23.216  36.021  1.00  0.00    -0.237 OA
ATOM    102  O   UNL A   1      46.889  24.500  37.796  1.00  0.00    -0.744 OA
ENDBRANCH  96  99
ENDBRANCH  69  92
ENDBRANCH  43  44
ENDBRANCH  35  38
ENDBRANCH  33  34
ENDBRANCH  32  33
ENDBRANCH   1  32
TORSDOF 19
ENDMDL
MODEL 2
REMARK VINA RESULT:     -12.5      1.646      4.380
REMARK SMILES CC(C)c1cc(C(=O)N[C@@H](Cc2c[nH]c3ccccc23)C(=O)NCCCCNC(=O)c2ccc(-c3c4nc(c(-c5cccc(S(=O)(=O)[O-])c5F)c5ccc([nH]5)c(-c5cccc(S(=O)(=O)[O-])c5F)c5nc(c(-c6cccc(S(=O)(=O)[O-])c6F)c6ccc3[nH]6)C=C5)C=C4)cc2)n(C)n1
REMARK SMILES IDX 25 1 24 2 23 3 21 4 22 5 10 7 9 8 7 9 8 10 6 12 4 13 5 14
REMARK SMILES IDX 96 15 94 16 95 17 2 18 1 19 3 20 11 21 12 22 13 23 20 24
REMARK SMILES IDX 14 25 15 26 19 27 16 29 18 30 17 31 26 32 27 33 28 34 29 35
REMARK SMILES IDX 30 37 31 38 32 39 93 40 33 41 92 42 34 43 35 44 36 45 86 46
REMARK SMILES IDX 37 47 91 48 85 49 87 50 38 51 90 52 84 53 83 54 39 56 71 57
REMARK SMILES IDX 51 58 70 59 52 60 55 61 69 62 88 63 53 64 54 65 68 67 89 68
REMARK SMILES IDX 56 69 40 70 41 71 49 72 42 73 44 74 50 75 43 76 45 77 46 78
REMARK SMILES IDX 47 79 48 80 72 81 73 82 81 83 74 84 76 85 82 86 75 87 77 88
REMARK SMILES IDX 78 89 79 90 80 91 57 92 58 93 66 94 59 95 61 96 67 97 60 98
REMARK SMILES IDX 62 99 63 100 64 101 65 102
REMARK H PARENT 23 6 9 11 14 28 28 36 87 55 55 66
REMARK Flexibility Score: inf
ROOT
ATOM      1  C   UNL A   1      31.464  28.182  27.192  1.00  0.00     0.023 C 
ENDROOT
BRANCH   1   2
ATOM      2  C   UNL A   1      31.565  26.791  26.587  1.00  0.00     0.116 C 
BRANCH   2   3
ATOM      3  N   UNL A   1      32.915  26.314  26.404  1.00  0.00    -0.354 N 
ATOM      4  C   UNL A   1      33.427  25.582  25.379  1.00  0.00     0.242 C 
ATOM      5  O   UNL A   1      34.640  25.697  25.159  1.00  0.00    -0.273 OA
ATOM      6  H   UNL A   1      33.550  26.550  27.118  1.00  0.00     0.163 HD
BRANCH   4   7
ATOM      7  C   UNL A   1      32.577  24.703  24.432  1.00  0.00     0.176 C 
BRANCH   7   8
ATOM      8  N   UNL A   1      32.833  24.797  23.002  1.00  0.00    -0.339 N 
ATOM      9  C   UNL A   1      32.688  25.776  22.064  1.00  0.00     0.270 C 
ATOM     10  O   UNL A   1      33.041  25.407  20.935  1.00  0.00    -0.268 OA
ATOM     11  H   UNL A   1      33.192  23.961  22.626  1.00  0.00     0.164 HD
BRANCH   9  12
ATOM     12  C   UNL A   1      32.218  27.137  22.268  1.00  0.00     0.126 A 
ATOM     13  C   UNL A   1      30.716  28.814  22.512  1.00  0.00     0.066 A 
ATOM     14  C   UNL A   1      30.857  27.450  22.205  1.00  0.00     0.059 A 
ATOM     15  N   UNL A   1      31.915  29.367  22.668  1.00  0.00    -0.177 NA
ATOM     16  N   UNL A   1      32.787  28.339  22.632  1.00  0.00    -0.263 N 
ATOM     17  C   UNL A   1      34.095  28.673  23.139  1.00  0.00     0.174 C 
BRANCH  13  18
ATOM     18  C   UNL A   1      29.465  29.640  22.665  1.00  0.00     0.034 C 
ATOM     19  C   UNL A   1      29.131  30.420  21.387  1.00  0.00     0.014 C 
ATOM     20  C   UNL A   1      28.247  28.785  23.049  1.00  0.00     0.014 C 
ENDBRANCH  13  18
ENDBRANCH   9  12
ENDBRANCH   7   8
BRANCH   7  21
ATOM     21  C   UNL A   1      32.400  23.240  24.885  1.00  0.00     0.072 C 
BRANCH  21  22
ATOM     22  C   UNL A   1      33.557  22.590  25.580  1.00  0.00    -0.020 A 
ATOM     23  C   UNL A   1      33.601  22.103  26.874  1.00  0.00     0.087 A 
ATOM     24  C   UNL A   1      34.862  22.392  25.022  1.00  0.00     0.003 A 
ATOM     25  N   UNL A   1      34.832  21.531  27.078  1.00  0.00    -0.361 N 
ATOM     26  C   UNL A   1      35.615  21.682  25.957  1.00  0.00     0.046 A 
ATOM     27  C   UNL A   1      35.460  22.729  23.791  1.00  0.00     0.010 A 
ATOM     28  H   UNL A   1      35.114  21.080  27.905  1.00  0.00     0.166 HD
ATOM     29  C   UNL A   1      36.920  21.243  25.701  1.00  0.00     0.026 A 
ATOM     30  C   UNL A   1      36.774  22.330  23.533  1.00  0.00     0.001 A 
ATOM     31  C   UNL A   1      37.486  21.583  24.469  1.00  0.00     0.002 A 
ENDBRANCH  21  22
ENDBRANCH   7  21
ENDBRANCH   4   7
ENDBRANCH   2   3
ENDBRANCH   1   2
BRANCH   1  32
ATOM     32  C   UNL A   1      31.487  29.332  26.189  1.00  0.00     0.023 C 
BRANCH  32  33
ATOM     33  C   UNL A   1      32.750  30.190  26.178  1.00  0.00     0.116 C 
BRANCH  33  34
ATOM     34  N   UNL A   1      32.553  31.543  26.684  1.00  0.00    -0.352 N 
ATOM     35  C   UNL A   1      33.388  32.297  27.476  1.00  0.00     0.251 C 
ATOM     36  H   UNL A   1      31.708  31.975  26.425  1.00  0.00     0.163 HD
ATOM     37  O   UNL A   1      33.048  33.417  27.849  1.00  0.00    -0.269 OA
BRANCH  35  38
ATOM     38  C   UNL A   1      34.681  31.723  27.898  1.00  0.00     0.039 A 
ATOM     39  C   UNL A   1      35.799  32.555  27.989  1.00  0.00     0.014 A 
ATOM     40  C   UNL A   1      34.759  30.384  28.287  1.00  0.00     0.014 A 
ATOM     41  C   UNL A   1      36.976  32.063  28.558  1.00  0.00     0.010 A 
ATOM     42  C   UNL A   1      35.905  29.922  28.928  1.00  0.00     0.010 A 
ATOM     43  C   UNL A   1      37.025  30.757  29.076  1.00  0.00    -0.014 A 
BRANCH  43  44
ATOM     44  C   UNL A   1      38.228  30.252  29.789  1.00  0.00     0.031 A 
ATOM     45  C   UNL A   1      38.536  30.728  31.183  1.00  0.00     0.074 A 
ATOM     46  C   UNL A   1      39.086  29.429  29.153  1.00  0.00     0.049 A 
ATOM     47  N   UNL A   1      39.556  30.437  31.948  1.00  0.00    -0.248 NA
ATOM     48  C   UNL A   1      37.588  31.680  31.789  1.00  0.00     0.031 C 
ATOM     49  C   UNL A   1      38.951  28.962  27.770  1.00  0.00     0.029 A 
ATOM     50  N   UNL A   1      40.257  28.852  29.579  1.00  0.00    -0.354 N 
ATOM     51  C   UNL A   1      39.386  31.182  33.109  1.00  0.00     0.074 A 
ATOM     52  C   UNL A   1      38.192  31.978  32.930  1.00  0.00     0.031 C 
ATOM     53  C   UNL A   1      39.986  28.160  27.470  1.00  0.00     0.029 A 
ATOM     54  C   UNL A   1      40.872  28.072  28.625  1.00  0.00     0.049 A 
ATOM     55  H   UNL A   1      40.624  28.983  30.484  1.00  0.00     0.167 HD
ATOM     56  C   UNL A   1      40.130  31.173  34.240  1.00  0.00     0.034 A 
ATOM     57  C   UNL A   1      42.016  27.362  28.681  1.00  0.00     0.034 A 
ATOM     58  C   UNL A   1      41.288  30.347  34.437  1.00  0.00     0.049 A 
ATOM     59  C   UNL A   1      42.799  27.339  29.968  1.00  0.00     0.074 A 
ATOM     60  C   UNL A   1      42.075  30.222  35.569  1.00  0.00     0.029 A 
ATOM     61  N   UNL A   1      41.824  29.498  33.482  1.00  0.00    -0.354 N 
ATOM     62  N   UNL A   1      42.535  27.934  31.106  1.00  0.00    -0.248 NA
ATOM     63  C   UNL A   1      44.017  26.515  29.990  1.00  0.00     0.031 C 
ATOM     64  C   UNL A   1      43.089  29.297  35.296  1.00  0.00     0.029 A 
ATOM     65  C   UNL A   1      42.925  28.839  33.999  1.00  0.00     0.049 A 
ATOM     66  H   UNL A   1      41.473  29.381  32.570  1.00  0.00     0.167 HD
ATOM     67  C   UNL A   1      43.527  27.521  31.990  1.00  0.00     0.074 A 
ATOM     68  C   UNL A   1      44.384  26.609  31.260  1.00  0.00     0.031 C 
ATOM     69  C   UNL A   1      43.724  27.880  33.281  1.00  0.00     0.034 A 
BRANCH  56  70
ATOM     70  C   UNL A   1      39.657  32.025  35.390  1.00  0.00     0.023 A 
ATOM     71  C   UNL A   1      39.992  33.395  35.409  1.00  0.00     0.012 A 
ATOM     72  C   UNL A   1      38.840  31.498  36.409  1.00  0.00     0.148 A 
ATOM     73  C   UNL A   1      39.551  34.222  36.440  1.00  0.00     0.002 A 
ATOM     74  C   UNL A   1      38.369  32.339  37.412  1.00  0.00     0.091 A 
ATOM     75  F   UNL A   1      38.548  30.190  36.384  1.00  0.00    -0.205 F 
ATOM     76  C   UNL A   1      38.732  33.696  37.435  1.00  0.00     0.022 A 
BRANCH  74  77
ATOM     77  S   UNL A   1      37.248  31.781  38.701  1.00  0.00     0.127 S 
ATOM     78  O   UNL A   1      38.081  31.919  39.895  1.00  0.00    -0.237 OA
ATOM     79  O   UNL A   1      36.159  32.754  38.601  1.00  0.00    -0.237 OA
ATOM     80  O   UNL A   1      36.880  30.417  38.351  1.00  0.00    -0.744 OA
ENDBRANCH  74  77
ENDBRANCH  56  70
BRANCH  57  81
ATOM     81  C   UNL A   1      42.452  26.538  27.516  1.00  0.00     0.023 A 
ATOM     82  C   UNL A   1      43.241  27.134  26.511  1.00  0.00     0.012 A 
ATOM     83  C   UNL A   1      42.094  25.182  27.390  1.00  0.00     0.148 A 
ATOM     84  C   UNL A   1      43.627  26.409  25.384  1.00  0.00     0.002 A 
ATOM     85  C   UNL A   1      42.530  24.450  26.290  1.00  0.00     0.091 A 
ATOM     86  F   UNL A   1      41.330  24.633  28.345  1.00  0.00    -0.205 F 
ATOM     87  C   UNL A   1      43.279  25.065  25.277  1.00  0.00     0.022 A 
BRANCH  85  88
ATOM     88  S   UNL A   1      42.232  22.685  26.144  1.00  0.00     0.127 S 
ATOM     89  O   UNL A   1      42.789  22.393  24.827  1.00  0.00    -0.237 OA
ATOM     90  O   UNL A   1      42.997  22.148  27.271  1.00  0.00    -0.237 OA
ATOM     91  O   UNL A   1      40.789  22.528  26.280  1.00  0.00    -0.744 OA
ENDBRANCH  85  88
ENDBRANCH  57  81
BRANCH  69  92
ATOM     92  C   UNL A   1      44.883  27.253  34.011  1.00  0.00     0.023 A 
ATOM     93  C   UNL A   1      46.152  27.862  33.959  1.00  0.00     0.012 A 
ATOM     94  C   UNL A   1      44.698  26.101  34.800  1.00  0.00     0.148 A 
ATOM     95  C   UNL A   1      47.229  27.314  34.656  1.00  0.00     0.002 A 
ATOM     96  C   UNL A   1      45.765  25.588  35.529  1.00  0.00     0.091 A 
ATOM     97  F   UNL A   1      43.487  25.525  34.821  1.00  0.00    -0.205 F 
ATOM     98  C   UNL A   1      47.033  26.186  35.448  1.00  0.00     0.022 A 
BRANCH  96  99
ATOM     99  S   UNL A   1      45.579  24.196  36.649  1.00  0.00     0.127 S 
ATOM    100  O   UNL A   1      44.435  24.614  37.457  1.00  0.00    -0.237 OA
ATOM    101  O   UNL A   1      45.306  23.090  35.730  1.00  0.00    -0.237 OA
ATOM    102  O   UNL A   1      46.845  24.086  37.361  1.00  0.00    -0.744 OA
ENDBRANCH  96  99
ENDBRANCH  69  92
ENDBRANCH  43  44
ENDBRANCH  35  38
ENDBRANCH  33  34
ENDBRANCH  32  33
ENDBRANCH   1  32
TORSDOF 19
ENDMDL
MODEL 3
REMARK VINA RESULT:     -12.3      2.140      4.663
REMARK SMILES CC(C)c1cc(C(=O)N[C@@H](Cc2c[nH]c3ccccc23)C(=O)NCCCCNC(=O)c2ccc(-c3c4nc(c(-c5cccc(S(=O)(=O)[O-])c5F)c5ccc([nH]5)c(-c5cccc(S(=O)(=O)[O-])c5F)c5nc(c(-c6cccc(S(=O)(=O)[O-])c6F)c6ccc3[nH]6)C=C5)C=C4)cc2)n(C)n1
REMARK SMILES IDX 25 1 24 2 23 3 21 4 22 5 10 7 9 8 7 9 8 10 6 12 4 13 5 14
REMARK SMILES IDX 96 15 94 16 95 17 2 18 1 19 3 20 11 21 12 22 13 23 20 24
REMARK SMILES IDX 14 25 15 26 19 27 16 29 18 30 17 31 26 32 27 33 28 34 29 35
REMARK SMILES IDX 30 37 31 38 32 39 93 40 33 41 92 42 34 43 35 44 36 45 86 46
REMARK SMILES IDX 37 47 91 48 85 49 87 50 38 51 90 52 84 53 83 54 39 56 71 57
REMARK SMILES IDX 51 58 70 59 52 60 55 61 69 62 88 63 53 64 54 65 68 67 89 68
REMARK SMILES IDX 56 69 40 70 41 71 49 72 42 73 44 74 50 75 43 76 45 77 46 78
REMARK SMILES IDX 47 79 48 80 72 81 73 82 81 83 74 84 76 85 82 86 75 87 77 88
REMARK SMILES IDX 78 89 79 90 80 91 57 92 58 93 66 94 59 95 61 96 67 97 60 98
REMARK SMILES IDX 62 99 63 100 64 101 65 102
REMARK H PARENT 23 6 9 11 14 28 28 36 87 55 55 66
REMARK Flexibility Score: inf
ROOT
ATOM      1  C   UNL A   1      31.947  29.944  26.788  1.00  0.00     0.023 C 
ENDROOT
BRANCH   1   2
ATOM      2  C   UNL A   1      33.383  29.448  26.775  1.00  0.00     0.116 C 
BRANCH   2   3
ATOM      3  N   UNL A   1      33.953  29.295  25.457  1.00  0.00    -0.354 N 
ATOM      4  C   UNL A   1      33.901  28.220  24.626  1.00  0.00     0.242 C 
ATOM      5  O   UNL A   1      34.003  28.444  23.413  1.00  0.00    -0.273 OA
ATOM      6  H   UNL A   1      34.447  30.075  25.114  1.00  0.00     0.163 HD
BRANCH   4   7
ATOM      7  C   UNL A   1      33.631  26.772  25.098  1.00  0.00     0.176 C 
BRANCH   7   8
ATOM      8  N   UNL A   1      32.298  26.452  25.588  1.00  0.00    -0.339 N 
ATOM      9  C   UNL A   1      31.030  26.728  25.169  1.00  0.00     0.270 C 
ATOM     10  O   UNL A   1      30.168  26.242  25.914  1.00  0.00    -0.268 OA
ATOM     11  H   UNL A   1      32.316  25.914  26.413  1.00  0.00     0.164 HD
BRANCH   9  12
ATOM     12  C   UNL A   1      30.630  27.468  23.982  1.00  0.00     0.126 A 
ATOM     13  C   UNL A   1      29.841  29.216  22.777  1.00  0.00     0.066 A 
ATOM     14  C   UNL A   1      30.047  28.736  24.081  1.00  0.00     0.059 A 
ATOM     15  N   UNL A   1      30.179  28.280  21.894  1.00  0.00    -0.177 NA
ATOM     16  N   UNL A   1      30.749  27.297  22.620  1.00  0.00    -0.263 N 
ATOM     17  C   UNL A   1      31.506  26.358  21.828  1.00  0.00     0.174 C 
BRANCH  13  18
ATOM     18  C   UNL A   1      29.322  30.552  22.317  1.00  0.00     0.034 C 
ATOM     19  C   UNL A   1      28.171  30.408  21.313  1.00  0.00     0.014 C 
ATOM     20  C   UNL A   1      28.843  31.425  23.488  1.00  0.00     0.014 C 
ENDBRANCH  13  18
ENDBRANCH   9  12
ENDBRANCH   7   8
BRANCH   7  21
ATOM     21  C   UNL A   1      34.175  25.671  24.167  1.00  0.00     0.072 C 
BRANCH  21  22
ATOM     22  C   UNL A   1      34.204  24.271  24.701  1.00  0.00    -0.020 A 
ATOM     23  C   UNL A   1      34.894  23.802  25.805  1.00  0.00     0.087 A 
ATOM     24  C   UNL A   1      33.536  23.142  24.125  1.00  0.00     0.003 A 
ATOM     25  N   UNL A   1      34.586  22.475  25.974  1.00  0.00    -0.361 N 
ATOM     26  C   UNL A   1      33.747  22.053  24.969  1.00  0.00     0.046 A 
ATOM     27  C   UNL A   1      32.745  22.959  22.973  1.00  0.00     0.010 A 
ATOM     28  H   UNL A   1      34.918  21.908  26.706  1.00  0.00     0.166 HD
ATOM     29  C   UNL A   1      33.161  20.801  24.749  1.00  0.00     0.026 A 
ATOM     30  C   UNL A   1      32.181  21.706  22.718  1.00  0.00     0.001 A 
ATOM     31  C   UNL A   1      32.374  20.648  23.603  1.00  0.00     0.002 A 
ENDBRANCH  21  22
ENDBRANCH   7  21
ENDBRANCH   4   7
ENDBRANCH   2   3
ENDBRANCH   1   2
BRANCH   1  32
ATOM     32  C   UNL A   1      31.778  31.456  26.665  1.00  0.00     0.023 C 
BRANCH  32  33
ATOM     33  C   UNL A   1      32.935  32.306  27.182  1.00  0.00     0.116 C 
BRANCH  33  34
ATOM     34  N   UNL A   1      32.556  33.665  27.549  1.00  0.00    -0.352 N 
ATOM     35  C   UNL A   1      33.124  34.496  28.486  1.00  0.00     0.251 C 
ATOM     36  H   UNL A   1      31.787  34.038  27.060  1.00  0.00     0.163 HD
ATOM     37  O   UNL A   1      32.650  35.609  28.700  1.00  0.00    -0.269 OA
BRANCH  35  38
ATOM     38  C   UNL A   1      34.289  34.013  29.255  1.00  0.00     0.039 A 
ATOM     39  C   UNL A   1      34.083  33.151  30.334  1.00  0.00     0.014 A 
ATOM     40  C   UNL A   1      35.583  34.345  28.848  1.00  0.00     0.014 A 
ATOM     41  C   UNL A   1      35.182  32.549  30.950  1.00  0.00     0.010 A 
ATOM     42  C   UNL A   1      36.669  33.680  29.409  1.00  0.00     0.010 A 
ATOM     43  C   UNL A   1      36.482  32.771  30.463  1.00  0.00    -0.014 A 
BRANCH  43  44
ATOM     44  C   UNL A   1      37.653  32.051  31.028  1.00  0.00     0.031 A 
ATOM     45  C   UNL A   1      38.151  32.384  32.410  1.00  0.00     0.074 A 
ATOM     46  C   UNL A   1      38.319  31.156  30.270  1.00  0.00     0.049 A 
ATOM     47  N   UNL A   1      39.178  31.897  33.056  1.00  0.00    -0.248 NA
ATOM     48  C   UNL A   1      37.414  33.421  33.153  1.00  0.00     0.031 C 
ATOM     49  C   UNL A   1      37.994  30.806  28.884  1.00  0.00     0.029 A 
ATOM     50  N   UNL A   1      39.422  30.388  30.550  1.00  0.00    -0.354 N 
ATOM     51  C   UNL A   1      39.226  32.581  34.265  1.00  0.00     0.074 A 
ATOM     52  C   UNL A   1      38.154  33.551  34.245  1.00  0.00     0.031 C 
ATOM     53  C   UNL A   1      38.866  29.884  28.444  1.00  0.00     0.029 A 
ATOM     54  C   UNL A   1      39.826  29.592  29.502  1.00  0.00     0.049 A 
ATOM     55  H   UNL A   1      39.883  30.405  31.421  1.00  0.00     0.167 HD
ATOM     56  C   UNL A   1      40.056  32.389  35.317  1.00  0.00     0.034 A 
ATOM     57  C   UNL A   1      40.851  28.721  29.409  1.00  0.00     0.034 A 
ATOM     58  C   UNL A   1      41.090  31.392  35.357  1.00  0.00     0.049 A 
ATOM     59  C   UNL A   1      41.731  28.500  30.611  1.00  0.00     0.074 A 
ATOM     60  C   UNL A   1      41.945  31.079  36.400  1.00  0.00     0.029 A 
ATOM     61  N   UNL A   1      41.405  30.540  34.312  1.00  0.00    -0.354 N 
ATOM     62  N   UNL A   1      41.661  29.050  31.799  1.00  0.00    -0.248 NA
ATOM     63  C   UNL A   1      42.809  27.508  30.472  1.00  0.00     0.031 C 
ATOM     64  C   UNL A   1      42.780  30.037  35.982  1.00  0.00     0.029 A 
ATOM     65  C   UNL A   1      42.435  29.695  34.685  1.00  0.00     0.049 A 
ATOM     66  H   UNL A   1      40.962  30.535  33.433  1.00  0.00     0.167 HD
ATOM     67  C   UNL A   1      42.653  28.440  32.560  1.00  0.00     0.074 A 
ATOM     68  C   UNL A   1      43.295  27.464  31.704  1.00  0.00     0.031 C 
ATOM     69  C   UNL A   1      43.015  28.680  33.844  1.00  0.00     0.034 A 
BRANCH  56  70
ATOM     70  C   UNL A   1      39.820  33.223  36.550  1.00  0.00     0.023 A 
ATOM     71  C   UNL A   1      40.362  34.523  36.611  1.00  0.00     0.012 A 
ATOM     72  C   UNL A   1      39.021  32.756  37.612  1.00  0.00     0.148 A 
ATOM     73  C   UNL A   1      40.143  35.335  37.722  1.00  0.00     0.002 A 
ATOM     74  C   UNL A   1      38.772  33.588  38.700  1.00  0.00     0.091 A 
ATOM     75  F   UNL A   1      38.530  31.510  37.545  1.00  0.00    -0.205 F 
ATOM     76  C   UNL A   1      39.340  34.871  38.760  1.00  0.00     0.022 A 
BRANCH  74  77
ATOM     77  S   UNL A   1      37.693  33.117  40.057  1.00  0.00     0.127 S 
ATOM     78  O   UNL A   1      38.329  31.886  40.525  1.00  0.00    -0.237 OA
ATOM     79  O   UNL A   1      37.828  34.256  40.964  1.00  0.00    -0.237 OA
ATOM     80  O   UNL A   1      36.367  32.953  39.478  1.00  0.00    -0.744 OA
ENDBRANCH  74  77
ENDBRANCH  56  70
BRANCH  57  81
ATOM     81  C   UNL A   1      41.053  27.922  28.166  1.00  0.00     0.023 A 
ATOM     82  C   UNL A   1      41.668  28.529  27.052  1.00  0.00     0.012 A 
ATOM     83  C   UNL A   1      40.644  26.578  28.072  1.00  0.00     0.148 A 
ATOM     84  C   UNL A   1      41.831  27.829  25.857  1.00  0.00     0.002 A 
ATOM     85  C   UNL A   1      40.860  25.869  26.895  1.00  0.00     0.091 A 
ATOM     86  F   UNL A   1      40.046  26.019  29.134  1.00  0.00    -0.205 F 
ATOM     87  C   UNL A   1      41.435  26.497  25.781  1.00  0.00     0.022 A 
BRANCH  85  88
ATOM     88  S   UNL A   1      40.496  24.115  26.761  1.00  0.00     0.127 S 
ATOM     89  O   UNL A   1      41.431  23.691  25.724  1.00  0.00    -0.237 OA
ATOM     90  O   UNL A   1      40.806  23.631  28.107  1.00  0.00    -0.237 OA
ATOM     91  O   UNL A   1      39.081  24.043  26.417  1.00  0.00    -0.744 OA
ENDBRANCH  85  88
ENDBRANCH  57  81
BRANCH  69  92
ATOM     92  C   UNL A   1      44.125  27.844  34.424  1.00  0.00     0.023 A 
ATOM     93  C   UNL A   1      45.448  28.328  34.399  1.00  0.00     0.012 A 
ATOM     94  C   UNL A   1      43.848  26.615  35.052  1.00  0.00     0.148 A 
ATOM     95  C   UNL A   1      46.484  27.583  34.962  1.00  0.00     0.002 A 
ATOM     96  C   UNL A   1      44.879  25.901  35.652  1.00  0.00     0.091 A 
ATOM     97  F   UNL A   1      42.585  26.162  35.048  1.00  0.00    -0.205 F 
ATOM     98  C   UNL A   1      46.198  26.377  35.597  1.00  0.00     0.022 A 
BRANCH  96  99
ATOM     99  S   UNL A   1      44.586  24.387  36.573  1.00  0.00     0.127 S 
ATOM    100  O   UNL A   1      43.938  24.893  37.782  1.00  0.00    -0.237 OA
ATOM    101  O   UNL A   1      43.704  23.640  35.675  1.00  0.00    -0.237 OA
ATOM    102  O   UNL A   1      45.896  23.780  36.769  1.00  0.00    -0.744 OA
ENDBRANCH  96  99
ENDBRANCH  69  92
ENDBRANCH  43  44
ENDBRANCH  35  38
ENDBRANCH  33  34
ENDBRANCH  32  33
ENDBRANCH   1  32
TORSDOF 19
ENDMDL
