MODEL 1
REMARK VINA RESULT:     -12.5      0.000      0.000
REMARK SMILES O=C(NCCCCNC(=O)c1cc(-n2ccnc2)ccn1)c1ccc(-c2c3nc(c(-c4cccc(S(=O)(=O)[O-])c4F)c4ccc([nH]4)c(-c4cccc(S(=O)(=O)[O-])c4F)c4nc(c(-c5cccc(S(=O)(=O)[O-])c5F)c5ccc2[nH]5)C=C4)C=C3)cc1
REMARK SMILES IDX 4 1 3 2 1 3 2 4 22 6 23 7 84 8 24 9 83 10 25 11 26 12 27 13
REMARK SMILES IDX 77 14 28 15 82 16 76 17 78 18 29 19 81 20 75 21 74 22 30 24
REMARK SMILES IDX 62 25 42 26 61 27 43 28 46 29 60 30 79 31 44 32 45 33 59 35
REMARK SMILES IDX 80 36 47 37 31 38 32 39 40 40 33 41 35 42 41 43 34 44 36 45
REMARK SMILES IDX 37 46 38 47 39 48 63 49 64 50 72 51 65 52 67 53 73 54 66 55
REMARK SMILES IDX 68 56 69 57 70 58 71 59 48 60 49 61 57 62 50 63 52 64 58 65
REMARK SMILES IDX 51 66 53 67 54 68 55 69 56 70 5 71 6 72 7 73 8 74 9 75 10 77
REMARK SMILES IDX 11 78 12 79 21 80 13 81 20 82 19 83 14 84 15 85 18 86 16 87
REMARK SMILES IDX 17 88
REMARK H PARENT 3 5 78 23 46 34 8 76
REMARK Flexibility Score: inf
ROOT
ATOM      1  C   UNL A   1      33.735  30.159  27.318  1.00  0.00     0.116 C 
ENDROOT
BRANCH   1   2
ATOM      2  N   UNL A   1      34.222  31.483  27.643  1.00  0.00    -0.352 N 
ATOM      3  O   UNL A   1      35.498  33.242  28.017  1.00  0.00    -0.269 OA
ATOM      4  C   UNL A   1      35.452  32.013  27.926  1.00  0.00     0.251 C 
ATOM      5  H   UNL A   1      33.503  32.157  27.664  1.00  0.00     0.163 HD
BRANCH   4   6
ATOM      6  C   UNL A   1      36.684  31.222  28.190  1.00  0.00     0.039 A 
ATOM      7  C   UNL A   1      36.938  29.934  27.714  1.00  0.00     0.014 A 
ATOM      8  C   UNL A   1      37.663  31.851  28.983  1.00  0.00     0.014 A 
ATOM      9  C   UNL A   1      38.099  29.260  28.086  1.00  0.00     0.010 A 
ATOM     10  C   UNL A   1      38.834  31.189  29.342  1.00  0.00     0.010 A 
ATOM     11  C   UNL A   1      39.037  29.881  28.914  1.00  0.00    -0.014 A 
BRANCH  11  12
ATOM     12  C   UNL A   1      40.300  29.187  29.160  1.00  0.00     0.031 A 
ATOM     13  C   UNL A   1      40.574  28.881  30.596  1.00  0.00     0.074 A 
ATOM     14  C   UNL A   1      41.088  28.702  28.179  1.00  0.00     0.049 A 
ATOM     15  N   UNL A   1      41.587  29.245  31.318  1.00  0.00    -0.248 NA
ATOM     16  C   UNL A   1      39.535  28.159  31.347  1.00  0.00     0.031 C 
ATOM     17  C   UNL A   1      40.790  28.648  26.746  1.00  0.00     0.029 A 
ATOM     18  N   UNL A   1      42.266  28.018  28.279  1.00  0.00    -0.354 N 
ATOM     19  C   UNL A   1      41.413  28.618  32.553  1.00  0.00     0.074 A 
ATOM     20  C   UNL A   1      40.071  28.098  32.564  1.00  0.00     0.031 C 
ATOM     21  C   UNL A   1      41.619  27.758  26.157  1.00  0.00     0.029 A 
ATOM     22  C   UNL A   1      42.578  27.283  27.139  1.00  0.00     0.049 A 
ATOM     23  H   UNL A   1      42.838  28.040  29.080  1.00  0.00     0.167 HD
ATOM     24  C   UNL A   1      42.453  28.372  33.396  1.00  0.00     0.034 A 
ATOM     25  C   UNL A   1      43.497  26.291  27.035  1.00  0.00     0.034 A 
ATOM     26  C   UNL A   1      43.604  29.171  33.086  1.00  0.00     0.049 A 
ATOM     27  C   UNL A   1      44.433  26.419  28.173  1.00  0.00     0.074 A 
ATOM     28  C   UNL A   1      43.869  30.524  33.009  1.00  0.00     0.029 A 
ATOM     29  N   UNL A   1      44.651  28.548  32.456  1.00  0.00    -0.354 N 
ATOM     30  N   UNL A   1      45.278  27.400  28.312  1.00  0.00    -0.248 NA
ATOM     31  C   UNL A   1      44.169  25.641  29.371  1.00  0.00     0.031 C 
ATOM     32  C   UNL A   1      44.789  30.654  31.929  1.00  0.00     0.029 A 
ATOM     33  C   UNL A   1      45.061  29.373  31.445  1.00  0.00     0.049 A 
ATOM     34  H   UNL A   1      45.036  27.671  32.688  1.00  0.00     0.167 HD
ATOM     35  C   UNL A   1      45.297  27.645  29.678  1.00  0.00     0.074 A 
ATOM     36  C   UNL A   1      44.698  26.460  30.284  1.00  0.00     0.031 C 
ATOM     37  C   UNL A   1      45.530  28.900  30.163  1.00  0.00     0.034 A 
BRANCH  24  38
ATOM     38  C   UNL A   1      42.553  27.165  34.301  1.00  0.00     0.023 A 
ATOM     39  C   UNL A   1      42.166  27.320  35.652  1.00  0.00     0.012 A 
ATOM     40  C   UNL A   1      43.260  25.986  33.970  1.00  0.00     0.148 A 
ATOM     41  C   UNL A   1      42.497  26.370  36.625  1.00  0.00     0.002 A 
ATOM     42  C   UNL A   1      43.511  25.005  34.922  1.00  0.00     0.091 A 
ATOM     43  F   UNL A   1      43.817  25.859  32.761  1.00  0.00    -0.205 F 
ATOM     44  C   UNL A   1      43.161  25.206  36.259  1.00  0.00     0.022 A 
BRANCH  42  45
ATOM     45  S   UNL A   1      44.309  23.457  34.485  1.00  0.00     0.127 S 
ATOM     46  O   UNL A   1      43.431  22.961  33.430  1.00  0.00    -0.237 OA
ATOM     47  O   UNL A   1      45.624  23.914  34.034  1.00  0.00    -0.237 OA
ATOM     48  O   UNL A   1      44.342  22.680  35.718  1.00  0.00    -0.744 OA
ENDBRANCH  42  45
ENDBRANCH  24  38
BRANCH  25  49
ATOM     49  C   UNL A   1      43.490  25.084  26.176  1.00  0.00     0.023 A 
ATOM     50  C   UNL A   1      44.480  24.923  25.187  1.00  0.00     0.012 A 
ATOM     51  C   UNL A   1      42.689  23.968  26.507  1.00  0.00     0.148 A 
ATOM     52  C   UNL A   1      44.686  23.683  24.568  1.00  0.00     0.002 A 
ATOM     53  C   UNL A   1      42.891  22.741  25.882  1.00  0.00     0.091 A 
ATOM     54  F   UNL A   1      41.798  24.083  27.499  1.00  0.00    -0.205 F 
ATOM     55  C   UNL A   1      43.898  22.591  24.920  1.00  0.00     0.022 A 
BRANCH  53  56
ATOM     56  S   UNL A   1      41.925  21.285  26.301  1.00  0.00     0.127 S 
ATOM     57  O   UNL A   1      42.221  21.125  27.727  1.00  0.00    -0.237 OA
ATOM     58  O   UNL A   1      40.567  21.727  26.005  1.00  0.00    -0.237 OA
ATOM     59  O   UNL A   1      42.440  20.211  25.461  1.00  0.00    -0.744 OA
ENDBRANCH  53  56
ENDBRANCH  25  49
BRANCH  37  60
ATOM     60  C   UNL A   1      46.039  29.951  29.209  1.00  0.00     0.023 A 
ATOM     61  C   UNL A   1      47.413  30.118  28.939  1.00  0.00     0.012 A 
ATOM     62  C   UNL A   1      45.104  30.662  28.438  1.00  0.00     0.148 A 
ATOM     63  C   UNL A   1      47.846  30.996  27.942  1.00  0.00     0.002 A 
ATOM     64  C   UNL A   1      45.536  31.495  27.414  1.00  0.00     0.091 A 
ATOM     65  F   UNL A   1      43.800  30.489  28.702  1.00  0.00    -0.205 F 
ATOM     66  C   UNL A   1      46.907  31.674  27.169  1.00  0.00     0.022 A 
BRANCH  64  67
ATOM     67  S   UNL A   1      44.372  32.285  26.299  1.00  0.00     0.127 S 
ATOM     68  O   UNL A   1      43.458  31.184  25.984  1.00  0.00    -0.237 OA
ATOM     69  O   UNL A   1      43.793  33.335  27.142  1.00  0.00    -0.237 OA
ATOM     70  O   UNL A   1      45.160  32.785  25.185  1.00  0.00    -0.744 OA
ENDBRANCH  64  67
ENDBRANCH  37  60
ENDBRANCH  11  12
ENDBRANCH   4   6
ENDBRANCH   1   2
BRANCH   1  71
ATOM     71  C   UNL A   1      32.220  30.054  27.166  1.00  0.00     0.023 C 
BRANCH  71  72
ATOM     72  C   UNL A   1      31.665  30.478  25.802  1.00  0.00     0.023 C 
BRANCH  72  73
ATOM     73  C   UNL A   1      31.691  29.418  24.702  1.00  0.00     0.116 C 
BRANCH  73  74
ATOM     74  N   UNL A   1      30.727  29.656  23.639  1.00  0.00    -0.351 N 
ATOM     75  C   UNL A   1      30.215  28.777  22.704  1.00  0.00     0.269 C 
ATOM     76  H   UNL A   1      30.390  30.580  23.576  1.00  0.00     0.163 HD
ATOM     77  O   UNL A   1      29.405  29.177  21.872  1.00  0.00    -0.268 OA
BRANCH  75  78
ATOM     78  C   UNL A   1      30.639  27.349  22.718  1.00  0.00     0.130 A 
ATOM     79  C   UNL A   1      30.313  26.535  23.795  1.00  0.00     0.060 A 
ATOM     80  N   UNL A   1      31.390  26.940  21.663  1.00  0.00    -0.251 NA
ATOM     81  C   UNL A   1      30.900  25.270  23.846  1.00  0.00     0.050 A 
ATOM     82  C   UNL A   1      31.888  25.690  21.716  1.00  0.00     0.114 A 
ATOM     83  C   UNL A   1      31.705  24.837  22.791  1.00  0.00     0.047 A 
BRANCH  81  84
ATOM     84  N   UNL A   1      30.716  24.452  24.984  1.00  0.00    -0.306 N 
ATOM     85  C   UNL A   1      31.024  23.117  25.110  1.00  0.00     0.113 A 
ATOM     86  C   UNL A   1      30.155  24.825  26.185  1.00  0.00     0.204 A 
ATOM     87  C   UNL A   1      30.666  22.769  26.392  1.00  0.00     0.131 A 
ATOM     88  N   UNL A   1      30.124  23.836  27.052  1.00  0.00    -0.245 NA
ENDBRANCH  81  84
ENDBRANCH  75  78
ENDBRANCH  73  74
ENDBRANCH  72  73
ENDBRANCH  71  72
ENDBRANCH   1  71
TORSDOF 15
ENDMDL
MODEL 2
REMARK VINA RESULT:     -12.4      1.450      2.871
REMARK SMILES O=C(NCCCCNC(=O)c1cc(-n2ccnc2)ccn1)c1ccc(-c2c3nc(c(-c4cccc(S(=O)(=O)[O-])c4F)c4ccc([nH]4)c(-c4cccc(S(=O)(=O)[O-])c4F)c4nc(c(-c5cccc(S(=O)(=O)[O-])c5F)c5ccc2[nH]5)C=C4)C=C3)cc1
REMARK SMILES IDX 4 1 3 2 1 3 2 4 22 6 23 7 84 8 24 9 83 10 25 11 26 12 27 13
REMARK SMILES IDX 77 14 28 15 82 16 76 17 78 18 29 19 81 20 75 21 74 22 30 24
REMARK SMILES IDX 62 25 42 26 61 27 43 28 46 29 60 30 79 31 44 32 45 33 59 35
REMARK SMILES IDX 80 36 47 37 31 38 32 39 40 40 33 41 35 42 41 43 34 44 36 45
REMARK SMILES IDX 37 46 38 47 39 48 63 49 64 50 72 51 65 52 67 53 73 54 66 55
REMARK SMILES IDX 68 56 69 57 70 58 71 59 48 60 49 61 57 62 50 63 52 64 58 65
REMARK SMILES IDX 51 66 53 67 54 68 55 69 56 70 5 71 6 72 7 73 8 74 9 75 10 77
REMARK SMILES IDX 11 78 12 79 21 80 13 81 20 82 19 83 14 84 15 85 18 86 16 87
REMARK SMILES IDX 17 88
REMARK H PARENT 3 5 78 23 46 34 8 76
REMARK Flexibility Score: inf
ROOT
ATOM      1  C   UNL A   1      34.133  30.608  27.280  1.00  0.00     0.116 C 
ENDROOT
BRANCH   1   2
ATOM      2  N   UNL A   1      34.257  31.593  28.333  1.00  0.00    -0.352 N 
ATOM      3  O   UNL A   1      35.036  33.005  29.837  1.00  0.00    -0.269 OA
ATOM      4  C   UNL A   1      35.283  32.024  29.130  1.00  0.00     0.251 C 
ATOM      5  H   UNL A   1      33.409  32.059  28.519  1.00  0.00     0.163 HD
BRANCH   4   6
ATOM      6  C   UNL A   1      36.613  31.368  29.245  1.00  0.00     0.039 A 
ATOM      7  C   UNL A   1      37.824  32.025  29.469  1.00  0.00     0.014 A 
ATOM      8  C   UNL A   1      36.622  29.965  29.119  1.00  0.00     0.014 A 
ATOM      9  C   UNL A   1      39.022  31.312  29.486  1.00  0.00     0.010 A 
ATOM     10  C   UNL A   1      37.813  29.246  29.154  1.00  0.00     0.010 A 
ATOM     11  C   UNL A   1      39.016  29.927  29.310  1.00  0.00    -0.014 A 
BRANCH  11  12
ATOM     12  C   UNL A   1      40.280  29.210  29.476  1.00  0.00     0.031 A 
ATOM     13  C   UNL A   1      40.630  28.880  30.890  1.00  0.00     0.074 A 
ATOM     14  C   UNL A   1      41.005  28.728  28.446  1.00  0.00     0.049 A 
ATOM     15  N   UNL A   1      41.688  29.219  31.558  1.00  0.00    -0.248 NA
ATOM     16  C   UNL A   1      39.623  28.164  31.689  1.00  0.00     0.031 C 
ATOM     17  C   UNL A   1      40.625  28.697  27.032  1.00  0.00     0.029 A 
ATOM     18  N   UNL A   1      42.175  28.024  28.470  1.00  0.00    -0.354 N 
ATOM     19  C   UNL A   1      41.574  28.578  32.793  1.00  0.00     0.074 A 
ATOM     20  C   UNL A   1      40.226  28.079  32.873  1.00  0.00     0.031 C 
ATOM     21  C   UNL A   1      41.406  27.803  26.385  1.00  0.00     0.029 A 
ATOM     22  C   UNL A   1      42.410  27.300  27.305  1.00  0.00     0.049 A 
ATOM     23  H   UNL A   1      42.791  28.027  29.238  1.00  0.00     0.167 HD
ATOM     24  C   UNL A   1      42.656  28.305  33.573  1.00  0.00     0.034 A 
ATOM     25  C   UNL A   1      43.307  26.297  27.136  1.00  0.00     0.034 A 
ATOM     26  C   UNL A   1      43.800  29.091  33.208  1.00  0.00     0.049 A 
ATOM     27  C   UNL A   1      44.307  26.394  28.221  1.00  0.00     0.074 A 
ATOM     28  C   UNL A   1      44.081  30.440  33.134  1.00  0.00     0.029 A 
ATOM     29  N   UNL A   1      44.800  28.460  32.512  1.00  0.00    -0.354 N 
ATOM     30  N   UNL A   1      45.174  27.360  28.325  1.00  0.00    -0.248 NA
ATOM     31  C   UNL A   1      44.098  25.604  29.423  1.00  0.00     0.031 C 
ATOM     32  C   UNL A   1      44.941  30.572  32.005  1.00  0.00     0.029 A 
ATOM     33  C   UNL A   1      45.165  29.293  31.490  1.00  0.00     0.049 A 
ATOM     34  H   UNL A   1      45.183  27.575  32.711  1.00  0.00     0.167 HD
ATOM     35  C   UNL A   1      45.273  27.586  29.690  1.00  0.00     0.074 A 
ATOM     36  C   UNL A   1      44.691  26.402  30.314  1.00  0.00     0.031 C 
ATOM     37  C   UNL A   1      45.553  28.831  30.178  1.00  0.00     0.034 A 
BRANCH  24  38
ATOM     38  C   UNL A   1      42.787  27.085  34.455  1.00  0.00     0.023 A 
ATOM     39  C   UNL A   1      42.544  27.241  35.839  1.00  0.00     0.012 A 
ATOM     40  C   UNL A   1      43.400  25.877  34.047  1.00  0.00     0.148 A 
ATOM     41  C   UNL A   1      42.925  26.266  36.768  1.00  0.00     0.002 A 
ATOM     42  C   UNL A   1      43.697  24.875  34.963  1.00  0.00     0.091 A 
ATOM     43  F   UNL A   1      43.827  25.739  32.788  1.00  0.00    -0.205 F 
ATOM     44  C   UNL A   1      43.492  25.076  36.329  1.00  0.00     0.022 A 
BRANCH  42  45
ATOM     45  S   UNL A   1      44.373  23.296  34.437  1.00  0.00     0.127 S 
ATOM     46  O   UNL A   1      45.633  23.704  33.826  1.00  0.00    -0.237 OA
ATOM     47  O   UNL A   1      44.501  22.586  35.711  1.00  0.00    -0.237 OA
ATOM     48  O   UNL A   1      43.372  22.729  33.541  1.00  0.00    -0.744 OA
ENDBRANCH  42  45
ENDBRANCH  24  38
BRANCH  25  49
ATOM     49  C   UNL A   1      43.232  25.101  26.264  1.00  0.00     0.023 A 
ATOM     50  C   UNL A   1      44.160  24.941  25.215  1.00  0.00     0.012 A 
ATOM     51  C   UNL A   1      42.437  23.991  26.627  1.00  0.00     0.148 A 
ATOM     52  C   UNL A   1      44.312  23.707  24.570  1.00  0.00     0.002 A 
ATOM     53  C   UNL A   1      42.585  22.771  25.976  1.00  0.00     0.091 A 
ATOM     54  F   UNL A   1      41.608  24.104  27.671  1.00  0.00    -0.205 F 
ATOM     55  C   UNL A   1      43.531  22.620  24.954  1.00  0.00     0.022 A 
BRANCH  53  56
ATOM     56  S   UNL A   1      41.625  21.321  26.433  1.00  0.00     0.127 S 
ATOM     57  O   UNL A   1      40.265  21.734  26.077  1.00  0.00    -0.237 OA
ATOM     58  O   UNL A   1      42.198  20.294  25.569  1.00  0.00    -0.237 OA
ATOM     59  O   UNL A   1      41.838  21.139  27.863  1.00  0.00    -0.744 OA
ENDBRANCH  53  56
ENDBRANCH  25  49
BRANCH  37  60
ATOM     60  C   UNL A   1      46.025  29.887  29.210  1.00  0.00     0.023 A 
ATOM     61  C   UNL A   1      47.390  30.080  28.915  1.00  0.00     0.012 A 
ATOM     62  C   UNL A   1      45.062  30.576  28.453  1.00  0.00     0.148 A 
ATOM     63  C   UNL A   1      47.787  30.962  27.906  1.00  0.00     0.002 A 
ATOM     64  C   UNL A   1      45.459  31.412  27.417  1.00  0.00     0.091 A 
ATOM     65  F   UNL A   1      43.767  30.378  28.741  1.00  0.00    -0.205 F 
ATOM     66  C   UNL A   1      46.821  31.617  27.147  1.00  0.00     0.022 A 
BRANCH  64  67
ATOM     67  S   UNL A   1      44.260  32.173  26.319  1.00  0.00     0.127 S 
ATOM     68  O   UNL A   1      43.377  31.047  26.006  1.00  0.00    -0.237 OA
ATOM     69  O   UNL A   1      43.658  33.200  27.176  1.00  0.00    -0.237 OA
ATOM     70  O   UNL A   1      45.021  32.705  25.202  1.00  0.00    -0.744 OA
ENDBRANCH  64  67
ENDBRANCH  37  60
ENDBRANCH  11  12
ENDBRANCH   4   6
ENDBRANCH   1   2
BRANCH   1  71
ATOM     71  C   UNL A   1      32.772  29.921  27.203  1.00  0.00     0.023 C 
BRANCH  71  72
ATOM     72  C   UNL A   1      32.236  29.678  25.789  1.00  0.00     0.023 C 
BRANCH  72  73
ATOM     73  C   UNL A   1      31.682  28.283  25.506  1.00  0.00     0.116 C 
BRANCH  73  74
ATOM     74  N   UNL A   1      32.162  27.706  24.259  1.00  0.00    -0.351 N 
ATOM     75  C   UNL A   1      31.509  27.558  23.051  1.00  0.00     0.269 C 
ATOM     76  H   UNL A   1      33.088  27.371  24.280  1.00  0.00     0.163 HD
ATOM     77  O   UNL A   1      32.090  27.032  22.105  1.00  0.00    -0.268 OA
BRANCH  75  78
ATOM     78  C   UNL A   1      30.110  28.047  22.898  1.00  0.00     0.130 A 
ATOM     79  C   UNL A   1      29.863  29.274  22.297  1.00  0.00     0.060 A 
ATOM     80  N   UNL A   1      29.141  27.255  23.424  1.00  0.00    -0.251 NA
ATOM     81  C   UNL A   1      28.559  29.768  22.357  1.00  0.00     0.050 A 
ATOM     82  C   UNL A   1      27.884  27.736  23.409  1.00  0.00     0.114 A 
ATOM     83  C   UNL A   1      27.548  28.990  22.925  1.00  0.00     0.047 A 
BRANCH  81  84
ATOM     84  N   UNL A   1      28.276  31.071  21.887  1.00  0.00    -0.306 N 
ATOM     85  C   UNL A   1      27.969  31.444  20.599  1.00  0.00     0.113 A 
ATOM     86  C   UNL A   1      28.286  32.234  22.625  1.00  0.00     0.204 A 
ATOM     87  C   UNL A   1      27.775  32.805  20.640  1.00  0.00     0.131 A 
ATOM     88  N   UNL A   1      27.978  33.289  21.902  1.00  0.00    -0.245 NA
ENDBRANCH  81  84
ENDBRANCH  75  78
ENDBRANCH  73  74
ENDBRANCH  72  73
ENDBRANCH  71  72
ENDBRANCH   1  71
TORSDOF 15
ENDMDL
MODEL 3
REMARK VINA RESULT:     -12.3      4.110      8.224
REMARK SMILES O=C(NCCCCNC(=O)c1cc(-n2ccnc2)ccn1)c1ccc(-c2c3nc(c(-c4cccc(S(=O)(=O)[O-])c4F)c4ccc([nH]4)c(-c4cccc(S(=O)(=O)[O-])c4F)c4nc(c(-c5cccc(S(=O)(=O)[O-])c5F)c5ccc2[nH]5)C=C4)C=C3)cc1
REMARK SMILES IDX 4 1 3 2 1 3 2 4 22 6 23 7 84 8 24 9 83 10 25 11 26 12 27 13
REMARK SMILES IDX 77 14 28 15 82 16 76 17 78 18 29 19 81 20 75 21 74 22 30 24
REMARK SMILES IDX 62 25 42 26 61 27 43 28 46 29 60 30 79 31 44 32 45 33 59 35
REMARK SMILES IDX 80 36 47 37 31 38 32 39 40 40 33 41 35 42 41 43 34 44 36 45
REMARK SMILES IDX 37 46 38 47 39 48 63 49 64 50 72 51 65 52 67 53 73 54 66 55
REMARK SMILES IDX 68 56 69 57 70 58 71 59 48 60 49 61 57 62 50 63 52 64 58 65
REMARK SMILES IDX 51 66 53 67 54 68 55 69 56 70 5 71 6 72 7 73 8 74 9 75 10 77
REMARK SMILES IDX 11 78 12 79 21 80 13 81 20 82 19 83 14 84 15 85 18 86 16 87
REMARK SMILES IDX 17 88
REMARK H PARENT 3 5 78 23 46 34 8 76
REMARK Flexibility Score: inf
ROOT
ATOM      1  C   UNL A   1      38.856  19.221  25.828  1.00  0.00     0.116 C 
ENDROOT
BRANCH   1   2
ATOM      2  N   UNL A   1      40.220  18.807  25.578  1.00  0.00    -0.352 N 
ATOM      3  O   UNL A   1      42.413  18.582  25.634  1.00  0.00    -0.269 OA
ATOM      4  C   UNL A   1      41.452  19.304  25.912  1.00  0.00     0.251 C 
ATOM      5  H   UNL A   1      40.275  17.979  25.048  1.00  0.00     0.163 HD
BRANCH   4   6
ATOM      6  C   UNL A   1      41.702  20.644  26.508  1.00  0.00     0.039 A 
ATOM      7  C   UNL A   1      42.338  21.709  25.869  1.00  0.00     0.014 A 
ATOM      8  C   UNL A   1      41.243  20.828  27.827  1.00  0.00     0.014 A 
ATOM      9  C   UNL A   1      42.583  22.898  26.552  1.00  0.00     0.010 A 
ATOM     10  C   UNL A   1      41.469  22.020  28.508  1.00  0.00     0.010 A 
ATOM     11  C   UNL A   1      42.165  23.046  27.876  1.00  0.00    -0.014 A 
BRANCH  11  12
ATOM     12  C   UNL A   1      42.320  24.359  28.501  1.00  0.00     0.031 A 
ATOM     13  C   UNL A   1      41.211  25.319  28.222  1.00  0.00     0.074 A 
ATOM     14  C   UNL A   1      43.286  24.649  29.396  1.00  0.00     0.049 A 
ATOM     15  N   UNL A   1      41.280  26.491  27.672  1.00  0.00    -0.248 NA
ATOM     16  C   UNL A   1      39.838  24.870  28.502  1.00  0.00     0.031 C 
ATOM     17  C   UNL A   1      44.242  23.719  30.002  1.00  0.00     0.029 A 
ATOM     18  N   UNL A   1      43.519  25.816  30.066  1.00  0.00    -0.354 N 
ATOM     19  C   UNL A   1      39.986  27.011  27.733  1.00  0.00     0.074 A 
ATOM     20  C   UNL A   1      39.122  25.921  28.105  1.00  0.00     0.031 C 
ATOM     21  C   UNL A   1      44.766  24.287  31.111  1.00  0.00     0.029 A 
ATOM     22  C   UNL A   1      44.281  25.651  31.219  1.00  0.00     0.049 A 
ATOM     23  H   UNL A   1      43.179  26.689  29.763  1.00  0.00     0.167 HD
ATOM     24  C   UNL A   1      39.737  28.349  27.692  1.00  0.00     0.034 A 
ATOM     25  C   UNL A   1      44.429  26.541  32.231  1.00  0.00     0.034 A 
ATOM     26  C   UNL A   1      40.850  29.092  27.172  1.00  0.00     0.049 A 
ATOM     27  C   UNL A   1      44.043  27.875  31.724  1.00  0.00     0.074 A 
ATOM     28  C   UNL A   1      41.560  29.097  25.988  1.00  0.00     0.029 A 
ATOM     29  N   UNL A   1      41.614  29.792  28.071  1.00  0.00    -0.354 N 
ATOM     30  N   UNL A   1      44.724  28.539  30.834  1.00  0.00    -0.248 NA
ATOM     31  C   UNL A   1      42.676  28.321  31.931  1.00  0.00     0.031 C 
ATOM     32  C   UNL A   1      42.905  29.368  26.371  1.00  0.00     0.029 A 
ATOM     33  C   UNL A   1      42.923  29.555  27.755  1.00  0.00     0.049 A 
ATOM     34  H   UNL A   1      41.281  30.359  28.805  1.00  0.00     0.167 HD
ATOM     35  C   UNL A   1      43.757  29.166  30.062  1.00  0.00     0.074 A 
ATOM     36  C   UNL A   1      42.534  29.098  30.855  1.00  0.00     0.031 C 
ATOM     37  C   UNL A   1      43.974  29.423  28.738  1.00  0.00     0.034 A 
BRANCH  24  38
ATOM     38  C   UNL A   1      38.612  29.032  28.435  1.00  0.00     0.023 A 
ATOM     39  C   UNL A   1      37.755  29.881  27.698  1.00  0.00     0.012 A 
ATOM     40  C   UNL A   1      38.525  29.104  29.845  1.00  0.00     0.148 A 
ATOM     41  C   UNL A   1      36.887  30.779  28.332  1.00  0.00     0.002 A 
ATOM     42  C   UNL A   1      37.601  29.934  30.468  1.00  0.00     0.091 A 
ATOM     43  F   UNL A   1      39.428  28.472  30.602  1.00  0.00    -0.205 F 
ATOM     44  C   UNL A   1      36.802  30.799  29.718  1.00  0.00     0.022 A 
BRANCH  42  45
ATOM     45  S   UNL A   1      37.409  29.948  32.254  1.00  0.00     0.127 S 
ATOM     46  O   UNL A   1      38.656  30.574  32.679  1.00  0.00    -0.237 OA
ATOM     47  O   UNL A   1      36.212  30.774  32.420  1.00  0.00    -0.237 OA
ATOM     48  O   UNL A   1      37.224  28.552  32.632  1.00  0.00    -0.744 OA
ENDBRANCH  42  45
ENDBRANCH  24  38
BRANCH  25  49
ATOM     49  C   UNL A   1      44.633  26.297  33.679  1.00  0.00     0.023 A 
ATOM     50  C   UNL A   1      45.924  26.413  34.233  1.00  0.00     0.012 A 
ATOM     51  C   UNL A   1      43.533  26.227  34.561  1.00  0.00     0.148 A 
ATOM     52  C   UNL A   1      46.109  26.486  35.619  1.00  0.00     0.002 A 
ATOM     53  C   UNL A   1      43.723  26.290  35.938  1.00  0.00     0.091 A 
ATOM     54  F   UNL A   1      42.296  26.196  34.051  1.00  0.00    -0.205 F 
ATOM     55  C   UNL A   1      45.010  26.433  36.472  1.00  0.00     0.022 A 
BRANCH  53  56
ATOM     56  S   UNL A   1      42.349  26.247  37.096  1.00  0.00     0.127 S 
ATOM     57  O   UNL A   1      41.811  24.902  36.877  1.00  0.00    -0.237 OA
ATOM     58  O   UNL A   1      43.025  26.435  38.375  1.00  0.00    -0.237 OA
ATOM     59  O   UNL A   1      41.452  27.321  36.688  1.00  0.00    -0.744 OA
ENDBRANCH  53  56
ENDBRANCH  25  49
BRANCH  37  60
ATOM     60  C   UNL A   1      45.375  29.269  28.201  1.00  0.00     0.023 A 
ATOM     61  C   UNL A   1      46.327  30.306  28.275  1.00  0.00     0.012 A 
ATOM     62  C   UNL A   1      45.790  27.995  27.776  1.00  0.00     0.148 A 
ATOM     63  C   UNL A   1      47.657  30.086  27.906  1.00  0.00     0.002 A 
ATOM     64  C   UNL A   1      47.123  27.767  27.459  1.00  0.00     0.091 A 
ATOM     65  F   UNL A   1      44.874  27.016  27.715  1.00  0.00    -0.205 F 
ATOM     66  C   UNL A   1      48.058  28.812  27.512  1.00  0.00     0.022 A 
BRANCH  64  67
ATOM     67  S   UNL A   1      47.724  26.119  27.079  1.00  0.00     0.127 S 
ATOM     68  O   UNL A   1      47.316  25.365  28.266  1.00  0.00    -0.237 OA
ATOM     69  O   UNL A   1      46.978  25.786  25.861  1.00  0.00    -0.237 OA
ATOM     70  O   UNL A   1      49.156  26.250  26.880  1.00  0.00    -0.744 OA
ENDBRANCH  64  67
ENDBRANCH  37  60
ENDBRANCH  11  12
ENDBRANCH   4   6
ENDBRANCH   1   2
BRANCH   1  71
ATOM     71  C   UNL A   1      38.344  20.326  24.908  1.00  0.00     0.023 C 
BRANCH  71  72
ATOM     72  C   UNL A   1      36.862  20.679  25.064  1.00  0.00     0.023 C 
BRANCH  72  73
ATOM     73  C   UNL A   1      36.534  22.160  25.246  1.00  0.00     0.116 C 
BRANCH  73  74
ATOM     74  N   UNL A   1      35.731  22.439  26.426  1.00  0.00    -0.351 N 
ATOM     75  C   UNL A   1      34.441  22.043  26.725  1.00  0.00     0.269 C 
ATOM     76  H   UNL A   1      36.170  22.991  27.114  1.00  0.00     0.163 HD
ATOM     77  O   UNL A   1      33.927  22.391  27.785  1.00  0.00    -0.268 OA
BRANCH  75  78
ATOM     78  C   UNL A   1      33.687  21.187  25.767  1.00  0.00     0.130 A 
ATOM     79  C   UNL A   1      33.687  19.806  25.917  1.00  0.00     0.060 A 
ATOM     80  N   UNL A   1      33.074  21.835  24.743  1.00  0.00    -0.251 NA
ATOM     81  C   UNL A   1      33.132  19.047  24.885  1.00  0.00     0.050 A 
ATOM     82  C   UNL A   1      32.493  21.073  23.798  1.00  0.00     0.114 A 
ATOM     83  C   UNL A   1      32.525  19.688  23.803  1.00  0.00     0.047 A 
BRANCH  81  84
ATOM     84  N   UNL A   1      33.227  17.637  24.916  1.00  0.00    -0.306 N 
ATOM     85  C   UNL A   1      32.304  16.750  25.422  1.00  0.00     0.113 A 
ATOM     86  C   UNL A   1      34.283  16.873  24.476  1.00  0.00     0.204 A 
ATOM     87  C   UNL A   1      32.840  15.499  25.224  1.00  0.00     0.131 A 
ATOM     88  N   UNL A   1      34.072  15.584  24.639  1.00  0.00    -0.245 NA
ENDBRANCH  81  84
ENDBRANCH  75  78
ENDBRANCH  73  74
ENDBRANCH  72  73
ENDBRANCH  71  72
ENDBRANCH   1  71
TORSDOF 15
ENDMDL
