MODEL 1
REMARK VINA RESULT:     -12.4      0.000      0.000
REMARK SMILES O=C(NCCCCNC(=O)[C@H]1CCCC[C@@H]1C(=O)Nc1ccc(Br)c(Cl)c1)c1ccc(-c2c3nc(c(-c4cccc(S(=O)(=O)[O-])c4F)c4ccc([nH]4)c(-c4cccc(S(=O)(=O)[O-])c4F)c4nc(c(-c5cccc(S(=O)(=O)[O-])c5F)c5ccc2[nH]5)C=C4)C=C3)cc1
REMARK SMILES IDX 5 1 4 2 3 3 1 4 2 5 28 7 29 8 90 9 30 10 89 11 31 12 32 13
REMARK SMILES IDX 33 14 83 15 34 16 88 17 82 18 84 19 35 20 87 21 81 22 80 23
REMARK SMILES IDX 36 25 68 26 48 27 67 28 49 29 52 30 66 31 85 32 50 33 51 34
REMARK SMILES IDX 65 36 86 37 53 38 37 39 38 40 46 41 39 42 41 43 47 44 40 45
REMARK SMILES IDX 42 46 43 47 44 48 45 49 69 50 70 51 78 52 71 53 73 54 79 55
REMARK SMILES IDX 72 56 74 57 75 58 76 59 77 60 54 61 55 62 63 63 56 64 58 65
REMARK SMILES IDX 64 66 57 67 59 68 60 69 61 70 62 71 6 72 7 73 8 74 9 75
REMARK SMILES IDX 10 77 11 78 12 79 16 80 13 81 15 82 14 83 17 84 18 85 19 86
REMARK SMILES IDX 20 88 21 89 27 90 22 91 25 92 23 93 26 94 24 95
REMARK H PARENT 3 6 84 24 52 35 8 76 19 87
REMARK Flexibility Score: inf
ROOT
ATOM      1  C   UNL A   1      31.472  31.910  26.561  1.00  0.00     0.023 C 
ENDROOT
BRANCH   1   2
ATOM      2  C   UNL A   1      32.715  32.568  27.149  1.00  0.00     0.116 C 
BRANCH   2   3
ATOM      3  N   UNL A   1      32.474  33.934  27.591  1.00  0.00    -0.352 N 
ATOM      4  O   UNL A   1      32.608  35.723  28.949  1.00  0.00    -0.269 OA
ATOM      5  C   UNL A   1      33.062  34.635  28.615  1.00  0.00     0.251 C 
ATOM      6  H   UNL A   1      31.791  34.426  27.081  1.00  0.00     0.163 HD
BRANCH   5   7
ATOM      7  C   UNL A   1      34.235  34.070  29.315  1.00  0.00     0.039 A 
ATOM      8  C   UNL A   1      35.518  34.423  28.888  1.00  0.00     0.014 A 
ATOM      9  C   UNL A   1      34.066  33.179  30.378  1.00  0.00     0.014 A 
ATOM     10  C   UNL A   1      36.633  33.913  29.557  1.00  0.00     0.010 A 
ATOM     11  C   UNL A   1      35.175  32.730  31.086  1.00  0.00     0.010 A 
ATOM     12  C   UNL A   1      36.469  33.077  30.672  1.00  0.00    -0.014 A 
BRANCH  12  13
ATOM     13  C   UNL A   1      37.629  32.501  31.396  1.00  0.00     0.031 A 
ATOM     14  C   UNL A   1      38.371  31.339  30.790  1.00  0.00     0.074 A 
ATOM     15  C   UNL A   1      37.971  32.970  32.612  1.00  0.00     0.049 A 
ATOM     16  N   UNL A   1      39.319  30.608  31.312  1.00  0.00    -0.248 NA
ATOM     17  C   UNL A   1      37.989  30.936  29.423  1.00  0.00     0.031 C 
ATOM     18  C   UNL A   1      37.318  34.079  33.312  1.00  0.00     0.029 A 
ATOM     19  N   UNL A   1      38.946  32.555  33.486  1.00  0.00    -0.354 N 
ATOM     20  C   UNL A   1      39.620  29.641  30.360  1.00  0.00     0.074 A 
ATOM     21  C   UNL A   1      38.744  29.863  29.232  1.00  0.00     0.031 C 
ATOM     22  C   UNL A   1      37.921  34.268  34.498  1.00  0.00     0.029 A 
ATOM     23  C   UNL A   1      38.973  33.269  34.662  1.00  0.00     0.049 A 
ATOM     24  H   UNL A   1      39.568  31.818  33.289  1.00  0.00     0.167 HD
ATOM     25  C   UNL A   1      40.562  28.673  30.411  1.00  0.00     0.034 A 
ATOM     26  C   UNL A   1      39.752  33.127  35.752  1.00  0.00     0.034 A 
ATOM     27  C   UNL A   1      41.471  28.491  31.506  1.00  0.00     0.049 A 
ATOM     28  C   UNL A   1      40.791  32.040  35.776  1.00  0.00     0.074 A 
ATOM     29  C   UNL A   1      42.487  27.557  31.627  1.00  0.00     0.029 A 
ATOM     30  N   UNL A   1      41.491  29.261  32.655  1.00  0.00    -0.354 N 
ATOM     31  N   UNL A   1      41.088  31.166  34.846  1.00  0.00    -0.248 NA
ATOM     32  C   UNL A   1      41.619  31.934  36.987  1.00  0.00     0.031 C 
ATOM     33  C   UNL A   1      43.120  27.763  32.854  1.00  0.00     0.029 A 
ATOM     34  C   UNL A   1      42.512  28.837  33.484  1.00  0.00     0.049 A 
ATOM     35  H   UNL A   1      40.872  30.001  32.852  1.00  0.00     0.167 HD
ATOM     36  C   UNL A   1      42.168  30.442  35.336  1.00  0.00     0.074 A 
ATOM     37  C   UNL A   1      42.470  30.973  36.648  1.00  0.00     0.031 C 
ATOM     38  C   UNL A   1      42.844  29.425  34.752  1.00  0.00     0.034 A 
BRANCH  25  39
ATOM     39  C   UNL A   1      40.727  27.765  29.227  1.00  0.00     0.023 A 
ATOM     40  C   UNL A   1      39.874  26.652  29.095  1.00  0.00     0.012 A 
ATOM     41  C   UNL A   1      41.600  28.104  28.175  1.00  0.00     0.148 A 
ATOM     42  C   UNL A   1      39.878  25.895  27.926  1.00  0.00     0.002 A 
ATOM     43  C   UNL A   1      41.576  27.362  27.001  1.00  0.00     0.091 A 
ATOM     44  F   UNL A   1      42.406  29.164  28.333  1.00  0.00    -0.205 F 
ATOM     45  C   UNL A   1      40.716  26.258  26.875  1.00  0.00     0.022 A 
BRANCH  43  46
ATOM     46  S   UNL A   1      42.570  27.782  25.565  1.00  0.00     0.127 S 
ATOM     47  O   UNL A   1      43.908  27.880  26.150  1.00  0.00    -0.237 OA
ATOM     48  O   UNL A   1      42.365  26.619  24.702  1.00  0.00    -0.237 OA
ATOM     49  O   UNL A   1      42.034  29.035  25.053  1.00  0.00    -0.744 OA
ENDBRANCH  43  46
ENDBRANCH  25  39
BRANCH  26  50
ATOM     50  C   UNL A   1      39.637  34.088  36.883  1.00  0.00     0.023 A 
ATOM     51  C   UNL A   1      40.087  35.410  36.702  1.00  0.00     0.012 A 
ATOM     52  C   UNL A   1      39.076  33.713  38.118  1.00  0.00     0.148 A 
ATOM     53  C   UNL A   1      40.002  36.339  37.739  1.00  0.00     0.002 A 
ATOM     54  C   UNL A   1      38.959  34.654  39.136  1.00  0.00     0.091 A 
ATOM     55  F   UNL A   1      38.662  32.447  38.269  1.00  0.00    -0.205 F 
ATOM     56  C   UNL A   1      39.431  35.963  38.952  1.00  0.00     0.022 A 
BRANCH  54  57
ATOM     57  S   UNL A   1      38.161  34.292  40.703  1.00  0.00     0.127 S 
ATOM     58  O   UNL A   1      39.203  33.542  41.401  1.00  0.00    -0.237 OA
ATOM     59  O   UNL A   1      37.909  35.633  41.229  1.00  0.00    -0.237 OA
ATOM     60  O   UNL A   1      36.959  33.539  40.371  1.00  0.00    -0.744 OA
ENDBRANCH  54  57
ENDBRANCH  26  50
BRANCH  38  61
ATOM     61  C   UNL A   1      44.030  28.853  35.474  1.00  0.00     0.023 A 
ATOM     62  C   UNL A   1      45.290  29.467  35.353  1.00  0.00     0.012 A 
ATOM     63  C   UNL A   1      43.856  27.783  36.375  1.00  0.00     0.148 A 
ATOM     64  C   UNL A   1      46.367  29.015  36.112  1.00  0.00     0.002 A 
ATOM     65  C   UNL A   1      44.925  27.362  37.155  1.00  0.00     0.091 A 
ATOM     66  F   UNL A   1      42.645  27.214  36.464  1.00  0.00    -0.205 F 
ATOM     67  C   UNL A   1      46.182  27.973  37.021  1.00  0.00     0.022 A 
BRANCH  65  68
ATOM     68  S   UNL A   1      44.763  26.083  38.404  1.00  0.00     0.127 S 
ATOM     69  O   UNL A   1      46.163  25.774  38.695  1.00  0.00    -0.237 OA
ATOM     70  O   UNL A   1      44.057  26.785  39.476  1.00  0.00    -0.237 OA
ATOM     71  O   UNL A   1      44.007  25.004  37.784  1.00  0.00    -0.744 OA
ENDBRANCH  65  68
ENDBRANCH  38  61
ENDBRANCH  12  13
ENDBRANCH   5   7
ENDBRANCH   2   3
ENDBRANCH   1   2
BRANCH   1  72
ATOM     72  C   UNL A   1      31.686  30.530  25.945  1.00  0.00     0.023 C 
BRANCH  72  73
ATOM     73  C   UNL A   1      32.487  29.540  26.776  1.00  0.00     0.116 C 
BRANCH  73  74
ATOM     74  N   UNL A   1      31.752  28.342  27.102  1.00  0.00    -0.356 N 
ATOM     75  C   UNL A   1      31.704  27.132  26.494  1.00  0.00     0.223 C 
ATOM     76  H   UNL A   1      31.189  28.416  27.907  1.00  0.00     0.163 HD
ATOM     77  O   UNL A   1      30.925  26.317  26.999  1.00  0.00    -0.275 OA
BRANCH  75  78
ATOM     78  C   UNL A   1      32.462  26.800  25.189  1.00  0.00     0.091 C 
ATOM     79  C   UNL A   1      33.811  26.073  25.303  1.00  0.00     0.014 C 
ATOM     80  C   UNL A   1      31.517  25.959  24.284  1.00  0.00     0.091 C 
ATOM     81  C   UNL A   1      33.665  24.696  25.923  1.00  0.00     0.001 C 
ATOM     82  C   UNL A   1      31.435  24.484  24.734  1.00  0.00     0.014 C 
ATOM     83  C   UNL A   1      32.770  23.821  25.062  1.00  0.00     0.001 C 
BRANCH  80  84
ATOM     84  C   UNL A   1      31.911  26.085  22.812  1.00  0.00     0.228 C 
ATOM     85  O   UNL A   1      32.662  25.269  22.271  1.00  0.00    -0.274 OA
ATOM     86  N   UNL A   1      31.379  27.055  22.009  1.00  0.00    -0.326 N 
ATOM     87  H   UNL A   1      31.665  27.007  21.069  1.00  0.00     0.169 HD
BRANCH  86  88
ATOM     88  C   UNL A   1      30.496  28.107  22.290  1.00  0.00     0.042 A 
ATOM     89  C   UNL A   1      30.835  29.455  22.198  1.00  0.00     0.027 A 
ATOM     90  C   UNL A   1      29.203  27.753  22.686  1.00  0.00     0.047 A 
ATOM     91  C   UNL A   1      29.924  30.441  22.590  1.00  0.00     0.019 A 
ATOM     92  C   UNL A   1      28.296  28.732  23.105  1.00  0.00     0.057 A 
ATOM     93  C   UNL A   1      28.663  30.081  23.070  1.00  0.00     0.036 A 
ATOM     94  Cl  UNL A   1      26.763  28.192  23.691  1.00  0.00    -0.083 Cl
ATOM     95  Br  UNL A   1      27.515  31.471  23.662  1.00  0.00    -0.049 Br
ENDBRANCH  86  88
ENDBRANCH  80  84
ENDBRANCH  75  78
ENDBRANCH  73  74
ENDBRANCH  72  73
ENDBRANCH   1  72
TORSDOF 16
ENDMDL
MODEL 2
REMARK VINA RESULT:     -12.2      3.820      8.646
REMARK SMILES O=C(NCCCCNC(=O)[C@H]1CCCC[C@@H]1C(=O)Nc1ccc(Br)c(Cl)c1)c1ccc(-c2c3nc(c(-c4cccc(S(=O)(=O)[O-])c4F)c4ccc([nH]4)c(-c4cccc(S(=O)(=O)[O-])c4F)c4nc(c(-c5cccc(S(=O)(=O)[O-])c5F)c5ccc2[nH]5)C=C4)C=C3)cc1
REMARK SMILES IDX 5 1 4 2 3 3 1 4 2 5 28 7 29 8 90 9 30 10 89 11 31 12 32 13
REMARK SMILES IDX 33 14 83 15 34 16 88 17 82 18 84 19 35 20 87 21 81 22 80 23
REMARK SMILES IDX 36 25 68 26 48 27 67 28 49 29 52 30 66 31 85 32 50 33 51 34
REMARK SMILES IDX 65 36 86 37 53 38 37 39 38 40 46 41 39 42 41 43 47 44 40 45
REMARK SMILES IDX 42 46 43 47 44 48 45 49 69 50 70 51 78 52 71 53 73 54 79 55
REMARK SMILES IDX 72 56 74 57 75 58 76 59 77 60 54 61 55 62 63 63 56 64 58 65
REMARK SMILES IDX 64 66 57 67 59 68 60 69 61 70 62 71 6 72 7 73 8 74 9 75
REMARK SMILES IDX 10 77 11 78 12 79 16 80 13 81 15 82 14 83 17 84 18 85 19 86
REMARK SMILES IDX 20 88 21 89 27 90 22 91 25 92 23 93 26 94 24 95
REMARK H PARENT 3 6 84 24 52 35 8 76 19 87
REMARK Flexibility Score: inf
ROOT
ATOM      1  C   UNL A   1      33.456  27.820  26.921  1.00  0.00     0.023 C 
ENDROOT
BRANCH   1   2
ATOM      2  C   UNL A   1      34.077  28.955  26.115  1.00  0.00     0.116 C 
BRANCH   2   3
ATOM      3  N   UNL A   1      33.855  30.261  26.718  1.00  0.00    -0.352 N 
ATOM      4  O   UNL A   1      34.108  31.916  28.223  1.00  0.00    -0.269 OA
ATOM      5  C   UNL A   1      34.547  30.883  27.729  1.00  0.00     0.251 C 
ATOM      6  H   UNL A   1      33.100  30.772  26.347  1.00  0.00     0.163 HD
BRANCH   5   7
ATOM      7  C   UNL A   1      35.813  30.301  28.221  1.00  0.00     0.039 A 
ATOM      8  C   UNL A   1      36.983  30.493  27.480  1.00  0.00     0.014 A 
ATOM      9  C   UNL A   1      35.839  29.552  29.400  1.00  0.00     0.014 A 
ATOM     10  C   UNL A   1      38.190  29.966  27.948  1.00  0.00     0.010 A 
ATOM     11  C   UNL A   1      37.052  29.091  29.899  1.00  0.00     0.010 A 
ATOM     12  C   UNL A   1      38.235  29.277  29.169  1.00  0.00    -0.014 A 
BRANCH  12  13
ATOM     13  C   UNL A   1      39.494  28.687  29.689  1.00  0.00     0.031 A 
ATOM     14  C   UNL A   1      40.147  29.296  30.901  1.00  0.00     0.074 A 
ATOM     15  C   UNL A   1      40.079  27.659  29.043  1.00  0.00     0.049 A 
ATOM     16  N   UNL A   1      41.308  29.023  31.433  1.00  0.00    -0.248 NA
ATOM     17  C   UNL A   1      39.406  30.365  31.598  1.00  0.00     0.031 C 
ATOM     18  C   UNL A   1      39.553  26.993  27.849  1.00  0.00     0.029 A 
ATOM     19  N   UNL A   1      41.260  27.005  29.293  1.00  0.00    -0.354 N 
ATOM     20  C   UNL A   1      41.453  29.903  32.500  1.00  0.00     0.074 A 
ATOM     21  C   UNL A   1      40.272  30.735  32.532  1.00  0.00     0.031 C 
ATOM     22  C   UNL A   1      40.398  26.016  27.481  1.00  0.00     0.029 A 
ATOM     23  C   UNL A   1      41.545  26.012  28.384  1.00  0.00     0.049 A 
ATOM     24  H   UNL A   1      41.848  27.225  30.051  1.00  0.00     0.167 HD
ATOM     25  C   UNL A   1      42.468  29.991  33.388  1.00  0.00     0.034 A 
ATOM     26  C   UNL A   1      42.614  25.198  28.286  1.00  0.00     0.034 A 
ATOM     27  C   UNL A   1      43.612  29.125  33.391  1.00  0.00     0.049 A 
ATOM     28  C   UNL A   1      43.726  25.321  29.291  1.00  0.00     0.074 A 
ATOM     29  C   UNL A   1      44.674  29.115  34.279  1.00  0.00     0.029 A 
ATOM     30  N   UNL A   1      43.838  28.108  32.481  1.00  0.00    -0.354 N 
ATOM     31  N   UNL A   1      43.821  26.131  30.317  1.00  0.00    -0.248 NA
ATOM     32  C   UNL A   1      44.866  24.403  29.142  1.00  0.00     0.031 C 
ATOM     33  C   UNL A   1      45.545  28.092  33.903  1.00  0.00     0.029 A 
ATOM     34  C   UNL A   1      45.013  27.452  32.795  1.00  0.00     0.049 A 
ATOM     35  H   UNL A   1      43.249  27.884  31.723  1.00  0.00     0.167 HD
ATOM     36  C   UNL A   1      45.001  25.786  30.964  1.00  0.00     0.074 A 
ATOM     37  C   UNL A   1      45.592  24.700  30.213  1.00  0.00     0.031 C 
ATOM     38  C   UNL A   1      45.547  26.327  32.079  1.00  0.00     0.034 A 
BRANCH  25  39
ATOM     39  C   UNL A   1      42.376  31.007  34.489  1.00  0.00     0.023 A 
ATOM     40  C   UNL A   1      41.811  30.628  35.722  1.00  0.00     0.012 A 
ATOM     41  C   UNL A   1      42.993  32.266  34.362  1.00  0.00     0.148 A 
ATOM     42  C   UNL A   1      41.872  31.484  36.820  1.00  0.00     0.002 A 
ATOM     43  C   UNL A   1      43.078  33.101  35.468  1.00  0.00     0.091 A 
ATOM     44  F   UNL A   1      43.515  32.601  33.173  1.00  0.00    -0.205 F 
ATOM     45  C   UNL A   1      42.518  32.712  36.697  1.00  0.00     0.022 A 
BRANCH  43  46
ATOM     46  S   UNL A   1      43.941  34.676  35.435  1.00  0.00     0.127 S 
ATOM     47  O   UNL A   1      45.305  34.258  35.111  1.00  0.00    -0.237 OA
ATOM     48  O   UNL A   1      43.247  35.382  34.359  1.00  0.00    -0.237 OA
ATOM     49  O   UNL A   1      43.779  35.255  36.762  1.00  0.00    -0.744 OA
ENDBRANCH  43  46
ENDBRANCH  25  39
BRANCH  26  50
ATOM     50  C   UNL A   1      42.653  24.137  27.242  1.00  0.00     0.023 A 
ATOM     51  C   UNL A   1      43.308  24.403  26.024  1.00  0.00     0.012 A 
ATOM     52  C   UNL A   1      42.067  22.874  27.449  1.00  0.00     0.148 A 
ATOM     53  C   UNL A   1      43.362  23.437  25.019  1.00  0.00     0.002 A 
ATOM     54  C   UNL A   1      42.157  21.902  26.458  1.00  0.00     0.091 A 
ATOM     55  F   UNL A   1      41.444  22.647  28.613  1.00  0.00    -0.205 F 
ATOM     56  C   UNL A   1      42.793  22.185  25.239  1.00  0.00     0.022 A 
BRANCH  54  57
ATOM     57  S   UNL A   1      41.533  20.232  26.679  1.00  0.00     0.127 S 
ATOM     58  O   UNL A   1      41.869  19.617  25.397  1.00  0.00    -0.237 OA
ATOM     59  O   UNL A   1      42.326  19.764  27.815  1.00  0.00    -0.237 OA
ATOM     60  O   UNL A   1      40.110  20.376  26.955  1.00  0.00    -0.744 OA
ENDBRANCH  54  57
ENDBRANCH  26  50
BRANCH  38  61
ATOM     61  C   UNL A   1      46.811  25.720  32.617  1.00  0.00     0.023 A 
ATOM     62  C   UNL A   1      48.060  26.246  32.239  1.00  0.00     0.012 A 
ATOM     63  C   UNL A   1      46.744  24.712  33.601  1.00  0.00     0.148 A 
ATOM     64  C   UNL A   1      49.230  25.768  32.826  1.00  0.00     0.002 A 
ATOM     65  C   UNL A   1      47.911  24.267  34.207  1.00  0.00     0.091 A 
ATOM     66  F   UNL A   1      45.540  24.226  33.936  1.00  0.00    -0.205 F 
ATOM     67  C   UNL A   1      49.155  24.789  33.817  1.00  0.00     0.022 A 
BRANCH  65  68
ATOM     68  S   UNL A   1      47.906  23.068  35.543  1.00  0.00     0.127 S 
ATOM     69  O   UNL A   1      47.492  21.850  34.848  1.00  0.00    -0.237 OA
ATOM     70  O   UNL A   1      49.306  23.080  35.973  1.00  0.00    -0.237 OA
ATOM     71  O   UNL A   1      46.963  23.568  36.534  1.00  0.00    -0.744 OA
ENDBRANCH  65  68
ENDBRANCH  38  61
ENDBRANCH  12  13
ENDBRANCH   5   7
ENDBRANCH   2   3
ENDBRANCH   1   2
BRANCH   1  72
ATOM     72  C   UNL A   1      31.933  27.746  26.890  1.00  0.00     0.023 C 
BRANCH  72  73
ATOM     73  C   UNL A   1      31.329  26.651  26.024  1.00  0.00     0.116 C 
BRANCH  73  74
ATOM     74  N   UNL A   1      31.037  25.441  26.754  1.00  0.00    -0.356 N 
ATOM     75  C   UNL A   1      31.703  24.264  26.830  1.00  0.00     0.223 C 
ATOM     76  H   UNL A   1      30.211  25.478  27.289  1.00  0.00     0.163 HD
ATOM     77  O   UNL A   1      31.155  23.391  27.513  1.00  0.00    -0.275 OA
BRANCH  75  78
ATOM     78  C   UNL A   1      32.994  23.958  26.038  1.00  0.00     0.091 C 
ATOM     79  C   UNL A   1      34.190  23.375  26.804  1.00  0.00     0.014 C 
ATOM     80  C   UNL A   1      32.626  22.992  24.876  1.00  0.00     0.091 C 
ATOM     81  C   UNL A   1      33.877  22.016  27.401  1.00  0.00     0.001 C 
ATOM     82  C   UNL A   1      32.454  21.535  25.357  1.00  0.00     0.014 C 
ATOM     83  C   UNL A   1      33.537  21.022  26.304  1.00  0.00     0.001 C 
BRANCH  80  84
ATOM     84  C   UNL A   1      33.637  23.098  23.733  1.00  0.00     0.228 C 
ATOM     85  O   UNL A   1      34.461  22.206  23.513  1.00  0.00    -0.274 OA
ATOM     86  N   UNL A   1      33.614  24.143  22.852  1.00  0.00    -0.326 N 
ATOM     87  H   UNL A   1      34.277  24.079  22.128  1.00  0.00     0.169 HD
BRANCH  86  88
ATOM     88  C   UNL A   1      32.811  25.290  22.798  1.00  0.00     0.042 A 
ATOM     89  C   UNL A   1      31.430  25.268  22.612  1.00  0.00     0.027 A 
ATOM     90  C   UNL A   1      33.461  26.520  22.939  1.00  0.00     0.047 A 
ATOM     91  C   UNL A   1      30.717  26.463  22.472  1.00  0.00     0.019 A 
ATOM     92  C   UNL A   1      32.759  27.718  22.773  1.00  0.00     0.057 A 
ATOM     93  C   UNL A   1      31.383  27.689  22.525  1.00  0.00     0.036 A 
ATOM     94  Cl  UNL A   1      33.669  29.186  22.846  1.00  0.00    -0.083 Cl
ATOM     95  Br  UNL A   1      30.360  29.261  22.241  1.00  0.00    -0.049 Br
ENDBRANCH  86  88
ENDBRANCH  80  84
ENDBRANCH  75  78
ENDBRANCH  73  74
ENDBRANCH  72  73
ENDBRANCH   1  72
TORSDOF 16
ENDMDL
MODEL 3
REMARK VINA RESULT:     -12.1      1.498      7.666
REMARK SMILES O=C(NCCCCNC(=O)[C@H]1CCCC[C@@H]1C(=O)Nc1ccc(Br)c(Cl)c1)c1ccc(-c2c3nc(c(-c4cccc(S(=O)(=O)[O-])c4F)c4ccc([nH]4)c(-c4cccc(S(=O)(=O)[O-])c4F)c4nc(c(-c5cccc(S(=O)(=O)[O-])c5F)c5ccc2[nH]5)C=C4)C=C3)cc1
REMARK SMILES IDX 5 1 4 2 3 3 1 4 2 5 28 7 29 8 90 9 30 10 89 11 31 12 32 13
REMARK SMILES IDX 33 14 83 15 34 16 88 17 82 18 84 19 35 20 87 21 81 22 80 23
REMARK SMILES IDX 36 25 68 26 48 27 67 28 49 29 52 30 66 31 85 32 50 33 51 34
REMARK SMILES IDX 65 36 86 37 53 38 37 39 38 40 46 41 39 42 41 43 47 44 40 45
REMARK SMILES IDX 42 46 43 47 44 48 45 49 69 50 70 51 78 52 71 53 73 54 79 55
REMARK SMILES IDX 72 56 74 57 75 58 76 59 77 60 54 61 55 62 63 63 56 64 58 65
REMARK SMILES IDX 64 66 57 67 59 68 60 69 61 70 62 71 6 72 7 73 8 74 9 75
REMARK SMILES IDX 10 77 11 78 12 79 16 80 13 81 15 82 14 83 17 84 18 85 19 86
REMARK SMILES IDX 20 88 21 89 27 90 22 91 25 92 23 93 26 94 24 95
REMARK H PARENT 3 6 84 24 52 35 8 76 19 87
REMARK Flexibility Score: inf
ROOT
ATOM      1  C   UNL A   1      31.306  32.282  26.553  1.00  0.00     0.023 C 
ENDROOT
BRANCH   1   2
ATOM      2  C   UNL A   1      32.650  32.843  27.004  1.00  0.00     0.116 C 
BRANCH   2   3
ATOM      3  N   UNL A   1      32.529  34.138  27.659  1.00  0.00    -0.352 N 
ATOM      4  O   UNL A   1      32.844  35.683  29.265  1.00  0.00    -0.269 OA
ATOM      5  C   UNL A   1      33.202  34.630  28.750  1.00  0.00     0.251 C 
ATOM      6  H   UNL A   1      31.869  34.750  27.260  1.00  0.00     0.163 HD
BRANCH   5   7
ATOM      7  C   UNL A   1      34.351  33.882  29.304  1.00  0.00     0.039 A 
ATOM      8  C   UNL A   1      35.644  34.230  28.906  1.00  0.00     0.014 A 
ATOM      9  C   UNL A   1      34.147  32.829  30.199  1.00  0.00     0.014 A 
ATOM     10  C   UNL A   1      36.739  33.546  29.441  1.00  0.00     0.010 A 
ATOM     11  C   UNL A   1      35.240  32.198  30.783  1.00  0.00     0.010 A 
ATOM     12  C   UNL A   1      36.544  32.536  30.396  1.00  0.00    -0.014 A 
BRANCH  12  13
ATOM     13  C   UNL A   1      37.680  31.774  30.972  1.00  0.00     0.031 A 
ATOM     14  C   UNL A   1      38.117  32.060  32.384  1.00  0.00     0.074 A 
ATOM     15  C   UNL A   1      38.353  30.884  30.216  1.00  0.00     0.049 A 
ATOM     16  N   UNL A   1      39.160  31.608  33.028  1.00  0.00    -0.248 NA
ATOM     17  C   UNL A   1      37.283  32.987  33.172  1.00  0.00     0.031 C 
ATOM     18  C   UNL A   1      38.036  30.533  28.829  1.00  0.00     0.029 A 
ATOM     19  N   UNL A   1      39.459  30.124  30.505  1.00  0.00    -0.354 N 
ATOM     20  C   UNL A   1      39.128  32.219  34.277  1.00  0.00     0.074 A 
ATOM     21  C   UNL A   1      37.975  33.089  34.298  1.00  0.00     0.031 C 
ATOM     22  C   UNL A   1      38.917  29.615  28.395  1.00  0.00     0.029 A 
ATOM     23  C   UNL A   1      39.884  29.345  29.455  1.00  0.00     0.049 A 
ATOM     24  H   UNL A   1      39.906  30.136  31.382  1.00  0.00     0.167 HD
ATOM     25  C   UNL A   1      39.970  32.048  35.320  1.00  0.00     0.034 A 
ATOM     26  C   UNL A   1      40.940  28.512  29.355  1.00  0.00     0.034 A 
ATOM     27  C   UNL A   1      41.080  31.139  35.318  1.00  0.00     0.049 A 
ATOM     28  C   UNL A   1      41.857  28.344  30.535  1.00  0.00     0.074 A 
ATOM     29  C   UNL A   1      41.967  30.871  36.347  1.00  0.00     0.029 A 
ATOM     30  N   UNL A   1      41.447  30.339  34.250  1.00  0.00    -0.354 N 
ATOM     31  N   UNL A   1      41.781  28.898  31.720  1.00  0.00    -0.248 NA
ATOM     32  C   UNL A   1      42.988  27.419  30.375  1.00  0.00     0.031 C 
ATOM     33  C   UNL A   1      42.873  29.908  35.899  1.00  0.00     0.029 A 
ATOM     34  C   UNL A   1      42.536  29.563  34.600  1.00  0.00     0.049 A 
ATOM     35  H   UNL A   1      40.999  30.324  33.373  1.00  0.00     0.167 HD
ATOM     36  C   UNL A   1      42.821  28.351  32.461  1.00  0.00     0.074 A 
ATOM     37  C   UNL A   1      43.518  27.427  31.592  1.00  0.00     0.031 C 
ATOM     38  C   UNL A   1      43.169  28.597  33.746  1.00  0.00     0.034 A 
BRANCH  25  39
ATOM     39  C   UNL A   1      39.701  32.796  36.593  1.00  0.00     0.023 A 
ATOM     40  C   UNL A   1      40.276  34.070  36.771  1.00  0.00     0.012 A 
ATOM     41  C   UNL A   1      38.760  32.319  37.525  1.00  0.00     0.148 A 
ATOM     42  C   UNL A   1      39.906  34.866  37.853  1.00  0.00     0.002 A 
ATOM     43  C   UNL A   1      38.374  33.130  38.584  1.00  0.00     0.091 A 
ATOM     44  F   UNL A   1      38.237  31.099  37.333  1.00  0.00    -0.205 F 
ATOM     45  C   UNL A   1      38.946  34.403  38.750  1.00  0.00     0.022 A 
BRANCH  43  46
ATOM     46  S   UNL A   1      37.102  32.657  39.760  1.00  0.00     0.127 S 
ATOM     47  O   UNL A   1      35.912  32.620  38.908  1.00  0.00    -0.237 OA
ATOM     48  O   UNL A   1      37.572  31.347  40.208  1.00  0.00    -0.237 OA
ATOM     49  O   UNL A   1      37.088  33.693  40.783  1.00  0.00    -0.744 OA
ENDBRANCH  43  46
ENDBRANCH  25  39
BRANCH  26  50
ATOM     50  C   UNL A   1      41.145  27.710  28.117  1.00  0.00     0.023 A 
ATOM     51  C   UNL A   1      41.676  28.342  26.976  1.00  0.00     0.012 A 
ATOM     52  C   UNL A   1      40.838  26.337  28.066  1.00  0.00     0.148 A 
ATOM     53  C   UNL A   1      41.879  27.627  25.796  1.00  0.00     0.002 A 
ATOM     54  C   UNL A   1      41.078  25.621  26.898  1.00  0.00     0.091 A 
ATOM     55  F   UNL A   1      40.328  25.760  29.163  1.00  0.00    -0.205 F 
ATOM     56  C   UNL A   1      41.587  26.266  25.760  1.00  0.00     0.022 A 
BRANCH  54  57
ATOM     57  S   UNL A   1      40.817  23.848  26.779  1.00  0.00     0.127 S 
ATOM     58  O   UNL A   1      41.205  23.399  28.114  1.00  0.00    -0.237 OA
ATOM     59  O   UNL A   1      39.383  23.775  26.495  1.00  0.00    -0.237 OA
ATOM     60  O   UNL A   1      41.671  23.395  25.689  1.00  0.00    -0.744 OA
ENDBRANCH  54  57
ENDBRANCH  26  50
BRANCH  38  61
ATOM     61  C   UNL A   1      44.306  27.813  34.337  1.00  0.00     0.023 A 
ATOM     62  C   UNL A   1      45.613  28.332  34.295  1.00  0.00     0.012 A 
ATOM     63  C   UNL A   1      44.046  26.625  35.049  1.00  0.00     0.148 A 
ATOM     64  C   UNL A   1      46.653  27.670  34.945  1.00  0.00     0.002 A 
ATOM     65  C   UNL A   1      45.080  25.991  35.725  1.00  0.00     0.091 A 
ATOM     66  F   UNL A   1      42.792  26.152  35.066  1.00  0.00    -0.205 F 
ATOM     67  C   UNL A   1      46.385  26.508  35.670  1.00  0.00     0.022 A 
BRANCH  65  68
ATOM     68  S   UNL A   1      44.816  24.536  36.744  1.00  0.00     0.127 S 
ATOM     69  O   UNL A   1      46.162  24.288  37.261  1.00  0.00    -0.237 OA
ATOM     70  O   UNL A   1      43.861  25.025  37.739  1.00  0.00    -0.237 OA
ATOM     71  O   UNL A   1      44.295  23.507  35.855  1.00  0.00    -0.744 OA
ENDBRANCH  65  68
ENDBRANCH  38  61
ENDBRANCH  12  13
ENDBRANCH   5   7
ENDBRANCH   2   3
ENDBRANCH   1   2
BRANCH   1  72
ATOM     72  C   UNL A   1      31.360  30.929  25.851  1.00  0.00     0.023 C 
BRANCH  72  73
ATOM     73  C   UNL A   1      32.368  29.928  26.394  1.00  0.00     0.116 C 
BRANCH  73  74
ATOM     74  N   UNL A   1      31.757  28.740  26.939  1.00  0.00    -0.356 N 
ATOM     75  C   UNL A   1      31.749  27.459  26.498  1.00  0.00     0.223 C 
ATOM     76  H   UNL A   1      31.260  28.886  27.777  1.00  0.00     0.163 HD
ATOM     77  O   UNL A   1      31.080  26.671  27.175  1.00  0.00    -0.275 OA
BRANCH  75  78
ATOM     78  C   UNL A   1      32.417  27.004  25.181  1.00  0.00     0.091 C 
ATOM     79  C   UNL A   1      33.848  26.451  25.251  1.00  0.00     0.014 C 
ATOM     80  C   UNL A   1      31.500  25.935  24.522  1.00  0.00     0.091 C 
ATOM     81  C   UNL A   1      33.929  25.183  26.081  1.00  0.00     0.001 C 
ATOM     82  C   UNL A   1      31.639  24.550  25.191  1.00  0.00     0.014 C 
ATOM     83  C   UNL A   1      33.070  24.092  25.465  1.00  0.00     0.001 C 
BRANCH  80  84
ATOM     84  C   UNL A   1      31.737  25.864  23.013  1.00  0.00     0.228 C 
ATOM     85  O   UNL A   1      32.387  24.947  22.502  1.00  0.00    -0.274 OA
ATOM     86  N   UNL A   1      31.165  26.762  22.156  1.00  0.00    -0.326 N 
ATOM     87  H   UNL A   1      31.344  26.587  21.204  1.00  0.00     0.169 HD
BRANCH  86  88
ATOM     88  C   UNL A   1      30.366  27.889  22.394  1.00  0.00     0.042 A 
ATOM     89  C   UNL A   1      30.820  29.202  22.289  1.00  0.00     0.027 A 
ATOM     90  C   UNL A   1      29.038  27.652  22.760  1.00  0.00     0.047 A 
ATOM     91  C   UNL A   1      29.984  30.268  22.639  1.00  0.00     0.019 A 
ATOM     92  C   UNL A   1      28.206  28.711  23.137  1.00  0.00     0.057 A 
ATOM     93  C   UNL A   1      28.685  30.023  23.090  1.00  0.00     0.036 A 
ATOM     94  Cl  UNL A   1      26.617  28.312  23.690  1.00  0.00    -0.083 Cl
ATOM     95  Br  UNL A   1      27.643  31.516  23.627  1.00  0.00    -0.049 Br
ENDBRANCH  86  88
ENDBRANCH  80  84
ENDBRANCH  75  78
ENDBRANCH  73  74
ENDBRANCH  72  73
ENDBRANCH   1  72
TORSDOF 16
ENDMDL
