MODEL 1
REMARK VINA RESULT:     -12.0      0.000      0.000
REMARK SMILES CC1=C[C@@H](CNS(=O)(=O)c2cccs2)[C@H](C(C)C)C[C@H]1CC(=O)NCCCCNC(=O)c1ccc(-c2c3nc(c(-c4cccc(S(=O)(=O)[O-])c4F)c4ccc([nH]4)c(-c4cccc(S(=O)(=O)[O-])c4F)c4nc(c(-c5cccc(S(=O)(=O)[O-])c5F)c5ccc2[nH]5)C=C4)C=C3)cc1
REMARK SMILES IDX 25 1 24 2 22 3 23 4 21 6 20 7 1 8 2 9 3 10 4 11 19 12 15 13
REMARK SMILES IDX 5 14 6 15 7 17 8 18 9 19 10 20 11 21 14 22 12 23 13 24 16 25
REMARK SMILES IDX 17 26 18 27 26 28 27 29 28 30 29 31 30 32 31 34 32 35 33 36
REMARK SMILES IDX 94 37 34 38 93 39 35 40 36 41 37 42 87 43 38 44 92 45 86 46
REMARK SMILES IDX 88 47 39 48 91 49 85 50 84 51 40 53 72 54 52 55 71 56 53 57
REMARK SMILES IDX 56 58 70 59 89 60 54 61 55 62 69 64 90 65 57 66 41 67 42 68
REMARK SMILES IDX 50 69 43 70 45 71 51 72 44 73 46 74 47 75 48 76 49 77 73 78
REMARK SMILES IDX 74 79 82 80 75 81 77 82 83 83 76 84 78 85 79 86 80 87 81 88
REMARK SMILES IDX 58 89 59 90 67 91 60 92 62 93 68 94 61 95 63 96 64 97 65 98
REMARK SMILES IDX 66 99
REMARK H PARENT 24 5 6 16 29 33 88 52 56 63
REMARK Flexibility Score: inf
ROOT
ATOM      1  C   UNL A   1      30.576  25.946  26.030  1.00  0.00     0.116 C 
ENDROOT
BRANCH   1   2
ATOM      2  N   UNL A   1      30.390  24.776  26.876  1.00  0.00    -0.356 N 
ATOM      3  C   UNL A   1      30.529  23.445  26.603  1.00  0.00     0.220 C 
ATOM      4  O   UNL A   1      30.307  22.629  27.500  1.00  0.00    -0.275 OA
ATOM      5  H   UNL A   1      30.117  24.978  27.800  1.00  0.00     0.163 HD
BRANCH   3   6
ATOM      6  C   UNL A   1      30.950  22.974  25.226  1.00  0.00     0.108 C 
BRANCH   6   7
ATOM      7  C   UNL A   1      32.407  22.458  25.131  1.00  0.00     0.024 C 
ATOM      8  C   UNL A   1      32.406  20.067  24.183  1.00  0.00     0.039 C 
ATOM      9  C   UNL A   1      32.621  21.544  23.937  1.00  0.00    -0.073 C 
ATOM     10  C   UNL A   1      33.109  22.005  22.765  1.00  0.00    -0.023 C 
ATOM     11  C   UNL A   1      33.753  23.365  22.652  1.00  0.00     0.030 C 
ATOM     12  C   UNL A   1      33.395  23.663  25.131  1.00  0.00     0.013 C 
ATOM     13  C   UNL A   1      34.481  23.602  24.018  1.00  0.00     0.000 C 
BRANCH  11  14
ATOM     14  C   UNL A   1      32.805  24.535  22.310  1.00  0.00     0.107 C 
BRANCH  14  15
ATOM     15  N   UNL A   1      33.459  25.645  21.587  1.00  0.00    -0.210 NA
ATOM     16  H   UNL A   1      32.967  25.780  20.703  1.00  0.00     0.141 HD
BRANCH  15  17
ATOM     17  S   UNL A   1      33.480  27.140  22.411  1.00  0.00     0.250 S 
ATOM     18  O   UNL A   1      33.966  26.869  23.753  1.00  0.00    -0.206 OA
ATOM     19  O   UNL A   1      34.145  28.078  21.549  1.00  0.00    -0.206 OA
BRANCH  17  20
ATOM     20  C   UNL A   1      31.795  27.684  22.653  1.00  0.00     0.134 A 
ATOM     21  C   UNL A   1      30.607  26.983  22.770  1.00  0.00     0.033 A 
ATOM     22  S   UNL A   1      31.535  29.367  22.836  1.00  0.00    -0.131 S 
ATOM     23  C   UNL A   1      29.481  27.833  22.971  1.00  0.00     0.013 A 
ATOM     24  C   UNL A   1      29.849  29.157  23.041  1.00  0.00     0.066 A 
ENDBRANCH  17  20
ENDBRANCH  15  17
ENDBRANCH  14  15
ENDBRANCH  11  14
BRANCH  13  25
ATOM     25  C   UNL A   1      35.595  22.526  24.309  1.00  0.00    -0.014 C 
ATOM     26  C   UNL A   1      36.782  22.642  23.344  1.00  0.00     0.007 C 
ATOM     27  C   UNL A   1      36.107  22.581  25.749  1.00  0.00     0.007 C 
ENDBRANCH  13  25
ENDBRANCH   6   7
ENDBRANCH   3   6
ENDBRANCH   1   2
BRANCH   1  28
ATOM     28  C   UNL A   1      31.803  26.777  26.404  1.00  0.00     0.023 C 
BRANCH  28  29
ATOM     29  C   UNL A   1      31.557  28.252  26.680  1.00  0.00     0.023 C 
BRANCH  29  30
ATOM     30  C   UNL A   1      32.743  29.129  26.342  1.00  0.00     0.116 C 
BRANCH  30  31
ATOM     31  N   UNL A   1      32.414  30.549  26.412  1.00  0.00    -0.352 N 
ATOM     32  C   UNL A   1      33.042  31.551  27.106  1.00  0.00     0.251 C 
ATOM     33  H   UNL A   1      31.630  30.827  25.885  1.00  0.00     0.163 HD
ATOM     34  O   UNL A   1      32.513  32.652  27.219  1.00  0.00    -0.269 OA
BRANCH  32  35
ATOM     35  C   UNL A   1      34.354  31.283  27.725  1.00  0.00     0.039 A 
ATOM     36  C   UNL A   1      35.284  32.318  27.843  1.00  0.00     0.014 A 
ATOM     37  C   UNL A   1      34.646  30.007  28.210  1.00  0.00     0.014 A 
ATOM     38  C   UNL A   1      36.491  32.080  28.500  1.00  0.00     0.010 A 
ATOM     39  C   UNL A   1      35.791  29.804  28.958  1.00  0.00     0.010 A 
ATOM     40  C   UNL A   1      36.738  30.828  29.086  1.00  0.00    -0.014 A 
BRANCH  40  41
ATOM     41  C   UNL A   1      38.000  30.532  29.801  1.00  0.00     0.031 A 
ATOM     42  C   UNL A   1      39.011  29.621  29.158  1.00  0.00     0.074 A 
ATOM     43  C   UNL A   1      38.176  30.980  31.059  1.00  0.00     0.049 A 
ATOM     44  N   UNL A   1      40.116  29.132  29.656  1.00  0.00    -0.248 NA
ATOM     45  C   UNL A   1      38.716  29.155  27.790  1.00  0.00     0.031 C 
ATOM     46  C   UNL A   1      37.215  31.786  31.815  1.00  0.00     0.029 A 
ATOM     47  N   UNL A   1      39.213  30.791  31.936  1.00  0.00    -0.354 N 
ATOM     48  C   UNL A   1      40.611  28.263  28.691  1.00  0.00     0.074 A 
ATOM     49  C   UNL A   1      39.668  28.256  27.596  1.00  0.00     0.031 C 
ATOM     50  C   UNL A   1      37.712  32.029  33.040  1.00  0.00     0.029 A 
ATOM     51  C   UNL A   1      39.011  31.377  33.162  1.00  0.00     0.049 A 
ATOM     52  H   UNL A   1      40.025  30.284  31.708  1.00  0.00     0.167 HD
ATOM     53  C   UNL A   1      41.770  27.565  28.697  1.00  0.00     0.034 A 
ATOM     54  C   UNL A   1      39.793  31.388  34.260  1.00  0.00     0.034 A 
ATOM     55  C   UNL A   1      42.741  27.654  29.751  1.00  0.00     0.049 A 
ATOM     56  C   UNL A   1      41.126  30.694  34.198  1.00  0.00     0.074 A 
ATOM     57  C   UNL A   1      44.000  27.086  29.813  1.00  0.00     0.029 A 
ATOM     58  N   UNL A   1      42.564  28.373  30.924  1.00  0.00    -0.354 N 
ATOM     59  N   UNL A   1      41.654  30.008  33.212  1.00  0.00    -0.248 NA
ATOM     60  C   UNL A   1      41.990  30.807  35.381  1.00  0.00     0.031 C 
ATOM     61  C   UNL A   1      44.585  27.462  31.026  1.00  0.00     0.029 A 
ATOM     62  C   UNL A   1      43.692  28.270  31.715  1.00  0.00     0.049 A 
ATOM     63  H   UNL A   1      41.754  28.882  31.157  1.00  0.00     0.167 HD
ATOM     64  C   UNL A   1      42.923  29.638  33.641  1.00  0.00     0.074 A 
ATOM     65  C   UNL A   1      43.093  30.195  34.968  1.00  0.00     0.031 C 
ATOM     66  C   UNL A   1      43.858  28.889  33.005  1.00  0.00     0.034 A 
BRANCH  53  67
ATOM     67  C   UNL A   1      42.083  26.714  27.495  1.00  0.00     0.023 A 
ATOM     68  C   UNL A   1      42.685  27.305  26.366  1.00  0.00     0.012 A 
ATOM     69  C   UNL A   1      41.822  25.330  27.493  1.00  0.00     0.148 A 
ATOM     70  C   UNL A   1      42.990  26.543  25.239  1.00  0.00     0.002 A 
ATOM     71  C   UNL A   1      42.171  24.568  26.383  1.00  0.00     0.091 A 
ATOM     72  F   UNL A   1      41.227  24.788  28.565  1.00  0.00    -0.205 F 
ATOM     73  C   UNL A   1      42.744  25.174  25.252  1.00  0.00     0.022 A 
BRANCH  71  74
ATOM     74  S   UNL A   1      41.964  22.783  26.330  1.00  0.00     0.127 S 
ATOM     75  O   UNL A   1      40.507  22.655  26.340  1.00  0.00    -0.237 OA
ATOM     76  O   UNL A   1      42.597  22.438  25.057  1.00  0.00    -0.237 OA
ATOM     77  O   UNL A   1      42.648  22.265  27.506  1.00  0.00    -0.744 OA
ENDBRANCH  71  74
ENDBRANCH  53  67
BRANCH  54  78
ATOM     78  C   UNL A   1      39.378  32.164  35.462  1.00  0.00     0.023 A 
ATOM     79  C   UNL A   1      39.690  33.536  35.533  1.00  0.00     0.012 A 
ATOM     80  C   UNL A   1      38.645  31.573  36.510  1.00  0.00     0.148 A 
ATOM     81  C   UNL A   1      39.309  34.298  36.638  1.00  0.00     0.002 A 
ATOM     82  C   UNL A   1      38.224  32.349  37.583  1.00  0.00     0.091 A 
ATOM     83  F   UNL A   1      38.366  30.264  36.432  1.00  0.00    -0.205 F 
ATOM     84  C   UNL A   1      38.568  33.709  37.657  1.00  0.00     0.022 A 
BRANCH  82  85
ATOM     85  S   UNL A   1      37.152  31.700  38.872  1.00  0.00     0.127 S 
ATOM     86  O   UNL A   1      37.995  31.830  40.056  1.00  0.00    -0.237 OA
ATOM     87  O   UNL A   1      36.015  32.619  38.819  1.00  0.00    -0.237 OA
ATOM     88  O   UNL A   1      36.835  30.339  38.459  1.00  0.00    -0.744 OA
ENDBRANCH  82  85
ENDBRANCH  54  78
BRANCH  66  89
ATOM     89  C   UNL A   1      45.160  28.651  33.717  1.00  0.00     0.023 A 
ATOM     90  C   UNL A   1      46.217  29.568  33.556  1.00  0.00     0.012 A 
ATOM     91  C   UNL A   1      45.302  27.575  34.615  1.00  0.00     0.148 A 
ATOM     92  C   UNL A   1      47.408  29.401  34.260  1.00  0.00     0.002 A 
ATOM     93  C   UNL A   1      46.475  27.441  35.345  1.00  0.00     0.091 A 
ATOM     94  F   UNL A   1      44.289  26.705  34.736  1.00  0.00    -0.205 F 
ATOM     95  C   UNL A   1      47.532  28.348  35.162  1.00  0.00     0.022 A 
BRANCH  93  96
ATOM     96  S   UNL A   1      46.681  26.171  36.599  1.00  0.00     0.127 S 
ATOM     97  O   UNL A   1      48.068  25.763  36.384  1.00  0.00    -0.237 OA
ATOM     98  O   UNL A   1      46.449  26.914  37.838  1.00  0.00    -0.237 OA
ATOM     99  O   UNL A   1      45.675  25.159  36.308  1.00  0.00    -0.744 OA
ENDBRANCH  93  96
ENDBRANCH  66  89
ENDBRANCH  40  41
ENDBRANCH  32  35
ENDBRANCH  30  31
ENDBRANCH  29  30
ENDBRANCH  28  29
ENDBRANCH   1  28
TORSDOF 20
ENDMDL
MODEL 2
REMARK VINA RESULT:     -11.3      1.537      7.527
REMARK SMILES CC1=C[C@@H](CNS(=O)(=O)c2cccs2)[C@H](C(C)C)C[C@H]1CC(=O)NCCCCNC(=O)c1ccc(-c2c3nc(c(-c4cccc(S(=O)(=O)[O-])c4F)c4ccc([nH]4)c(-c4cccc(S(=O)(=O)[O-])c4F)c4nc(c(-c5cccc(S(=O)(=O)[O-])c5F)c5ccc2[nH]5)C=C4)C=C3)cc1
REMARK SMILES IDX 25 1 24 2 22 3 23 4 21 6 20 7 1 8 2 9 3 10 4 11 19 12 15 13
REMARK SMILES IDX 5 14 6 15 7 17 8 18 9 19 10 20 11 21 14 22 12 23 13 24 16 25
REMARK SMILES IDX 17 26 18 27 26 28 27 29 28 30 29 31 30 32 31 34 32 35 33 36
REMARK SMILES IDX 94 37 34 38 93 39 35 40 36 41 37 42 87 43 38 44 92 45 86 46
REMARK SMILES IDX 88 47 39 48 91 49 85 50 84 51 40 53 72 54 52 55 71 56 53 57
REMARK SMILES IDX 56 58 70 59 89 60 54 61 55 62 69 64 90 65 57 66 41 67 42 68
REMARK SMILES IDX 50 69 43 70 45 71 51 72 44 73 46 74 47 75 48 76 49 77 73 78
REMARK SMILES IDX 74 79 82 80 75 81 77 82 83 83 76 84 78 85 79 86 80 87 81 88
REMARK SMILES IDX 58 89 59 90 67 91 60 92 62 93 68 94 61 95 63 96 64 97 65 98
REMARK SMILES IDX 66 99
REMARK H PARENT 24 5 6 16 29 33 88 52 56 63
REMARK Flexibility Score: inf
ROOT
ATOM      1  C   UNL A   1      30.875  26.121  25.931  1.00  0.00     0.116 C 
ENDROOT
BRANCH   1   2
ATOM      2  N   UNL A   1      30.706  24.972  26.810  1.00  0.00    -0.356 N 
ATOM      3  C   UNL A   1      30.752  23.633  26.548  1.00  0.00     0.220 C 
ATOM      4  O   UNL A   1      30.570  22.841  27.475  1.00  0.00    -0.275 OA
ATOM      5  H   UNL A   1      30.530  25.200  27.751  1.00  0.00     0.163 HD
BRANCH   3   6
ATOM      6  C   UNL A   1      31.020  23.124  25.147  1.00  0.00     0.108 C 
BRANCH   6   7
ATOM      7  C   UNL A   1      32.382  22.410  24.963  1.00  0.00     0.024 C 
ATOM      8  C   UNL A   1      32.233  20.785  22.975  1.00  0.00     0.039 C 
ATOM      9  C   UNL A   1      32.694  22.125  23.505  1.00  0.00    -0.073 C 
ATOM     10  C   UNL A   1      33.460  22.956  22.764  1.00  0.00    -0.023 C 
ATOM     11  C   UNL A   1      34.296  24.040  23.397  1.00  0.00     0.030 C 
ATOM     12  C   UNL A   1      33.509  23.236  25.653  1.00  0.00     0.013 C 
ATOM     13  C   UNL A   1      34.771  23.461  24.772  1.00  0.00     0.000 C 
BRANCH  11  14
ATOM     14  C   UNL A   1      33.604  25.410  23.572  1.00  0.00     0.107 C 
BRANCH  14  15
ATOM     15  N   UNL A   1      33.276  26.085  22.299  1.00  0.00    -0.210 NA
ATOM     16  H   UNL A   1      33.814  25.637  21.557  1.00  0.00     0.141 HD
BRANCH  15  17
ATOM     17  S   UNL A   1      31.629  26.044  21.854  1.00  0.00     0.250 S 
ATOM     18  O   UNL A   1      31.586  26.125  20.404  1.00  0.00    -0.206 OA
ATOM     19  O   UNL A   1      31.038  24.940  22.560  1.00  0.00    -0.206 OA
BRANCH  17  20
ATOM     20  C   UNL A   1      30.849  27.555  22.404  1.00  0.00     0.134 A 
ATOM     21  C   UNL A   1      29.567  27.822  22.851  1.00  0.00     0.033 A 
ATOM     22  S   UNL A   1      31.825  28.961  22.466  1.00  0.00    -0.131 S 
ATOM     23  C   UNL A   1      29.377  29.189  23.206  1.00  0.00     0.013 A 
ATOM     24  C   UNL A   1      30.536  29.918  23.057  1.00  0.00     0.066 A 
ENDBRANCH  17  20
ENDBRANCH  15  17
ENDBRANCH  14  15
ENDBRANCH  11  14
BRANCH  13  25
ATOM     25  C   UNL A   1      35.647  22.161  24.614  1.00  0.00    -0.014 C 
ATOM     26  C   UNL A   1      37.023  22.456  24.004  1.00  0.00     0.007 C 
ATOM     27  C   UNL A   1      35.829  21.408  25.932  1.00  0.00     0.007 C 
ENDBRANCH  13  25
ENDBRANCH   6   7
ENDBRANCH   3   6
ENDBRANCH   1   2
BRANCH   1  28
ATOM     28  C   UNL A   1      31.939  27.105  26.414  1.00  0.00     0.023 C 
BRANCH  28  29
ATOM     29  C   UNL A   1      31.667  28.576  26.145  1.00  0.00     0.023 C 
BRANCH  29  30
ATOM     30  C   UNL A   1      31.918  29.460  27.348  1.00  0.00     0.116 C 
BRANCH  30  31
ATOM     31  N   UNL A   1      32.114  30.856  26.972  1.00  0.00    -0.352 N 
ATOM     32  C   UNL A   1      33.101  31.728  27.358  1.00  0.00     0.251 C 
ATOM     33  H   UNL A   1      31.443  31.225  26.353  1.00  0.00     0.163 HD
ATOM     34  O   UNL A   1      33.001  32.925  27.110  1.00  0.00    -0.269 OA
BRANCH  32  35
ATOM     35  C   UNL A   1      34.274  31.207  28.084  1.00  0.00     0.039 A 
ATOM     36  C   UNL A   1      34.695  29.895  27.860  1.00  0.00     0.014 A 
ATOM     37  C   UNL A   1      34.968  32.034  28.969  1.00  0.00     0.014 A 
ATOM     38  C   UNL A   1      35.852  29.432  28.487  1.00  0.00     0.010 A 
ATOM     39  C   UNL A   1      36.173  31.611  29.499  1.00  0.00     0.010 A 
ATOM     40  C   UNL A   1      36.612  30.298  29.289  1.00  0.00    -0.014 A 
BRANCH  40  41
ATOM     41  C   UNL A   1      37.851  29.855  29.968  1.00  0.00     0.031 A 
ATOM     42  C   UNL A   1      38.147  30.359  31.355  1.00  0.00     0.074 A 
ATOM     43  C   UNL A   1      38.750  29.109  29.298  1.00  0.00     0.049 A 
ATOM     44  N   UNL A   1      39.224  30.201  32.077  1.00  0.00    -0.248 NA
ATOM     45  C   UNL A   1      37.116  31.197  31.996  1.00  0.00     0.031 C 
ATOM     46  C   UNL A   1      38.609  28.650  27.914  1.00  0.00     0.029 A 
ATOM     47  N   UNL A   1      39.977  28.633  29.681  1.00  0.00    -0.354 N 
ATOM     48  C   UNL A   1      39.023  30.961  33.224  1.00  0.00     0.074 A 
ATOM     49  C   UNL A   1      37.743  31.616  33.084  1.00  0.00     0.031 C 
ATOM     50  C   UNL A   1      39.704  27.953  27.568  1.00  0.00     0.029 A 
ATOM     51  C   UNL A   1      40.631  27.936  28.694  1.00  0.00     0.049 A 
ATOM     52  H   UNL A   1      40.354  28.778  30.580  1.00  0.00     0.167 HD
ATOM     53  C   UNL A   1      39.816  31.072  34.315  1.00  0.00     0.034 A 
ATOM     54  C   UNL A   1      41.843  27.346  28.703  1.00  0.00     0.034 A 
ATOM     55  C   UNL A   1      41.042  30.342  34.478  1.00  0.00     0.049 A 
ATOM     56  C   UNL A   1      42.655  27.393  29.970  1.00  0.00     0.074 A 
ATOM     57  C   UNL A   1      41.868  30.283  35.585  1.00  0.00     0.029 A 
ATOM     58  N   UNL A   1      41.608  29.530  33.508  1.00  0.00    -0.354 N 
ATOM     59  N   UNL A   1      42.374  27.984  31.107  1.00  0.00    -0.248 NA
ATOM     60  C   UNL A   1      43.928  26.660  29.971  1.00  0.00     0.031 C 
ATOM     61  C   UNL A   1      42.937  29.433  35.282  1.00  0.00     0.029 A 
ATOM     62  C   UNL A   1      42.770  28.959  33.990  1.00  0.00     0.049 A 
ATOM     63  H   UNL A   1      41.236  29.382  32.608  1.00  0.00     0.167 HD
ATOM     64  C   UNL A   1      43.417  27.667  31.969  1.00  0.00     0.074 A 
ATOM     65  C   UNL A   1      44.324  26.812  31.229  1.00  0.00     0.031 C 
ATOM     66  C   UNL A   1      43.619  28.060  33.251  1.00  0.00     0.034 A 
BRANCH  53  67
ATOM     67  C   UNL A   1      39.339  31.947  35.442  1.00  0.00     0.023 A 
ATOM     68  C   UNL A   1      38.450  31.420  36.401  1.00  0.00     0.012 A 
ATOM     69  C   UNL A   1      39.796  33.273  35.581  1.00  0.00     0.148 A 
ATOM     70  C   UNL A   1      37.994  32.204  37.459  1.00  0.00     0.002 A 
ATOM     71  C   UNL A   1      39.372  34.035  36.664  1.00  0.00     0.091 A 
ATOM     72  F   UNL A   1      40.622  33.766  34.647  1.00  0.00    -0.205 F 
ATOM     73  C   UNL A   1      38.463  33.507  37.596  1.00  0.00     0.022 A 
BRANCH  71  74
ATOM     74  S   UNL A   1      39.977  35.699  36.974  1.00  0.00     0.127 S 
ATOM     75  O   UNL A   1      39.605  36.383  35.735  1.00  0.00    -0.237 OA
ATOM     76  O   UNL A   1      39.198  36.096  38.146  1.00  0.00    -0.237 OA
ATOM     77  O   UNL A   1      41.407  35.568  37.212  1.00  0.00    -0.744 OA
ENDBRANCH  71  74
ENDBRANCH  53  67
BRANCH  54  78
ATOM     78  C   UNL A   1      42.307  26.581  27.513  1.00  0.00     0.023 A 
ATOM     79  C   UNL A   1      43.032  27.252  26.508  1.00  0.00     0.012 A 
ATOM     80  C   UNL A   1      42.079  25.197  27.386  1.00  0.00     0.148 A 
ATOM     81  C   UNL A   1      43.493  26.566  25.384  1.00  0.00     0.002 A 
ATOM     82  C   UNL A   1      42.585  24.510  26.287  1.00  0.00     0.091 A 
ATOM     83  F   UNL A   1      41.378  24.576  28.345  1.00  0.00    -0.205 F 
ATOM     84  C   UNL A   1      43.280  25.195  25.277  1.00  0.00     0.022 A 
BRANCH  82  85
ATOM     85  S   UNL A   1      42.471  22.723  26.141  1.00  0.00     0.127 S 
ATOM     86  O   UNL A   1      43.243  22.278  27.297  1.00  0.00    -0.237 OA
ATOM     87  O   UNL A   1      41.029  22.497  26.238  1.00  0.00    -0.237 OA
ATOM     88  O   UNL A   1      43.036  22.406  24.835  1.00  0.00    -0.744 OA
ENDBRANCH  82  85
ENDBRANCH  54  78
BRANCH  66  89
ATOM     89  C   UNL A   1      44.850  27.550  33.949  1.00  0.00     0.023 A 
ATOM     90  C   UNL A   1      46.037  28.307  33.904  1.00  0.00     0.012 A 
ATOM     91  C   UNL A   1      44.802  26.374  34.722  1.00  0.00     0.148 A 
ATOM     92  C   UNL A   1      47.168  27.885  34.599  1.00  0.00     0.002 A 
ATOM     93  C   UNL A   1      45.920  25.985  35.447  1.00  0.00     0.091 A 
ATOM     94  F   UNL A   1      43.667  25.660  34.733  1.00  0.00    -0.205 F 
ATOM     95  C   UNL A   1      47.106  26.733  35.380  1.00  0.00     0.022 A 
BRANCH  93  96
ATOM     96  S   UNL A   1      45.896  24.569  36.553  1.00  0.00     0.127 S 
ATOM     97  O   UNL A   1      44.959  25.012  37.584  1.00  0.00    -0.237 OA
ATOM     98  O   UNL A   1      45.392  23.503  35.687  1.00  0.00    -0.237 OA
ATOM     99  O   UNL A   1      47.273  24.385  36.992  1.00  0.00    -0.744 OA
ENDBRANCH  93  96
ENDBRANCH  66  89
ENDBRANCH  40  41
ENDBRANCH  32  35
ENDBRANCH  30  31
ENDBRANCH  29  30
ENDBRANCH  28  29
ENDBRANCH   1  28
TORSDOF 20
ENDMDL
MODEL 3
REMARK VINA RESULT:     -11.2      5.317     10.401
REMARK SMILES CC1=C[C@@H](CNS(=O)(=O)c2cccs2)[C@H](C(C)C)C[C@H]1CC(=O)NCCCCNC(=O)c1ccc(-c2c3nc(c(-c4cccc(S(=O)(=O)[O-])c4F)c4ccc([nH]4)c(-c4cccc(S(=O)(=O)[O-])c4F)c4nc(c(-c5cccc(S(=O)(=O)[O-])c5F)c5ccc2[nH]5)C=C4)C=C3)cc1
REMARK SMILES IDX 25 1 24 2 22 3 23 4 21 6 20 7 1 8 2 9 3 10 4 11 19 12 15 13
REMARK SMILES IDX 5 14 6 15 7 17 8 18 9 19 10 20 11 21 14 22 12 23 13 24 16 25
REMARK SMILES IDX 17 26 18 27 26 28 27 29 28 30 29 31 30 32 31 34 32 35 33 36
REMARK SMILES IDX 94 37 34 38 93 39 35 40 36 41 37 42 87 43 38 44 92 45 86 46
REMARK SMILES IDX 88 47 39 48 91 49 85 50 84 51 40 53 72 54 52 55 71 56 53 57
REMARK SMILES IDX 56 58 70 59 89 60 54 61 55 62 69 64 90 65 57 66 41 67 42 68
REMARK SMILES IDX 50 69 43 70 45 71 51 72 44 73 46 74 47 75 48 76 49 77 73 78
REMARK SMILES IDX 74 79 82 80 75 81 77 82 83 83 76 84 78 85 79 86 80 87 81 88
REMARK SMILES IDX 58 89 59 90 67 91 60 92 62 93 68 94 61 95 63 96 64 97 65 98
REMARK SMILES IDX 66 99
REMARK H PARENT 24 5 6 16 29 33 88 52 56 63
REMARK Flexibility Score: inf
ROOT
ATOM      1  C   UNL A   1      36.813  22.579  24.620  1.00  0.00     0.116 C 
ENDROOT
BRANCH   1   2
ATOM      2  N   UNL A   1      36.036  22.739  23.399  1.00  0.00    -0.356 N 
ATOM      3  C   UNL A   1      34.853  23.381  23.171  1.00  0.00     0.220 C 
ATOM      4  O   UNL A   1      34.384  23.374  22.031  1.00  0.00    -0.275 OA
ATOM      5  H   UNL A   1      36.431  22.313  22.604  1.00  0.00     0.163 HD
BRANCH   3   6
ATOM      6  C   UNL A   1      34.125  24.091  24.294  1.00  0.00     0.108 C 
BRANCH   6   7
ATOM      7  C   UNL A   1      33.851  25.595  24.045  1.00  0.00     0.024 C 
ATOM      8  C   UNL A   1      32.837  25.901  21.701  1.00  0.00     0.039 C 
ATOM      9  C   UNL A   1      32.614  25.825  23.195  1.00  0.00    -0.073 C 
ATOM     10  C   UNL A   1      31.409  26.087  23.747  1.00  0.00    -0.023 C 
ATOM     11  C   UNL A   1      31.267  26.467  25.200  1.00  0.00     0.030 C 
ATOM     12  C   UNL A   1      33.778  26.352  25.405  1.00  0.00     0.013 C 
ATOM     13  C   UNL A   1      32.550  27.296  25.548  1.00  0.00     0.000 C 
BRANCH  11  14
ATOM     14  C   UNL A   1      31.069  25.297  26.188  1.00  0.00     0.107 C 
BRANCH  14  15
ATOM     15  N   UNL A   1      30.525  24.072  25.567  1.00  0.00    -0.210 NA
ATOM     16  H   UNL A   1      30.941  23.976  24.640  1.00  0.00     0.141 HD
BRANCH  15  17
ATOM     17  S   UNL A   1      30.815  22.626  26.426  1.00  0.00     0.250 S 
ATOM     18  O   UNL A   1      31.661  22.975  27.556  1.00  0.00    -0.206 OA
ATOM     19  O   UNL A   1      29.538  21.994  26.614  1.00  0.00    -0.206 OA
BRANCH  17  20
ATOM     20  C   UNL A   1      31.838  21.559  25.422  1.00  0.00     0.134 A 
ATOM     21  C   UNL A   1      31.779  21.220  24.081  1.00  0.00     0.033 A 
ATOM     22  S   UNL A   1      33.189  20.830  26.180  1.00  0.00    -0.131 S 
ATOM     23  C   UNL A   1      32.822  20.331  23.689  1.00  0.00     0.013 A 
ATOM     24  C   UNL A   1      33.670  20.050  24.735  1.00  0.00     0.066 A 
ENDBRANCH  17  20
ENDBRANCH  15  17
ENDBRANCH  14  15
ENDBRANCH  11  14
BRANCH  13  25
ATOM     25  C   UNL A   1      32.681  28.606  24.682  1.00  0.00    -0.014 C 
ATOM     26  C   UNL A   1      31.908  29.784  25.289  1.00  0.00     0.007 C 
ATOM     27  C   UNL A   1      34.136  29.019  24.453  1.00  0.00     0.007 C 
ENDBRANCH  13  25
ENDBRANCH   6   7
ENDBRANCH   3   6
ENDBRANCH   1   2
BRANCH   1  28
ATOM     28  C   UNL A   1      36.848  21.141  25.135  1.00  0.00     0.023 C 
BRANCH  28  29
ATOM     29  C   UNL A   1      38.162  20.397  24.962  1.00  0.00     0.023 C 
BRANCH  29  30
ATOM     30  C   UNL A   1      38.856  20.098  26.274  1.00  0.00     0.116 C 
BRANCH  30  31
ATOM     31  N   UNL A   1      40.038  19.261  26.092  1.00  0.00    -0.352 N 
ATOM     32  C   UNL A   1      41.359  19.628  26.038  1.00  0.00     0.251 C 
ATOM     33  H   UNL A   1      39.863  18.297  25.994  1.00  0.00     0.163 HD
ATOM     34  O   UNL A   1      42.210  18.823  25.674  1.00  0.00    -0.269 OA
BRANCH  32  35
ATOM     35  C   UNL A   1      41.738  21.003  26.411  1.00  0.00     0.039 A 
ATOM     36  C   UNL A   1      42.195  21.264  27.705  1.00  0.00     0.014 A 
ATOM     37  C   UNL A   1      41.663  22.027  25.465  1.00  0.00     0.014 A 
ATOM     38  C   UNL A   1      42.629  22.549  28.031  1.00  0.00     0.010 A 
ATOM     39  C   UNL A   1      42.197  23.269  25.756  1.00  0.00     0.010 A 
ATOM     40  C   UNL A   1      42.657  23.551  27.048  1.00  0.00    -0.014 A 
BRANCH  40  41
ATOM     41  C   UNL A   1      43.118  24.927  27.344  1.00  0.00     0.031 A 
ATOM     42  C   UNL A   1      42.168  25.892  28.001  1.00  0.00     0.074 A 
ATOM     43  C   UNL A   1      44.329  25.333  26.918  1.00  0.00     0.049 A 
ATOM     44  N   UNL A   1      42.319  27.169  28.234  1.00  0.00    -0.248 NA
ATOM     45  C   UNL A   1      40.850  25.364  28.403  1.00  0.00     0.031 C 
ATOM     46  C   UNL A   1      45.290  24.508  26.181  1.00  0.00     0.029 A 
ATOM     47  N   UNL A   1      44.946  26.553  27.015  1.00  0.00    -0.354 N 
ATOM     48  C   UNL A   1      41.105  27.603  28.752  1.00  0.00     0.074 A 
ATOM     49  C   UNL A   1      40.211  26.468  28.760  1.00  0.00     0.031 C 
ATOM     50  C   UNL A   1      46.378  25.245  25.901  1.00  0.00     0.029 A 
ATOM     51  C   UNL A   1      46.181  26.595  26.414  1.00  0.00     0.049 A 
ATOM     52  H   UNL A   1      44.541  27.326  27.472  1.00  0.00     0.167 HD
ATOM     53  C   UNL A   1      40.775  28.830  29.219  1.00  0.00     0.034 A 
ATOM     54  C   UNL A   1      47.056  27.613  26.298  1.00  0.00     0.034 A 
ATOM     55  C   UNL A   1      41.702  29.924  29.290  1.00  0.00     0.049 A 
ATOM     56  C   UNL A   1      46.707  28.936  26.924  1.00  0.00     0.074 A 
ATOM     57  C   UNL A   1      41.517  31.175  29.849  1.00  0.00     0.029 A 
ATOM     58  N   UNL A   1      42.998  29.889  28.797  1.00  0.00    -0.354 N 
ATOM     59  N   UNL A   1      45.612  29.284  27.558  1.00  0.00    -0.248 NA
ATOM     60  C   UNL A   1      47.725  29.993  26.857  1.00  0.00     0.031 C 
ATOM     61  C   UNL A   1      42.704  31.898  29.694  1.00  0.00     0.029 A 
ATOM     62  C   UNL A   1      43.628  31.094  29.044  1.00  0.00     0.049 A 
ATOM     63  H   UNL A   1      43.407  29.120  28.339  1.00  0.00     0.167 HD
ATOM     64  C   UNL A   1      45.823  30.587  27.996  1.00  0.00     0.074 A 
ATOM     65  C   UNL A   1      47.159  30.957  27.573  1.00  0.00     0.031 C 
ATOM     66  C   UNL A   1      44.982  31.411  28.668  1.00  0.00     0.034 A 
BRANCH  53  67
ATOM     67  C   UNL A   1      39.385  29.023  29.762  1.00  0.00     0.023 A 
ATOM     68  C   UNL A   1      39.116  28.702  31.109  1.00  0.00     0.012 A 
ATOM     69  C   UNL A   1      38.355  29.557  28.962  1.00  0.00     0.148 A 
ATOM     70  C   UNL A   1      37.839  28.874  31.642  1.00  0.00     0.002 A 
ATOM     71  C   UNL A   1      37.097  29.768  29.513  1.00  0.00     0.091 A 
ATOM     72  F   UNL A   1      38.622  29.834  27.677  1.00  0.00    -0.205 F 
ATOM     73  C   UNL A   1      36.834  29.417  30.848  1.00  0.00     0.022 A 
BRANCH  71  74
ATOM     74  S   UNL A   1      35.753  30.532  28.596  1.00  0.00     0.127 S 
ATOM     75  O   UNL A   1      35.020  31.216  29.662  1.00  0.00    -0.237 OA
ATOM     76  O   UNL A   1      36.470  31.422  27.683  1.00  0.00    -0.237 OA
ATOM     77  O   UNL A   1      35.041  29.442  27.945  1.00  0.00    -0.744 OA
ENDBRANCH  71  74
ENDBRANCH  53  67
BRANCH  54  78
ATOM     78  C   UNL A   1      48.380  27.387  25.652  1.00  0.00     0.023 A 
ATOM     79  C   UNL A   1      49.468  26.980  26.448  1.00  0.00     0.012 A 
ATOM     80  C   UNL A   1      48.561  27.529  24.263  1.00  0.00     0.148 A 
ATOM     81  C   UNL A   1      50.721  26.747  25.878  1.00  0.00     0.002 A 
ATOM     82  C   UNL A   1      49.798  27.246  23.694  1.00  0.00     0.091 A 
ATOM     83  F   UNL A   1      47.518  27.928  23.522  1.00  0.00    -0.205 F 
ATOM     84  C   UNL A   1      50.884  26.870  24.501  1.00  0.00     0.022 A 
BRANCH  82  85
ATOM     85  S   UNL A   1      50.057  27.250  21.915  1.00  0.00     0.127 S 
ATOM     86  O   UNL A   1      49.020  26.328  21.460  1.00  0.00    -0.237 OA
ATOM     87  O   UNL A   1      49.827  28.654  21.573  1.00  0.00    -0.237 OA
ATOM     88  O   UNL A   1      51.433  26.809  21.725  1.00  0.00    -0.744 OA
ENDBRANCH  82  85
ENDBRANCH  54  78
BRANCH  66  89
ATOM     89  C   UNL A   1      45.487  32.783  29.019  1.00  0.00     0.023 A 
ATOM     90  C   UNL A   1      46.202  32.974  30.218  1.00  0.00     0.012 A 
ATOM     91  C   UNL A   1      45.336  33.856  28.120  1.00  0.00     0.148 A 
ATOM     92  C   UNL A   1      46.735  34.223  30.529  1.00  0.00     0.002 A 
ATOM     93  C   UNL A   1      45.909  35.086  28.417  1.00  0.00     0.091 A 
ATOM     94  F   UNL A   1      44.635  33.655  26.995  1.00  0.00    -0.205 F 
ATOM     95  C   UNL A   1      46.601  35.273  29.624  1.00  0.00     0.022 A 
BRANCH  93  96
ATOM     96  S   UNL A   1      45.866  36.463  27.264  1.00  0.00     0.127 S 
ATOM     97  O   UNL A   1      46.601  37.490  28.000  1.00  0.00    -0.237 OA
ATOM     98  O   UNL A   1      46.571  35.921  26.102  1.00  0.00    -0.237 OA
ATOM     99  O   UNL A   1      44.456  36.743  27.033  1.00  0.00    -0.744 OA
ENDBRANCH  93  96
ENDBRANCH  66  89
ENDBRANCH  40  41
ENDBRANCH  32  35
ENDBRANCH  30  31
ENDBRANCH  29  30
ENDBRANCH  28  29
ENDBRANCH   1  28
TORSDOF 20
ENDMDL
