MODEL 1
REMARK VINA RESULT:     -12.1      0.000      0.000
REMARK SMILES C[C@@H](C(=O)NCCCCNC(=O)c1ccc(-c2c3nc(c(-c4cccc(S(=O)(=O)[O-])c4F)c4ccc([nH]4)c(-c4cccc(S(=O)(=O)[O-])c4F)c4nc(c(-c5cccc(S(=O)(=O)[O-])c5F)c5ccc2[nH]5)C=C4)C=C3)cc1)c1ccc(N[C@H]2CCC[C@@H]2O)cc1F
REMARK SMILES IDX 7 1 6 2 5 3 3 4 4 5 2 7 1 8 76 9 77 10 88 11 78 12 87 13
REMARK SMILES IDX 89 14 79 15 80 16 81 18 82 19 85 20 83 21 84 22 86 23 8 25
REMARK SMILES IDX 9 26 10 27 11 28 12 30 13 31 14 32 75 33 15 34 74 35 16 36
REMARK SMILES IDX 17 37 18 38 68 39 19 40 73 41 67 42 69 43 20 44 72 45 66 46
REMARK SMILES IDX 65 47 21 49 53 50 33 51 52 52 34 53 37 54 51 55 70 56 35 57
REMARK SMILES IDX 36 58 50 60 71 61 38 62 22 63 23 64 31 65 24 66 26 67 32 68
REMARK SMILES IDX 25 69 27 70 28 71 29 72 30 73 54 74 55 75 63 76 56 77 58 78
REMARK SMILES IDX 64 79 57 80 59 81 60 82 61 83 62 84 39 85 40 86 48 87 41 88
REMARK SMILES IDX 43 89 49 90 42 91 44 92 45 93 46 94 47 95
REMARK H PARENT 5 6 80 17 86 24 10 29 69 48 37 59
REMARK Flexibility Score: inf
ROOT
ATOM      1  C   UNL A   1      32.821  28.562  23.128  1.00  0.00     0.023 C 
ENDROOT
BRANCH   1   2
ATOM      2  C   UNL A   1      32.066  27.240  23.294  1.00  0.00     0.116 C 
BRANCH   2   3
ATOM      3  N   UNL A   1      32.764  26.152  22.637  1.00  0.00    -0.356 N 
ATOM      4  C   UNL A   1      33.430  25.085  23.169  1.00  0.00     0.227 C 
ATOM      5  O   UNL A   1      34.068  24.378  22.387  1.00  0.00    -0.274 OA
ATOM      6  H   UNL A   1      32.757  26.188  21.653  1.00  0.00     0.163 HD
BRANCH   4   7
ATOM      7  C   UNL A   1      33.331  24.778  24.679  1.00  0.00     0.108 C 
ATOM      8  C   UNL A   1      34.496  25.452  25.410  1.00  0.00     0.023 C 
BRANCH   7   9
ATOM      9  C   UNL A   1      33.192  23.278  24.945  1.00  0.00     0.000 A 
ATOM     10  C   UNL A   1      34.351  22.496  25.085  1.00  0.00     0.009 A 
ATOM     11  C   UNL A   1      31.974  22.609  25.069  1.00  0.00     0.129 A 
ATOM     12  C   UNL A   1      34.280  21.129  25.401  1.00  0.00     0.026 A 
ATOM     13  C   UNL A   1      31.907  21.246  25.368  1.00  0.00     0.065 A 
ATOM     14  F   UNL A   1      30.806  23.246  24.909  1.00  0.00    -0.207 F 
ATOM     15  C   UNL A   1      33.058  20.481  25.576  1.00  0.00     0.037 A 
BRANCH  15  16
ATOM     16  N   UNL A   1      32.905  19.157  25.924  1.00  0.00    -0.380 N 
ATOM     17  H   UNL A   1      32.777  18.990  26.886  1.00  0.00     0.160 HD
BRANCH  16  18
ATOM     18  C   UNL A   1      32.905  17.965  25.084  1.00  0.00     0.107 C 
ATOM     19  C   UNL A   1      32.163  18.130  23.754  1.00  0.00     0.027 C 
ATOM     20  C   UNL A   1      34.300  17.418  24.737  1.00  0.00     0.136 C 
ATOM     21  C   UNL A   1      33.059  17.478  22.699  1.00  0.00     0.005 C 
ATOM     22  C   UNL A   1      34.027  16.603  23.481  1.00  0.00     0.034 C 
BRANCH  20  23
ATOM     23  O   UNL A   1      34.824  16.579  25.758  1.00  0.00    -0.391 OA
ATOM     24  H   UNL A   1      34.742  15.650  25.488  1.00  0.00     0.211 HD
ENDBRANCH  20  23
ENDBRANCH  16  18
ENDBRANCH  15  16
ENDBRANCH   7   9
ENDBRANCH   4   7
ENDBRANCH   2   3
ENDBRANCH   1   2
BRANCH   1  25
ATOM     25  C   UNL A   1      33.715  28.944  24.309  1.00  0.00     0.023 C 
BRANCH  25  26
ATOM     26  C   UNL A   1      33.044  28.877  25.673  1.00  0.00     0.116 C 
BRANCH  26  27
ATOM     27  N   UNL A   1      32.494  30.155  26.101  1.00  0.00    -0.352 N 
ATOM     28  C   UNL A   1      33.056  31.076  26.957  1.00  0.00     0.251 C 
ATOM     29  H   UNL A   1      31.611  30.391  25.734  1.00  0.00     0.163 HD
ATOM     30  O   UNL A   1      32.425  32.065  27.317  1.00  0.00    -0.269 OA
BRANCH  28  31
ATOM     31  C   UNL A   1      34.421  30.830  27.459  1.00  0.00     0.039 A 
ATOM     32  C   UNL A   1      35.292  31.910  27.624  1.00  0.00     0.014 A 
ATOM     33  C   UNL A   1      34.800  29.543  27.843  1.00  0.00     0.014 A 
ATOM     34  C   UNL A   1      36.523  31.710  28.251  1.00  0.00     0.010 A 
ATOM     35  C   UNL A   1      35.995  29.358  28.526  1.00  0.00     0.010 A 
ATOM     36  C   UNL A   1      36.865  30.440  28.741  1.00  0.00    -0.014 A 
BRANCH  36  37
ATOM     37  C   UNL A   1      38.112  30.197  29.507  1.00  0.00     0.031 A 
ATOM     38  C   UNL A   1      39.125  29.221  28.979  1.00  0.00     0.074 A 
ATOM     39  C   UNL A   1      38.252  30.721  30.739  1.00  0.00     0.049 A 
ATOM     40  N   UNL A   1      40.177  28.722  29.572  1.00  0.00    -0.248 NA
ATOM     41  C   UNL A   1      38.897  28.704  27.619  1.00  0.00     0.031 C 
ATOM     42  C   UNL A   1      37.290  31.610  31.394  1.00  0.00     0.029 A 
ATOM     43  N   UNL A   1      39.232  30.536  31.683  1.00  0.00    -0.354 N 
ATOM     44  C   UNL A   1      40.700  27.789  28.687  1.00  0.00     0.074 A 
ATOM     45  C   UNL A   1      39.841  27.779  27.524  1.00  0.00     0.031 C 
ATOM     46  C   UNL A   1      37.715  31.874  32.640  1.00  0.00     0.029 A 
ATOM     47  C   UNL A   1      38.961  31.151  32.883  1.00  0.00     0.049 A 
ATOM     48  H   UNL A   1      40.051  30.015  31.516  1.00  0.00     0.167 HD
ATOM     49  C   UNL A   1      41.811  27.027  28.820  1.00  0.00     0.034 A 
ATOM     50  C   UNL A   1      39.627  31.119  34.055  1.00  0.00     0.034 A 
ATOM     51  C   UNL A   1      42.700  27.095  29.946  1.00  0.00     0.049 A 
ATOM     52  C   UNL A   1      40.908  30.337  34.147  1.00  0.00     0.074 A 
ATOM     53  C   UNL A   1      43.914  26.458  30.123  1.00  0.00     0.029 A 
ATOM     54  N   UNL A   1      42.471  27.847  31.087  1.00  0.00    -0.354 N 
ATOM     55  N   UNL A   1      41.483  29.591  33.234  1.00  0.00    -0.248 NA
ATOM     56  C   UNL A   1      41.653  30.420  35.412  1.00  0.00     0.031 C 
ATOM     57  C   UNL A   1      44.420  26.824  31.376  1.00  0.00     0.029 A 
ATOM     58  C   UNL A   1      43.521  27.693  31.975  1.00  0.00     0.049 A 
ATOM     59  H   UNL A   1      41.679  28.410  31.244  1.00  0.00     0.167 HD
ATOM     60  C   UNL A   1      42.669  29.141  33.800  1.00  0.00     0.074 A 
ATOM     61  C   UNL A   1      42.740  29.710  35.131  1.00  0.00     0.031 C 
ATOM     62  C   UNL A   1      43.609  28.318  33.270  1.00  0.00     0.034 A 
BRANCH  49  63
ATOM     63  C   UNL A   1      42.152  26.100  27.685  1.00  0.00     0.023 A 
ATOM     64  C   UNL A   1      42.939  26.574  26.616  1.00  0.00     0.012 A 
ATOM     65  C   UNL A   1      41.722  24.760  27.685  1.00  0.00     0.148 A 
ATOM     66  C   UNL A   1      43.256  25.742  25.543  1.00  0.00     0.002 A 
ATOM     67  C   UNL A   1      42.076  23.924  26.630  1.00  0.00     0.091 A 
ATOM     68  F   UNL A   1      40.949  24.331  28.693  1.00  0.00    -0.205 F 
ATOM     69  C   UNL A   1      42.833  24.416  25.554  1.00  0.00     0.022 A 
BRANCH  67  70
ATOM     70  S   UNL A   1      41.630  22.184  26.610  1.00  0.00     0.127 S 
ATOM     71  O   UNL A   1      42.257  21.731  25.370  1.00  0.00    -0.237 OA
ATOM     72  O   UNL A   1      42.260  21.680  27.831  1.00  0.00    -0.237 OA
ATOM     73  O   UNL A   1      40.174  22.157  26.634  1.00  0.00    -0.744 OA
ENDBRANCH  67  70
ENDBRANCH  49  63
BRANCH  50  74
ATOM     74  C   UNL A   1      39.117  31.915  35.205  1.00  0.00     0.023 A 
ATOM     75  C   UNL A   1      38.216  31.316  36.107  1.00  0.00     0.012 A 
ATOM     76  C   UNL A   1      39.577  33.222  35.457  1.00  0.00     0.148 A 
ATOM     77  C   UNL A   1      37.770  32.011  37.233  1.00  0.00     0.002 A 
ATOM     78  C   UNL A   1      39.169  33.890  36.606  1.00  0.00     0.091 A 
ATOM     79  F   UNL A   1      40.428  33.774  34.581  1.00  0.00    -0.205 F 
ATOM     80  C   UNL A   1      38.254  33.291  37.488  1.00  0.00     0.022 A 
BRANCH  78  81
ATOM     81  S   UNL A   1      39.842  35.484  37.090  1.00  0.00     0.127 S 
ATOM     82  O   UNL A   1      39.038  35.804  38.266  1.00  0.00    -0.237 OA
ATOM     83  O   UNL A   1      41.238  35.146  37.372  1.00  0.00    -0.237 OA
ATOM     84  O   UNL A   1      39.656  36.355  35.938  1.00  0.00    -0.744 OA
ENDBRANCH  78  81
ENDBRANCH  50  74
BRANCH  62  85
ATOM     85  C   UNL A   1      44.818  27.999  34.106  1.00  0.00     0.023 A 
ATOM     86  C   UNL A   1      45.909  28.888  34.116  1.00  0.00     0.012 A 
ATOM     87  C   UNL A   1      44.824  26.882  34.963  1.00  0.00     0.148 A 
ATOM     88  C   UNL A   1      46.998  28.662  34.958  1.00  0.00     0.002 A 
ATOM     89  C   UNL A   1      45.894  26.684  35.828  1.00  0.00     0.091 A 
ATOM     90  F   UNL A   1      43.783  26.037  34.921  1.00  0.00    -0.205 F 
ATOM     91  C   UNL A   1      46.984  27.569  35.822  1.00  0.00     0.022 A 
BRANCH  89  92
ATOM     92  S   UNL A   1      45.915  25.356  37.039  1.00  0.00     0.127 S 
ATOM     93  O   UNL A   1      45.594  24.194  36.213  1.00  0.00    -0.237 OA
ATOM     94  O   UNL A   1      47.296  25.397  37.523  1.00  0.00    -0.237 OA
ATOM     95  O   UNL A   1      44.917  25.711  38.039  1.00  0.00    -0.744 OA
ENDBRANCH  89  92
ENDBRANCH  62  85
ENDBRANCH  36  37
ENDBRANCH  28  31
ENDBRANCH  26  27
ENDBRANCH  25  26
ENDBRANCH   1  25
TORSDOF 18
ENDMDL
MODEL 2
REMARK VINA RESULT:     -11.9      4.770      9.399
REMARK SMILES C[C@@H](C(=O)NCCCCNC(=O)c1ccc(-c2c3nc(c(-c4cccc(S(=O)(=O)[O-])c4F)c4ccc([nH]4)c(-c4cccc(S(=O)(=O)[O-])c4F)c4nc(c(-c5cccc(S(=O)(=O)[O-])c5F)c5ccc2[nH]5)C=C4)C=C3)cc1)c1ccc(N[C@H]2CCC[C@@H]2O)cc1F
REMARK SMILES IDX 7 1 6 2 5 3 3 4 4 5 2 7 1 8 76 9 77 10 88 11 78 12 87 13
REMARK SMILES IDX 89 14 79 15 80 16 81 18 82 19 85 20 83 21 84 22 86 23 8 25
REMARK SMILES IDX 9 26 10 27 11 28 12 30 13 31 14 32 75 33 15 34 74 35 16 36
REMARK SMILES IDX 17 37 18 38 68 39 19 40 73 41 67 42 69 43 20 44 72 45 66 46
REMARK SMILES IDX 65 47 21 49 53 50 33 51 52 52 34 53 37 54 51 55 70 56 35 57
REMARK SMILES IDX 36 58 50 60 71 61 38 62 22 63 23 64 31 65 24 66 26 67 32 68
REMARK SMILES IDX 25 69 27 70 28 71 29 72 30 73 54 74 55 75 63 76 56 77 58 78
REMARK SMILES IDX 64 79 57 80 59 81 60 82 61 83 62 84 39 85 40 86 48 87 41 88
REMARK SMILES IDX 43 89 49 90 42 91 44 92 45 93 46 94 47 95
REMARK H PARENT 5 6 80 17 86 24 10 29 69 48 37 59
REMARK Flexibility Score: inf
ROOT
ATOM      1  C   UNL A   1      35.155  23.734  26.005  1.00  0.00     0.023 C 
ENDROOT
BRANCH   1   2
ATOM      2  C   UNL A   1      34.515  25.001  25.432  1.00  0.00     0.116 C 
BRANCH   2   3
ATOM      3  N   UNL A   1      33.304  25.348  26.149  1.00  0.00    -0.356 N 
ATOM      4  C   UNL A   1      32.006  25.371  25.726  1.00  0.00     0.227 C 
ATOM      5  O   UNL A   1      31.174  25.850  26.499  1.00  0.00    -0.274 OA
ATOM      6  H   UNL A   1      33.439  25.607  27.089  1.00  0.00     0.163 HD
BRANCH   4   7
ATOM      7  C   UNL A   1      31.623  24.776  24.354  1.00  0.00     0.108 C 
ATOM      8  C   UNL A   1      30.176  25.152  24.024  1.00  0.00     0.023 C 
BRANCH   7   9
ATOM      9  C   UNL A   1      31.925  23.278  24.282  1.00  0.00     0.000 A 
ATOM     10  C   UNL A   1      31.687  22.474  25.410  1.00  0.00     0.009 A 
ATOM     11  C   UNL A   1      32.427  22.629  23.152  1.00  0.00     0.129 A 
ATOM     12  C   UNL A   1      31.880  21.083  25.374  1.00  0.00     0.026 A 
ATOM     13  C   UNL A   1      32.632  21.247  23.126  1.00  0.00     0.065 A 
ATOM     14  F   UNL A   1      32.734  23.302  22.036  1.00  0.00    -0.207 F 
ATOM     15  C   UNL A   1      32.329  20.436  24.224  1.00  0.00     0.037 A 
BRANCH  15  16
ATOM     16  N   UNL A   1      32.505  19.076  24.096  1.00  0.00    -0.380 N 
ATOM     17  H   UNL A   1      32.063  18.669  23.317  1.00  0.00     0.160 HD
BRANCH  16  18
ATOM     18  C   UNL A   1      33.247  18.148  24.942  1.00  0.00     0.107 C 
ATOM     19  C   UNL A   1      32.505  16.845  25.255  1.00  0.00     0.027 C 
ATOM     20  C   UNL A   1      34.628  17.741  24.398  1.00  0.00     0.136 C 
ATOM     21  C   UNL A   1      33.541  15.731  25.090  1.00  0.00     0.005 C 
ATOM     22  C   UNL A   1      34.890  16.432  25.127  1.00  0.00     0.034 C 
BRANCH  20  23
ATOM     23  O   UNL A   1      35.639  18.688  24.718  1.00  0.00    -0.391 OA
ATOM     24  H   UNL A   1      35.253  19.411  25.238  1.00  0.00     0.211 HD
ENDBRANCH  20  23
ENDBRANCH  16  18
ENDBRANCH  15  16
ENDBRANCH   7   9
ENDBRANCH   4   7
ENDBRANCH   2   3
ENDBRANCH   1   2
BRANCH   1  25
ATOM     25  C   UNL A   1      35.479  22.654  24.973  1.00  0.00     0.023 C 
BRANCH  25  26
ATOM     26  C   UNL A   1      36.939  22.588  24.547  1.00  0.00     0.116 C 
BRANCH  26  27
ATOM     27  N   UNL A   1      37.583  21.333  24.909  1.00  0.00    -0.352 N 
ATOM     28  C   UNL A   1      38.687  21.148  25.712  1.00  0.00     0.251 C 
ATOM     29  H   UNL A   1      37.181  20.517  24.533  1.00  0.00     0.163 HD
ATOM     30  O   UNL A   1      39.189  20.036  25.840  1.00  0.00    -0.269 OA
BRANCH  28  31
ATOM     31  C   UNL A   1      39.272  22.322  26.387  1.00  0.00     0.039 A 
ATOM     32  C   UNL A   1      40.263  22.128  27.353  1.00  0.00     0.014 A 
ATOM     33  C   UNL A   1      38.896  23.608  25.997  1.00  0.00     0.014 A 
ATOM     34  C   UNL A   1      40.937  23.234  27.876  1.00  0.00     0.010 A 
ATOM     35  C   UNL A   1      39.613  24.700  26.469  1.00  0.00     0.010 A 
ATOM     36  C   UNL A   1      40.642  24.524  27.408  1.00  0.00    -0.014 A 
BRANCH  36  37
ATOM     37  C   UNL A   1      41.400  25.718  27.853  1.00  0.00     0.031 A 
ATOM     38  C   UNL A   1      40.691  26.804  28.612  1.00  0.00     0.074 A 
ATOM     39  C   UNL A   1      42.668  25.899  27.435  1.00  0.00     0.049 A 
ATOM     40  N   UNL A   1      41.109  28.001  28.923  1.00  0.00    -0.248 NA
ATOM     41  C   UNL A   1      39.310  26.517  29.037  1.00  0.00     0.031 C 
ATOM     42  C   UNL A   1      43.431  24.955  26.616  1.00  0.00     0.029 A 
ATOM     43  N   UNL A   1      43.518  26.966  27.595  1.00  0.00    -0.354 N 
ATOM     44  C   UNL A   1      40.028  28.633  29.523  1.00  0.00     0.074 A 
ATOM     45  C   UNL A   1      38.929  27.692  29.516  1.00  0.00     0.031 C 
ATOM     46  C   UNL A   1      44.626  25.494  26.325  1.00  0.00     0.029 A 
ATOM     47  C   UNL A   1      44.702  26.830  26.910  1.00  0.00     0.049 A 
ATOM     48  H   UNL A   1      43.301  27.751  28.148  1.00  0.00     0.167 HD
ATOM     49  C   UNL A   1      39.962  29.877  30.053  1.00  0.00     0.034 A 
ATOM     50  C   UNL A   1      45.727  27.692  26.751  1.00  0.00     0.034 A 
ATOM     51  C   UNL A   1      41.077  30.780  30.122  1.00  0.00     0.049 A 
ATOM     52  C   UNL A   1      45.666  29.033  27.427  1.00  0.00     0.074 A 
ATOM     53  C   UNL A   1      41.150  32.011  30.747  1.00  0.00     0.029 A 
ATOM     54  N   UNL A   1      42.316  30.547  29.546  1.00  0.00    -0.354 N 
ATOM     55  N   UNL A   1      44.695  29.551  28.141  1.00  0.00    -0.248 NA
ATOM     56  C   UNL A   1      46.852  29.895  27.313  1.00  0.00     0.031 C 
ATOM     57  C   UNL A   1      42.436  32.525  30.546  1.00  0.00     0.029 A 
ATOM     58  C   UNL A   1      43.163  31.611  29.800  1.00  0.00     0.049 A 
ATOM     59  H   UNL A   1      42.559  29.743  29.032  1.00  0.00     0.167 HD
ATOM     60  C   UNL A   1      45.162  30.781  28.586  1.00  0.00     0.074 A 
ATOM     61  C   UNL A   1      46.509  30.928  28.074  1.00  0.00     0.031 C 
ATOM     62  C   UNL A   1      44.525  31.713  29.339  1.00  0.00     0.034 A 
BRANCH  49  63
ATOM     63  C   UNL A   1      38.650  30.303  30.655  1.00  0.00     0.023 A 
ATOM     64  C   UNL A   1      38.370  29.986  32.000  1.00  0.00     0.012 A 
ATOM     65  C   UNL A   1      37.708  31.034  29.907  1.00  0.00     0.148 A 
ATOM     66  C   UNL A   1      37.156  30.352  32.579  1.00  0.00     0.002 A 
ATOM     67  C   UNL A   1      36.516  31.431  30.504  1.00  0.00     0.091 A 
ATOM     68  F   UNL A   1      37.975  31.302  28.621  1.00  0.00    -0.205 F 
ATOM     69  C   UNL A   1      36.233  31.082  31.834  1.00  0.00     0.022 A 
BRANCH  67  70
ATOM     70  S   UNL A   1      35.310  32.437  29.632  1.00  0.00     0.127 S 
ATOM     71  O   UNL A   1      36.108  33.604  29.261  1.00  0.00    -0.237 OA
ATOM     72  O   UNL A   1      34.930  31.577  28.509  1.00  0.00    -0.237 OA
ATOM     73  O   UNL A   1      34.239  32.675  30.590  1.00  0.00    -0.744 OA
ENDBRANCH  67  70
ENDBRANCH  49  63
BRANCH  50  74
ATOM     74  C   UNL A   1      46.921  27.268  25.969  1.00  0.00     0.023 A 
ATOM     75  C   UNL A   1      46.983  27.570  24.594  1.00  0.00     0.012 A 
ATOM     76  C   UNL A   1      48.024  26.648  26.588  1.00  0.00     0.148 A 
ATOM     77  C   UNL A   1      48.116  27.246  23.846  1.00  0.00     0.002 A 
ATOM     78  C   UNL A   1      49.169  26.374  25.849  1.00  0.00     0.091 A 
ATOM     79  F   UNL A   1      47.939  26.364  27.895  1.00  0.00    -0.205 F 
ATOM     80  C   UNL A   1      49.212  26.660  24.474  1.00  0.00     0.022 A 
BRANCH  78  81
ATOM     81  S   UNL A   1      50.677  25.747  26.597  1.00  0.00     0.127 S 
ATOM     82  O   UNL A   1      51.567  25.654  25.444  1.00  0.00    -0.237 OA
ATOM     83  O   UNL A   1      51.006  26.813  27.545  1.00  0.00    -0.237 OA
ATOM     84  O   UNL A   1      50.310  24.482  27.219  1.00  0.00    -0.744 OA
ENDBRANCH  78  81
ENDBRANCH  50  74
BRANCH  62  85
ATOM     85  C   UNL A   1      45.276  32.967  29.691  1.00  0.00     0.023 A 
ATOM     86  C   UNL A   1      46.089  32.991  30.841  1.00  0.00     0.012 A 
ATOM     87  C   UNL A   1      45.265  34.078  28.826  1.00  0.00     0.148 A 
ATOM     88  C   UNL A   1      46.870  34.108  31.133  1.00  0.00     0.002 A 
ATOM     89  C   UNL A   1      46.077  35.173  29.101  1.00  0.00     0.091 A 
ATOM     90  F   UNL A   1      44.468  34.043  27.749  1.00  0.00    -0.205 F 
ATOM     91  C   UNL A   1      46.874  35.192  30.257  1.00  0.00     0.022 A 
BRANCH  89  92
ATOM     92  S   UNL A   1      46.214  36.571  27.980  1.00  0.00     0.127 S 
ATOM     93  O   UNL A   1      47.021  37.503  28.763  1.00  0.00    -0.237 OA
ATOM     94  O   UNL A   1      46.905  35.983  26.831  1.00  0.00    -0.237 OA
ATOM     95  O   UNL A   1      44.849  36.999  27.706  1.00  0.00    -0.744 OA
ENDBRANCH  89  92
ENDBRANCH  62  85
ENDBRANCH  36  37
ENDBRANCH  28  31
ENDBRANCH  26  27
ENDBRANCH  25  26
ENDBRANCH   1  25
TORSDOF 18
ENDMDL
MODEL 3
REMARK VINA RESULT:     -11.9      2.013      4.415
REMARK SMILES C[C@@H](C(=O)NCCCCNC(=O)c1ccc(-c2c3nc(c(-c4cccc(S(=O)(=O)[O-])c4F)c4ccc([nH]4)c(-c4cccc(S(=O)(=O)[O-])c4F)c4nc(c(-c5cccc(S(=O)(=O)[O-])c5F)c5ccc2[nH]5)C=C4)C=C3)cc1)c1ccc(N[C@H]2CCC[C@@H]2O)cc1F
REMARK SMILES IDX 7 1 6 2 5 3 3 4 4 5 2 7 1 8 76 9 77 10 88 11 78 12 87 13
REMARK SMILES IDX 89 14 79 15 80 16 81 18 82 19 85 20 83 21 84 22 86 23 8 25
REMARK SMILES IDX 9 26 10 27 11 28 12 30 13 31 14 32 75 33 15 34 74 35 16 36
REMARK SMILES IDX 17 37 18 38 68 39 19 40 73 41 67 42 69 43 20 44 72 45 66 46
REMARK SMILES IDX 65 47 21 49 53 50 33 51 52 52 34 53 37 54 51 55 70 56 35 57
REMARK SMILES IDX 36 58 50 60 71 61 38 62 22 63 23 64 31 65 24 66 26 67 32 68
REMARK SMILES IDX 25 69 27 70 28 71 29 72 30 73 54 74 55 75 63 76 56 77 58 78
REMARK SMILES IDX 64 79 57 80 59 81 60 82 61 83 62 84 39 85 40 86 48 87 41 88
REMARK SMILES IDX 43 89 49 90 42 91 44 92 45 93 46 94 47 95
REMARK H PARENT 5 6 80 17 86 24 10 29 69 48 37 59
REMARK Flexibility Score: inf
ROOT
ATOM      1  C   UNL A   1      33.703  26.705  26.243  1.00  0.00     0.023 C 
ENDROOT
BRANCH   1   2
ATOM      2  C   UNL A   1      33.703  25.205  25.938  1.00  0.00     0.116 C 
BRANCH   2   3
ATOM      3  N   UNL A   1      34.393  24.923  24.695  1.00  0.00    -0.356 N 
ATOM      4  C   UNL A   1      33.959  24.274  23.574  1.00  0.00     0.227 C 
ATOM      5  O   UNL A   1      34.800  24.037  22.705  1.00  0.00    -0.274 OA
ATOM      6  H   UNL A   1      35.321  25.251  24.652  1.00  0.00     0.163 HD
BRANCH   4   7
ATOM      7  C   UNL A   1      32.468  23.909  23.413  1.00  0.00     0.108 C 
ATOM      8  C   UNL A   1      32.312  22.909  22.264  1.00  0.00     0.023 C 
BRANCH   7   9
ATOM      9  C   UNL A   1      31.589  25.156  23.298  1.00  0.00     0.000 A 
ATOM     10  C   UNL A   1      31.846  26.086  22.276  1.00  0.00     0.009 A 
ATOM     11  C   UNL A   1      30.520  25.447  24.147  1.00  0.00     0.129 A 
ATOM     12  C   UNL A   1      31.025  27.209  22.083  1.00  0.00     0.026 A 
ATOM     13  C   UNL A   1      29.716  26.575  23.961  1.00  0.00     0.065 A 
ATOM     14  F   UNL A   1      30.212  24.656  25.183  1.00  0.00    -0.207 F 
ATOM     15  C   UNL A   1      29.927  27.463  22.903  1.00  0.00     0.037 A 
BRANCH  15  16
ATOM     16  N   UNL A   1      29.053  28.518  22.754  1.00  0.00    -0.380 N 
ATOM     17  H   UNL A   1      28.105  28.297  22.894  1.00  0.00     0.160 HD
BRANCH  16  18
ATOM     18  C   UNL A   1      29.322  29.912  22.422  1.00  0.00     0.107 C 
ATOM     19  C   UNL A   1      28.496  30.454  21.251  1.00  0.00     0.027 C 
ATOM     20  C   UNL A   1      29.130  30.903  23.583  1.00  0.00     0.136 C 
ATOM     21  C   UNL A   1      28.023  31.842  21.688  1.00  0.00     0.005 C 
ATOM     22  C   UNL A   1      28.923  32.222  22.854  1.00  0.00     0.034 C 
BRANCH  20  23
ATOM     23  O   UNL A   1      30.274  30.984  24.423  1.00  0.00    -0.391 OA
ATOM     24  H   UNL A   1      30.744  31.815  24.251  1.00  0.00     0.211 HD
ENDBRANCH  20  23
ENDBRANCH  16  18
ENDBRANCH  15  16
ENDBRANCH   7   9
ENDBRANCH   4   7
ENDBRANCH   2   3
ENDBRANCH   1   2
BRANCH   1  25
ATOM     25  C   UNL A   1      33.403  27.605  25.043  1.00  0.00     0.023 C 
BRANCH  25  26
ATOM     26  C   UNL A   1      34.039  28.987  25.099  1.00  0.00     0.116 C 
BRANCH  26  27
ATOM     27  N   UNL A   1      33.099  30.032  25.481  1.00  0.00    -0.352 N 
ATOM     28  C   UNL A   1      33.127  30.826  26.605  1.00  0.00     0.251 C 
ATOM     29  H   UNL A   1      32.352  30.189  24.859  1.00  0.00     0.163 HD
ATOM     30  O   UNL A   1      32.202  31.594  26.853  1.00  0.00    -0.269 OA
BRANCH  28  31
ATOM     31  C   UNL A   1      34.276  30.711  27.523  1.00  0.00     0.039 A 
ATOM     32  C   UNL A   1      34.477  29.515  28.216  1.00  0.00     0.014 A 
ATOM     33  C   UNL A   1      35.193  31.758  27.626  1.00  0.00     0.014 A 
ATOM     34  C   UNL A   1      35.647  29.339  28.957  1.00  0.00     0.010 A 
ATOM     35  C   UNL A   1      36.385  31.557  28.307  1.00  0.00     0.010 A 
ATOM     36  C   UNL A   1      36.627  30.344  28.975  1.00  0.00    -0.014 A 
BRANCH  36  37
ATOM     37  C   UNL A   1      37.931  30.166  29.658  1.00  0.00     0.031 A 
ATOM     38  C   UNL A   1      38.951  29.232  29.073  1.00  0.00     0.074 A 
ATOM     39  C   UNL A   1      38.127  30.710  30.875  1.00  0.00     0.049 A 
ATOM     40  N   UNL A   1      40.061  28.787  29.599  1.00  0.00    -0.248 NA
ATOM     41  C   UNL A   1      38.659  28.691  27.735  1.00  0.00     0.031 C 
ATOM     42  C   UNL A   1      37.170  31.562  31.585  1.00  0.00     0.029 A 
ATOM     43  N   UNL A   1      39.174  30.580  31.753  1.00  0.00    -0.354 N 
ATOM     44  C   UNL A   1      40.568  27.869  28.689  1.00  0.00     0.074 A 
ATOM     45  C   UNL A   1      39.635  27.808  27.585  1.00  0.00     0.031 C 
ATOM     46  C   UNL A   1      37.663  31.857  32.798  1.00  0.00     0.029 A 
ATOM     47  C   UNL A   1      38.954  31.194  32.964  1.00  0.00     0.049 A 
ATOM     48  H   UNL A   1      40.003  30.094  31.537  1.00  0.00     0.167 HD
ATOM     49  C   UNL A   1      41.718  27.160  28.754  1.00  0.00     0.034 A 
ATOM     50  C   UNL A   1      39.696  31.206  34.089  1.00  0.00     0.034 A 
ATOM     51  C   UNL A   1      42.675  27.280  29.819  1.00  0.00     0.049 A 
ATOM     52  C   UNL A   1      41.015  30.483  34.103  1.00  0.00     0.074 A 
ATOM     53  C   UNL A   1      43.926  26.700  29.920  1.00  0.00     0.029 A 
ATOM     54  N   UNL A   1      42.487  28.033  30.967  1.00  0.00    -0.354 N 
ATOM     55  N   UNL A   1      41.562  29.753  33.161  1.00  0.00    -0.248 NA
ATOM     56  C   UNL A   1      41.836  30.613  35.316  1.00  0.00     0.031 C 
ATOM     57  C   UNL A   1      44.495  27.102  31.134  1.00  0.00     0.029 A 
ATOM     58  C   UNL A   1      43.599  27.936  31.784  1.00  0.00     0.049 A 
ATOM     59  H   UNL A   1      41.681  28.562  31.171  1.00  0.00     0.167 HD
ATOM     60  C   UNL A   1      42.803  29.364  33.651  1.00  0.00     0.074 A 
ATOM     61  C   UNL A   1      42.934  29.950  34.969  1.00  0.00     0.031 C 
ATOM     62  C   UNL A   1      43.742  28.579  33.066  1.00  0.00     0.034 A 
BRANCH  49  63
ATOM     63  C   UNL A   1      42.027  26.236  27.607  1.00  0.00     0.023 A 
ATOM     64  C   UNL A   1      42.700  26.739  26.475  1.00  0.00     0.012 A 
ATOM     65  C   UNL A   1      41.678  24.874  27.654  1.00  0.00     0.148 A 
ATOM     66  C   UNL A   1      42.983  25.911  25.390  1.00  0.00     0.002 A 
ATOM     67  C   UNL A   1      42.000  24.044  26.585  1.00  0.00     0.091 A 
ATOM     68  F   UNL A   1      41.011  24.416  28.724  1.00  0.00    -0.205 F 
ATOM     69  C   UNL A   1      42.642  24.562  25.449  1.00  0.00     0.022 A 
BRANCH  67  70
ATOM     70  S   UNL A   1      41.658  22.281  26.618  1.00  0.00     0.127 S 
ATOM     71  O   UNL A   1      40.197  22.261  26.608  1.00  0.00    -0.237 OA
ATOM     72  O   UNL A   1      42.281  21.813  25.379  1.00  0.00    -0.237 OA
ATOM     73  O   UNL A   1      42.295  21.786  27.831  1.00  0.00    -0.744 OA
ENDBRANCH  67  70
ENDBRANCH  49  63
BRANCH  50  74
ATOM     74  C   UNL A   1      39.226  31.990  35.265  1.00  0.00     0.023 A 
ATOM     75  C   UNL A   1      38.386  31.371  36.211  1.00  0.00     0.012 A 
ATOM     76  C   UNL A   1      39.669  33.307  35.494  1.00  0.00     0.148 A 
ATOM     77  C   UNL A   1      37.981  32.056  37.357  1.00  0.00     0.002 A 
ATOM     78  C   UNL A   1      39.303  33.966  36.662  1.00  0.00     0.091 A 
ATOM     79  F   UNL A   1      40.462  33.878  34.576  1.00  0.00    -0.205 F 
ATOM     80  C   UNL A   1      38.448  33.347  37.589  1.00  0.00     0.022 A 
BRANCH  78  81
ATOM     81  S   UNL A   1      39.963  35.575  37.113  1.00  0.00     0.127 S 
ATOM     82  O   UNL A   1      39.255  35.851  38.360  1.00  0.00    -0.237 OA
ATOM     83  O   UNL A   1      41.390  35.281  37.267  1.00  0.00    -0.237 OA
ATOM     84  O   UNL A   1      39.649  36.456  35.996  1.00  0.00    -0.744 OA
ENDBRANCH  78  81
ENDBRANCH  50  74
BRANCH  62  85
ATOM     85  C   UNL A   1      45.016  28.324  33.823  1.00  0.00     0.023 A 
ATOM     86  C   UNL A   1      46.083  29.236  33.715  1.00  0.00     0.012 A 
ATOM     87  C   UNL A   1      45.114  27.245  34.724  1.00  0.00     0.148 A 
ATOM     88  C   UNL A   1      47.236  29.071  34.483  1.00  0.00     0.002 A 
ATOM     89  C   UNL A   1      46.248  27.110  35.516  1.00  0.00     0.091 A 
ATOM     90  F   UNL A   1      44.094  26.377  34.795  1.00  0.00    -0.205 F 
ATOM     91  C   UNL A   1      47.312  28.018  35.392  1.00  0.00     0.022 A 
BRANCH  89  92
ATOM     92  S   UNL A   1      46.391  25.838  36.776  1.00  0.00     0.127 S 
ATOM     93  O   UNL A   1      47.641  26.211  37.436  1.00  0.00    -0.237 OA
ATOM     94  O   UNL A   1      45.188  26.058  37.581  1.00  0.00    -0.237 OA
ATOM     95  O   UNL A   1      46.412  24.568  36.063  1.00  0.00    -0.744 OA
ENDBRANCH  89  92
ENDBRANCH  62  85
ENDBRANCH  36  37
ENDBRANCH  28  31
ENDBRANCH  26  27
ENDBRANCH  25  26
ENDBRANCH   1  25
TORSDOF 18
ENDMDL
