MODEL 1
REMARK VINA RESULT:      -9.9      0.000      0.000
REMARK SMILES CC(=O)Nc1ccc(/N=C2\C(=O)N(c3ccc(NC(C)=O)cc3)[C@H](c3ccccc3)[C@H]2CC(=O)NCCCCNC(=O)c2ccc(-c3c4nc(c(-c5cccc(S(=O)(=O)[O-])c5F)c5ccc([nH]5)c(-c5cccc(S(=O)(=O)[O-])c5F)c5nc(c(-c6cccc(S(=O)(=O)[O-])c6F)c6ccc3[nH]6)C=C5)C=C4)cc2)cc1
REMARK SMILES IDX 37 1 36 2 35 3 33 4 34 5 32 7 31 8 9 9 10 10 11 11 12 12
REMARK SMILES IDX 13 13 24 14 8 15 5 16 6 17 107 18 7 19 106 20 4 21 1 22 2 23
REMARK SMILES IDX 3 24 14 26 15 27 23 28 16 29 22 30 17 31 18 32 19 33 20 35
REMARK SMILES IDX 21 36 25 37 26 38 30 39 27 40 29 41 28 42 38 43 39 44 40 45
REMARK SMILES IDX 41 46 42 48 43 49 44 50 105 51 45 52 104 53 46 54 47 55
REMARK SMILES IDX 48 56 98 57 49 58 103 59 97 60 99 61 50 62 102 63 96 64
REMARK SMILES IDX 95 65 51 67 83 68 63 69 82 70 64 71 67 72 81 73 100 74 65 75
REMARK SMILES IDX 66 76 80 78 101 79 68 80 52 81 53 82 61 83 54 84 56 85 62 86
REMARK SMILES IDX 55 87 57 88 58 89 59 90 60 91 84 92 85 93 93 94 86 95 88 96
REMARK SMILES IDX 94 97 87 98 89 99 90 100 91 101 92 102 69 103 70 104 78 105
REMARK SMILES IDX 71 106 73 107 79 108 72 109 74 110 75 111 76 112 77 113
REMARK H PARENT 35 6 4 25 18 34 40 47 99 66 67 77
REMARK Flexibility Score: inf
ROOT
ATOM      1  C   UNL A   1      46.268  42.326  32.427  1.00  0.00     0.023 C 
ENDROOT
BRANCH   1   2
ATOM      2  C   UNL A   1      46.529  42.845  31.013  1.00  0.00     0.116 C 
BRANCH   2   3
ATOM      3  N   UNL A   1      47.084  41.820  30.142  1.00  0.00    -0.356 N 
ATOM      4  C   UNL A   1      47.107  41.740  28.784  1.00  0.00     0.220 C 
ATOM      5  O   UNL A   1      47.660  40.781  28.242  1.00  0.00    -0.275 OA
ATOM      6  H   UNL A   1      47.512  41.066  30.608  1.00  0.00     0.163 HD
BRANCH   4   7
ATOM      7  C   UNL A   1      46.445  42.806  27.945  1.00  0.00     0.112 C 
BRANCH   7   8
ATOM      8  C   UNL A   1      44.952  42.468  27.776  1.00  0.00     0.081 C 
ATOM      9  N   UNL A   1      44.202  43.141  25.540  1.00  0.00    -0.247 NA
ATOM     10  C   UNL A   1      44.690  42.229  26.321  1.00  0.00     0.112 C 
ATOM     11  C   UNL A   1      44.975  40.780  26.033  1.00  0.00     0.273 C 
ATOM     12  O   UNL A   1      45.364  40.370  24.964  1.00  0.00    -0.267 OA
ATOM     13  N   UNL A   1      44.676  40.123  27.221  1.00  0.00    -0.299 N 
ATOM     14  C   UNL A   1      44.554  41.070  28.337  1.00  0.00     0.131 C 
BRANCH   9  15
ATOM     15  C   UNL A   1      43.941  42.902  24.180  1.00  0.00     0.064 A 
ATOM     16  C   UNL A   1      43.217  42.507  21.471  1.00  0.00     0.041 A 
ATOM     17  C   UNL A   1      42.313  42.237  22.497  1.00  0.00     0.028 A 
ATOM     18  C   UNL A   1      44.518  42.872  21.812  1.00  0.00     0.028 A 
ATOM     19  C   UNL A   1      42.674  42.440  23.831  1.00  0.00     0.030 A 
ATOM     20  C   UNL A   1      44.882  43.040  23.158  1.00  0.00     0.030 A 
BRANCH  16  21
ATOM     21  N   UNL A   1      42.751  42.339  20.158  1.00  0.00    -0.326 N 
ATOM     22  C   UNL A   1      41.754  44.574  19.687  1.00  0.00     0.114 C 
ATOM     23  C   UNL A   1      42.197  43.203  19.261  1.00  0.00     0.221 C 
ATOM     24  O   UNL A   1      42.019  42.828  18.100  1.00  0.00    -0.275 OA
ATOM     25  H   UNL A   1      42.841  41.418  19.819  1.00  0.00     0.169 HD
ENDBRANCH  16  21
ENDBRANCH   9  15
BRANCH  13  26
ATOM     26  C   UNL A   1      44.541  38.709  27.293  1.00  0.00     0.045 A 
ATOM     27  C   UNL A   1      45.671  37.894  27.415  1.00  0.00     0.028 A 
ATOM     28  C   UNL A   1      43.313  38.070  27.109  1.00  0.00     0.028 A 
ATOM     29  C   UNL A   1      45.597  36.500  27.285  1.00  0.00     0.028 A 
ATOM     30  C   UNL A   1      43.238  36.678  26.942  1.00  0.00     0.028 A 
ATOM     31  C   UNL A   1      44.385  35.884  27.002  1.00  0.00     0.041 A 
BRANCH  31  32
ATOM     32  N   UNL A   1      44.247  34.516  26.695  1.00  0.00    -0.326 N 
ATOM     33  C   UNL A   1      44.667  33.873  25.545  1.00  0.00     0.221 C 
ATOM     34  H   UNL A   1      43.804  33.957  27.373  1.00  0.00     0.169 HD
ATOM     35  C   UNL A   1      44.155  32.457  25.450  1.00  0.00     0.114 C 
ATOM     36  O   UNL A   1      45.391  34.331  24.667  1.00  0.00    -0.275 OA
ENDBRANCH  31  32
ENDBRANCH  13  26
BRANCH  14  37
ATOM     37  C   UNL A   1      43.209  41.132  29.043  1.00  0.00    -0.024 A 
ATOM     38  C   UNL A   1      43.132  41.735  30.314  1.00  0.00     0.006 A 
ATOM     39  C   UNL A   1      42.031  40.631  28.472  1.00  0.00     0.006 A 
ATOM     40  C   UNL A   1      41.921  41.812  31.001  1.00  0.00     0.000 A 
ATOM     41  C   UNL A   1      40.817  40.724  29.157  1.00  0.00     0.000 A 
ATOM     42  C   UNL A   1      40.763  41.307  30.421  1.00  0.00     0.000 A 
ENDBRANCH  14  37
ENDBRANCH   7   8
ENDBRANCH   4   7
ENDBRANCH   2   3
ENDBRANCH   1   2
BRANCH   1  43
ATOM     43  C   UNL A   1      46.685  40.871  32.654  1.00  0.00     0.023 C 
BRANCH  43  44
ATOM     44  C   UNL A   1      46.158  40.222  33.933  1.00  0.00     0.116 C 
BRANCH  44  45
ATOM     45  N   UNL A   1      44.735  40.447  34.145  1.00  0.00    -0.352 N 
ATOM     46  C   UNL A   1      43.634  39.763  33.684  1.00  0.00     0.251 C 
ATOM     47  H   UNL A   1      44.525  41.222  34.715  1.00  0.00     0.163 HD
ATOM     48  O   UNL A   1      42.515  40.229  33.895  1.00  0.00    -0.269 OA
BRANCH  46  49
ATOM     49  C   UNL A   1      43.759  38.509  32.901  1.00  0.00     0.039 A 
ATOM     50  C   UNL A   1      43.709  37.291  33.592  1.00  0.00     0.014 A 
ATOM     51  C   UNL A   1      43.958  38.504  31.519  1.00  0.00     0.014 A 
ATOM     52  C   UNL A   1      43.754  36.081  32.892  1.00  0.00     0.010 A 
ATOM     53  C   UNL A   1      43.945  37.298  30.815  1.00  0.00     0.010 A 
ATOM     54  C   UNL A   1      43.816  36.076  31.491  1.00  0.00    -0.014 A 
BRANCH  54  55
ATOM     55  C   UNL A   1      43.711  34.819  30.707  1.00  0.00     0.031 A 
ATOM     56  C   UNL A   1      42.382  34.146  30.528  1.00  0.00     0.074 A 
ATOM     57  C   UNL A   1      44.819  34.220  30.225  1.00  0.00     0.049 A 
ATOM     58  N   UNL A   1      42.131  32.912  30.177  1.00  0.00    -0.248 NA
ATOM     59  C   UNL A   1      41.184  34.954  30.804  1.00  0.00     0.031 C 
ATOM     60  C   UNL A   1      46.183  34.740  30.331  1.00  0.00     0.029 A 
ATOM     61  N   UNL A   1      44.968  33.031  29.556  1.00  0.00    -0.354 N 
ATOM     62  C   UNL A   1      40.758  32.759  30.305  1.00  0.00     0.074 A 
ATOM     63  C   UNL A   1      40.219  34.052  30.673  1.00  0.00     0.031 C 
ATOM     64  C   UNL A   1      47.025  33.893  29.716  1.00  0.00     0.029 A 
ATOM     65  C   UNL A   1      46.270  32.748  29.216  1.00  0.00     0.049 A 
ATOM     66  H   UNL A   1      44.213  32.435  29.340  1.00  0.00     0.167 HD
ATOM     67  C   UNL A   1      40.026  31.629  30.160  1.00  0.00     0.034 A 
ATOM     68  C   UNL A   1      46.798  31.684  28.582  1.00  0.00     0.034 A 
ATOM     69  C   UNL A   1      40.565  30.372  29.717  1.00  0.00     0.049 A 
ATOM     70  C   UNL A   1      45.907  30.547  28.174  1.00  0.00     0.074 A 
ATOM     71  C   UNL A   1      39.977  29.120  29.714  1.00  0.00     0.029 A 
ATOM     72  N   UNL A   1      41.810  30.230  29.128  1.00  0.00    -0.354 N 
ATOM     73  N   UNL A   1      44.632  30.376  28.423  1.00  0.00    -0.248 NA
ATOM     74  C   UNL A   1      46.520  29.461  27.395  1.00  0.00     0.031 C 
ATOM     75  C   UNL A   1      40.838  28.235  29.046  1.00  0.00     0.029 A 
ATOM     76  C   UNL A   1      41.973  28.935  28.669  1.00  0.00     0.049 A 
ATOM     77  H   UNL A   1      42.481  30.946  29.046  1.00  0.00     0.167 HD
ATOM     78  C   UNL A   1      44.295  29.156  27.851  1.00  0.00     0.074 A 
ATOM     79  C   UNL A   1      45.486  28.654  27.195  1.00  0.00     0.031 C 
ATOM     80  C   UNL A   1      43.120  28.484  27.923  1.00  0.00     0.034 A 
BRANCH  67  81
ATOM     81  C   UNL A   1      38.565  31.717  30.477  1.00  0.00     0.023 A 
ATOM     82  C   UNL A   1      38.139  31.553  31.808  1.00  0.00     0.012 A 
ATOM     83  C   UNL A   1      37.614  31.960  29.471  1.00  0.00     0.148 A 
ATOM     84  C   UNL A   1      36.782  31.619  32.127  1.00  0.00     0.002 A 
ATOM     85  C   UNL A   1      36.263  32.016  29.797  1.00  0.00     0.091 A 
ATOM     86  F   UNL A   1      38.029  32.113  28.204  1.00  0.00    -0.205 F 
ATOM     87  C   UNL A   1      35.841  31.847  31.122  1.00  0.00     0.022 A 
BRANCH  85  88
ATOM     88  S   UNL A   1      35.053  32.265  28.495  1.00  0.00     0.127 S 
ATOM     89  O   UNL A   1      34.885  30.923  27.945  1.00  0.00    -0.237 OA
ATOM     90  O   UNL A   1      33.881  32.766  29.214  1.00  0.00    -0.237 OA
ATOM     91  O   UNL A   1      35.695  33.248  27.631  1.00  0.00    -0.744 OA
ENDBRANCH  85  88
ENDBRANCH  67  81
BRANCH  68  92
ATOM     92  C   UNL A   1      48.240  31.692  28.226  1.00  0.00     0.023 A 
ATOM     93  C   UNL A   1      49.098  30.770  28.855  1.00  0.00     0.012 A 
ATOM     94  C   UNL A   1      48.756  32.545  27.237  1.00  0.00     0.148 A 
ATOM     95  C   UNL A   1      50.448  30.708  28.514  1.00  0.00     0.002 A 
ATOM     96  C   UNL A   1      50.098  32.454  26.878  1.00  0.00     0.091 A 
ATOM     97  F   UNL A   1      47.928  33.409  26.630  1.00  0.00    -0.205 F 
ATOM     98  C   UNL A   1      50.949  31.545  27.519  1.00  0.00     0.022 A 
BRANCH  96  99
ATOM     99  S   UNL A   1      50.718  33.467  25.533  1.00  0.00     0.127 S 
ATOM    100  O   UNL A   1      49.531  34.194  25.098  1.00  0.00    -0.237 OA
ATOM    101  O   UNL A   1      51.735  34.298  26.179  1.00  0.00    -0.237 OA
ATOM    102  O   UNL A   1      51.255  32.475  24.606  1.00  0.00    -0.744 OA
ENDBRANCH  96  99
ENDBRANCH  68  92
BRANCH  80 103
ATOM    103  C   UNL A   1      43.064  27.134  27.273  1.00  0.00     0.023 A 
ATOM    104  C   UNL A   1      42.614  27.041  25.943  1.00  0.00     0.012 A 
ATOM    105  C   UNL A   1      43.445  25.967  27.957  1.00  0.00     0.148 A 
ATOM    106  C   UNL A   1      42.545  25.805  25.301  1.00  0.00     0.002 A 
ATOM    107  C   UNL A   1      43.367  24.736  27.311  1.00  0.00     0.091 A 
ATOM    108  F   UNL A   1      43.857  26.063  29.230  1.00  0.00    -0.205 F 
ATOM    109  C   UNL A   1      42.921  24.651  25.984  1.00  0.00     0.022 A 
BRANCH 107 110
ATOM    110  S   UNL A   1      43.814  23.243  28.201  1.00  0.00     0.127 S 
ATOM    111  O   UNL A   1      43.325  23.510  29.551  1.00  0.00    -0.237 OA
ATOM    112  O   UNL A   1      43.076  22.193  27.494  1.00  0.00    -0.237 OA
ATOM    113  O   UNL A   1      45.261  23.175  28.032  1.00  0.00    -0.744 OA
ENDBRANCH 107 110
ENDBRANCH  80 103
ENDBRANCH  54  55
ENDBRANCH  46  49
ENDBRANCH  44  45
ENDBRANCH  43  44
ENDBRANCH   1  43
TORSDOF 20
ENDMDL
MODEL 2
REMARK VINA RESULT:      -9.6      4.182      9.914
REMARK SMILES CC(=O)Nc1ccc(/N=C2\C(=O)N(c3ccc(NC(C)=O)cc3)[C@H](c3ccccc3)[C@H]2CC(=O)NCCCCNC(=O)c2ccc(-c3c4nc(c(-c5cccc(S(=O)(=O)[O-])c5F)c5ccc([nH]5)c(-c5cccc(S(=O)(=O)[O-])c5F)c5nc(c(-c6cccc(S(=O)(=O)[O-])c6F)c6ccc3[nH]6)C=C5)C=C4)cc2)cc1
REMARK SMILES IDX 37 1 36 2 35 3 33 4 34 5 32 7 31 8 9 9 10 10 11 11 12 12
REMARK SMILES IDX 13 13 24 14 8 15 5 16 6 17 107 18 7 19 106 20 4 21 1 22 2 23
REMARK SMILES IDX 3 24 14 26 15 27 23 28 16 29 22 30 17 31 18 32 19 33 20 35
REMARK SMILES IDX 21 36 25 37 26 38 30 39 27 40 29 41 28 42 38 43 39 44 40 45
REMARK SMILES IDX 41 46 42 48 43 49 44 50 105 51 45 52 104 53 46 54 47 55
REMARK SMILES IDX 48 56 98 57 49 58 103 59 97 60 99 61 50 62 102 63 96 64
REMARK SMILES IDX 95 65 51 67 83 68 63 69 82 70 64 71 67 72 81 73 100 74 65 75
REMARK SMILES IDX 66 76 80 78 101 79 68 80 52 81 53 82 61 83 54 84 56 85 62 86
REMARK SMILES IDX 55 87 57 88 58 89 59 90 60 91 84 92 85 93 93 94 86 95 88 96
REMARK SMILES IDX 94 97 87 98 89 99 90 100 91 101 92 102 69 103 70 104 78 105
REMARK SMILES IDX 71 106 73 107 79 108 72 109 74 110 75 111 76 112 77 113
REMARK H PARENT 35 6 4 25 18 34 40 47 99 66 67 77
REMARK Flexibility Score: inf
ROOT
ATOM      1  C   UNL A   1      37.095  33.485  31.620  1.00  0.00     0.023 C 
ENDROOT
BRANCH   1   2
ATOM      2  C   UNL A   1      38.246  34.310  31.044  1.00  0.00     0.116 C 
BRANCH   2   3
ATOM      3  N   UNL A   1      39.289  34.566  32.027  1.00  0.00    -0.356 N 
ATOM      4  C   UNL A   1      40.639  34.633  31.878  1.00  0.00     0.220 C 
ATOM      5  O   UNL A   1      41.346  34.890  32.854  1.00  0.00    -0.275 OA
ATOM      6  H   UNL A   1      38.966  34.715  32.945  1.00  0.00     0.163 HD
BRANCH   4   7
ATOM      7  C   UNL A   1      41.271  34.375  30.531  1.00  0.00     0.112 C 
BRANCH   7   8
ATOM      8  C   UNL A   1      42.803  34.354  30.682  1.00  0.00     0.081 C 
ATOM      9  N   UNL A   1      43.679  32.197  29.911  1.00  0.00    -0.247 NA
ATOM     10  C   UNL A   1      43.362  33.425  29.648  1.00  0.00     0.112 C 
ATOM     11  C   UNL A   1      43.571  34.214  28.385  1.00  0.00     0.273 C 
ATOM     12  O   UNL A   1      43.503  33.738  27.275  1.00  0.00    -0.267 OA
ATOM     13  N   UNL A   1      43.851  35.504  28.820  1.00  0.00    -0.299 N 
ATOM     14  C   UNL A   1      43.500  35.675  30.236  1.00  0.00     0.131 C 
BRANCH   9  15
ATOM     15  C   UNL A   1      44.220  31.338  28.939  1.00  0.00     0.064 A 
ATOM     16  C   UNL A   1      45.141  29.661  26.851  1.00  0.00     0.041 A 
ATOM     17  C   UNL A   1      43.787  29.711  27.180  1.00  0.00     0.028 A 
ATOM     18  C   UNL A   1      46.042  30.371  27.642  1.00  0.00     0.028 A 
ATOM     19  C   UNL A   1      43.338  30.545  28.207  1.00  0.00     0.030 A 
ATOM     20  C   UNL A   1      45.585  31.181  28.694  1.00  0.00     0.030 A 
BRANCH  16  21
ATOM     21  N   UNL A   1      45.497  28.847  25.765  1.00  0.00    -0.326 N 
ATOM     22  C   UNL A   1      46.212  26.756  26.916  1.00  0.00     0.114 C 
ATOM     23  C   UNL A   1      45.873  27.540  25.680  1.00  0.00     0.221 C 
ATOM     24  O   UNL A   1      45.981  27.018  24.567  1.00  0.00    -0.275 OA
ATOM     25  H   UNL A   1      45.470  29.310  24.895  1.00  0.00     0.169 HD
ENDBRANCH  16  21
ENDBRANCH   9  15
BRANCH  13  26
ATOM     26  C   UNL A   1      44.385  36.498  27.955  1.00  0.00     0.045 A 
ATOM     27  C   UNL A   1      45.716  36.429  27.532  1.00  0.00     0.028 A 
ATOM     28  C   UNL A   1      43.666  37.643  27.606  1.00  0.00     0.028 A 
ATOM     29  C   UNL A   1      46.334  37.488  26.852  1.00  0.00     0.028 A 
ATOM     30  C   UNL A   1      44.289  38.721  26.957  1.00  0.00     0.028 A 
ATOM     31  C   UNL A   1      45.637  38.662  26.599  1.00  0.00     0.041 A 
BRANCH  31  32
ATOM     32  N   UNL A   1      46.223  39.829  26.071  1.00  0.00    -0.326 N 
ATOM     33  C   UNL A   1      46.556  40.981  26.760  1.00  0.00     0.221 C 
ATOM     34  H   UNL A   1      46.415  39.825  25.106  1.00  0.00     0.169 HD
ATOM     35  C   UNL A   1      46.949  42.114  25.846  1.00  0.00     0.114 C 
ATOM     36  O   UNL A   1      46.572  41.132  27.977  1.00  0.00    -0.275 OA
ENDBRANCH  31  32
ENDBRANCH  13  26
BRANCH  14  37
ATOM     37  C   UNL A   1      44.630  36.039  31.186  1.00  0.00    -0.024 A 
ATOM     38  C   UNL A   1      45.540  35.038  31.579  1.00  0.00     0.006 A 
ATOM     39  C   UNL A   1      44.820  37.339  31.674  1.00  0.00     0.006 A 
ATOM     40  C   UNL A   1      46.590  35.324  32.452  1.00  0.00     0.000 A 
ATOM     41  C   UNL A   1      45.882  37.625  32.534  1.00  0.00     0.000 A 
ATOM     42  C   UNL A   1      46.761  36.618  32.928  1.00  0.00     0.000 A 
ENDBRANCH  14  37
ENDBRANCH   7   8
ENDBRANCH   4   7
ENDBRANCH   2   3
ENDBRANCH   1   2
BRANCH   1  43
ATOM     43  C   UNL A   1      35.747  33.714  30.931  1.00  0.00     0.023 C 
BRANCH  43  44
ATOM     44  C   UNL A   1      34.730  32.581  31.071  1.00  0.00     0.116 C 
BRANCH  44  45
ATOM     45  N   UNL A   1      34.244  32.086  29.790  1.00  0.00    -0.352 N 
ATOM     46  C   UNL A   1      34.855  31.314  28.830  1.00  0.00     0.251 C 
ATOM     47  H   UNL A   1      33.320  32.351  29.575  1.00  0.00     0.163 HD
ATOM     48  O   UNL A   1      34.277  31.133  27.760  1.00  0.00    -0.269 OA
BRANCH  46  49
ATOM     49  C   UNL A   1      36.206  30.735  29.029  1.00  0.00     0.039 A 
ATOM     50  C   UNL A   1      37.297  31.390  28.441  1.00  0.00     0.014 A 
ATOM     51  C   UNL A   1      36.420  29.556  29.745  1.00  0.00     0.014 A 
ATOM     52  C   UNL A   1      38.598  30.923  28.657  1.00  0.00     0.010 A 
ATOM     53  C   UNL A   1      37.722  29.123  30.007  1.00  0.00     0.010 A 
ATOM     54  C   UNL A   1      38.825  29.817  29.488  1.00  0.00    -0.014 A 
BRANCH  54  55
ATOM     55  C   UNL A   1      40.197  29.387  29.863  1.00  0.00     0.031 A 
ATOM     56  C   UNL A   1      40.865  28.264  29.125  1.00  0.00     0.074 A 
ATOM     57  C   UNL A   1      40.819  29.937  30.924  1.00  0.00     0.049 A 
ATOM     58  N   UNL A   1      41.887  27.537  29.495  1.00  0.00    -0.248 NA
ATOM     59  C   UNL A   1      40.297  27.893  27.820  1.00  0.00     0.031 C 
ATOM     60  C   UNL A   1      40.294  31.024  31.751  1.00  0.00     0.029 A 
ATOM     61  N   UNL A   1      42.032  29.641  31.495  1.00  0.00    -0.354 N 
ATOM     62  C   UNL A   1      42.012  26.549  28.529  1.00  0.00     0.074 A 
ATOM     63  C   UNL A   1      41.022  26.825  27.508  1.00  0.00     0.031 C 
ATOM     64  C   UNL A   1      41.196  31.329  32.699  1.00  0.00     0.029 A 
ATOM     65  C   UNL A   1      42.338  30.429  32.579  1.00  0.00     0.049 A 
ATOM     66  H   UNL A   1      42.628  28.932  31.159  1.00  0.00     0.167 HD
ATOM     67  C   UNL A   1      42.855  25.490  28.521  1.00  0.00     0.034 A 
ATOM     68  C   UNL A   1      43.412  30.422  33.392  1.00  0.00     0.034 A 
ATOM     69  C   UNL A   1      43.885  25.274  29.502  1.00  0.00     0.049 A 
ATOM     70  C   UNL A   1      44.490  29.397  33.187  1.00  0.00     0.074 A 
ATOM     71  C   UNL A   1      44.670  24.155  29.714  1.00  0.00     0.029 A 
ATOM     72  N   UNL A   1      44.318  26.241  30.393  1.00  0.00    -0.354 N 
ATOM     73  N   UNL A   1      44.517  28.395  32.343  1.00  0.00    -0.248 NA
ATOM     74  C   UNL A   1      45.685  29.503  34.036  1.00  0.00     0.031 C 
ATOM     75  C   UNL A   1      45.634  24.476  30.683  1.00  0.00     0.029 A 
ATOM     76  C   UNL A   1      45.420  25.782  31.093  1.00  0.00     0.049 A 
ATOM     77  H   UNL A   1      43.902  27.125  30.512  1.00  0.00     0.167 HD
ATOM     78  C   UNL A   1      45.719  27.738  32.574  1.00  0.00     0.074 A 
ATOM     79  C   UNL A   1      46.418  28.486  33.599  1.00  0.00     0.031 C 
ATOM     80  C   UNL A   1      46.168  26.581  32.029  1.00  0.00     0.034 A 
BRANCH  67  81
ATOM     81  C   UNL A   1      42.697  24.499  27.410  1.00  0.00     0.023 A 
ATOM     82  C   UNL A   1      43.407  24.690  26.212  1.00  0.00     0.012 A 
ATOM     83  C   UNL A   1      41.852  23.384  27.544  1.00  0.00     0.148 A 
ATOM     84  C   UNL A   1      43.267  23.786  25.157  1.00  0.00     0.002 A 
ATOM     85  C   UNL A   1      41.712  22.492  26.485  1.00  0.00     0.091 A 
ATOM     86  F   UNL A   1      41.176  23.210  28.691  1.00  0.00    -0.205 F 
ATOM     87  C   UNL A   1      42.417  22.688  25.290  1.00  0.00     0.022 A 
BRANCH  85  88
ATOM     88  S   UNL A   1      40.583  21.106  26.645  1.00  0.00     0.127 S 
ATOM     89  O   UNL A   1      40.781  20.682  28.028  1.00  0.00    -0.237 OA
ATOM     90  O   UNL A   1      39.273  21.706  26.387  1.00  0.00    -0.237 OA
ATOM     91  O   UNL A   1      41.039  20.188  25.608  1.00  0.00    -0.744 OA
ENDBRANCH  85  88
ENDBRANCH  67  81
BRANCH  68  92
ATOM     92  C   UNL A   1      43.548  31.480  34.425  1.00  0.00     0.023 A 
ATOM     93  C   UNL A   1      44.255  32.654  34.102  1.00  0.00     0.012 A 
ATOM     94  C   UNL A   1      42.939  31.370  35.686  1.00  0.00     0.148 A 
ATOM     95  C   UNL A   1      44.363  33.695  35.023  1.00  0.00     0.002 A 
ATOM     96  C   UNL A   1      43.024  32.427  36.588  1.00  0.00     0.091 A 
ATOM     97  F   UNL A   1      42.254  30.255  35.979  1.00  0.00    -0.205 F 
ATOM     98  C   UNL A   1      43.742  33.586  36.266  1.00  0.00     0.022 A 
BRANCH  96  99
ATOM     99  S   UNL A   1      42.144  32.323  38.148  1.00  0.00     0.127 S 
ATOM    100  O   UNL A   1      42.320  33.656  38.712  1.00  0.00    -0.237 OA
ATOM    101  O   UNL A   1      40.773  32.014  37.741  1.00  0.00    -0.237 OA
ATOM    102  O   UNL A   1      42.828  31.228  38.829  1.00  0.00    -0.744 OA
ENDBRANCH  96  99
ENDBRANCH  68  92
BRANCH  80 103
ATOM    103  C   UNL A   1      47.479  26.054  32.531  1.00  0.00     0.023 A 
ATOM    104  C   UNL A   1      48.664  26.474  31.898  1.00  0.00     0.012 A 
ATOM    105  C   UNL A   1      47.553  25.156  33.609  1.00  0.00     0.148 A 
ATOM    106  C   UNL A   1      49.905  26.008  32.331  1.00  0.00     0.002 A 
ATOM    107  C   UNL A   1      48.794  24.689  34.031  1.00  0.00     0.091 A 
ATOM    108  F   UNL A   1      46.418  24.748  34.196  1.00  0.00    -0.205 F 
ATOM    109  C   UNL A   1      49.972  25.114  33.398  1.00  0.00     0.022 A 
BRANCH 107 110
ATOM    110  S   UNL A   1      48.882  23.509  35.380  1.00  0.00     0.127 S 
ATOM    111  O   UNL A   1      48.188  22.344  34.838  1.00  0.00    -0.237 OA
ATOM    112  O   UNL A   1      50.322  23.315  35.568  1.00  0.00    -0.237 OA
ATOM    113  O   UNL A   1      48.224  24.209  36.478  1.00  0.00    -0.744 OA
ENDBRANCH 107 110
ENDBRANCH  80 103
ENDBRANCH  54  55
ENDBRANCH  46  49
ENDBRANCH  44  45
ENDBRANCH  43  44
ENDBRANCH   1  43
TORSDOF 20
ENDMDL
MODEL 3
REMARK VINA RESULT:      -9.6      1.962      2.259
REMARK SMILES CC(=O)Nc1ccc(/N=C2\C(=O)N(c3ccc(NC(C)=O)cc3)[C@H](c3ccccc3)[C@H]2CC(=O)NCCCCNC(=O)c2ccc(-c3c4nc(c(-c5cccc(S(=O)(=O)[O-])c5F)c5ccc([nH]5)c(-c5cccc(S(=O)(=O)[O-])c5F)c5nc(c(-c6cccc(S(=O)(=O)[O-])c6F)c6ccc3[nH]6)C=C5)C=C4)cc2)cc1
REMARK SMILES IDX 37 1 36 2 35 3 33 4 34 5 32 7 31 8 9 9 10 10 11 11 12 12
REMARK SMILES IDX 13 13 24 14 8 15 5 16 6 17 107 18 7 19 106 20 4 21 1 22 2 23
REMARK SMILES IDX 3 24 14 26 15 27 23 28 16 29 22 30 17 31 18 32 19 33 20 35
REMARK SMILES IDX 21 36 25 37 26 38 30 39 27 40 29 41 28 42 38 43 39 44 40 45
REMARK SMILES IDX 41 46 42 48 43 49 44 50 105 51 45 52 104 53 46 54 47 55
REMARK SMILES IDX 48 56 98 57 49 58 103 59 97 60 99 61 50 62 102 63 96 64
REMARK SMILES IDX 95 65 51 67 83 68 63 69 82 70 64 71 67 72 81 73 100 74 65 75
REMARK SMILES IDX 66 76 80 78 101 79 68 80 52 81 53 82 61 83 54 84 56 85 62 86
REMARK SMILES IDX 55 87 57 88 58 89 59 90 60 91 84 92 85 93 93 94 86 95 88 96
REMARK SMILES IDX 94 97 87 98 89 99 90 100 91 101 92 102 69 103 70 104 78 105
REMARK SMILES IDX 71 106 73 107 79 108 72 109 74 110 75 111 76 112 77 113
REMARK H PARENT 35 6 4 25 18 34 40 47 99 66 67 77
REMARK Flexibility Score: inf
ROOT
ATOM      1  C   UNL A   1      47.068  42.203  31.972  1.00  0.00     0.023 C 
ENDROOT
BRANCH   1   2
ATOM      2  C   UNL A   1      47.657  42.820  30.704  1.00  0.00     0.116 C 
BRANCH   2   3
ATOM      3  N   UNL A   1      48.016  41.815  29.714  1.00  0.00    -0.356 N 
ATOM      4  C   UNL A   1      47.826  41.801  28.367  1.00  0.00     0.220 C 
ATOM      5  O   UNL A   1      48.236  40.845  27.706  1.00  0.00    -0.275 OA
ATOM      6  H   UNL A   1      48.468  41.019  30.076  1.00  0.00     0.163 HD
BRANCH   4   7
ATOM      7  C   UNL A   1      47.101  42.938  27.688  1.00  0.00     0.112 C 
BRANCH   7   8
ATOM      8  C   UNL A   1      45.589  42.648  27.680  1.00  0.00     0.081 C 
ATOM      9  N   UNL A   1      44.637  43.283  25.511  1.00  0.00    -0.247 NA
ATOM     10  C   UNL A   1      45.172  42.377  26.268  1.00  0.00     0.112 C 
ATOM     11  C   UNL A   1      45.381  40.912  25.999  1.00  0.00     0.273 C 
ATOM     12  O   UNL A   1      45.646  40.458  24.909  1.00  0.00    -0.267 OA
ATOM     13  N   UNL A   1      45.183  40.299  27.230  1.00  0.00    -0.299 N 
ATOM     14  C   UNL A   1      45.206  41.281  28.323  1.00  0.00     0.131 C 
BRANCH   9  15
ATOM     15  C   UNL A   1      44.232  43.015  24.192  1.00  0.00     0.064 A 
ATOM     16  C   UNL A   1      43.235  42.593  21.575  1.00  0.00     0.041 A 
ATOM     17  C   UNL A   1      42.388  42.523  22.680  1.00  0.00     0.028 A 
ATOM     18  C   UNL A   1      44.600  42.768  21.796  1.00  0.00     0.028 A 
ATOM     19  C   UNL A   1      42.885  42.739  23.969  1.00  0.00     0.030 A 
ATOM     20  C   UNL A   1      45.095  42.950  23.097  1.00  0.00     0.030 A 
BRANCH  16  21
ATOM     21  N   UNL A   1      42.642  42.430  20.314  1.00  0.00    -0.326 N 
ATOM     22  C   UNL A   1      42.975  44.684  19.306  1.00  0.00     0.114 C 
ATOM     23  C   UNL A   1      42.569  43.240  19.220  1.00  0.00     0.221 C 
ATOM     24  O   UNL A   1      42.118  42.785  18.167  1.00  0.00    -0.275 OA
ATOM     25  H   UNL A   1      42.191  41.561  20.196  1.00  0.00     0.169 HD
ENDBRANCH  16  21
ENDBRANCH   9  15
BRANCH  13  26
ATOM     26  C   UNL A   1      45.011  38.893  27.360  1.00  0.00     0.045 A 
ATOM     27  C   UNL A   1      46.070  38.086  27.789  1.00  0.00     0.028 A 
ATOM     28  C   UNL A   1      43.847  38.246  26.943  1.00  0.00     0.028 A 
ATOM     29  C   UNL A   1      46.004  36.686  27.735  1.00  0.00     0.028 A 
ATOM     30  C   UNL A   1      43.788  36.846  26.853  1.00  0.00     0.028 A 
ATOM     31  C   UNL A   1      44.878  36.056  27.223  1.00  0.00     0.041 A 
BRANCH  31  32
ATOM     32  N   UNL A   1      44.790  34.671  26.982  1.00  0.00    -0.326 N 
ATOM     33  C   UNL A   1      45.131  34.003  25.819  1.00  0.00     0.221 C 
ATOM     34  H   UNL A   1      44.449  34.117  27.720  1.00  0.00     0.169 HD
ATOM     35  C   UNL A   1      44.695  32.559  25.827  1.00  0.00     0.114 C 
ATOM     36  O   UNL A   1      45.738  34.462  24.857  1.00  0.00    -0.275 OA
ENDBRANCH  31  32
ENDBRANCH  13  26
BRANCH  14  37
ATOM     37  C   UNL A   1      43.942  41.410  29.158  1.00  0.00    -0.024 A 
ATOM     38  C   UNL A   1      43.934  42.298  30.251  1.00  0.00     0.006 A 
ATOM     39  C   UNL A   1      42.771  40.694  28.874  1.00  0.00     0.006 A 
ATOM     40  C   UNL A   1      42.800  42.447  31.048  1.00  0.00     0.000 A 
ATOM     41  C   UNL A   1      41.631  40.858  29.665  1.00  0.00     0.000 A 
ATOM     42  C   UNL A   1      41.647  41.727  30.754  1.00  0.00     0.000 A 
ENDBRANCH  14  37
ENDBRANCH   7   8
ENDBRANCH   4   7
ENDBRANCH   2   3
ENDBRANCH   1   2
BRANCH   1  43
ATOM     43  C   UNL A   1      46.725  40.716  31.850  1.00  0.00     0.023 C 
BRANCH  43  44
ATOM     44  C   UNL A   1      46.318  40.021  33.150  1.00  0.00     0.116 C 
BRANCH  44  45
ATOM     45  N   UNL A   1      44.948  40.311  33.549  1.00  0.00    -0.352 N 
ATOM     46  C   UNL A   1      43.774  39.637  33.305  1.00  0.00     0.251 C 
ATOM     47  H   UNL A   1      44.844  41.130  34.085  1.00  0.00     0.163 HD
ATOM     48  O   UNL A   1      42.711  40.156  33.642  1.00  0.00    -0.269 OA
BRANCH  46  49
ATOM     49  C   UNL A   1      43.750  38.328  32.606  1.00  0.00     0.039 A 
ATOM     50  C   UNL A   1      43.512  37.177  33.369  1.00  0.00     0.014 A 
ATOM     51  C   UNL A   1      43.990  38.205  31.237  1.00  0.00     0.014 A 
ATOM     52  C   UNL A   1      43.411  35.928  32.746  1.00  0.00     0.010 A 
ATOM     53  C   UNL A   1      43.833  36.968  30.608  1.00  0.00     0.010 A 
ATOM     54  C   UNL A   1      43.516  35.822  31.352  1.00  0.00    -0.014 A 
BRANCH  54  55
ATOM     55  C   UNL A   1      43.264  34.541  30.644  1.00  0.00     0.031 A 
ATOM     56  C   UNL A   1      41.860  34.061  30.423  1.00  0.00     0.074 A 
ATOM     57  C   UNL A   1      44.293  33.752  30.272  1.00  0.00     0.049 A 
ATOM     58  N   UNL A   1      41.444  32.856  30.134  1.00  0.00    -0.248 NA
ATOM     59  C   UNL A   1      40.786  35.055  30.570  1.00  0.00     0.031 C 
ATOM     60  C   UNL A   1      45.712  34.071  30.433  1.00  0.00     0.029 A 
ATOM     61  N   UNL A   1      44.295  32.509  29.691  1.00  0.00    -0.354 N 
ATOM     62  C   UNL A   1      40.059  32.917  30.183  1.00  0.00     0.074 A 
ATOM     63  C   UNL A   1      39.703  34.298  30.434  1.00  0.00     0.031 C 
ATOM     64  C   UNL A   1      46.448  33.066  29.928  1.00  0.00     0.029 A 
ATOM     65  C   UNL A   1      45.555  32.013  29.454  1.00  0.00     0.049 A 
ATOM     66  H   UNL A   1      43.472  32.018  29.464  1.00  0.00     0.167 HD
ATOM     67  C   UNL A   1      39.173  31.901  30.063  1.00  0.00     0.034 A 
ATOM     68  C   UNL A   1      45.950  30.840  28.923  1.00  0.00     0.034 A 
ATOM     69  C   UNL A   1      39.537  30.549  29.735  1.00  0.00     0.049 A 
ATOM     70  C   UNL A   1      44.920  29.820  28.531  1.00  0.00     0.074 A 
ATOM     71  C   UNL A   1      38.767  29.400  29.773  1.00  0.00     0.029 A 
ATOM     72  N   UNL A   1      40.776  30.182  29.237  1.00  0.00    -0.354 N 
ATOM     73  N   UNL A   1      43.622  29.858  28.707  1.00  0.00    -0.248 NA
ATOM     74  C   UNL A   1      45.402  28.603  27.862  1.00  0.00     0.031 C 
ATOM     75  C   UNL A   1      39.519  28.353  29.218  1.00  0.00     0.029 A 
ATOM     76  C   UNL A   1      40.765  28.848  28.872  1.00  0.00     0.049 A 
ATOM     77  H   UNL A   1      41.551  30.784  29.154  1.00  0.00     0.167 HD
ATOM     78  C   UNL A   1      43.135  28.664  28.192  1.00  0.00     0.074 A 
ATOM     79  C   UNL A   1      44.269  27.946  27.647  1.00  0.00     0.031 C 
ATOM     80  C   UNL A   1      41.869  28.180  28.231  1.00  0.00     0.034 A 
BRANCH  67  81
ATOM     81  C   UNL A   1      37.727  32.226  30.279  1.00  0.00     0.023 A 
ATOM     82  C   UNL A   1      36.841  32.180  29.189  1.00  0.00     0.012 A 
ATOM     83  C   UNL A   1      37.241  32.575  31.552  1.00  0.00     0.148 A 
ATOM     84  C   UNL A   1      35.491  32.490  29.362  1.00  0.00     0.002 A 
ATOM     85  C   UNL A   1      35.896  32.890  31.715  1.00  0.00     0.091 A 
ATOM     86  F   UNL A   1      38.094  32.618  32.587  1.00  0.00    -0.205 F 
ATOM     87  C   UNL A   1      35.017  32.849  30.625  1.00  0.00     0.022 A 
BRANCH  85  88
ATOM     88  S   UNL A   1      35.301  33.395  33.331  1.00  0.00     0.127 S 
ATOM     89  O   UNL A   1      33.858  33.193  33.225  1.00  0.00    -0.237 OA
ATOM     90  O   UNL A   1      35.967  32.463  34.243  1.00  0.00    -0.237 OA
ATOM     91  O   UNL A   1      35.761  34.774  33.436  1.00  0.00    -0.744 OA
ENDBRANCH  85  88
ENDBRANCH  67  81
BRANCH  68  92
ATOM     92  C   UNL A   1      47.393  30.609  28.661  1.00  0.00     0.023 A 
ATOM     93  C   UNL A   1      47.953  31.111  27.470  1.00  0.00     0.012 A 
ATOM     94  C   UNL A   1      48.224  29.967  29.593  1.00  0.00     0.148 A 
ATOM     95  C   UNL A   1      49.314  30.963  27.208  1.00  0.00     0.002 A 
ATOM     96  C   UNL A   1      49.588  29.852  29.338  1.00  0.00     0.091 A 
ATOM     97  F   UNL A   1      47.685  29.507  30.732  1.00  0.00    -0.205 F 
ATOM     98  C   UNL A   1      50.135  30.339  28.145  1.00  0.00     0.022 A 
BRANCH  96  99
ATOM     99  S   UNL A   1      50.657  29.134  30.587  1.00  0.00     0.127 S 
ATOM    100  O   UNL A   1      50.289  27.723  30.560  1.00  0.00    -0.237 OA
ATOM    101  O   UNL A   1      52.002  29.418  30.083  1.00  0.00    -0.237 OA
ATOM    102  O   UNL A   1      50.297  29.883  31.787  1.00  0.00    -0.744 OA
ENDBRANCH  96  99
ENDBRANCH  68  92
BRANCH  80 103
ATOM    103  C   UNL A   1      41.644  26.810  27.665  1.00  0.00     0.023 A 
ATOM    104  C   UNL A   1      40.893  26.681  26.482  1.00  0.00     0.012 A 
ATOM    105  C   UNL A   1      42.160  25.659  28.284  1.00  0.00     0.148 A 
ATOM    106  C   UNL A   1      40.658  25.426  25.922  1.00  0.00     0.002 A 
ATOM    107  C   UNL A   1      41.915  24.409  27.724  1.00  0.00     0.091 A 
ATOM    108  F   UNL A   1      42.861  25.790  29.420  1.00  0.00    -0.205 F 
ATOM    109  C   UNL A   1      41.169  24.287  26.543  1.00  0.00     0.022 A 
BRANCH 107 110
ATOM    110  S   UNL A   1      42.540  22.938  28.540  1.00  0.00     0.127 S 
ATOM    111  O   UNL A   1      41.517  21.940  28.238  1.00  0.00    -0.237 OA
ATOM    112  O   UNL A   1      43.823  22.700  27.876  1.00  0.00    -0.237 OA
ATOM    113  O   UNL A   1      42.654  23.353  29.934  1.00  0.00    -0.744 OA
ENDBRANCH 107 110
ENDBRANCH  80 103
ENDBRANCH  54  55
ENDBRANCH  46  49
ENDBRANCH  44  45
ENDBRANCH  43  44
ENDBRANCH   1  43
TORSDOF 20
ENDMDL
