MODEL 1
REMARK VINA RESULT:     -13.6      0.000      0.000
REMARK SMILES O=C(NCCCCNC(=O)[C@H]1CN(C(=O)C[C@H]2NC(=O)c3ccccc32)C[C@@H]1c1ccc(F)cc1)c1ccc(-c2c3nc(c(-c4cccc(S(=O)(=O)[O-])c4F)c4ccc([nH]4)c(-c4cccc(S(=O)(=O)[O-])c4F)c4nc(c(-c5cccc(S(=O)(=O)[O-])c5F)c5ccc2[nH]5)C=C4)C=C3)cc1
REMARK SMILES IDX 5 1 4 2 3 3 1 4 2 5 36 7 37 8 98 9 38 10 97 11 39 12 40 13
REMARK SMILES IDX 41 14 91 15 42 16 96 17 90 18 92 19 43 20 95 21 89 22 88 23
REMARK SMILES IDX 44 25 76 26 56 27 75 28 57 29 60 30 74 31 93 32 58 33 59 34
REMARK SMILES IDX 73 36 94 37 61 38 45 39 46 40 54 41 47 42 49 43 55 44 48 45
REMARK SMILES IDX 50 46 51 47 52 48 53 49 77 50 78 51 86 52 79 53 81 54 87 55
REMARK SMILES IDX 80 56 82 57 83 58 84 59 85 60 62 61 63 62 71 63 64 64 66 65
REMARK SMILES IDX 72 66 65 67 67 68 68 69 69 70 70 71 6 72 7 73 8 74 9 75
REMARK SMILES IDX 10 77 11 78 12 79 28 80 13 81 27 82 29 83 30 84 35 85 31 86
REMARK SMILES IDX 34 87 32 88 33 89 14 90 15 91 16 92 17 93 18 94 26 95 19 96
REMARK SMILES IDX 21 98 25 99 20 100 22 101 24 102 23 103
REMARK H PARENT 3 6 92 24 60 35 8 76 18 97
REMARK Flexibility Score: inf
ROOT
ATOM      1  C   UNL A   1      32.336  30.007  26.769  1.00  0.00     0.023 C 
ENDROOT
BRANCH   1   2
ATOM      2  C   UNL A   1      33.294  31.088  27.247  1.00  0.00     0.116 C 
BRANCH   2   3
ATOM      3  N   UNL A   1      32.754  32.447  27.252  1.00  0.00    -0.352 N 
ATOM      4  O   UNL A   1      32.659  34.607  27.960  1.00  0.00    -0.269 OA
ATOM      5  C   UNL A   1      33.231  33.525  27.977  1.00  0.00     0.251 C 
ATOM      6  H   UNL A   1      31.969  32.613  26.681  1.00  0.00     0.163 HD
BRANCH   5   7
ATOM      7  C   UNL A   1      34.427  33.289  28.809  1.00  0.00     0.039 A 
ATOM      8  C   UNL A   1      35.679  33.382  28.203  1.00  0.00     0.014 A 
ATOM      9  C   UNL A   1      34.281  32.732  30.080  1.00  0.00     0.014 A 
ATOM     10  C   UNL A   1      36.736  32.680  28.754  1.00  0.00     0.010 A 
ATOM     11  C   UNL A   1      35.396  32.164  30.703  1.00  0.00     0.010 A 
ATOM     12  C   UNL A   1      36.618  32.074  30.017  1.00  0.00    -0.014 A 
BRANCH  12  13
ATOM     13  C   UNL A   1      37.807  31.402  30.604  1.00  0.00     0.031 A 
ATOM     14  C   UNL A   1      38.599  30.371  29.841  1.00  0.00     0.074 A 
ATOM     15  C   UNL A   1      38.183  31.761  31.849  1.00  0.00     0.049 A 
ATOM     16  N   UNL A   1      39.646  29.692  30.236  1.00  0.00    -0.248 NA
ATOM     17  C   UNL A   1      38.172  30.052  28.468  1.00  0.00     0.031 C 
ATOM     18  C   UNL A   1      37.478  32.732  32.693  1.00  0.00     0.029 A 
ATOM     19  N   UNL A   1      39.243  31.366  32.624  1.00  0.00    -0.354 N 
ATOM     20  C   UNL A   1      39.968  28.831  29.192  1.00  0.00     0.074 A 
ATOM     21  C   UNL A   1      39.009  29.076  28.137  1.00  0.00     0.031 C 
ATOM     22  C   UNL A   1      38.146  32.892  33.840  1.00  0.00     0.029 A 
ATOM     23  C   UNL A   1      39.265  31.963  33.862  1.00  0.00     0.049 A 
ATOM     24  H   UNL A   1      39.922  30.719  32.322  1.00  0.00     0.167 HD
ATOM     25  C   UNL A   1      40.976  27.930  29.122  1.00  0.00     0.034 A 
ATOM     26  C   UNL A   1      40.064  31.758  34.925  1.00  0.00     0.034 A 
ATOM     27  C   UNL A   1      41.953  27.732  30.161  1.00  0.00     0.049 A 
ATOM     28  C   UNL A   1      41.166  30.749  34.813  1.00  0.00     0.074 A 
ATOM     29  C   UNL A   1      43.051  26.888  30.152  1.00  0.00     0.029 A 
ATOM     30  N   UNL A   1      41.949  28.368  31.393  1.00  0.00    -0.354 N 
ATOM     31  N   UNL A   1      41.513  30.024  33.779  1.00  0.00    -0.248 NA
ATOM     32  C   UNL A   1      41.997  30.538  36.005  1.00  0.00     0.031 C 
ATOM     33  C   UNL A   1      43.686  26.984  31.391  1.00  0.00     0.029 A 
ATOM     34  C   UNL A   1      43.012  27.920  32.158  1.00  0.00     0.049 A 
ATOM     35  H   UNL A   1      41.289  29.040  31.679  1.00  0.00     0.167 HD
ATOM     36  C   UNL A   1      42.612  29.283  34.187  1.00  0.00     0.074 A 
ATOM     37  C   UNL A   1      42.895  29.672  35.554  1.00  0.00     0.031 C 
ATOM     38  C   UNL A   1      43.311  28.349  33.500  1.00  0.00     0.034 A 
BRANCH  25  39
ATOM     39  C   UNL A   1      41.125  27.095  27.875  1.00  0.00     0.023 A 
ATOM     40  C   UNL A   1      41.811  27.617  26.762  1.00  0.00     0.012 A 
ATOM     41  C   UNL A   1      40.730  25.740  27.871  1.00  0.00     0.148 A 
ATOM     42  C   UNL A   1      42.097  26.809  25.662  1.00  0.00     0.002 A 
ATOM     43  C   UNL A   1      41.057  24.930  26.790  1.00  0.00     0.091 A 
ATOM     44  F   UNL A   1      40.069  25.267  28.937  1.00  0.00    -0.205 F 
ATOM     45  C   UNL A   1      41.735  25.464  25.682  1.00  0.00     0.022 A 
BRANCH  43  46
ATOM     46  S   UNL A   1      40.719  23.165  26.756  1.00  0.00     0.127 S 
ATOM     47  O   UNL A   1      39.291  23.146  26.443  1.00  0.00    -0.237 OA
ATOM     48  O   UNL A   1      41.587  22.710  25.671  1.00  0.00    -0.237 OA
ATOM     49  O   UNL A   1      41.068  22.660  28.075  1.00  0.00    -0.744 OA
ENDBRANCH  43  46
ENDBRANCH  25  39
BRANCH  26  50
ATOM     50  C   UNL A   1      39.835  32.531  36.178  1.00  0.00     0.023 A 
ATOM     51  C   UNL A   1      40.544  33.726  36.397  1.00  0.00     0.012 A 
ATOM     52  C   UNL A   1      38.877  32.114  37.124  1.00  0.00     0.148 A 
ATOM     53  C   UNL A   1      40.320  34.479  37.550  1.00  0.00     0.002 A 
ATOM     54  C   UNL A   1      38.609  32.905  38.233  1.00  0.00     0.091 A 
ATOM     55  F   UNL A   1      38.219  30.968  36.900  1.00  0.00    -0.205 F 
ATOM     56  C   UNL A   1      39.345  34.078  38.460  1.00  0.00     0.022 A 
BRANCH  54  57
ATOM     57  S   UNL A   1      37.265  32.545  39.368  1.00  0.00     0.127 S 
ATOM     58  O   UNL A   1      36.098  32.704  38.507  1.00  0.00    -0.237 OA
ATOM     59  O   UNL A   1      37.562  31.167  39.758  1.00  0.00    -0.237 OA
ATOM     60  O   UNL A   1      37.393  33.514  40.449  1.00  0.00    -0.744 OA
ENDBRANCH  54  57
ENDBRANCH  26  50
BRANCH  38  61
ATOM     61  C   UNL A   1      44.469  27.686  34.194  1.00  0.00     0.023 A 
ATOM     62  C   UNL A   1      45.743  28.283  34.148  1.00  0.00     0.012 A 
ATOM     63  C   UNL A   1      44.267  26.537  34.984  1.00  0.00     0.148 A 
ATOM     64  C   UNL A   1      46.805  27.736  34.866  1.00  0.00     0.002 A 
ATOM     65  C   UNL A   1      45.317  26.031  35.740  1.00  0.00     0.091 A 
ATOM     66  F   UNL A   1      43.048  25.979  34.999  1.00  0.00    -0.205 F 
ATOM     67  C   UNL A   1      46.589  26.622  35.673  1.00  0.00     0.022 A 
BRANCH  65  68
ATOM     68  S   UNL A   1      45.109  24.667  36.890  1.00  0.00     0.127 S 
ATOM     69  O   UNL A   1      44.044  25.170  37.758  1.00  0.00    -0.237 OA
ATOM     70  O   UNL A   1      44.708  23.577  36.002  1.00  0.00    -0.237 OA
ATOM     71  O   UNL A   1      46.399  24.483  37.538  1.00  0.00    -0.744 OA
ENDBRANCH  65  68
ENDBRANCH  38  61
ENDBRANCH  12  13
ENDBRANCH   5   7
ENDBRANCH   2   3
ENDBRANCH   1   2
BRANCH   1  72
ATOM     72  C   UNL A   1      32.805  29.270  25.529  1.00  0.00     0.023 C 
BRANCH  72  73
ATOM     73  C   UNL A   1      33.185  27.810  25.770  1.00  0.00     0.116 C 
BRANCH  73  74
ATOM     74  N   UNL A   1      32.070  26.988  26.186  1.00  0.00    -0.356 N 
ATOM     75  C   UNL A   1      31.886  25.647  26.196  1.00  0.00     0.225 C 
ATOM     76  H   UNL A   1      31.301  27.500  26.526  1.00  0.00     0.163 HD
ATOM     77  O   UNL A   1      31.015  25.223  26.968  1.00  0.00    -0.275 OA
BRANCH  75  78
ATOM     78  C   UNL A   1      32.590  24.645  25.288  1.00  0.00     0.107 C 
ATOM     79  C   UNL A   1      32.077  24.431  23.884  1.00  0.00     0.133 C 
ATOM     80  C   UNL A   1      34.095  24.929  25.063  1.00  0.00     0.053 C 
ATOM     81  N   UNL A   1      32.857  25.314  23.036  1.00  0.00    -0.341 N 
ATOM     82  C   UNL A   1      34.051  25.760  23.751  1.00  0.00     0.128 C 
BRANCH  80  83
ATOM     83  C   UNL A   1      34.998  23.692  24.901  1.00  0.00    -0.042 A 
ATOM     84  C   UNL A   1      34.892  22.645  25.839  1.00  0.00     0.007 A 
ATOM     85  C   UNL A   1      35.934  23.536  23.862  1.00  0.00     0.007 A 
ATOM     86  C   UNL A   1      35.738  21.532  25.782  1.00  0.00     0.039 A 
ATOM     87  C   UNL A   1      36.776  22.421  23.802  1.00  0.00     0.039 A 
ATOM     88  C   UNL A   1      36.680  21.436  24.770  1.00  0.00     0.123 A 
ATOM     89  F   UNL A   1      37.504  20.382  24.724  1.00  0.00    -0.207 F 
ENDBRANCH  80  83
BRANCH  81  90
ATOM     90  C   UNL A   1      32.554  25.797  21.775  1.00  0.00     0.225 C 
ATOM     91  O   UNL A   1      33.289  25.568  20.815  1.00  0.00    -0.275 OA
BRANCH  90  92
ATOM     92  C   UNL A   1      31.355  26.736  21.618  1.00  0.00     0.130 C 
BRANCH  92  93
ATOM     93  C   UNL A   1      31.095  27.751  22.723  1.00  0.00     0.123 C 
ATOM     94  N   UNL A   1      31.154  29.110  22.247  1.00  0.00    -0.345 N 
ATOM     95  C   UNL A   1      29.699  27.656  23.256  1.00  0.00    -0.012 A 
ATOM     96  C   UNL A   1      29.917  29.711  22.213  1.00  0.00     0.252 C 
ATOM     97  H   UNL A   1      31.988  29.558  21.975  1.00  0.00     0.164 HD
ATOM     98  C   UNL A   1      28.971  28.757  22.805  1.00  0.00     0.045 A 
ATOM     99  C   UNL A   1      29.083  26.653  23.986  1.00  0.00     0.007 A 
ATOM    100  O   UNL A   1      29.654  30.834  21.823  1.00  0.00    -0.269 OA
ATOM    101  C   UNL A   1      27.601  28.835  22.929  1.00  0.00     0.014 A 
ATOM    102  C   UNL A   1      27.692  26.717  24.134  1.00  0.00     0.000 A 
ATOM    103  C   UNL A   1      26.956  27.781  23.577  1.00  0.00     0.001 A 
ENDBRANCH  92  93
ENDBRANCH  90  92
ENDBRANCH  81  90
ENDBRANCH  75  78
ENDBRANCH  73  74
ENDBRANCH  72  73
ENDBRANCH   1  72
TORSDOF 18
ENDMDL
MODEL 2
REMARK VINA RESULT:     -13.5      1.858      4.281
REMARK SMILES O=C(NCCCCNC(=O)[C@H]1CN(C(=O)C[C@H]2NC(=O)c3ccccc32)C[C@@H]1c1ccc(F)cc1)c1ccc(-c2c3nc(c(-c4cccc(S(=O)(=O)[O-])c4F)c4ccc([nH]4)c(-c4cccc(S(=O)(=O)[O-])c4F)c4nc(c(-c5cccc(S(=O)(=O)[O-])c5F)c5ccc2[nH]5)C=C4)C=C3)cc1
REMARK SMILES IDX 5 1 4 2 3 3 1 4 2 5 36 7 37 8 98 9 38 10 97 11 39 12 40 13
REMARK SMILES IDX 41 14 91 15 42 16 96 17 90 18 92 19 43 20 95 21 89 22 88 23
REMARK SMILES IDX 44 25 76 26 56 27 75 28 57 29 60 30 74 31 93 32 58 33 59 34
REMARK SMILES IDX 73 36 94 37 61 38 45 39 46 40 54 41 47 42 49 43 55 44 48 45
REMARK SMILES IDX 50 46 51 47 52 48 53 49 77 50 78 51 86 52 79 53 81 54 87 55
REMARK SMILES IDX 80 56 82 57 83 58 84 59 85 60 62 61 63 62 71 63 64 64 66 65
REMARK SMILES IDX 72 66 65 67 67 68 68 69 69 70 70 71 6 72 7 73 8 74 9 75
REMARK SMILES IDX 10 77 11 78 12 79 28 80 13 81 27 82 29 83 30 84 35 85 31 86
REMARK SMILES IDX 34 87 32 88 33 89 14 90 15 91 16 92 17 93 18 94 26 95 19 96
REMARK SMILES IDX 21 98 25 99 20 100 22 101 24 102 23 103
REMARK H PARENT 3 6 92 24 60 35 8 76 18 97
REMARK Flexibility Score: inf
ROOT
ATOM      1  C   UNL A   1      32.381  30.870  26.892  1.00  0.00     0.023 C 
ENDROOT
BRANCH   1   2
ATOM      2  C   UNL A   1      33.376  31.954  27.280  1.00  0.00     0.116 C 
BRANCH   2   3
ATOM      3  N   UNL A   1      32.814  33.294  27.437  1.00  0.00    -0.352 N 
ATOM      4  O   UNL A   1      32.621  35.324  28.445  1.00  0.00    -0.269 OA
ATOM      5  C   UNL A   1      33.208  34.254  28.352  1.00  0.00     0.251 C 
ATOM      6  H   UNL A   1      32.080  33.539  26.829  1.00  0.00     0.163 HD
BRANCH   5   7
ATOM      7  C   UNL A   1      34.330  33.902  29.243  1.00  0.00     0.039 A 
ATOM      8  C   UNL A   1      35.623  34.217  28.828  1.00  0.00     0.014 A 
ATOM      9  C   UNL A   1      34.109  33.050  30.325  1.00  0.00     0.014 A 
ATOM     10  C   UNL A   1      36.679  33.472  29.323  1.00  0.00     0.010 A 
ATOM     11  C   UNL A   1      35.202  32.422  30.928  1.00  0.00     0.010 A 
ATOM     12  C   UNL A   1      36.489  32.575  30.389  1.00  0.00    -0.014 A 
BRANCH  12  13
ATOM     13  C   UNL A   1      37.669  31.859  30.942  1.00  0.00     0.031 A 
ATOM     14  C   UNL A   1      38.436  30.842  30.135  1.00  0.00     0.074 A 
ATOM     15  C   UNL A   1      38.061  32.164  32.197  1.00  0.00     0.049 A 
ATOM     16  N   UNL A   1      39.472  30.129  30.497  1.00  0.00    -0.248 NA
ATOM     17  C   UNL A   1      37.993  30.583  28.755  1.00  0.00     0.031 C 
ATOM     18  C   UNL A   1      37.380  33.116  33.081  1.00  0.00     0.029 A 
ATOM     19  N   UNL A   1      39.118  31.720  32.948  1.00  0.00    -0.354 N 
ATOM     20  C   UNL A   1      39.770  29.302  29.420  1.00  0.00     0.074 A 
ATOM     21  C   UNL A   1      38.809  29.604  28.382  1.00  0.00     0.031 C 
ATOM     22  C   UNL A   1      38.059  33.221  34.229  1.00  0.00     0.029 A 
ATOM     23  C   UNL A   1      39.160  32.270  34.208  1.00  0.00     0.049 A 
ATOM     24  H   UNL A   1      39.782  31.072  32.618  1.00  0.00     0.167 HD
ATOM     25  C   UNL A   1      40.760  28.385  29.309  1.00  0.00     0.034 A 
ATOM     26  C   UNL A   1      39.962  32.011  35.257  1.00  0.00     0.034 A 
ATOM     27  C   UNL A   1      41.740  28.129  30.332  1.00  0.00     0.049 A 
ATOM     28  C   UNL A   1      41.043  30.985  35.099  1.00  0.00     0.074 A 
ATOM     29  C   UNL A   1      42.822  27.266  30.283  1.00  0.00     0.029 A 
ATOM     30  N   UNL A   1      41.757  28.719  31.587  1.00  0.00    -0.354 N 
ATOM     31  N   UNL A   1      41.369  30.293  34.036  1.00  0.00    -0.248 NA
ATOM     32  C   UNL A   1      41.878  30.714  36.276  1.00  0.00     0.031 C 
ATOM     33  C   UNL A   1      43.467  27.303  31.520  1.00  0.00     0.029 A 
ATOM     34  C   UNL A   1      42.816  28.222  32.327  1.00  0.00     0.049 A 
ATOM     35  H   UNL A   1      41.112  29.392  31.903  1.00  0.00     0.167 HD
ATOM     36  C   UNL A   1      42.456  29.517  34.408  1.00  0.00     0.074 A 
ATOM     37  C   UNL A   1      42.756  29.849  35.786  1.00  0.00     0.031 C 
ATOM     38  C   UNL A   1      43.132  28.595  33.681  1.00  0.00     0.034 A 
BRANCH  25  39
ATOM     39  C   UNL A   1      40.884  27.594  28.030  1.00  0.00     0.023 A 
ATOM     40  C   UNL A   1      41.464  28.189  26.894  1.00  0.00     0.012 A 
ATOM     41  C   UNL A   1      40.578  26.216  28.010  1.00  0.00     0.148 A 
ATOM     42  C   UNL A   1      41.732  27.430  25.755  1.00  0.00     0.002 A 
ATOM     43  C   UNL A   1      40.889  25.457  26.887  1.00  0.00     0.091 A 
ATOM     44  F   UNL A   1      40.018  25.672  29.099  1.00  0.00    -0.205 F 
ATOM     45  C   UNL A   1      41.460  26.064  25.757  1.00  0.00     0.022 A 
BRANCH  43  46
ATOM     46  S   UNL A   1      40.665  23.676  26.821  1.00  0.00     0.127 S 
ATOM     47  O   UNL A   1      41.658  23.293  25.817  1.00  0.00    -0.237 OA
ATOM     48  O   UNL A   1      40.997  23.277  28.189  1.00  0.00    -0.237 OA
ATOM     49  O   UNL A   1      39.280  23.455  26.434  1.00  0.00    -0.744 OA
ENDBRANCH  43  46
ENDBRANCH  25  39
BRANCH  26  50
ATOM     50  C   UNL A   1      39.757  32.741  36.538  1.00  0.00     0.023 A 
ATOM     51  C   UNL A   1      40.475  33.925  36.788  1.00  0.00     0.012 A 
ATOM     52  C   UNL A   1      38.811  32.296  37.485  1.00  0.00     0.148 A 
ATOM     53  C   UNL A   1      40.273  34.638  37.970  1.00  0.00     0.002 A 
ATOM     54  C   UNL A   1      38.565  33.048  38.625  1.00  0.00     0.091 A 
ATOM     55  F   UNL A   1      38.145  31.160  37.231  1.00  0.00    -0.205 F 
ATOM     56  C   UNL A   1      39.310  34.210  38.880  1.00  0.00     0.022 A 
BRANCH  54  57
ATOM     57  S   UNL A   1      37.238  32.655  39.768  1.00  0.00     0.127 S 
ATOM     58  O   UNL A   1      37.661  31.355  40.280  1.00  0.00    -0.237 OA
ATOM     59  O   UNL A   1      37.329  33.757  40.725  1.00  0.00    -0.237 OA
ATOM     60  O   UNL A   1      36.019  32.655  38.969  1.00  0.00    -0.744 OA
ENDBRANCH  54  57
ENDBRANCH  26  50
BRANCH  38  61
ATOM     61  C   UNL A   1      44.281  27.884  34.341  1.00  0.00     0.023 A 
ATOM     62  C   UNL A   1      45.557  28.481  34.350  1.00  0.00     0.012 A 
ATOM     63  C   UNL A   1      44.070  26.686  35.050  1.00  0.00     0.148 A 
ATOM     64  C   UNL A   1      46.610  27.885  35.041  1.00  0.00     0.002 A 
ATOM     65  C   UNL A   1      45.110  26.128  35.782  1.00  0.00     0.091 A 
ATOM     66  F   UNL A   1      42.850  26.130  35.014  1.00  0.00    -0.205 F 
ATOM     67  C   UNL A   1      46.384  26.719  35.769  1.00  0.00     0.022 A 
BRANCH  65  68
ATOM     68  S   UNL A   1      44.888  24.690  36.834  1.00  0.00     0.127 S 
ATOM     69  O   UNL A   1      44.486  23.671  35.865  1.00  0.00    -0.237 OA
ATOM     70  O   UNL A   1      46.228  24.508  37.391  1.00  0.00    -0.237 OA
ATOM     71  O   UNL A   1      43.868  25.052  37.807  1.00  0.00    -0.744 OA
ENDBRANCH  65  68
ENDBRANCH  38  61
ENDBRANCH  12  13
ENDBRANCH   5   7
ENDBRANCH   2   3
ENDBRANCH   1   2
BRANCH   1  72
ATOM     72  C   UNL A   1      32.774  29.478  27.346  1.00  0.00     0.023 C 
BRANCH  72  73
ATOM     73  C   UNL A   1      31.594  28.568  27.684  1.00  0.00     0.116 C 
BRANCH  73  74
ATOM     74  N   UNL A   1      31.785  27.199  27.261  1.00  0.00    -0.356 N 
ATOM     75  C   UNL A   1      32.100  26.655  26.061  1.00  0.00     0.225 C 
ATOM     76  H   UNL A   1      31.664  26.537  27.980  1.00  0.00     0.163 HD
ATOM     77  O   UNL A   1      32.586  25.517  26.091  1.00  0.00    -0.275 OA
BRANCH  75  78
ATOM     78  C   UNL A   1      31.829  27.286  24.700  1.00  0.00     0.107 C 
ATOM     79  C   UNL A   1      32.757  26.986  23.547  1.00  0.00     0.133 C 
ATOM     80  C   UNL A   1      30.435  26.965  24.109  1.00  0.00     0.053 C 
ATOM     81  N   UNL A   1      32.157  25.875  22.832  1.00  0.00    -0.341 N 
ATOM     82  C   UNL A   1      30.758  25.728  23.229  1.00  0.00     0.128 C 
BRANCH  80  83
ATOM     83  C   UNL A   1      29.785  28.082  23.271  1.00  0.00    -0.042 A 
ATOM     84  C   UNL A   1      28.378  28.142  23.190  1.00  0.00     0.007 A 
ATOM     85  C   UNL A   1      30.514  29.062  22.572  1.00  0.00     0.007 A 
ATOM     86  C   UNL A   1      27.738  29.090  22.385  1.00  0.00     0.039 A 
ATOM     87  C   UNL A   1      29.874  30.013  21.771  1.00  0.00     0.039 A 
ATOM     88  C   UNL A   1      28.493  30.010  21.674  1.00  0.00     0.123 A 
ATOM     89  F   UNL A   1      27.884  30.906  20.887  1.00  0.00    -0.207 F 
ENDBRANCH  80  83
BRANCH  81  90
ATOM     90  C   UNL A   1      32.756  24.976  21.967  1.00  0.00     0.225 C 
ATOM     91  O   UNL A   1      33.092  25.316  20.832  1.00  0.00    -0.275 OA
BRANCH  90  92
ATOM     92  C   UNL A   1      32.874  23.511  22.396  1.00  0.00     0.130 C 
BRANCH  92  93
ATOM     93  C   UNL A   1      32.859  23.203  23.888  1.00  0.00     0.123 C 
ATOM     94  N   UNL A   1      31.913  22.168  24.225  1.00  0.00    -0.345 N 
ATOM     95  C   UNL A   1      34.156  22.619  24.355  1.00  0.00    -0.012 A 
ATOM     96  C   UNL A   1      32.527  20.991  24.588  1.00  0.00     0.252 C 
ATOM     97  H   UNL A   1      30.937  22.290  24.198  1.00  0.00     0.164 HD
ATOM     98  C   UNL A   1      33.970  21.261  24.614  1.00  0.00     0.045 A 
ATOM     99  C   UNL A   1      35.414  23.191  24.452  1.00  0.00     0.007 A 
ATOM    100  O   UNL A   1      31.988  19.941  24.885  1.00  0.00    -0.269 OA
ATOM    101  C   UNL A   1      35.024  20.402  24.831  1.00  0.00     0.014 A 
ATOM    102  C   UNL A   1      36.500  22.337  24.683  1.00  0.00     0.000 A 
ATOM    103  C   UNL A   1      36.308  20.950  24.833  1.00  0.00     0.001 A 
ENDBRANCH  92  93
ENDBRANCH  90  92
ENDBRANCH  81  90
ENDBRANCH  75  78
ENDBRANCH  73  74
ENDBRANCH  72  73
ENDBRANCH   1  72
TORSDOF 18
ENDMDL
MODEL 3
REMARK VINA RESULT:     -13.5      5.432     10.268
REMARK SMILES O=C(NCCCCNC(=O)[C@H]1CN(C(=O)C[C@H]2NC(=O)c3ccccc32)C[C@@H]1c1ccc(F)cc1)c1ccc(-c2c3nc(c(-c4cccc(S(=O)(=O)[O-])c4F)c4ccc([nH]4)c(-c4cccc(S(=O)(=O)[O-])c4F)c4nc(c(-c5cccc(S(=O)(=O)[O-])c5F)c5ccc2[nH]5)C=C4)C=C3)cc1
REMARK SMILES IDX 5 1 4 2 3 3 1 4 2 5 36 7 37 8 98 9 38 10 97 11 39 12 40 13
REMARK SMILES IDX 41 14 91 15 42 16 96 17 90 18 92 19 43 20 95 21 89 22 88 23
REMARK SMILES IDX 44 25 76 26 56 27 75 28 57 29 60 30 74 31 93 32 58 33 59 34
REMARK SMILES IDX 73 36 94 37 61 38 45 39 46 40 54 41 47 42 49 43 55 44 48 45
REMARK SMILES IDX 50 46 51 47 52 48 53 49 77 50 78 51 86 52 79 53 81 54 87 55
REMARK SMILES IDX 80 56 82 57 83 58 84 59 85 60 62 61 63 62 71 63 64 64 66 65
REMARK SMILES IDX 72 66 65 67 67 68 68 69 69 70 70 71 6 72 7 73 8 74 9 75
REMARK SMILES IDX 10 77 11 78 12 79 28 80 13 81 27 82 29 83 30 84 35 85 31 86
REMARK SMILES IDX 34 87 32 88 33 89 14 90 15 91 16 92 17 93 18 94 26 95 19 96
REMARK SMILES IDX 21 98 25 99 20 100 22 101 24 102 23 103
REMARK H PARENT 3 6 92 24 60 35 8 76 18 97
REMARK Flexibility Score: inf
ROOT
ATOM      1  C   UNL A   1      37.811  19.853  24.789  1.00  0.00     0.023 C 
ENDROOT
BRANCH   1   2
ATOM      2  C   UNL A   1      38.700  19.785  26.023  1.00  0.00     0.116 C 
BRANCH   2   3
ATOM      3  N   UNL A   1      40.009  19.166  25.818  1.00  0.00    -0.352 N 
ATOM      4  O   UNL A   1      42.284  19.158  25.792  1.00  0.00    -0.269 OA
ATOM      5  C   UNL A   1      41.243  19.742  26.064  1.00  0.00     0.251 C 
ATOM      6  H   UNL A   1      40.013  18.246  25.469  1.00  0.00     0.163 HD
BRANCH   5   7
ATOM      7  C   UNL A   1      41.240  21.110  26.617  1.00  0.00     0.039 A 
ATOM      8  C   UNL A   1      40.910  22.163  25.766  1.00  0.00     0.014 A 
ATOM      9  C   UNL A   1      41.808  21.346  27.869  1.00  0.00     0.014 A 
ATOM     10  C   UNL A   1      41.392  23.427  26.057  1.00  0.00     0.010 A 
ATOM     11  C   UNL A   1      42.148  22.655  28.223  1.00  0.00     0.010 A 
ATOM     12  C   UNL A   1      42.004  23.697  27.293  1.00  0.00    -0.014 A 
BRANCH  12  13
ATOM     13  C   UNL A   1      42.431  25.090  27.593  1.00  0.00     0.031 A 
ATOM     14  C   UNL A   1      41.523  26.072  28.287  1.00  0.00     0.074 A 
ATOM     15  C   UNL A   1      43.683  25.453  27.245  1.00  0.00     0.049 A 
ATOM     16  N   UNL A   1      41.758  27.322  28.594  1.00  0.00    -0.248 NA
ATOM     17  C   UNL A   1      40.184  25.608  28.687  1.00  0.00     0.031 C 
ATOM     18  C   UNL A   1      44.644  24.592  26.547  1.00  0.00     0.029 A 
ATOM     19  N   UNL A   1      44.370  26.625  27.429  1.00  0.00    -0.354 N 
ATOM     20  C   UNL A   1      40.588  27.809  29.167  1.00  0.00     0.074 A 
ATOM     21  C   UNL A   1      39.640  26.717  29.174  1.00  0.00     0.031 C 
ATOM     22  C   UNL A   1      45.804  25.243  26.405  1.00  0.00     0.029 A 
ATOM     23  C   UNL A   1      45.641  26.600  26.905  1.00  0.00     0.049 A 
ATOM     24  H   UNL A   1      43.991  27.407  27.892  1.00  0.00     0.167 HD
ATOM     25  C   UNL A   1      40.338  29.049  29.650  1.00  0.00     0.034 A 
ATOM     26  C   UNL A   1      46.566  27.570  26.789  1.00  0.00     0.034 A 
ATOM     27  C   UNL A   1      41.308  30.113  29.681  1.00  0.00     0.049 A 
ATOM     28  C   UNL A   1      46.251  28.932  27.330  1.00  0.00     0.074 A 
ATOM     29  C   UNL A   1      41.165  31.384  30.212  1.00  0.00     0.029 A 
ATOM     30  N   UNL A   1      42.588  30.041  29.155  1.00  0.00    -0.354 N 
ATOM     31  N   UNL A   1      45.177  29.336  27.960  1.00  0.00    -0.248 NA
ATOM     32  C   UNL A   1      47.278  29.968  27.158  1.00  0.00     0.031 C 
ATOM     33  C   UNL A   1      42.343  32.092  29.970  1.00  0.00     0.029 A 
ATOM     34  C   UNL A   1      43.237  31.251  29.329  1.00  0.00     0.049 A 
ATOM     35  H   UNL A   1      42.978  29.247  28.722  1.00  0.00     0.167 HD
ATOM     36  C   UNL A   1      45.403  30.668  28.277  1.00  0.00     0.074 A 
ATOM     37  C   UNL A   1      46.731  30.993  27.799  1.00  0.00     0.031 C 
ATOM     38  C   UNL A   1      44.576  31.548  28.890  1.00  0.00     0.034 A 
BRANCH  25  39
ATOM     39  C   UNL A   1      38.976  29.348  30.226  1.00  0.00     0.023 A 
ATOM     40  C   UNL A   1      38.687  28.993  31.557  1.00  0.00     0.012 A 
ATOM     41  C   UNL A   1      38.048  30.125  29.500  1.00  0.00     0.148 A 
ATOM     42  C   UNL A   1      37.496  29.400  32.157  1.00  0.00     0.002 A 
ATOM     43  C   UNL A   1      36.883  30.565  30.119  1.00  0.00     0.091 A 
ATOM     44  F   UNL A   1      38.339  30.443  28.231  1.00  0.00    -0.205 F 
ATOM     45  C   UNL A   1      36.603  30.198  31.445  1.00  0.00     0.022 A 
BRANCH  43  46
ATOM     46  S   UNL A   1      35.713  31.670  29.322  1.00  0.00     0.127 S 
ATOM     47  O   UNL A   1      35.090  30.781  28.342  1.00  0.00    -0.237 OA
ATOM     48  O   UNL A   1      34.846  32.050  30.437  1.00  0.00    -0.237 OA
ATOM     49  O   UNL A   1      36.500  32.756  28.757  1.00  0.00    -0.744 OA
ENDBRANCH  43  46
ENDBRANCH  25  39
BRANCH  26  50
ATOM     50  C   UNL A   1      47.868  27.271  26.131  1.00  0.00     0.023 A 
ATOM     51  C   UNL A   1      48.914  26.703  26.882  1.00  0.00     0.012 A 
ATOM     52  C   UNL A   1      48.053  27.496  24.751  1.00  0.00     0.148 A 
ATOM     53  C   UNL A   1      50.129  26.388  26.274  1.00  0.00     0.002 A 
ATOM     54  C   UNL A   1      49.240  27.115  24.141  1.00  0.00     0.091 A 
ATOM     55  F   UNL A   1      47.047  28.046  24.056  1.00  0.00    -0.205 F 
ATOM     56  C   UNL A   1      50.289  26.579  24.905  1.00  0.00     0.022 A 
BRANCH  54  57
ATOM     57  S   UNL A   1      49.469  27.180  22.361  1.00  0.00     0.127 S 
ATOM     58  O   UNL A   1      50.895  26.893  22.234  1.00  0.00    -0.237 OA
ATOM     59  O   UNL A   1      48.581  26.112  21.904  1.00  0.00    -0.237 OA
ATOM     60  O   UNL A   1      49.054  28.518  21.960  1.00  0.00    -0.744 OA
ENDBRANCH  54  57
ENDBRANCH  26  50
BRANCH  38  61
ATOM     61  C   UNL A   1      45.077  32.950  29.105  1.00  0.00     0.023 A 
ATOM     62  C   UNL A   1      45.907  33.231  30.208  1.00  0.00     0.012 A 
ATOM     63  C   UNL A   1      44.821  33.956  28.154  1.00  0.00     0.148 A 
ATOM     64  C   UNL A   1      46.460  34.500  30.370  1.00  0.00     0.002 A 
ATOM     65  C   UNL A   1      45.422  35.201  28.292  1.00  0.00     0.091 A 
ATOM     66  F   UNL A   1      44.017  33.667  27.121  1.00  0.00    -0.205 F 
ATOM     67  C   UNL A   1      46.232  35.479  29.405  1.00  0.00     0.022 A 
BRANCH  65  68
ATOM     68  S   UNL A   1      45.273  36.488  27.048  1.00  0.00     0.127 S 
ATOM     69  O   UNL A   1      45.863  37.636  27.737  1.00  0.00    -0.237 OA
ATOM     70  O   UNL A   1      46.080  35.951  25.954  1.00  0.00    -0.237 OA
ATOM     71  O   UNL A   1      43.852  36.608  26.755  1.00  0.00    -0.744 OA
ENDBRANCH  65  68
ENDBRANCH  38  61
ENDBRANCH  12  13
ENDBRANCH   5   7
ENDBRANCH   2   3
ENDBRANCH   1   2
BRANCH   1  72
ATOM     72  C   UNL A   1      37.365  21.257  24.426  1.00  0.00     0.023 C 
BRANCH  72  73
ATOM     73  C   UNL A   1      37.240  22.206  25.616  1.00  0.00     0.116 C 
BRANCH  73  74
ATOM     74  N   UNL A   1      36.499  23.411  25.314  1.00  0.00    -0.356 N 
ATOM     75  C   UNL A   1      35.193  23.735  25.465  1.00  0.00     0.225 C 
ATOM     76  H   UNL A   1      37.047  24.130  24.925  1.00  0.00     0.163 HD
ATOM     77  O   UNL A   1      34.934  24.945  25.499  1.00  0.00    -0.275 OA
BRANCH  75  78
ATOM     78  C   UNL A   1      34.031  22.749  25.509  1.00  0.00     0.107 C 
ATOM     79  C   UNL A   1      32.625  23.270  25.691  1.00  0.00     0.133 C 
ATOM     80  C   UNL A   1      33.903  21.850  24.255  1.00  0.00     0.053 C 
ATOM     81  N   UNL A   1      32.078  23.414  24.353  1.00  0.00    -0.341 N 
ATOM     82  C   UNL A   1      32.896  22.666  23.401  1.00  0.00     0.128 C 
BRANCH  80  83
ATOM     83  C   UNL A   1      33.386  20.421  24.501  1.00  0.00    -0.042 A 
ATOM     84  C   UNL A   1      32.724  19.746  23.454  1.00  0.00     0.007 A 
ATOM     85  C   UNL A   1      33.534  19.733  25.720  1.00  0.00     0.007 A 
ATOM     86  C   UNL A   1      32.171  18.476  23.646  1.00  0.00     0.039 A 
ATOM     87  C   UNL A   1      32.985  18.461  25.910  1.00  0.00     0.039 A 
ATOM     88  C   UNL A   1      32.297  17.850  24.876  1.00  0.00     0.123 A 
ATOM     89  F   UNL A   1      31.751  16.642  25.069  1.00  0.00    -0.207 F 
ENDBRANCH  80  83
BRANCH  81  90
ATOM     90  C   UNL A   1      31.016  24.193  23.931  1.00  0.00     0.225 C 
ATOM     91  O   UNL A   1      30.229  23.783  23.077  1.00  0.00    -0.275 OA
BRANCH  90  92
ATOM     92  C   UNL A   1      30.909  25.631  24.445  1.00  0.00     0.130 C 
BRANCH  92  93
ATOM     93  C   UNL A   1      32.025  26.602  24.082  1.00  0.00     0.123 C 
ATOM     94  N   UNL A   1      31.727  27.361  22.894  1.00  0.00    -0.345 N 
ATOM     95  C   UNL A   1      32.197  27.672  25.115  1.00  0.00    -0.012 A 
ATOM     96  C   UNL A   1      31.465  28.685  23.166  1.00  0.00     0.252 C 
ATOM     97  H   UNL A   1      31.712  26.976  21.988  1.00  0.00     0.164 HD
ATOM     98  C   UNL A   1      31.708  28.873  24.602  1.00  0.00     0.045 A 
ATOM     99  C   UNL A   1      32.645  27.594  26.423  1.00  0.00     0.007 A 
ATOM    100  O   UNL A   1      31.148  29.551  22.372  1.00  0.00    -0.269 OA
ATOM    101  C   UNL A   1      31.510  29.985  25.391  1.00  0.00     0.014 A 
ATOM    102  C   UNL A   1      32.464  28.715  27.241  1.00  0.00     0.000 A 
ATOM    103  C   UNL A   1      31.867  29.887  26.737  1.00  0.00     0.001 A 
ENDBRANCH  92  93
ENDBRANCH  90  92
ENDBRANCH  81  90
ENDBRANCH  75  78
ENDBRANCH  73  74
ENDBRANCH  72  73
ENDBRANCH   1  72
TORSDOF 18
ENDMDL
