MODEL 1
REMARK VINA RESULT:     -11.3      0.000      0.000
REMARK SMILES COc1ccc(/C=C2/SC(=S)N([C@H](C)C(=O)NCCCCNC(=O)c3ccc(-c4c5nc(c(-c6cccc(S(=O)(=O)[O-])c6F)c6ccc([nH]6)c(-c6cccc(S(=O)(=O)[O-])c6F)c6nc(c(-c7cccc(S(=O)(=O)[O-])c7F)c7ccc4[nH]7)C=C6)C=C5)cc3)C2=O)cc1OC
REMARK SMILES IDX 19 1 18 2 17 3 15 4 16 5 13 7 14 8 12 9 7 10 8 11 9 12 88 13
REMARK SMILES IDX 10 14 89 15 11 16 6 17 3 18 4 19 91 20 5 21 90 22 2 23 1 24
REMARK SMILES IDX 92 25 93 26 20 27 21 28 22 29 23 30 24 32 25 33 26 34 87 35
REMARK SMILES IDX 27 36 86 37 28 38 29 39 30 40 80 41 31 42 85 43 79 44 81 45
REMARK SMILES IDX 32 46 84 47 78 48 77 49 33 51 65 52 45 53 64 54 46 55 49 56
REMARK SMILES IDX 63 57 82 58 47 59 48 60 62 62 83 63 50 64 34 65 35 66 43 67
REMARK SMILES IDX 36 68 38 69 44 70 37 71 39 72 40 73 41 74 42 75 66 76 67 77
REMARK SMILES IDX 75 78 68 79 70 80 76 81 69 82 71 83 72 84 73 85 74 86 51 87
REMARK SMILES IDX 52 88 60 89 53 90 55 91 61 92 54 93 56 94 57 95 58 96 59 97
REMARK H PARENT 17 6 22 31 81 50 49 61
REMARK Flexibility Score: inf
ROOT
ATOM      1  C   UNL A   1      34.521  30.717  28.097  1.00  0.00     0.023 C 
ENDROOT
BRANCH   1   2
ATOM      2  C   UNL A   1      34.565  29.450  27.251  1.00  0.00     0.116 C 
BRANCH   2   3
ATOM      3  N   UNL A   1      34.065  29.674  25.912  1.00  0.00    -0.354 N 
ATOM      4  C   UNL A   1      33.336  28.868  25.091  1.00  0.00     0.242 C 
ATOM      5  O   UNL A   1      33.257  29.203  23.904  1.00  0.00    -0.273 OA
ATOM      6  H   UNL A   1      34.288  30.553  25.530  1.00  0.00     0.163 HD
BRANCH   4   7
ATOM      7  C   UNL A   1      32.718  27.528  25.554  1.00  0.00     0.178 C 
ATOM      8  C   UNL A   1      31.527  27.842  26.465  1.00  0.00     0.042 C 
BRANCH   7   9
ATOM      9  N   UNL A   1      32.503  26.590  24.421  1.00  0.00    -0.281 N 
ATOM     10  C   UNL A   1      33.335  23.458  22.792  1.00  0.00     0.029 C 
ATOM     11  C   UNL A   1      32.876  24.690  23.062  1.00  0.00     0.081 C 
ATOM     12  S   UNL A   1      31.416  25.330  22.428  1.00  0.00    -0.054 SA
ATOM     13  C   UNL A   1      33.458  25.668  24.027  1.00  0.00     0.266 C 
ATOM     14  C   UNL A   1      31.366  26.623  23.631  1.00  0.00     0.149 C 
ATOM     15  O   UNL A   1      34.633  25.654  24.356  1.00  0.00    -0.268 OA
ATOM     16  S   UNL A   1      30.069  27.671  23.703  1.00  0.00    -0.052 S 
BRANCH  10  17
ATOM     17  C   UNL A   1      34.458  22.854  23.516  1.00  0.00    -0.020 A 
ATOM     18  C   UNL A   1      36.577  22.014  25.149  1.00  0.00     0.160 A 
ATOM     19  C   UNL A   1      36.827  22.565  23.882  1.00  0.00     0.051 A 
ATOM     20  C   UNL A   1      35.262  21.838  25.590  1.00  0.00     0.161 A 
ATOM     21  C   UNL A   1      35.771  22.982  23.065  1.00  0.00     0.012 A 
ATOM     22  C   UNL A   1      34.215  22.239  24.751  1.00  0.00     0.058 A 
BRANCH  18  23
ATOM     23  O   UNL A   1      37.650  21.821  25.976  1.00  0.00    -0.493 OA
ATOM     24  C   UNL A   1      38.428  23.003  26.143  1.00  0.00     0.278 C 
ENDBRANCH  18  23
BRANCH  20  25
ATOM     25  O   UNL A   1      34.807  21.361  26.789  1.00  0.00    -0.493 OA
ATOM     26  C   UNL A   1      34.037  22.213  27.623  1.00  0.00     0.278 C 
ENDBRANCH  20  25
ENDBRANCH  10  17
ENDBRANCH   7   9
ENDBRANCH   4   7
ENDBRANCH   2   3
ENDBRANCH   1   2
BRANCH   1  27
ATOM     27  C   UNL A   1      33.299  31.603  27.876  1.00  0.00     0.023 C 
BRANCH  27  28
ATOM     28  C   UNL A   1      33.529  32.861  27.045  1.00  0.00     0.116 C 
BRANCH  28  29
ATOM     29  N   UNL A   1      32.898  34.056  27.591  1.00  0.00    -0.352 N 
ATOM     30  C   UNL A   1      33.224  34.755  28.731  1.00  0.00     0.251 C 
ATOM     31  H   UNL A   1      32.136  34.409  27.076  1.00  0.00     0.163 HD
ATOM     32  O   UNL A   1      32.522  35.689  29.109  1.00  0.00    -0.269 OA
BRANCH  30  33
ATOM     33  C   UNL A   1      34.397  34.343  29.535  1.00  0.00     0.039 A 
ATOM     34  C   UNL A   1      34.179  33.696  30.754  1.00  0.00     0.014 A 
ATOM     35  C   UNL A   1      35.701  34.551  29.075  1.00  0.00     0.014 A 
ATOM     36  C   UNL A   1      35.264  33.187  31.471  1.00  0.00     0.010 A 
ATOM     37  C   UNL A   1      36.773  33.974  29.752  1.00  0.00     0.010 A 
ATOM     38  C   UNL A   1      36.566  33.281  30.955  1.00  0.00    -0.014 A 
BRANCH  38  39
ATOM     39  C   UNL A   1      37.712  32.628  31.643  1.00  0.00     0.031 A 
ATOM     40  C   UNL A   1      38.442  31.481  30.994  1.00  0.00     0.074 A 
ATOM     41  C   UNL A   1      38.042  33.010  32.895  1.00  0.00     0.049 A 
ATOM     42  N   UNL A   1      39.439  30.773  31.461  1.00  0.00    -0.248 NA
ATOM     43  C   UNL A   1      37.980  31.055  29.663  1.00  0.00     0.031 C 
ATOM     44  C   UNL A   1      37.352  34.043  33.673  1.00  0.00     0.029 A 
ATOM     45  N   UNL A   1      39.020  32.557  33.745  1.00  0.00    -0.354 N 
ATOM     46  C   UNL A   1      39.693  29.796  30.506  1.00  0.00     0.074 A 
ATOM     47  C   UNL A   1      38.736  29.988  29.440  1.00  0.00     0.031 C 
ATOM     48  C   UNL A   1      37.924  34.140  34.884  1.00  0.00     0.029 A 
ATOM     49  C   UNL A   1      39.001  33.161  34.982  1.00  0.00     0.049 A 
ATOM     50  H   UNL A   1      39.673  31.864  33.495  1.00  0.00     0.167 HD
ATOM     51  C   UNL A   1      40.652  28.840  30.506  1.00  0.00     0.034 A 
ATOM     52  C   UNL A   1      39.755  32.943  36.079  1.00  0.00     0.034 A 
ATOM     53  C   UNL A   1      41.639  28.686  31.540  1.00  0.00     0.049 A 
ATOM     54  C   UNL A   1      40.854  31.915  36.020  1.00  0.00     0.074 A 
ATOM     55  C   UNL A   1      42.725  27.827  31.565  1.00  0.00     0.029 A 
ATOM     56  N   UNL A   1      41.655  29.386  32.734  1.00  0.00    -0.354 N 
ATOM     57  N   UNL A   1      41.204  31.138  35.024  1.00  0.00    -0.248 NA
ATOM     58  C   UNL A   1      41.687  31.759  37.221  1.00  0.00     0.031 C 
ATOM     59  C   UNL A   1      43.377  27.985  32.792  1.00  0.00     0.029 A 
ATOM     60  C   UNL A   1      42.719  28.967  33.513  1.00  0.00     0.049 A 
ATOM     61  H   UNL A   1      41.005  30.080  32.990  1.00  0.00     0.167 HD
ATOM     62  C   UNL A   1      42.317  30.430  35.466  1.00  0.00     0.074 A 
ATOM     63  C   UNL A   1      42.600  30.891  36.808  1.00  0.00     0.031 C 
ATOM     64  C   UNL A   1      43.027  29.471  34.824  1.00  0.00     0.034 A 
BRANCH  51  65
ATOM     65  C   UNL A   1      40.726  27.904  29.330  1.00  0.00     0.023 A 
ATOM     66  C   UNL A   1      39.852  26.800  29.260  1.00  0.00     0.012 A 
ATOM     67  C   UNL A   1      41.578  28.183  28.243  1.00  0.00     0.148 A 
ATOM     68  C   UNL A   1      39.836  25.978  28.134  1.00  0.00     0.002 A 
ATOM     69  C   UNL A   1      41.525  27.387  27.106  1.00  0.00     0.091 A 
ATOM     70  F   UNL A   1      42.413  29.227  28.339  1.00  0.00    -0.205 F 
ATOM     71  C   UNL A   1      40.661  26.279  27.053  1.00  0.00     0.022 A 
BRANCH  69  72
ATOM     72  S   UNL A   1      42.482  27.738  25.627  1.00  0.00     0.127 S 
ATOM     73  O   UNL A   1      42.195  26.563  24.804  1.00  0.00    -0.237 OA
ATOM     74  O   UNL A   1      41.867  28.978  25.153  1.00  0.00    -0.237 OA
ATOM     75  O   UNL A   1      43.865  27.869  26.062  1.00  0.00    -0.744 OA
ENDBRANCH  69  72
ENDBRANCH  51  65
BRANCH  52  76
ATOM     76  C   UNL A   1      39.529  33.736  37.321  1.00  0.00     0.023 A 
ATOM     77  C   UNL A   1      40.104  35.015  37.448  1.00  0.00     0.012 A 
ATOM     78  C   UNL A   1      38.755  33.225  38.381  1.00  0.00     0.148 A 
ATOM     79  C   UNL A   1      39.956  35.750  38.625  1.00  0.00     0.002 A 
ATOM     80  C   UNL A   1      38.560  33.987  39.527  1.00  0.00     0.091 A 
ATOM     81  F   UNL A   1      38.227  32.000  38.250  1.00  0.00    -0.205 F 
ATOM     82  C   UNL A   1      39.177  35.241  39.660  1.00  0.00     0.022 A 
BRANCH  80  83
ATOM     83  S   UNL A   1      37.458  33.464  40.845  1.00  0.00     0.127 S 
ATOM     84  O   UNL A   1      38.277  32.476  41.543  1.00  0.00    -0.237 OA
ATOM     85  O   UNL A   1      37.242  34.712  41.577  1.00  0.00    -0.237 OA
ATOM     86  O   UNL A   1      36.271  32.952  40.176  1.00  0.00    -0.744 OA
ENDBRANCH  80  83
ENDBRANCH  52  76
BRANCH  64  87
ATOM     87  C   UNL A   1      44.212  28.878  35.543  1.00  0.00     0.023 A 
ATOM     88  C   UNL A   1      45.496  29.427  35.355  1.00  0.00     0.012 A 
ATOM     89  C   UNL A   1      44.039  27.820  36.457  1.00  0.00     0.148 A 
ATOM     90  C   UNL A   1      46.595  28.907  36.037  1.00  0.00     0.002 A 
ATOM     91  C   UNL A   1      45.130  27.343  37.172  1.00  0.00     0.091 A 
ATOM     92  F   UNL A   1      42.813  27.299  36.609  1.00  0.00    -0.205 F 
ATOM     93  C   UNL A   1      46.411  27.875  36.954  1.00  0.00     0.022 A 
BRANCH  91  94
ATOM     94  S   UNL A   1      44.970  26.084  38.445  1.00  0.00     0.127 S 
ATOM     95  O   UNL A   1      44.325  24.998  37.709  1.00  0.00    -0.237 OA
ATOM     96  O   UNL A   1      46.364  25.831  38.808  1.00  0.00    -0.237 OA
ATOM     97  O   UNL A   1      44.169  26.684  39.504  1.00  0.00    -0.744 OA
ENDBRANCH  91  94
ENDBRANCH  64  87
ENDBRANCH  38  39
ENDBRANCH  30  33
ENDBRANCH  28  29
ENDBRANCH  27  28
ENDBRANCH   1  27
TORSDOF 18
ENDMDL
MODEL 2
REMARK VINA RESULT:     -10.9      1.826      2.301
REMARK SMILES COc1ccc(/C=C2/SC(=S)N([C@H](C)C(=O)NCCCCNC(=O)c3ccc(-c4c5nc(c(-c6cccc(S(=O)(=O)[O-])c6F)c6ccc([nH]6)c(-c6cccc(S(=O)(=O)[O-])c6F)c6nc(c(-c7cccc(S(=O)(=O)[O-])c7F)c7ccc4[nH]7)C=C6)C=C5)cc3)C2=O)cc1OC
REMARK SMILES IDX 19 1 18 2 17 3 15 4 16 5 13 7 14 8 12 9 7 10 8 11 9 12 88 13
REMARK SMILES IDX 10 14 89 15 11 16 6 17 3 18 4 19 91 20 5 21 90 22 2 23 1 24
REMARK SMILES IDX 92 25 93 26 20 27 21 28 22 29 23 30 24 32 25 33 26 34 87 35
REMARK SMILES IDX 27 36 86 37 28 38 29 39 30 40 80 41 31 42 85 43 79 44 81 45
REMARK SMILES IDX 32 46 84 47 78 48 77 49 33 51 65 52 45 53 64 54 46 55 49 56
REMARK SMILES IDX 63 57 82 58 47 59 48 60 62 62 83 63 50 64 34 65 35 66 43 67
REMARK SMILES IDX 36 68 38 69 44 70 37 71 39 72 40 73 41 74 42 75 66 76 67 77
REMARK SMILES IDX 75 78 68 79 70 80 76 81 69 82 71 83 72 84 73 85 74 86 51 87
REMARK SMILES IDX 52 88 60 89 53 90 55 91 61 92 54 93 56 94 57 95 58 96 59 97
REMARK H PARENT 17 6 22 31 81 50 49 61
REMARK Flexibility Score: inf
ROOT
ATOM      1  C   UNL A   1      31.712  29.880  27.418  1.00  0.00     0.023 C 
ENDROOT
BRANCH   1   2
ATOM      2  C   UNL A   1      31.860  28.597  26.609  1.00  0.00     0.116 C 
BRANCH   2   3
ATOM      3  N   UNL A   1      33.190  28.453  26.059  1.00  0.00    -0.354 N 
ATOM      4  C   UNL A   1      33.619  28.436  24.767  1.00  0.00     0.242 C 
ATOM      5  O   UNL A   1      34.773  28.044  24.565  1.00  0.00    -0.273 OA
ATOM      6  H   UNL A   1      33.904  28.350  26.729  1.00  0.00     0.163 HD
BRANCH   4   7
ATOM      7  C   UNL A   1      32.700  28.770  23.568  1.00  0.00     0.178 C 
ATOM      8  C   UNL A   1      33.582  28.963  22.331  1.00  0.00     0.042 C 
BRANCH   7   9
ATOM      9  N   UNL A   1      31.549  27.833  23.468  1.00  0.00    -0.281 N 
ATOM     10  C   UNL A   1      30.265  24.457  23.790  1.00  0.00     0.029 C 
ATOM     11  C   UNL A   1      30.421  25.755  23.485  1.00  0.00     0.081 C 
ATOM     12  S   UNL A   1      29.133  26.885  23.414  1.00  0.00    -0.054 SA
ATOM     13  C   UNL A   1      31.712  26.472  23.272  1.00  0.00     0.266 C 
ATOM     14  C   UNL A   1      30.233  28.265  23.485  1.00  0.00     0.149 C 
ATOM     15  O   UNL A   1      32.734  25.906  22.923  1.00  0.00    -0.268 OA
ATOM     16  S   UNL A   1      29.642  29.824  23.563  1.00  0.00    -0.052 S 
BRANCH  10  17
ATOM     17  C   UNL A   1      31.396  23.565  24.065  1.00  0.00    -0.020 A 
ATOM     18  C   UNL A   1      33.788  22.189  24.561  1.00  0.00     0.160 A 
ATOM     19  C   UNL A   1      33.143  22.076  23.319  1.00  0.00     0.051 A 
ATOM     20  C   UNL A   1      33.217  22.957  25.581  1.00  0.00     0.161 A 
ATOM     21  C   UNL A   1      31.948  22.760  23.071  1.00  0.00     0.012 A 
ATOM     22  C   UNL A   1      32.008  23.616  25.324  1.00  0.00     0.058 A 
BRANCH  18  23
ATOM     23  O   UNL A   1      35.049  21.668  24.666  1.00  0.00    -0.493 OA
ATOM     24  C   UNL A   1      35.039  20.273  24.957  1.00  0.00     0.278 C 
ENDBRANCH  18  23
BRANCH  20  25
ATOM     25  O   UNL A   1      33.695  23.224  26.834  1.00  0.00    -0.493 OA
ATOM     26  C   UNL A   1      33.566  22.238  27.846  1.00  0.00     0.278 C 
ENDBRANCH  20  25
ENDBRANCH  10  17
ENDBRANCH   7   9
ENDBRANCH   4   7
ENDBRANCH   2   3
ENDBRANCH   1   2
BRANCH   1  27
ATOM     27  C   UNL A   1      31.737  31.169  26.602  1.00  0.00     0.023 C 
BRANCH  27  28
ATOM     28  C   UNL A   1      32.913  32.104  26.867  1.00  0.00     0.116 C 
BRANCH  28  29
ATOM     29  N   UNL A   1      32.523  33.456  27.243  1.00  0.00    -0.352 N 
ATOM     30  C   UNL A   1      33.063  34.267  28.216  1.00  0.00     0.251 C 
ATOM     31  H   UNL A   1      31.772  33.840  26.735  1.00  0.00     0.163 HD
ATOM     32  O   UNL A   1      32.548  35.350  28.478  1.00  0.00    -0.269 OA
BRANCH  30  33
ATOM     33  C   UNL A   1      34.240  33.805  28.987  1.00  0.00     0.039 A 
ATOM     34  C   UNL A   1      34.035  32.941  30.065  1.00  0.00     0.014 A 
ATOM     35  C   UNL A   1      35.536  34.183  28.627  1.00  0.00     0.014 A 
ATOM     36  C   UNL A   1      35.134  32.392  30.730  1.00  0.00     0.010 A 
ATOM     37  C   UNL A   1      36.629  33.573  29.240  1.00  0.00     0.010 A 
ATOM     38  C   UNL A   1      36.441  32.668  30.295  1.00  0.00    -0.014 A 
BRANCH  38  39
ATOM     39  C   UNL A   1      37.612  31.987  30.909  1.00  0.00     0.031 A 
ATOM     40  C   UNL A   1      38.365  30.925  30.152  1.00  0.00     0.074 A 
ATOM     41  C   UNL A   1      37.947  32.264  32.187  1.00  0.00     0.049 A 
ATOM     42  N   UNL A   1      39.386  30.206  30.542  1.00  0.00    -0.248 NA
ATOM     43  C   UNL A   1      37.898  30.608  28.792  1.00  0.00     0.031 C 
ATOM     44  C   UNL A   1      37.239  33.202  33.064  1.00  0.00     0.029 A 
ATOM     45  N   UNL A   1      38.947  31.763  32.983  1.00  0.00    -0.354 N 
ATOM     46  C   UNL A   1      39.655  29.327  29.499  1.00  0.00     0.074 A 
ATOM     47  C   UNL A   1      38.679  29.588  28.465  1.00  0.00     0.031 C 
ATOM     48  C   UNL A   1      37.824  33.205  34.272  1.00  0.00     0.029 A 
ATOM     49  C   UNL A   1      38.928  32.251  34.270  1.00  0.00     0.049 A 
ATOM     50  H   UNL A   1      39.616  31.115  32.664  1.00  0.00     0.167 HD
ATOM     51  C   UNL A   1      40.639  28.403  29.403  1.00  0.00     0.034 A 
ATOM     52  C   UNL A   1      39.701  31.956  35.334  1.00  0.00     0.034 A 
ATOM     53  C   UNL A   1      41.643  28.183  30.408  1.00  0.00     0.049 A 
ATOM     54  C   UNL A   1      40.827  30.969  35.171  1.00  0.00     0.074 A 
ATOM     55  C   UNL A   1      42.752  27.357  30.345  1.00  0.00     0.029 A 
ATOM     56  N   UNL A   1      41.654  28.772  31.661  1.00  0.00    -0.354 N 
ATOM     57  N   UNL A   1      41.185  30.295  34.105  1.00  0.00    -0.248 NA
ATOM     58  C   UNL A   1      41.679  30.728  36.345  1.00  0.00     0.031 C 
ATOM     59  C   UNL A   1      43.415  27.420  31.574  1.00  0.00     0.029 A 
ATOM     60  C   UNL A   1      42.740  28.314  32.388  1.00  0.00     0.049 A 
ATOM     61  H   UNL A   1      40.989  29.421  31.986  1.00  0.00     0.167 HD
ATOM     62  C   UNL A   1      42.322  29.582  34.470  1.00  0.00     0.074 A 
ATOM     63  C   UNL A   1      42.609  29.927  35.845  1.00  0.00     0.031 C 
ATOM     64  C   UNL A   1      43.050  28.706  33.737  1.00  0.00     0.034 A 
BRANCH  51  65
ATOM     65  C   UNL A   1      40.723  27.579  28.146  1.00  0.00     0.023 A 
ATOM     66  C   UNL A   1      41.379  28.100  27.012  1.00  0.00     0.012 A 
ATOM     67  C   UNL A   1      40.257  26.250  28.127  1.00  0.00     0.148 A 
ATOM     68  C   UNL A   1      41.554  27.316  25.872  1.00  0.00     0.002 A 
ATOM     69  C   UNL A   1      40.475  25.461  27.005  1.00  0.00     0.091 A 
ATOM     70  F   UNL A   1      39.621  25.782  29.210  1.00  0.00    -0.205 F 
ATOM     71  C   UNL A   1      41.115  25.994  25.874  1.00  0.00     0.022 A 
BRANCH  69  72
ATOM     72  S   UNL A   1      40.026  23.722  26.937  1.00  0.00     0.127 S 
ATOM     73  O   UNL A   1      38.594  23.799  26.650  1.00  0.00    -0.237 OA
ATOM     74  O   UNL A   1      40.845  23.240  25.825  1.00  0.00    -0.237 OA
ATOM     75  O   UNL A   1      40.370  23.164  28.237  1.00  0.00    -0.744 OA
ENDBRANCH  69  72
ENDBRANCH  51  65
BRANCH  52  76
ATOM     76  C   UNL A   1      39.469  32.627  36.646  1.00  0.00     0.023 A 
ATOM     77  C   UNL A   1      40.215  33.772  36.988  1.00  0.00     0.012 A 
ATOM     78  C   UNL A   1      38.520  32.130  37.561  1.00  0.00     0.148 A 
ATOM     79  C   UNL A   1      40.058  34.379  38.233  1.00  0.00     0.002 A 
ATOM     80  C   UNL A   1      38.324  32.777  38.775  1.00  0.00     0.091 A 
ATOM     81  F   UNL A   1      37.829  31.031  37.227  1.00  0.00    -0.205 F 
ATOM     82  C   UNL A   1      39.107  33.888  39.124  1.00  0.00     0.022 A 
BRANCH  80  83
ATOM     83  S   UNL A   1      37.024  32.291  39.916  1.00  0.00     0.127 S 
ATOM     84  O   UNL A   1      37.495  30.985  40.367  1.00  0.00    -0.237 OA
ATOM     85  O   UNL A   1      37.089  33.351  40.922  1.00  0.00    -0.237 OA
ATOM     86  O   UNL A   1      35.799  32.292  39.128  1.00  0.00    -0.744 OA
ENDBRANCH  80  83
ENDBRANCH  52  76
BRANCH  64  87
ATOM     87  C   UNL A   1      44.260  28.084  34.386  1.00  0.00     0.023 A 
ATOM     88  C   UNL A   1      45.503  28.743  34.336  1.00  0.00     0.012 A 
ATOM     89  C   UNL A   1      44.145  26.877  35.106  1.00  0.00     0.148 A 
ATOM     90  C   UNL A   1      46.623  28.193  34.958  1.00  0.00     0.002 A 
ATOM     91  C   UNL A   1      45.253  26.363  35.768  1.00  0.00     0.091 A 
ATOM     92  F   UNL A   1      42.957  26.255  35.128  1.00  0.00    -0.205 F 
ATOM     93  C   UNL A   1      46.495  27.012  35.685  1.00  0.00     0.022 A 
BRANCH  91  94
ATOM     94  S   UNL A   1      45.158  24.901  36.809  1.00  0.00     0.127 S 
ATOM     95  O   UNL A   1      46.539  24.775  37.271  1.00  0.00    -0.237 OA
ATOM     96  O   UNL A   1      44.205  25.315  37.839  1.00  0.00    -0.237 OA
ATOM     97  O   UNL A   1      44.686  23.825  35.947  1.00  0.00    -0.744 OA
ENDBRANCH  91  94
ENDBRANCH  64  87
ENDBRANCH  38  39
ENDBRANCH  30  33
ENDBRANCH  28  29
ENDBRANCH  27  28
ENDBRANCH   1  27
TORSDOF 18
ENDMDL
MODEL 3
REMARK VINA RESULT:     -10.3      8.559     15.086
REMARK SMILES COc1ccc(/C=C2/SC(=S)N([C@H](C)C(=O)NCCCCNC(=O)c3ccc(-c4c5nc(c(-c6cccc(S(=O)(=O)[O-])c6F)c6ccc([nH]6)c(-c6cccc(S(=O)(=O)[O-])c6F)c6nc(c(-c7cccc(S(=O)(=O)[O-])c7F)c7ccc4[nH]7)C=C6)C=C5)cc3)C2=O)cc1OC
REMARK SMILES IDX 19 1 18 2 17 3 15 4 16 5 13 7 14 8 12 9 7 10 8 11 9 12 88 13
REMARK SMILES IDX 10 14 89 15 11 16 6 17 3 18 4 19 91 20 5 21 90 22 2 23 1 24
REMARK SMILES IDX 92 25 93 26 20 27 21 28 22 29 23 30 24 32 25 33 26 34 87 35
REMARK SMILES IDX 27 36 86 37 28 38 29 39 30 40 80 41 31 42 85 43 79 44 81 45
REMARK SMILES IDX 32 46 84 47 78 48 77 49 33 51 65 52 45 53 64 54 46 55 49 56
REMARK SMILES IDX 63 57 82 58 47 59 48 60 62 62 83 63 50 64 34 65 35 66 43 67
REMARK SMILES IDX 36 68 38 69 44 70 37 71 39 72 40 73 41 74 42 75 66 76 67 77
REMARK SMILES IDX 75 78 68 79 70 80 76 81 69 82 71 83 72 84 73 85 74 86 51 87
REMARK SMILES IDX 52 88 60 89 53 90 55 91 61 92 54 93 56 94 57 95 58 96 59 97
REMARK H PARENT 17 6 22 31 81 50 49 61
REMARK Flexibility Score: inf
ROOT
ATOM      1  C   UNL A   1      47.506  38.594  25.484  1.00  0.00     0.023 C 
ENDROOT
BRANCH   1   2
ATOM      2  C   UNL A   1      46.464  39.701  25.596  1.00  0.00     0.116 C 
BRANCH   2   3
ATOM      3  N   UNL A   1      46.955  40.962  25.085  1.00  0.00    -0.354 N 
ATOM      4  C   UNL A   1      46.508  42.234  25.281  1.00  0.00     0.242 C 
ATOM      5  O   UNL A   1      46.952  43.106  24.527  1.00  0.00    -0.273 OA
ATOM      6  H   UNL A   1      47.744  40.891  24.500  1.00  0.00     0.163 HD
BRANCH   4   7
ATOM      7  C   UNL A   1      45.409  42.593  26.308  1.00  0.00     0.178 C 
ATOM      8  C   UNL A   1      45.606  44.052  26.727  1.00  0.00     0.042 C 
BRANCH   7   9
ATOM      9  N   UNL A   1      44.058  42.172  25.852  1.00  0.00    -0.281 N 
ATOM     10  C   UNL A   1      41.644  41.895  23.160  1.00  0.00     0.029 C 
ATOM     11  C   UNL A   1      42.235  41.932  24.364  1.00  0.00     0.081 C 
ATOM     12  S   UNL A   1      41.777  40.942  25.688  1.00  0.00    -0.054 SA
ATOM     13  C   UNL A   1      43.442  42.724  24.742  1.00  0.00     0.266 C 
ATOM     14  C   UNL A   1      43.288  41.254  26.548  1.00  0.00     0.149 C 
ATOM     15  O   UNL A   1      43.773  43.743  24.159  1.00  0.00    -0.268 OA
ATOM     16  S   UNL A   1      43.624  40.484  27.990  1.00  0.00    -0.052 S 
BRANCH  10  17
ATOM     17  C   UNL A   1      42.193  42.580  21.985  1.00  0.00    -0.020 A 
ATOM     18  C   UNL A   1      43.079  43.595  19.526  1.00  0.00     0.160 A 
ATOM     19  C   UNL A   1      43.975  42.964  20.404  1.00  0.00     0.051 A 
ATOM     20  C   UNL A   1      41.740  43.763  19.893  1.00  0.00     0.161 A 
ATOM     21  C   UNL A   1      43.536  42.459  21.632  1.00  0.00     0.012 A 
ATOM     22  C   UNL A   1      41.321  43.274  21.137  1.00  0.00     0.058 A 
BRANCH  18  23
ATOM     23  O   UNL A   1      43.525  43.876  18.263  1.00  0.00    -0.493 OA
ATOM     24  C   UNL A   1      44.629  44.776  18.263  1.00  0.00     0.278 C 
ENDBRANCH  18  23
BRANCH  20  25
ATOM     25  O   UNL A   1      40.709  44.310  19.180  1.00  0.00    -0.493 OA
ATOM     26  C   UNL A   1      40.895  44.584  17.800  1.00  0.00     0.278 C 
ENDBRANCH  20  25
ENDBRANCH  10  17
ENDBRANCH   7   9
ENDBRANCH   4   7
ENDBRANCH   2   3
ENDBRANCH   1   2
BRANCH   1  27
ATOM     27  C   UNL A   1      48.341  38.360  26.739  1.00  0.00     0.023 C 
BRANCH  27  28
ATOM     28  C   UNL A   1      47.811  37.307  27.707  1.00  0.00     0.116 C 
BRANCH  28  29
ATOM     29  N   UNL A   1      46.921  37.838  28.731  1.00  0.00    -0.352 N 
ATOM     30  C   UNL A   1      45.843  37.227  29.334  1.00  0.00     0.251 C 
ATOM     31  H   UNL A   1      47.115  38.755  29.031  1.00  0.00     0.163 HD
ATOM     32  O   UNL A   1      45.130  37.854  30.111  1.00  0.00    -0.269 OA
BRANCH  30  33
ATOM     33  C   UNL A   1      45.514  35.823  29.000  1.00  0.00     0.039 A 
ATOM     34  C   UNL A   1      45.869  34.820  29.905  1.00  0.00     0.014 A 
ATOM     35  C   UNL A   1      44.824  35.499  27.828  1.00  0.00     0.014 A 
ATOM     36  C   UNL A   1      45.460  33.504  29.675  1.00  0.00     0.010 A 
ATOM     37  C   UNL A   1      44.351  34.202  27.641  1.00  0.00     0.010 A 
ATOM     38  C   UNL A   1      44.660  33.190  28.565  1.00  0.00    -0.014 A 
BRANCH  38  39
ATOM     39  C   UNL A   1      44.108  31.821  28.379  1.00  0.00     0.031 A 
ATOM     40  C   UNL A   1      42.808  31.424  29.028  1.00  0.00     0.074 A 
ATOM     41  C   UNL A   1      44.825  30.903  27.696  1.00  0.00     0.049 A 
ATOM     42  N   UNL A   1      42.197  30.268  29.001  1.00  0.00    -0.248 NA
ATOM     43  C   UNL A   1      42.116  32.447  29.830  1.00  0.00     0.031 C 
ATOM     44  C   UNL A   1      46.145  31.131  27.101  1.00  0.00     0.029 A 
ATOM     45  N   UNL A   1      44.561  29.586  27.413  1.00  0.00    -0.354 N 
ATOM     46  C   UNL A   1      41.078  30.409  29.815  1.00  0.00     0.074 A 
ATOM     47  C   UNL A   1      41.101  31.757  30.335  1.00  0.00     0.031 C 
ATOM     48  C   UNL A   1      46.574  29.995  26.529  1.00  0.00     0.029 A 
ATOM     49  C   UNL A   1      45.578  28.949  26.739  1.00  0.00     0.049 A 
ATOM     50  H   UNL A   1      43.722  29.137  27.668  1.00  0.00     0.167 HD
ATOM     51  C   UNL A   1      40.107  29.505  30.083  1.00  0.00     0.034 A 
ATOM     52  C   UNL A   1      45.705  27.666  26.346  1.00  0.00     0.034 A 
ATOM     53  C   UNL A   1      40.055  28.183  29.520  1.00  0.00     0.049 A 
ATOM     54  C   UNL A   1      44.576  26.705  26.607  1.00  0.00     0.074 A 
ATOM     55  C   UNL A   1      39.046  27.242  29.636  1.00  0.00     0.029 A 
ATOM     56  N   UNL A   1      41.053  27.606  28.754  1.00  0.00    -0.354 N 
ATOM     57  N   UNL A   1      43.432  26.921  27.209  1.00  0.00    -0.248 NA
ATOM     58  C   UNL A   1      44.738  25.333  26.104  1.00  0.00     0.031 C 
ATOM     59  C   UNL A   1      39.451  26.083  28.969  1.00  0.00     0.029 A 
ATOM     60  C   UNL A   1      40.695  26.315  28.406  1.00  0.00     0.049 A 
ATOM     61  H   UNL A   1      41.894  28.049  28.496  1.00  0.00     0.167 HD
ATOM     62  C   UNL A   1      42.725  25.725  27.123  1.00  0.00     0.074 A 
ATOM     63  C   UNL A   1      43.558  24.799  26.388  1.00  0.00     0.031 C 
ATOM     64  C   UNL A   1      41.505  25.419  27.626  1.00  0.00     0.034 A 
BRANCH  51  65
ATOM     65  C   UNL A   1      38.981  29.917  30.993  1.00  0.00     0.023 A 
ATOM     66  C   UNL A   1      39.042  29.602  32.366  1.00  0.00     0.012 A 
ATOM     67  C   UNL A   1      37.924  30.714  30.511  1.00  0.00     0.148 A 
ATOM     68  C   UNL A   1      38.059  30.060  33.242  1.00  0.00     0.002 A 
ATOM     69  C   UNL A   1      36.974  31.204  31.397  1.00  0.00     0.091 A 
ATOM     70  F   UNL A   1      37.878  30.986  29.199  1.00  0.00    -0.205 F 
ATOM     71  C   UNL A   1      37.034  30.871  32.761  1.00  0.00     0.022 A 
BRANCH  69  72
ATOM     72  S   UNL A   1      35.664  32.326  30.895  1.00  0.00     0.127 S 
ATOM     73  O   UNL A   1      36.407  33.568  30.680  1.00  0.00    -0.237 OA
ATOM     74  O   UNL A   1      35.172  31.692  29.672  1.00  0.00    -0.237 OA
ATOM     75  O   UNL A   1      34.711  32.356  31.995  1.00  0.00    -0.744 OA
ENDBRANCH  69  72
ENDBRANCH  51  65
BRANCH  52  76
ATOM     76  C   UNL A   1      46.931  27.214  25.627  1.00  0.00     0.023 A 
ATOM     77  C   UNL A   1      47.879  26.415  26.294  1.00  0.00     0.012 A 
ATOM     78  C   UNL A   1      47.168  27.581  24.287  1.00  0.00     0.148 A 
ATOM     79  C   UNL A   1      49.061  26.031  25.661  1.00  0.00     0.002 A 
ATOM     80  C   UNL A   1      48.318  27.144  23.642  1.00  0.00     0.091 A 
ATOM     81  F   UNL A   1      46.263  28.355  23.670  1.00  0.00    -0.205 F 
ATOM     82  C   UNL A   1      49.277  26.387  24.333  1.00  0.00     0.022 A 
BRANCH  80  83
ATOM     83  S   UNL A   1      48.604  27.443  21.894  1.00  0.00     0.127 S 
ATOM     84  O   UNL A   1      49.867  28.175  21.918  1.00  0.00    -0.237 OA
ATOM     85  O   UNL A   1      48.690  26.083  21.362  1.00  0.00    -0.237 OA
ATOM     86  O   UNL A   1      47.441  28.190  21.435  1.00  0.00    -0.744 OA
ENDBRANCH  80  83
ENDBRANCH  52  76
BRANCH  64  87
ATOM     87  C   UNL A   1      40.967  24.035  27.365  1.00  0.00     0.023 A 
ATOM     88  C   UNL A   1      41.575  22.918  27.971  1.00  0.00     0.012 A 
ATOM     89  C   UNL A   1      39.816  23.852  26.574  1.00  0.00     0.148 A 
ATOM     90  C   UNL A   1      41.069  21.636  27.763  1.00  0.00     0.002 A 
ATOM     91  C   UNL A   1      39.286  22.577  26.414  1.00  0.00     0.091 A 
ATOM     92  F   UNL A   1      39.261  24.925  25.991  1.00  0.00    -0.205 F 
ATOM     93  C   UNL A   1      39.919  21.467  26.996  1.00  0.00     0.022 A 
BRANCH  91  94
ATOM     94  S   UNL A   1      37.753  22.277  25.527  1.00  0.00     0.127 S 
ATOM     95  O   UNL A   1      37.885  20.865  25.174  1.00  0.00    -0.237 OA
ATOM     96  O   UNL A   1      36.744  22.559  26.548  1.00  0.00    -0.237 OA
ATOM     97  O   UNL A   1      37.751  23.205  24.404  1.00  0.00    -0.744 OA
ENDBRANCH  91  94
ENDBRANCH  64  87
ENDBRANCH  38  39
ENDBRANCH  30  33
ENDBRANCH  28  29
ENDBRANCH  27  28
ENDBRANCH   1  27
TORSDOF 18
ENDMDL
