MODEL 1
REMARK VINA RESULT:     -11.6      0.000      0.000
REMARK SMILES CC[C@@H](C)N(C)S(=O)(=O)c1cc(C(=O)NCCCCNC(=O)c2ccc(-c3c4nc(c(-c5cccc(S(=O)(=O)[O-])c5F)c5ccc([nH]5)c(-c5cccc(S(=O)(=O)[O-])c5F)c5nc(c(-c6cccc(S(=O)(=O)[O-])c6F)c6ccc3[nH]6)C=C5)C=C4)cc2)c(C)cc1C
REMARK SMILES IDX 17 1 16 2 15 3 13 4 14 5 12 7 10 8 11 9 89 10 88 11 90 12
REMARK SMILES IDX 86 13 87 14 7 15 8 16 9 17 5 18 6 19 3 20 4 21 2 22 1 23
REMARK SMILES IDX 18 24 19 25 20 26 21 27 22 29 23 30 24 31 85 32 25 33 84 34
REMARK SMILES IDX 26 35 27 36 28 37 78 38 29 39 83 40 77 41 79 42 30 43 82 44
REMARK SMILES IDX 76 45 75 46 31 48 63 49 43 50 62 51 44 52 47 53 61 54 80 55
REMARK SMILES IDX 45 56 46 57 60 59 81 60 48 61 32 62 33 63 41 64 34 65 36 66
REMARK SMILES IDX 42 67 35 68 37 69 38 70 39 71 40 72 64 73 65 74 73 75 66 76
REMARK SMILES IDX 68 77 74 78 67 79 69 80 70 81 71 82 72 83 49 84 50 85 58 86
REMARK SMILES IDX 51 87 53 88 59 89 52 90 54 91 55 92 56 93 57 94
REMARK H PARENT 15 6 20 28 79 47 47 58
REMARK Flexibility Score: inf
ROOT
ATOM      1  C   UNL A   1      32.264  30.366  26.747  1.00  0.00     0.023 C 
ENDROOT
BRANCH   1   2
ATOM      2  C   UNL A   1      31.693  29.665  25.509  1.00  0.00     0.116 C 
BRANCH   2   3
ATOM      3  N   UNL A   1      32.693  29.634  24.468  1.00  0.00    -0.352 N 
ATOM      4  C   UNL A   1      33.175  28.684  23.611  1.00  0.00     0.251 C 
ATOM      5  O   UNL A   1      34.125  29.061  22.914  1.00  0.00    -0.269 OA
ATOM      6  H   UNL A   1      33.132  30.506  24.344  1.00  0.00     0.163 HD
BRANCH   4   7
ATOM      7  C   UNL A   1      32.641  27.294  23.368  1.00  0.00     0.044 A 
ATOM      8  C   UNL A   1      33.315  24.913  23.556  1.00  0.00     0.086 A 
ATOM      9  C   UNL A   1      33.610  26.287  23.621  1.00  0.00     0.036 A 
ATOM     10  C   UNL A   1      32.043  24.488  23.165  1.00  0.00    -0.031 A 
ATOM     11  C   UNL A   1      31.093  25.473  22.887  1.00  0.00     0.009 A 
ATOM     12  C   UNL A   1      31.596  23.057  23.089  1.00  0.00     0.046 C 
ATOM     13  C   UNL A   1      31.339  26.855  23.062  1.00  0.00    -0.038 A 
ATOM     14  C   UNL A   1      30.094  27.681  23.017  1.00  0.00     0.045 C 
BRANCH   8  15
ATOM     15  S   UNL A   1      34.559  23.768  24.143  1.00  0.00     0.243 S 
ATOM     16  O   UNL A   1      35.519  24.491  24.938  1.00  0.00    -0.207 OA
ATOM     17  O   UNL A   1      34.982  23.014  22.976  1.00  0.00    -0.207 OA
BRANCH  15  18
ATOM     18  N   UNL A   1      33.744  22.709  25.225  1.00  0.00    -0.198 NA
ATOM     19  C   UNL A   1      33.371  23.331  26.524  1.00  0.00     0.124 C 
BRANCH  18  20
ATOM     20  C   UNL A   1      34.379  21.341  25.426  1.00  0.00     0.069 C 
ATOM     21  C   UNL A   1      35.899  21.369  25.226  1.00  0.00     0.026 C 
BRANCH  20  22
ATOM     22  C   UNL A   1      33.700  20.251  24.577  1.00  0.00     0.016 C 
ATOM     23  C   UNL A   1      32.875  19.263  25.394  1.00  0.00     0.005 C 
ENDBRANCH  20  22
ENDBRANCH  18  20
ENDBRANCH  15  18
ENDBRANCH   8  15
ENDBRANCH   4   7
ENDBRANCH   2   3
ENDBRANCH   1   2
BRANCH   1  24
ATOM     24  C   UNL A   1      31.878  31.828  26.925  1.00  0.00     0.023 C 
BRANCH  24  25
ATOM     25  C   UNL A   1      33.009  32.719  27.403  1.00  0.00     0.116 C 
BRANCH  25  26
ATOM     26  N   UNL A   1      32.597  34.082  27.719  1.00  0.00    -0.352 N 
ATOM     27  C   UNL A   1      33.111  34.912  28.687  1.00  0.00     0.251 C 
ATOM     28  H   UNL A   1      31.866  34.451  27.174  1.00  0.00     0.163 HD
ATOM     29  O   UNL A   1      32.619  36.017  28.889  1.00  0.00    -0.269 OA
BRANCH  27  30
ATOM     30  C   UNL A   1      34.236  34.422  29.508  1.00  0.00     0.039 A 
ATOM     31  C   UNL A   1      33.965  33.650  30.639  1.00  0.00     0.014 A 
ATOM     32  C   UNL A   1      35.552  34.653  29.103  1.00  0.00     0.014 A 
ATOM     33  C   UNL A   1      35.023  33.058  31.331  1.00  0.00     0.010 A 
ATOM     34  C   UNL A   1      36.589  33.980  29.729  1.00  0.00     0.010 A 
ATOM     35  C   UNL A   1      36.339  33.195  30.864  1.00  0.00    -0.014 A 
BRANCH  35  36
ATOM     36  C   UNL A   1      37.485  32.570  31.566  1.00  0.00     0.031 A 
ATOM     37  C   UNL A   1      38.220  31.432  30.910  1.00  0.00     0.074 A 
ATOM     38  C   UNL A   1      37.800  32.954  32.819  1.00  0.00     0.049 A 
ATOM     39  N   UNL A   1      39.192  30.696  31.380  1.00  0.00    -0.248 NA
ATOM     40  C   UNL A   1      37.775  31.040  29.559  1.00  0.00     0.031 C 
ATOM     41  C   UNL A   1      37.098  33.978  33.597  1.00  0.00     0.029 A 
ATOM     42  N   UNL A   1      38.778  32.504  33.670  1.00  0.00    -0.354 N 
ATOM     43  C   UNL A   1      39.438  29.731  30.411  1.00  0.00     0.074 A 
ATOM     44  C   UNL A   1      38.484  29.943  29.347  1.00  0.00     0.031 C 
ATOM     45  C   UNL A   1      37.677  34.087  34.805  1.00  0.00     0.029 A 
ATOM     46  C   UNL A   1      38.773  33.127  34.896  1.00  0.00     0.049 A 
ATOM     47  H   UNL A   1      39.423  31.803  33.425  1.00  0.00     0.167 HD
ATOM     48  C   UNL A   1      40.401  28.780  30.386  1.00  0.00     0.034 A 
ATOM     49  C   UNL A   1      39.569  32.947  35.968  1.00  0.00     0.034 A 
ATOM     50  C   UNL A   1      41.395  28.627  31.410  1.00  0.00     0.049 A 
ATOM     51  C   UNL A   1      40.689  31.944  35.878  1.00  0.00     0.074 A 
ATOM     52  C   UNL A   1      42.475  27.765  31.439  1.00  0.00     0.029 A 
ATOM     53  N   UNL A   1      41.435  29.363  32.584  1.00  0.00    -0.354 N 
ATOM     54  N   UNL A   1      41.009  31.150  34.885  1.00  0.00    -0.248 NA
ATOM     55  C   UNL A   1      41.586  31.843  37.039  1.00  0.00     0.031 C 
ATOM     56  C   UNL A   1      43.167  27.977  32.636  1.00  0.00     0.029 A 
ATOM     57  C   UNL A   1      42.525  28.982  33.343  1.00  0.00     0.049 A 
ATOM     58  H   UNL A   1      40.783  30.055  32.839  1.00  0.00     0.167 HD
ATOM     59  C   UNL A   1      42.165  30.488  35.281  1.00  0.00     0.074 A 
ATOM     60  C   UNL A   1      42.499  30.987  36.600  1.00  0.00     0.031 C 
ATOM     61  C   UNL A   1      42.878  29.541  34.623  1.00  0.00     0.034 A 
BRANCH  48  62
ATOM     62  C   UNL A   1      40.466  27.886  29.176  1.00  0.00     0.023 A 
ATOM     63  C   UNL A   1      39.575  26.797  29.070  1.00  0.00     0.012 A 
ATOM     64  C   UNL A   1      41.376  28.139  28.131  1.00  0.00     0.148 A 
ATOM     65  C   UNL A   1      39.615  25.951  27.964  1.00  0.00     0.002 A 
ATOM     66  C   UNL A   1      41.378  27.317  27.009  1.00  0.00     0.091 A 
ATOM     67  F   UNL A   1      42.232  29.162  28.260  1.00  0.00    -0.205 F 
ATOM     68  C   UNL A   1      40.508  26.217  26.930  1.00  0.00     0.022 A 
BRANCH  66  69
ATOM     69  S   UNL A   1      42.435  27.621  25.590  1.00  0.00     0.127 S 
ATOM     70  O   UNL A   1      42.179  26.437  24.772  1.00  0.00    -0.237 OA
ATOM     71  O   UNL A   1      41.881  28.864  25.052  1.00  0.00    -0.237 OA
ATOM     72  O   UNL A   1      43.788  27.739  26.116  1.00  0.00    -0.744 OA
ENDBRANCH  66  69
ENDBRANCH  48  62
BRANCH  49  73
ATOM     73  C   UNL A   1      39.399  33.800  37.178  1.00  0.00     0.023 A 
ATOM     74  C   UNL A   1      39.865  35.129  37.153  1.00  0.00     0.012 A 
ATOM     75  C   UNL A   1      38.760  33.320  38.337  1.00  0.00     0.148 A 
ATOM     76  C   UNL A   1      39.730  35.954  38.270  1.00  0.00     0.002 A 
ATOM     77  C   UNL A   1      38.582  34.163  39.429  1.00  0.00     0.091 A 
ATOM     78  F   UNL A   1      38.332  32.049  38.347  1.00  0.00    -0.205 F 
ATOM     79  C   UNL A   1      39.080  35.475  39.404  1.00  0.00     0.022 A 
BRANCH  77  80
ATOM     80  S   UNL A   1      37.646  33.670  40.881  1.00  0.00     0.127 S 
ATOM     81  O   UNL A   1      37.514  34.937  41.596  1.00  0.00    -0.237 OA
ATOM     82  O   UNL A   1      36.408  33.164  40.288  1.00  0.00    -0.237 OA
ATOM     83  O   UNL A   1      38.454  32.652  41.537  1.00  0.00    -0.744 OA
ENDBRANCH  77  80
ENDBRANCH  49  73
BRANCH  61  84
ATOM     84  C   UNL A   1      44.120  29.011  35.286  1.00  0.00     0.023 A 
ATOM     85  C   UNL A   1      45.362  29.626  35.039  1.00  0.00     0.012 A 
ATOM     86  C   UNL A   1      44.038  27.963  36.223  1.00  0.00     0.148 A 
ATOM     87  C   UNL A   1      46.511  29.186  35.694  1.00  0.00     0.002 A 
ATOM     88  C   UNL A   1      45.179  27.561  36.908  1.00  0.00     0.091 A 
ATOM     89  F   UNL A   1      42.849  27.378  36.428  1.00  0.00    -0.205 F 
ATOM     90  C   UNL A   1      46.417  28.164  36.637  1.00  0.00     0.022 A 
BRANCH  88  91
ATOM     91  S   UNL A   1      45.128  26.324  38.208  1.00  0.00     0.127 S 
ATOM     92  O   UNL A   1      44.708  25.133  37.471  1.00  0.00    -0.237 OA
ATOM     93  O   UNL A   1      46.516  26.298  38.670  1.00  0.00    -0.237 OA
ATOM     94  O   UNL A   1      44.176  26.821  39.194  1.00  0.00    -0.744 OA
ENDBRANCH  88  91
ENDBRANCH  61  84
ENDBRANCH  35  36
ENDBRANCH  27  30
ENDBRANCH  25  26
ENDBRANCH  24  25
ENDBRANCH   1  24
TORSDOF 18
ENDMDL
MODEL 2
REMARK VINA RESULT:     -11.4      3.320      8.599
REMARK SMILES CC[C@@H](C)N(C)S(=O)(=O)c1cc(C(=O)NCCCCNC(=O)c2ccc(-c3c4nc(c(-c5cccc(S(=O)(=O)[O-])c5F)c5ccc([nH]5)c(-c5cccc(S(=O)(=O)[O-])c5F)c5nc(c(-c6cccc(S(=O)(=O)[O-])c6F)c6ccc3[nH]6)C=C5)C=C4)cc2)c(C)cc1C
REMARK SMILES IDX 17 1 16 2 15 3 13 4 14 5 12 7 10 8 11 9 89 10 88 11 90 12
REMARK SMILES IDX 86 13 87 14 7 15 8 16 9 17 5 18 6 19 3 20 4 21 2 22 1 23
REMARK SMILES IDX 18 24 19 25 20 26 21 27 22 29 23 30 24 31 85 32 25 33 84 34
REMARK SMILES IDX 26 35 27 36 28 37 78 38 29 39 83 40 77 41 79 42 30 43 82 44
REMARK SMILES IDX 76 45 75 46 31 48 63 49 43 50 62 51 44 52 47 53 61 54 80 55
REMARK SMILES IDX 45 56 46 57 60 59 81 60 48 61 32 62 33 63 41 64 34 65 36 66
REMARK SMILES IDX 42 67 35 68 37 69 38 70 39 71 40 72 64 73 65 74 73 75 66 76
REMARK SMILES IDX 68 77 74 78 67 79 69 80 70 81 71 82 72 83 49 84 50 85 58 86
REMARK SMILES IDX 51 87 53 88 59 89 52 90 54 91 55 92 56 93 57 94
REMARK H PARENT 15 6 20 28 79 47 47 58
REMARK Flexibility Score: inf
ROOT
ATOM      1  C   UNL A   1      32.563  28.569  24.548  1.00  0.00     0.023 C 
ENDROOT
BRANCH   1   2
ATOM      2  C   UNL A   1      32.321  28.903  23.071  1.00  0.00     0.116 C 
BRANCH   2   3
ATOM      3  N   UNL A   1      32.785  27.813  22.246  1.00  0.00    -0.352 N 
ATOM      4  C   UNL A   1      32.795  26.450  22.351  1.00  0.00     0.251 C 
ATOM      5  O   UNL A   1      33.388  25.872  21.432  1.00  0.00    -0.269 OA
ATOM      6  H   UNL A   1      33.192  28.126  21.406  1.00  0.00     0.163 HD
BRANCH   4   7
ATOM      7  C   UNL A   1      32.113  25.593  23.388  1.00  0.00     0.044 A 
ATOM      8  C   UNL A   1      32.637  23.970  25.192  1.00  0.00     0.086 A 
ATOM      9  C   UNL A   1      33.028  24.781  24.110  1.00  0.00     0.036 A 
ATOM     10  C   UNL A   1      31.290  23.887  25.553  1.00  0.00    -0.031 A 
ATOM     11  C   UNL A   1      30.381  24.661  24.829  1.00  0.00     0.009 A 
ATOM     12  C   UNL A   1      30.752  23.087  26.703  1.00  0.00     0.046 C 
ATOM     13  C   UNL A   1      30.773  25.569  23.818  1.00  0.00    -0.038 A 
ATOM     14  C   UNL A   1      29.679  26.508  23.420  1.00  0.00     0.045 C 
BRANCH   8  15
ATOM     15  S   UNL A   1      33.929  23.202  26.163  1.00  0.00     0.243 S 
ATOM     16  O   UNL A   1      33.397  22.859  27.458  1.00  0.00    -0.207 OA
ATOM     17  O   UNL A   1      35.082  24.078  26.045  1.00  0.00    -0.207 OA
BRANCH  15  18
ATOM     18  N   UNL A   1      34.278  21.711  25.381  1.00  0.00    -0.198 NA
ATOM     19  C   UNL A   1      35.383  21.787  24.387  1.00  0.00     0.124 C 
BRANCH  18  20
ATOM     20  C   UNL A   1      33.082  20.952  24.825  1.00  0.00     0.069 C 
ATOM     21  C   UNL A   1      32.894  19.588  25.500  1.00  0.00     0.026 C 
BRANCH  20  22
ATOM     22  C   UNL A   1      33.122  20.842  23.290  1.00  0.00     0.016 C 
ATOM     23  C   UNL A   1      31.943  21.517  22.597  1.00  0.00     0.005 C 
ENDBRANCH  20  22
ENDBRANCH  18  20
ENDBRANCH  15  18
ENDBRANCH   8  15
ENDBRANCH   4   7
ENDBRANCH   2   3
ENDBRANCH   1   2
BRANCH   1  24
ATOM     24  C   UNL A   1      34.005  28.284  24.941  1.00  0.00     0.023 C 
BRANCH  24  25
ATOM     25  C   UNL A   1      34.344  28.643  26.377  1.00  0.00     0.116 C 
BRANCH  25  26
ATOM     26  N   UNL A   1      33.913  29.978  26.772  1.00  0.00    -0.352 N 
ATOM     27  C   UNL A   1      34.545  30.846  27.630  1.00  0.00     0.251 C 
ATOM     28  H   UNL A   1      33.069  30.296  26.377  1.00  0.00     0.163 HD
ATOM     29  O   UNL A   1      34.031  31.918  27.928  1.00  0.00    -0.269 OA
BRANCH  27  30
ATOM     30  C   UNL A   1      35.835  30.434  28.222  1.00  0.00     0.039 A 
ATOM     31  C   UNL A   1      35.836  29.772  29.451  1.00  0.00     0.014 A 
ATOM     32  C   UNL A   1      37.023  30.624  27.514  1.00  0.00     0.014 A 
ATOM     33  C   UNL A   1      37.033  29.247  29.942  1.00  0.00     0.010 A 
ATOM     34  C   UNL A   1      38.186  30.012  27.953  1.00  0.00     0.010 A 
ATOM     35  C   UNL A   1      38.210  29.338  29.182  1.00  0.00    -0.014 A 
BRANCH  35  36
ATOM     36  C   UNL A   1      39.495  28.780  29.666  1.00  0.00     0.031 A 
ATOM     37  C   UNL A   1      40.211  29.458  30.803  1.00  0.00     0.074 A 
ATOM     38  C   UNL A   1      40.059  27.734  29.031  1.00  0.00     0.049 A 
ATOM     39  N   UNL A   1      41.377  29.184  31.324  1.00  0.00    -0.248 NA
ATOM     40  C   UNL A   1      39.548  30.629  31.406  1.00  0.00     0.031 C 
ATOM     41  C   UNL A   1      39.507  27.053  27.856  1.00  0.00     0.029 A 
ATOM     42  N   UNL A   1      41.240  27.077  29.268  1.00  0.00    -0.354 N 
ATOM     43  C   UNL A   1      41.608  30.171  32.276  1.00  0.00     0.074 A 
ATOM     44  C   UNL A   1      40.484  31.078  32.228  1.00  0.00     0.031 C 
ATOM     45  C   UNL A   1      40.343  26.069  27.485  1.00  0.00     0.029 A 
ATOM     46  C   UNL A   1      41.497  26.062  28.378  1.00  0.00     0.049 A 
ATOM     47  H   UNL A   1      41.846  27.311  30.008  1.00  0.00     0.167 HD
ATOM     48  C   UNL A   1      42.639  30.289  33.144  1.00  0.00     0.034 A 
ATOM     49  C   UNL A   1      42.544  25.217  28.298  1.00  0.00     0.034 A 
ATOM     50  C   UNL A   1      43.711  29.340  33.239  1.00  0.00     0.049 A 
ATOM     51  C   UNL A   1      43.634  25.314  29.333  1.00  0.00     0.074 A 
ATOM     52  C   UNL A   1      44.753  29.306  34.147  1.00  0.00     0.029 A 
ATOM     53  N   UNL A   1      43.872  28.248  32.400  1.00  0.00    -0.354 N 
ATOM     54  N   UNL A   1      43.752  26.157  30.331  1.00  0.00    -0.248 NA
ATOM     55  C   UNL A   1      44.712  24.318  29.259  1.00  0.00     0.031 C 
ATOM     56  C   UNL A   1      45.550  28.195  33.852  1.00  0.00     0.029 A 
ATOM     57  C   UNL A   1      44.993  27.529  32.772  1.00  0.00     0.049 A 
ATOM     58  H   UNL A   1      43.277  28.019  31.650  1.00  0.00     0.167 HD
ATOM     59  C   UNL A   1      44.890  25.767  31.028  1.00  0.00     0.074 A 
ATOM     60  C   UNL A   1      45.416  24.601  30.347  1.00  0.00     0.031 C 
ATOM     61  C   UNL A   1      45.459  26.331  32.122  1.00  0.00     0.034 A 
BRANCH  48  62
ATOM     62  C   UNL A   1      42.610  31.446  34.107  1.00  0.00     0.023 A 
ATOM     63  C   UNL A   1      43.329  32.621  33.801  1.00  0.00     0.012 A 
ATOM     64  C   UNL A   1      41.850  31.389  35.291  1.00  0.00     0.148 A 
ATOM     65  C   UNL A   1      43.324  33.705  34.675  1.00  0.00     0.002 A 
ATOM     66  C   UNL A   1      41.812  32.494  36.135  1.00  0.00     0.091 A 
ATOM     67  F   UNL A   1      41.194  30.256  35.579  1.00  0.00    -0.205 F 
ATOM     68  C   UNL A   1      42.558  33.646  35.836  1.00  0.00     0.022 A 
BRANCH  66  69
ATOM     69  S   UNL A   1      40.795  32.546  37.615  1.00  0.00     0.127 S 
ATOM     70  O   UNL A   1      39.603  31.822  37.178  1.00  0.00    -0.237 OA
ATOM     71  O   UNL A   1      41.623  31.827  38.584  1.00  0.00    -0.237 OA
ATOM     72  O   UNL A   1      40.597  33.957  37.916  1.00  0.00    -0.744 OA
ENDBRANCH  66  69
ENDBRANCH  48  62
BRANCH  49  73
ATOM     73  C   UNL A   1      42.564  24.146  27.262  1.00  0.00     0.023 A 
ATOM     74  C   UNL A   1      43.467  24.249  26.185  1.00  0.00     0.012 A 
ATOM     75  C   UNL A   1      41.724  23.020  27.346  1.00  0.00     0.148 A 
ATOM     76  C   UNL A   1      43.508  23.270  25.192  1.00  0.00     0.002 A 
ATOM     77  C   UNL A   1      41.806  22.021  26.381  1.00  0.00     0.091 A 
ATOM     78  F   UNL A   1      40.864  22.944  28.372  1.00  0.00    -0.205 F 
ATOM     79  C   UNL A   1      42.685  22.152  25.295  1.00  0.00     0.022 A 
BRANCH  77  80
ATOM     80  S   UNL A   1      40.876  20.489  26.502  1.00  0.00     0.127 S 
ATOM     81  O   UNL A   1      41.031  20.155  27.916  1.00  0.00    -0.237 OA
ATOM     82  O   UNL A   1      39.533  20.918  26.114  1.00  0.00    -0.237 OA
ATOM     83  O   UNL A   1      41.507  19.575  25.560  1.00  0.00    -0.744 OA
ENDBRANCH  77  80
ENDBRANCH  49  73
BRANCH  61  84
ATOM     84  C   UNL A   1      46.688  25.674  32.690  1.00  0.00     0.023 A 
ATOM     85  C   UNL A   1      47.964  26.097  32.271  1.00  0.00     0.012 A 
ATOM     86  C   UNL A   1      46.576  24.702  33.703  1.00  0.00     0.148 A 
ATOM     87  C   UNL A   1      49.112  25.542  32.833  1.00  0.00     0.002 A 
ATOM     88  C   UNL A   1      47.724  24.187  34.292  1.00  0.00     0.091 A 
ATOM     89  F   UNL A   1      45.351  24.298  34.072  1.00  0.00    -0.205 F 
ATOM     90  C   UNL A   1      48.992  24.598  33.852  1.00  0.00     0.022 A 
BRANCH  88  91
ATOM     91  S   UNL A   1      47.659  23.045  35.676  1.00  0.00     0.127 S 
ATOM     92  O   UNL A   1      46.729  23.721  36.578  1.00  0.00    -0.237 OA
ATOM     93  O   UNL A   1      47.131  21.830  35.055  1.00  0.00    -0.237 OA
ATOM     94  O   UNL A   1      49.029  22.925  36.159  1.00  0.00    -0.744 OA
ENDBRANCH  88  91
ENDBRANCH  61  84
ENDBRANCH  35  36
ENDBRANCH  27  30
ENDBRANCH  25  26
ENDBRANCH  24  25
ENDBRANCH   1  24
TORSDOF 18
ENDMDL
MODEL 3
REMARK VINA RESULT:     -11.2      6.344      9.851
REMARK SMILES CC[C@@H](C)N(C)S(=O)(=O)c1cc(C(=O)NCCCCNC(=O)c2ccc(-c3c4nc(c(-c5cccc(S(=O)(=O)[O-])c5F)c5ccc([nH]5)c(-c5cccc(S(=O)(=O)[O-])c5F)c5nc(c(-c6cccc(S(=O)(=O)[O-])c6F)c6ccc3[nH]6)C=C5)C=C4)cc2)c(C)cc1C
REMARK SMILES IDX 17 1 16 2 15 3 13 4 14 5 12 7 10 8 11 9 89 10 88 11 90 12
REMARK SMILES IDX 86 13 87 14 7 15 8 16 9 17 5 18 6 19 3 20 4 21 2 22 1 23
REMARK SMILES IDX 18 24 19 25 20 26 21 27 22 29 23 30 24 31 85 32 25 33 84 34
REMARK SMILES IDX 26 35 27 36 28 37 78 38 29 39 83 40 77 41 79 42 30 43 82 44
REMARK SMILES IDX 76 45 75 46 31 48 63 49 43 50 62 51 44 52 47 53 61 54 80 55
REMARK SMILES IDX 45 56 46 57 60 59 81 60 48 61 32 62 33 63 41 64 34 65 36 66
REMARK SMILES IDX 42 67 35 68 37 69 38 70 39 71 40 72 64 73 65 74 73 75 66 76
REMARK SMILES IDX 68 77 74 78 67 79 69 80 70 81 71 82 72 83 49 84 50 85 58 86
REMARK SMILES IDX 51 87 53 88 59 89 52 90 54 91 55 92 56 93 57 94
REMARK H PARENT 15 6 20 28 79 47 47 58
REMARK Flexibility Score: inf
ROOT
ATOM      1  C   UNL A   1      38.822  22.828  26.223  1.00  0.00     0.023 C 
ENDROOT
BRANCH   1   2
ATOM      2  C   UNL A   1      37.643  23.640  25.673  1.00  0.00     0.116 C 
BRANCH   2   3
ATOM      3  N   UNL A   1      36.456  23.352  26.444  1.00  0.00    -0.352 N 
ATOM      4  C   UNL A   1      35.111  23.497  26.249  1.00  0.00     0.251 C 
ATOM      5  O   UNL A   1      34.418  23.197  27.229  1.00  0.00    -0.269 OA
ATOM      6  H   UNL A   1      36.666  22.955  27.321  1.00  0.00     0.163 HD
BRANCH   4   7
ATOM      7  C   UNL A   1      34.393  23.890  24.982  1.00  0.00     0.044 A 
ATOM      8  C   UNL A   1      33.395  25.874  23.871  1.00  0.00     0.086 A 
ATOM      9  C   UNL A   1      33.995  25.254  24.984  1.00  0.00     0.036 A 
ATOM     10  C   UNL A   1      33.105  25.127  22.727  1.00  0.00    -0.031 A 
ATOM     11  C   UNL A   1      33.468  23.778  22.729  1.00  0.00     0.009 A 
ATOM     12  C   UNL A   1      32.500  25.676  21.468  1.00  0.00     0.046 C 
ATOM     13  C   UNL A   1      34.176  23.171  23.792  1.00  0.00    -0.038 A 
ATOM     14  C   UNL A   1      34.731  21.829  23.434  1.00  0.00     0.045 C 
BRANCH   8  15
ATOM     15  S   UNL A   1      33.181  27.649  23.926  1.00  0.00     0.243 S 
ATOM     16  O   UNL A   1      33.824  28.232  22.775  1.00  0.00    -0.207 OA
ATOM     17  O   UNL A   1      33.564  28.051  25.268  1.00  0.00    -0.207 OA
BRANCH  15  18
ATOM     18  N   UNL A   1      31.496  27.923  23.720  1.00  0.00    -0.198 NA
ATOM     19  C   UNL A   1      31.030  29.252  24.200  1.00  0.00     0.124 C 
BRANCH  18  20
ATOM     20  C   UNL A   1      30.576  26.807  24.192  1.00  0.00     0.069 C 
ATOM     21  C   UNL A   1      29.142  26.979  23.677  1.00  0.00     0.026 C 
BRANCH  20  22
ATOM     22  C   UNL A   1      30.627  26.613  25.719  1.00  0.00     0.016 C 
ATOM     23  C   UNL A   1      30.400  25.172  26.160  1.00  0.00     0.005 C 
ENDBRANCH  20  22
ENDBRANCH  18  20
ENDBRANCH  15  18
ENDBRANCH   8  15
ENDBRANCH   4   7
ENDBRANCH   2   3
ENDBRANCH   1   2
BRANCH   1  24
ATOM     24  C   UNL A   1      38.957  21.406  25.698  1.00  0.00     0.023 C 
BRANCH  24  25
ATOM     25  C   UNL A   1      39.603  20.439  26.673  1.00  0.00     0.116 C 
BRANCH  25  26
ATOM     26  N   UNL A   1      40.666  19.630  26.089  1.00  0.00    -0.352 N 
ATOM     27  C   UNL A   1      41.968  20.001  25.847  1.00  0.00     0.251 C 
ATOM     28  H   UNL A   1      40.423  18.710  25.838  1.00  0.00     0.163 HD
ATOM     29  O   UNL A   1      42.743  19.235  25.283  1.00  0.00    -0.269 OA
BRANCH  27  30
ATOM     30  C   UNL A   1      42.396  21.359  26.240  1.00  0.00     0.039 A 
ATOM     31  C   UNL A   1      42.496  22.348  25.260  1.00  0.00     0.014 A 
ATOM     32  C   UNL A   1      42.607  21.665  27.586  1.00  0.00     0.014 A 
ATOM     33  C   UNL A   1      42.751  23.665  25.644  1.00  0.00     0.010 A 
ATOM     34  C   UNL A   1      42.756  22.988  27.970  1.00  0.00     0.010 A 
ATOM     35  C   UNL A   1      42.854  23.999  27.004  1.00  0.00    -0.014 A 
BRANCH  35  36
ATOM     36  C   UNL A   1      43.111  25.390  27.448  1.00  0.00     0.031 A 
ATOM     37  C   UNL A   1      44.519  25.921  27.427  1.00  0.00     0.074 A 
ATOM     38  C   UNL A   1      42.108  26.134  27.953  1.00  0.00     0.049 A 
ATOM     39  N   UNL A   1      44.973  27.073  27.845  1.00  0.00    -0.248 NA
ATOM     40  C   UNL A   1      45.565  25.021  26.908  1.00  0.00     0.031 C 
ATOM     41  C   UNL A   1      40.719  25.693  28.114  1.00  0.00     0.029 A 
ATOM     42  N   UNL A   1      42.109  27.412  28.452  1.00  0.00    -0.354 N 
ATOM     43  C   UNL A   1      46.352  27.017  27.686  1.00  0.00     0.074 A 
ATOM     44  C   UNL A   1      46.669  25.701  27.178  1.00  0.00     0.031 C 
ATOM     45  C   UNL A   1      40.003  26.689  28.662  1.00  0.00     0.029 A 
ATOM     46  C   UNL A   1      40.881  27.828  28.911  1.00  0.00     0.049 A 
ATOM     47  H   UNL A   1      42.914  27.978  28.478  1.00  0.00     0.167 HD
ATOM     48  C   UNL A   1      47.272  27.986  27.899  1.00  0.00     0.034 A 
ATOM     49  C   UNL A   1      40.509  28.999  29.463  1.00  0.00     0.034 A 
ATOM     50  C   UNL A   1      46.941  29.316  28.327  1.00  0.00     0.049 A 
ATOM     51  C   UNL A   1      41.535  30.092  29.605  1.00  0.00     0.074 A 
ATOM     52  C   UNL A   1      47.779  30.405  28.478  1.00  0.00     0.029 A 
ATOM     53  N   UNL A   1      45.665  29.740  28.662  1.00  0.00    -0.354 N 
ATOM     54  N   UNL A   1      42.809  30.074  29.295  1.00  0.00    -0.248 NA
ATOM     55  C   UNL A   1      41.064  31.382  30.132  1.00  0.00     0.031 C 
ATOM     56  C   UNL A   1      47.009  31.488  28.912  1.00  0.00     0.029 A 
ATOM     57  C   UNL A   1      45.689  31.076  29.014  1.00  0.00     0.049 A 
ATOM     58  H   UNL A   1      44.860  29.173  28.652  1.00  0.00     0.167 HD
ATOM     59  C   UNL A   1      43.282  31.357  29.547  1.00  0.00     0.074 A 
ATOM     60  C   UNL A   1      42.153  32.132  30.020  1.00  0.00     0.031 C 
ATOM     61  C   UNL A   1      44.540  31.847  29.415  1.00  0.00     0.034 A 
BRANCH  48  62
ATOM     62  C   UNL A   1      48.711  27.661  27.597  1.00  0.00     0.023 A 
ATOM     63  C   UNL A   1      49.536  27.154  28.623  1.00  0.00     0.012 A 
ATOM     64  C   UNL A   1      49.238  27.820  26.301  1.00  0.00     0.148 A 
ATOM     65  C   UNL A   1      50.872  26.847  28.374  1.00  0.00     0.002 A 
ATOM     66  C   UNL A   1      50.559  27.468  26.050  1.00  0.00     0.091 A 
ATOM     67  F   UNL A   1      48.447  28.327  25.345  1.00  0.00    -0.205 F 
ATOM     68  C   UNL A   1      51.380  26.994  27.086  1.00  0.00     0.022 A 
BRANCH  66  69
ATOM     69  S   UNL A   1      51.285  27.547  24.409  1.00  0.00     0.127 S 
ATOM     70  O   UNL A   1      51.336  28.989  24.178  1.00  0.00    -0.237 OA
ATOM     71  O   UNL A   1      52.590  26.918  24.619  1.00  0.00    -0.237 OA
ATOM     72  O   UNL A   1      50.388  26.803  23.537  1.00  0.00    -0.744 OA
ENDBRANCH  66  69
ENDBRANCH  48  62
BRANCH  49  73
ATOM     73  C   UNL A   1      39.083  29.233  29.830  1.00  0.00     0.023 A 
ATOM     74  C   UNL A   1      38.644  28.898  31.126  1.00  0.00     0.012 A 
ATOM     75  C   UNL A   1      38.171  29.806  28.924  1.00  0.00     0.148 A 
ATOM     76  C   UNL A   1      37.315  29.096  31.503  1.00  0.00     0.002 A 
ATOM     77  C   UNL A   1      36.860  30.049  29.322  1.00  0.00     0.091 A 
ATOM     78  F   UNL A   1      38.604  30.109  27.692  1.00  0.00    -0.205 F 
ATOM     79  C   UNL A   1      36.426  29.680  30.604  1.00  0.00     0.022 A 
BRANCH  77  80
ATOM     80  S   UNL A   1      35.682  30.912  28.275  1.00  0.00     0.127 S 
ATOM     81  O   UNL A   1      36.480  32.034  27.788  1.00  0.00    -0.237 OA
ATOM     82  O   UNL A   1      35.368  29.896  27.271  1.00  0.00    -0.237 OA
ATOM     83  O   UNL A   1      34.567  31.256  29.146  1.00  0.00    -0.744 OA
ENDBRANCH  77  80
ENDBRANCH  49  73
BRANCH  61  84
ATOM     84  C   UNL A   1      44.763  33.299  29.737  1.00  0.00     0.023 A 
ATOM     85  C   UNL A   1      45.186  33.673  31.027  1.00  0.00     0.012 A 
ATOM     86  C   UNL A   1      44.640  34.281  28.735  1.00  0.00     0.148 A 
ATOM     87  C   UNL A   1      45.457  35.008  31.323  1.00  0.00     0.002 A 
ATOM     88  C   UNL A   1      44.958  35.602  29.023  1.00  0.00     0.091 A 
ATOM     89  F   UNL A   1      44.216  33.906  27.519  1.00  0.00    -0.205 F 
ATOM     90  C   UNL A   1      45.356  35.969  30.319  1.00  0.00     0.022 A 
BRANCH  88  91
ATOM     91  S   UNL A   1      44.952  36.884  27.766  1.00  0.00     0.127 S 
ATOM     92  O   UNL A   1      45.349  38.061  28.536  1.00  0.00    -0.237 OA
ATOM     93  O   UNL A   1      45.963  36.403  26.824  1.00  0.00    -0.237 OA
ATOM     94  O   UNL A   1      43.597  36.911  27.230  1.00  0.00    -0.744 OA
ENDBRANCH  88  91
ENDBRANCH  61  84
ENDBRANCH  35  36
ENDBRANCH  27  30
ENDBRANCH  25  26
ENDBRANCH  24  25
ENDBRANCH   1  24
TORSDOF 18
ENDMDL
