MODEL 1
REMARK VINA RESULT:     -11.7      0.000      0.000
REMARK SMILES CC(C)Cc1ccc([C@H](C)C(=O)NCCCCNC(=O)c2ccc(-c3c4nc(c(-c5cccc(S(=O)(=O)[O-])c5F)c5ccc([nH]5)c(-c5cccc(S(=O)(=O)[O-])c5F)c5nc(c(-c6cccc(S(=O)(=O)[O-])c6F)c6ccc3[nH]6)C=C5)C=C4)cc2)cc1
REMARK SMILES IDX 15 1 14 2 13 3 11 4 12 5 9 7 10 8 8 9 5 10 6 11 85 12 7 13
REMARK SMILES IDX 84 14 4 15 2 16 1 17 3 18 16 19 17 20 18 21 19 22 20 24
REMARK SMILES IDX 21 25 22 26 83 27 23 28 82 29 24 30 25 31 26 32 76 33 27 34
REMARK SMILES IDX 81 35 75 36 77 37 28 38 80 39 74 40 73 41 29 43 61 44 41 45
REMARK SMILES IDX 60 46 42 47 45 48 59 49 78 50 43 51 44 52 58 54 79 55 46 56
REMARK SMILES IDX 30 57 31 58 39 59 32 60 34 61 40 62 33 63 35 64 36 65 37 66
REMARK SMILES IDX 38 67 62 68 63 69 71 70 64 71 66 72 72 73 65 74 67 75 68 76
REMARK SMILES IDX 69 77 70 78 47 79 48 80 56 81 49 82 51 83 57 84 50 85 52 86
REMARK SMILES IDX 53 87 54 88 55 89
REMARK H PARENT 13 6 18 23 77 42 45 53
REMARK Flexibility Score: inf
ROOT
ATOM      1  C   UNL A   1      31.696  28.907  27.356  1.00  0.00     0.023 C 
ENDROOT
BRANCH   1   2
ATOM      2  C   UNL A   1      32.118  27.587  26.728  1.00  0.00     0.116 C 
BRANCH   2   3
ATOM      3  N   UNL A   1      31.151  26.518  26.900  1.00  0.00    -0.356 N 
ATOM      4  C   UNL A   1      30.674  25.593  26.016  1.00  0.00     0.227 C 
ATOM      5  O   UNL A   1      30.037  24.647  26.494  1.00  0.00    -0.274 OA
ATOM      6  H   UNL A   1      30.775  26.448  27.808  1.00  0.00     0.163 HD
BRANCH   4   7
ATOM      7  C   UNL A   1      30.866  25.691  24.495  1.00  0.00     0.105 C 
ATOM      8  C   UNL A   1      30.660  24.350  23.787  1.00  0.00     0.023 C 
BRANCH   7   9
ATOM      9  C   UNL A   1      30.185  26.854  23.788  1.00  0.00    -0.036 A 
ATOM     10  C   UNL A   1      28.874  29.008  22.484  1.00  0.00    -0.048 A 
ATOM     11  C   UNL A   1      30.265  28.917  22.501  1.00  0.00     0.004 A 
ATOM     12  C   UNL A   1      28.135  28.037  23.167  1.00  0.00     0.004 A 
ATOM     13  C   UNL A   1      30.895  27.825  23.084  1.00  0.00     0.005 A 
ATOM     14  C   UNL A   1      28.785  26.982  23.826  1.00  0.00     0.005 A 
BRANCH  10  15
ATOM     15  C   UNL A   1      28.210  30.105  21.684  1.00  0.00     0.038 C 
BRANCH  15  16
ATOM     16  C   UNL A   1      28.431  31.512  22.293  1.00  0.00    -0.013 C 
ATOM     17  C   UNL A   1      28.087  32.624  21.298  1.00  0.00     0.008 C 
ATOM     18  C   UNL A   1      27.624  31.681  23.578  1.00  0.00     0.008 C 
ENDBRANCH  15  16
ENDBRANCH  10  15
ENDBRANCH   7   9
ENDBRANCH   4   7
ENDBRANCH   2   3
ENDBRANCH   1   2
BRANCH   1  19
ATOM     19  C   UNL A   1      31.866  30.138  26.462  1.00  0.00     0.023 C 
BRANCH  19  20
ATOM     20  C   UNL A   1      32.980  31.115  26.844  1.00  0.00     0.116 C 
BRANCH  20  21
ATOM     21  N   UNL A   1      32.523  32.487  27.034  1.00  0.00    -0.352 N 
ATOM     22  C   UNL A   1      33.041  33.474  27.839  1.00  0.00     0.251 C 
ATOM     23  H   UNL A   1      31.730  32.742  26.510  1.00  0.00     0.163 HD
ATOM     24  O   UNL A   1      32.476  34.561  27.926  1.00  0.00    -0.269 OA
BRANCH  22  25
ATOM     25  C   UNL A   1      34.257  33.204  28.636  1.00  0.00     0.039 A 
ATOM     26  C   UNL A   1      34.115  32.708  29.934  1.00  0.00     0.014 A 
ATOM     27  C   UNL A   1      35.526  33.378  28.080  1.00  0.00     0.014 A 
ATOM     28  C   UNL A   1      35.245  32.284  30.637  1.00  0.00     0.010 A 
ATOM     29  C   UNL A   1      36.643  32.893  28.755  1.00  0.00     0.010 A 
ATOM     30  C   UNL A   1      36.512  32.321  30.031  1.00  0.00    -0.014 A 
BRANCH  30  31
ATOM     31  C   UNL A   1      37.698  31.701  30.679  1.00  0.00     0.031 A 
ATOM     32  C   UNL A   1      38.482  30.629  29.976  1.00  0.00     0.074 A 
ATOM     33  C   UNL A   1      37.996  32.026  31.954  1.00  0.00     0.049 A 
ATOM     34  N   UNL A   1      39.490  29.923  30.418  1.00  0.00    -0.248 NA
ATOM     35  C   UNL A   1      38.063  30.287  28.606  1.00  0.00     0.031 C 
ATOM     36  C   UNL A   1      37.258  32.988  32.777  1.00  0.00     0.029 A 
ATOM     37  N   UNL A   1      38.977  31.559  32.793  1.00  0.00    -0.354 N 
ATOM     38  C   UNL A   1      39.804  29.031  29.400  1.00  0.00     0.074 A 
ATOM     39  C   UNL A   1      38.861  29.265  28.328  1.00  0.00     0.031 C 
ATOM     40  C   UNL A   1      37.811  33.038  33.999  1.00  0.00     0.029 A 
ATOM     41  C   UNL A   1      38.922  32.094  34.059  1.00  0.00     0.049 A 
ATOM     42  H   UNL A   1      39.657  30.904  32.515  1.00  0.00     0.167 HD
ATOM     43  C   UNL A   1      40.806  28.120  29.351  1.00  0.00     0.034 A 
ATOM     44  C   UNL A   1      39.674  31.849  35.152  1.00  0.00     0.034 A 
ATOM     45  C   UNL A   1      41.770  27.922  30.398  1.00  0.00     0.049 A 
ATOM     46  C   UNL A   1      40.803  30.859  35.054  1.00  0.00     0.074 A 
ATOM     47  C   UNL A   1      42.881  27.096  30.398  1.00  0.00     0.029 A 
ATOM     48  N   UNL A   1      41.738  28.547  31.634  1.00  0.00    -0.354 N 
ATOM     49  N   UNL A   1      41.193  30.153  34.022  1.00  0.00    -0.248 NA
ATOM     50  C   UNL A   1      41.616  30.657  36.263  1.00  0.00     0.031 C 
ATOM     51  C   UNL A   1      43.511  27.210  31.642  1.00  0.00     0.029 A 
ATOM     52  C   UNL A   1      42.802  28.118  32.410  1.00  0.00     0.049 A 
ATOM     53  H   UNL A   1      41.059  29.200  31.919  1.00  0.00     0.167 HD
ATOM     54  C   UNL A   1      42.312  29.445  34.445  1.00  0.00     0.074 A 
ATOM     55  C   UNL A   1      42.553  29.827  35.821  1.00  0.00     0.031 C 
ATOM     56  C   UNL A   1      43.062  28.546  33.761  1.00  0.00     0.034 A 
BRANCH  43  57
ATOM     57  C   UNL A   1      40.950  27.310  28.090  1.00  0.00     0.023 A 
ATOM     58  C   UNL A   1      41.580  27.888  26.968  1.00  0.00     0.012 A 
ATOM     59  C   UNL A   1      40.523  25.970  28.028  1.00  0.00     0.148 A 
ATOM     60  C   UNL A   1      41.756  27.155  25.796  1.00  0.00     0.002 A 
ATOM     61  C   UNL A   1      40.738  25.233  26.869  1.00  0.00     0.091 A 
ATOM     62  F   UNL A   1      39.905  25.445  29.096  1.00  0.00    -0.205 F 
ATOM     63  C   UNL A   1      41.345  25.826  25.749  1.00  0.00     0.022 A 
BRANCH  61  64
ATOM     64  S   UNL A   1      40.311  23.493  26.736  1.00  0.00     0.127 S 
ATOM     65  O   UNL A   1      38.954  23.563  26.198  1.00  0.00    -0.237 OA
ATOM     66  O   UNL A   1      41.315  22.999  25.791  1.00  0.00    -0.237 OA
ATOM     67  O   UNL A   1      40.427  22.948  28.081  1.00  0.00    -0.744 OA
ENDBRANCH  61  64
ENDBRANCH  43  57
BRANCH  44  68
ATOM     68  C   UNL A   1      39.425  32.605  36.411  1.00  0.00     0.023 A 
ATOM     69  C   UNL A   1      40.097  33.825  36.624  1.00  0.00     0.012 A 
ATOM     70  C   UNL A   1      38.509  32.149  37.378  1.00  0.00     0.148 A 
ATOM     71  C   UNL A   1      39.883  34.562  37.789  1.00  0.00     0.002 A 
ATOM     72  C   UNL A   1      38.261  32.915  38.512  1.00  0.00     0.091 A 
ATOM     73  F   UNL A   1      37.891  30.978  37.166  1.00  0.00    -0.205 F 
ATOM     74  C   UNL A   1      38.958  34.113  38.727  1.00  0.00     0.022 A 
BRANCH  72  75
ATOM     75  S   UNL A   1      36.987  32.481  39.703  1.00  0.00     0.127 S 
ATOM     76  O   UNL A   1      35.782  32.520  38.879  1.00  0.00    -0.237 OA
ATOM     77  O   UNL A   1      37.405  31.142  40.121  1.00  0.00    -0.237 OA
ATOM     78  O   UNL A   1      37.075  33.488  40.752  1.00  0.00    -0.744 OA
ENDBRANCH  72  75
ENDBRANCH  44  68
BRANCH  56  79
ATOM     79  C   UNL A   1      44.229  27.920  34.478  1.00  0.00     0.023 A 
ATOM     80  C   UNL A   1      45.479  28.569  34.471  1.00  0.00     0.012 A 
ATOM     81  C   UNL A   1      44.068  26.736  35.225  1.00  0.00     0.148 A 
ATOM     82  C   UNL A   1      46.559  28.037  35.174  1.00  0.00     0.002 A 
ATOM     83  C   UNL A   1      45.136  26.235  35.960  1.00  0.00     0.091 A 
ATOM     84  F   UNL A   1      42.875  26.122  35.204  1.00  0.00    -0.205 F 
ATOM     85  C   UNL A   1      46.384  26.877  35.927  1.00  0.00     0.022 A 
BRANCH  83  86
ATOM     86  S   UNL A   1      44.980  24.800  37.031  1.00  0.00     0.127 S 
ATOM     87  O   UNL A   1      46.335  24.681  37.568  1.00  0.00    -0.237 OA
ATOM     88  O   UNL A   1      43.977  25.242  38.000  1.00  0.00    -0.237 OA
ATOM     89  O   UNL A   1      44.549  23.706  36.173  1.00  0.00    -0.744 OA
ENDBRANCH  83  86
ENDBRANCH  56  79
ENDBRANCH  30  31
ENDBRANCH  22  25
ENDBRANCH  20  21
ENDBRANCH  19  20
ENDBRANCH   1  19
TORSDOF 17
ENDMDL
MODEL 2
REMARK VINA RESULT:     -11.4      2.301      3.952
REMARK SMILES CC(C)Cc1ccc([C@H](C)C(=O)NCCCCNC(=O)c2ccc(-c3c4nc(c(-c5cccc(S(=O)(=O)[O-])c5F)c5ccc([nH]5)c(-c5cccc(S(=O)(=O)[O-])c5F)c5nc(c(-c6cccc(S(=O)(=O)[O-])c6F)c6ccc3[nH]6)C=C5)C=C4)cc2)cc1
REMARK SMILES IDX 15 1 14 2 13 3 11 4 12 5 9 7 10 8 8 9 5 10 6 11 85 12 7 13
REMARK SMILES IDX 84 14 4 15 2 16 1 17 3 18 16 19 17 20 18 21 19 22 20 24
REMARK SMILES IDX 21 25 22 26 83 27 23 28 82 29 24 30 25 31 26 32 76 33 27 34
REMARK SMILES IDX 81 35 75 36 77 37 28 38 80 39 74 40 73 41 29 43 61 44 41 45
REMARK SMILES IDX 60 46 42 47 45 48 59 49 78 50 43 51 44 52 58 54 79 55 46 56
REMARK SMILES IDX 30 57 31 58 39 59 32 60 34 61 40 62 33 63 35 64 36 65 37 66
REMARK SMILES IDX 38 67 62 68 63 69 71 70 64 71 66 72 72 73 65 74 67 75 68 76
REMARK SMILES IDX 69 77 70 78 47 79 48 80 56 81 49 82 51 83 57 84 50 85 52 86
REMARK SMILES IDX 53 87 54 88 55 89
REMARK H PARENT 13 6 18 23 77 42 45 53
REMARK Flexibility Score: inf
ROOT
ATOM      1  C   UNL A   1      32.278  29.557  26.943  1.00  0.00     0.023 C 
ENDROOT
BRANCH   1   2
ATOM      2  C   UNL A   1      33.691  29.117  26.592  1.00  0.00     0.116 C 
BRANCH   2   3
ATOM      3  N   UNL A   1      34.016  29.251  25.183  1.00  0.00    -0.356 N 
ATOM      4  C   UNL A   1      33.506  28.619  24.084  1.00  0.00     0.227 C 
ATOM      5  O   UNL A   1      33.798  29.102  22.984  1.00  0.00    -0.274 OA
ATOM      6  H   UNL A   1      34.723  29.908  24.986  1.00  0.00     0.163 HD
BRANCH   4   7
ATOM      7  C   UNL A   1      32.635  27.356  24.156  1.00  0.00     0.105 C 
ATOM      8  C   UNL A   1      31.649  27.253  22.990  1.00  0.00     0.023 C 
BRANCH   7   9
ATOM      9  C   UNL A   1      33.346  26.045  24.459  1.00  0.00    -0.036 A 
ATOM     10  C   UNL A   1      34.657  23.601  25.066  1.00  0.00    -0.048 A 
ATOM     11  C   UNL A   1      34.691  24.135  23.779  1.00  0.00     0.004 A 
ATOM     12  C   UNL A   1      33.920  24.274  26.046  1.00  0.00     0.004 A 
ATOM     13  C   UNL A   1      34.103  25.364  23.507  1.00  0.00     0.005 A 
ATOM     14  C   UNL A   1      33.258  25.472  25.740  1.00  0.00     0.005 A 
BRANCH  10  15
ATOM     15  C   UNL A   1      35.460  22.359  25.378  1.00  0.00     0.038 C 
BRANCH  15  16
ATOM     16  C   UNL A   1      36.943  22.476  24.947  1.00  0.00    -0.013 C 
ATOM     17  C   UNL A   1      37.674  23.581  25.715  1.00  0.00     0.008 C 
ATOM     18  C   UNL A   1      37.666  21.142  25.117  1.00  0.00     0.008 C 
ENDBRANCH  15  16
ENDBRANCH  10  15
ENDBRANCH   7   9
ENDBRANCH   4   7
ENDBRANCH   2   3
ENDBRANCH   1   2
BRANCH   1  19
ATOM     19  C   UNL A   1      32.010  31.058  26.810  1.00  0.00     0.023 C 
BRANCH  19  20
ATOM     20  C   UNL A   1      33.083  31.998  27.360  1.00  0.00     0.116 C 
BRANCH  20  21
ATOM     21  N   UNL A   1      32.630  33.372  27.541  1.00  0.00    -0.352 N 
ATOM     22  C   UNL A   1      33.107  34.344  28.390  1.00  0.00     0.251 C 
ATOM     23  H   UNL A   1      31.872  33.643  26.973  1.00  0.00     0.163 HD
ATOM     24  O   UNL A   1      32.549  35.435  28.456  1.00  0.00    -0.269 OA
BRANCH  22  25
ATOM     25  C   UNL A   1      34.269  34.051  29.255  1.00  0.00     0.039 A 
ATOM     26  C   UNL A   1      34.063  33.342  30.442  1.00  0.00     0.014 A 
ATOM     27  C   UNL A   1      35.559  34.416  28.864  1.00  0.00     0.014 A 
ATOM     28  C   UNL A   1      35.163  32.906  31.183  1.00  0.00     0.010 A 
ATOM     29  C   UNL A   1      36.655  33.922  29.568  1.00  0.00     0.010 A 
ATOM     30  C   UNL A   1      36.469  33.143  30.722  1.00  0.00    -0.014 A 
BRANCH  30  31
ATOM     31  C   UNL A   1      37.648  32.528  31.385  1.00  0.00     0.031 A 
ATOM     32  C   UNL A   1      38.354  31.358  30.760  1.00  0.00     0.074 A 
ATOM     33  C   UNL A   1      38.008  32.953  32.614  1.00  0.00     0.049 A 
ATOM     34  N   UNL A   1      39.344  30.646  31.232  1.00  0.00    -0.248 NA
ATOM     35  C   UNL A   1      37.870  30.913  29.443  1.00  0.00     0.031 C 
ATOM     36  C   UNL A   1      37.347  34.021  33.367  1.00  0.00     0.029 A 
ATOM     37  N   UNL A   1      38.997  32.517  33.460  1.00  0.00    -0.354 N 
ATOM     38  C   UNL A   1      39.579  29.650  30.293  1.00  0.00     0.074 A 
ATOM     39  C   UNL A   1      38.608  29.832  29.235  1.00  0.00     0.031 C 
ATOM     40  C   UNL A   1      37.947  34.155  34.561  1.00  0.00     0.029 A 
ATOM     41  C   UNL A   1      39.015  33.167  34.672  1.00  0.00     0.049 A 
ATOM     42  H   UNL A   1      39.635  31.805  33.222  1.00  0.00     0.167 HD
ATOM     43  C   UNL A   1      40.535  28.690  30.295  1.00  0.00     0.034 A 
ATOM     44  C   UNL A   1      39.794  32.986  35.757  1.00  0.00     0.034 A 
ATOM     45  C   UNL A   1      41.527  28.541  31.324  1.00  0.00     0.049 A 
ATOM     46  C   UNL A   1      40.872  31.936  35.716  1.00  0.00     0.074 A 
ATOM     47  C   UNL A   1      42.598  27.664  31.364  1.00  0.00     0.029 A 
ATOM     48  N   UNL A   1      41.570  29.277  32.497  1.00  0.00    -0.354 N 
ATOM     49  N   UNL A   1      41.190  31.120  34.741  1.00  0.00    -0.248 NA
ATOM     50  C   UNL A   1      41.720  31.805  36.911  1.00  0.00     0.031 C 
ATOM     51  C   UNL A   1      43.278  27.860  32.571  1.00  0.00     0.029 A 
ATOM     52  C   UNL A   1      42.641  28.870  33.274  1.00  0.00     0.049 A 
ATOM     53  H   UNL A   1      40.933  29.987  32.742  1.00  0.00     0.167 HD
ATOM     54  C   UNL A   1      42.290  30.399  35.192  1.00  0.00     0.074 A 
ATOM     55  C   UNL A   1      42.599  30.894  36.518  1.00  0.00     0.031 C 
ATOM     56  C   UNL A   1      42.971  29.405  34.570  1.00  0.00     0.034 A 
BRANCH  43  57
ATOM     57  C   UNL A   1      40.594  27.763  29.111  1.00  0.00     0.023 A 
ATOM     58  C   UNL A   1      39.674  26.697  29.022  1.00  0.00     0.012 A 
ATOM     59  C   UNL A   1      41.509  27.974  28.062  1.00  0.00     0.148 A 
ATOM     60  C   UNL A   1      39.684  25.840  27.924  1.00  0.00     0.002 A 
ATOM     61  C   UNL A   1      41.486  27.139  26.951  1.00  0.00     0.091 A 
ATOM     62  F   UNL A   1      42.391  28.978  28.174  1.00  0.00    -0.205 F 
ATOM     63  C   UNL A   1      40.581  26.066  26.885  1.00  0.00     0.022 A 
BRANCH  61  64
ATOM     64  S   UNL A   1      42.552  27.392  25.527  1.00  0.00     0.127 S 
ATOM     65  O   UNL A   1      41.995  28.618  24.956  1.00  0.00    -0.237 OA
ATOM     66  O   UNL A   1      43.867  27.555  26.149  1.00  0.00    -0.237 OA
ATOM     67  O   UNL A   1      42.414  26.198  24.705  1.00  0.00    -0.744 OA
ENDBRANCH  61  64
ENDBRANCH  43  57
BRANCH  44  68
ATOM     68  C   UNL A   1      39.628  33.866  36.949  1.00  0.00     0.023 A 
ATOM     69  C   UNL A   1      40.026  35.214  36.867  1.00  0.00     0.012 A 
ATOM     70  C   UNL A   1      39.051  33.391  38.142  1.00  0.00     0.148 A 
ATOM     71  C   UNL A   1      39.879  36.068  37.961  1.00  0.00     0.002 A 
ATOM     72  C   UNL A   1      38.858  34.261  39.210  1.00  0.00     0.091 A 
ATOM     73  F   UNL A   1      38.693  32.101  38.206  1.00  0.00    -0.205 F 
ATOM     74  C   UNL A   1      39.286  35.594  39.127  1.00  0.00     0.022 A 
BRANCH  72  75
ATOM     75  S   UNL A   1      37.979  33.771  40.699  1.00  0.00     0.127 S 
ATOM     76  O   UNL A   1      38.877  32.763  41.258  1.00  0.00    -0.237 OA
ATOM     77  O   UNL A   1      37.921  35.028  41.446  1.00  0.00    -0.237 OA
ATOM     78  O   UNL A   1      36.683  33.287  40.244  1.00  0.00    -0.744 OA
ENDBRANCH  72  75
ENDBRANCH  44  68
BRANCH  56  79
ATOM     79  C   UNL A   1      44.134  28.790  35.304  1.00  0.00     0.023 A 
ATOM     80  C   UNL A   1      45.422  29.339  35.149  1.00  0.00     0.012 A 
ATOM     81  C   UNL A   1      43.938  27.726  36.206  1.00  0.00     0.148 A 
ATOM     82  C   UNL A   1      46.504  28.821  35.861  1.00  0.00     0.002 A 
ATOM     83  C   UNL A   1      45.012  27.244  36.945  1.00  0.00     0.091 A 
ATOM     84  F   UNL A   1      42.708  27.205  36.324  1.00  0.00    -0.205 F 
ATOM     85  C   UNL A   1      46.296  27.783  36.767  1.00  0.00     0.022 A 
BRANCH  83  86
ATOM     86  S   UNL A   1      44.823  25.972  38.201  1.00  0.00     0.127 S 
ATOM     87  O   UNL A   1      43.874  26.599  39.120  1.00  0.00    -0.237 OA
ATOM     88  O   UNL A   1      44.279  24.853  37.433  1.00  0.00    -0.237 OA
ATOM     89  O   UNL A   1      46.157  25.743  38.740  1.00  0.00    -0.744 OA
ENDBRANCH  83  86
ENDBRANCH  56  79
ENDBRANCH  30  31
ENDBRANCH  22  25
ENDBRANCH  20  21
ENDBRANCH  19  20
ENDBRANCH   1  19
TORSDOF 17
ENDMDL
MODEL 3
REMARK VINA RESULT:     -11.3      2.404      8.632
REMARK SMILES CC(C)Cc1ccc([C@H](C)C(=O)NCCCCNC(=O)c2ccc(-c3c4nc(c(-c5cccc(S(=O)(=O)[O-])c5F)c5ccc([nH]5)c(-c5cccc(S(=O)(=O)[O-])c5F)c5nc(c(-c6cccc(S(=O)(=O)[O-])c6F)c6ccc3[nH]6)C=C5)C=C4)cc2)cc1
REMARK SMILES IDX 15 1 14 2 13 3 11 4 12 5 9 7 10 8 8 9 5 10 6 11 85 12 7 13
REMARK SMILES IDX 84 14 4 15 2 16 1 17 3 18 16 19 17 20 18 21 19 22 20 24
REMARK SMILES IDX 21 25 22 26 83 27 23 28 82 29 24 30 25 31 26 32 76 33 27 34
REMARK SMILES IDX 81 35 75 36 77 37 28 38 80 39 74 40 73 41 29 43 61 44 41 45
REMARK SMILES IDX 60 46 42 47 45 48 59 49 78 50 43 51 44 52 58 54 79 55 46 56
REMARK SMILES IDX 30 57 31 58 39 59 32 60 34 61 40 62 33 63 35 64 36 65 37 66
REMARK SMILES IDX 38 67 62 68 63 69 71 70 64 71 66 72 72 73 65 74 67 75 68 76
REMARK SMILES IDX 69 77 70 78 47 79 48 80 56 81 49 82 51 83 57 84 50 85 52 86
REMARK SMILES IDX 53 87 54 88 55 89
REMARK H PARENT 13 6 18 23 77 42 45 53
REMARK Flexibility Score: inf
ROOT
ATOM      1  C   UNL A   1      31.975  30.373  26.754  1.00  0.00     0.023 C 
ENDROOT
BRANCH   1   2
ATOM      2  C   UNL A   1      33.215  29.756  26.123  1.00  0.00     0.116 C 
BRANCH   2   3
ATOM      3  N   UNL A   1      33.159  29.674  24.675  1.00  0.00    -0.356 N 
ATOM      4  C   UNL A   1      32.562  28.761  23.853  1.00  0.00     0.227 C 
ATOM      5  O   UNL A   1      32.468  29.068  22.659  1.00  0.00    -0.274 OA
ATOM      6  H   UNL A   1      33.632  30.400  24.205  1.00  0.00     0.163 HD
BRANCH   4   7
ATOM      7  C   UNL A   1      32.042  27.397  24.332  1.00  0.00     0.105 C 
ATOM      8  C   UNL A   1      30.591  27.141  23.918  1.00  0.00     0.023 C 
BRANCH   7   9
ATOM      9  C   UNL A   1      32.951  26.196  24.109  1.00  0.00    -0.036 A 
ATOM     10  C   UNL A   1      34.627  23.951  23.652  1.00  0.00    -0.048 A 
ATOM     11  C   UNL A   1      34.763  24.729  24.801  1.00  0.00     0.004 A 
ATOM     12  C   UNL A   1      33.673  24.330  22.701  1.00  0.00     0.004 A 
ATOM     13  C   UNL A   1      33.896  25.785  25.047  1.00  0.00     0.005 A 
ATOM     14  C   UNL A   1      32.858  25.451  22.920  1.00  0.00     0.005 A 
BRANCH  10  15
ATOM     15  C   UNL A   1      35.459  22.699  23.497  1.00  0.00     0.038 C 
BRANCH  15  16
ATOM     16  C   UNL A   1      35.598  21.901  24.817  1.00  0.00    -0.013 C 
ATOM     17  C   UNL A   1      34.531  20.811  24.939  1.00  0.00     0.008 C 
ATOM     18  C   UNL A   1      36.994  21.296  24.943  1.00  0.00     0.008 C 
ENDBRANCH  15  16
ENDBRANCH  10  15
ENDBRANCH   7   9
ENDBRANCH   4   7
ENDBRANCH   2   3
ENDBRANCH   1   2
BRANCH   1  19
ATOM     19  C   UNL A   1      31.916  31.903  26.715  1.00  0.00     0.023 C 
BRANCH  19  20
ATOM     20  C   UNL A   1      32.934  32.651  27.576  1.00  0.00     0.116 C 
BRANCH  20  21
ATOM     21  N   UNL A   1      32.566  34.033  27.861  1.00  0.00    -0.352 N 
ATOM     22  C   UNL A   1      33.114  34.912  28.766  1.00  0.00     0.251 C 
ATOM     23  H   UNL A   1      31.817  34.386  27.329  1.00  0.00     0.163 HD
ATOM     24  O   UNL A   1      32.622  36.027  28.920  1.00  0.00    -0.269 OA
BRANCH  22  25
ATOM     25  C   UNL A   1      34.270  34.492  29.585  1.00  0.00     0.039 A 
ATOM     26  C   UNL A   1      34.036  33.930  30.842  1.00  0.00     0.014 A 
ATOM     27  C   UNL A   1      35.571  34.593  29.086  1.00  0.00     0.014 A 
ATOM     28  C   UNL A   1      35.098  33.370  31.555  1.00  0.00     0.010 A 
ATOM     29  C   UNL A   1      36.616  33.974  29.767  1.00  0.00     0.010 A 
ATOM     30  C   UNL A   1      36.388  33.337  30.997  1.00  0.00    -0.014 A 
BRANCH  30  31
ATOM     31  C   UNL A   1      37.492  32.581  31.644  1.00  0.00     0.031 A 
ATOM     32  C   UNL A   1      38.059  33.032  32.961  1.00  0.00     0.074 A 
ATOM     33  C   UNL A   1      38.062  31.552  30.983  1.00  0.00     0.049 A 
ATOM     34  N   UNL A   1      39.072  32.545  33.631  1.00  0.00    -0.248 NA
ATOM     35  C   UNL A   1      37.422  34.196  33.598  1.00  0.00     0.031 C 
ATOM     36  C   UNL A   1      37.662  31.073  29.658  1.00  0.00     0.029 A 
ATOM     37  N   UNL A   1      39.121  30.747  31.319  1.00  0.00    -0.354 N 
ATOM     38  C   UNL A   1      39.217  33.361  34.745  1.00  0.00     0.074 A 
ATOM     39  C   UNL A   1      38.206  34.392  34.648  1.00  0.00     0.031 C 
ATOM     40  C   UNL A   1      38.465  30.059  29.295  1.00  0.00     0.029 A 
ATOM     41  C   UNL A   1      39.453  29.835  30.344  1.00  0.00     0.049 A 
ATOM     42  H   UNL A   1      39.599  30.814  32.177  1.00  0.00     0.167 HD
ATOM     43  C   UNL A   1      40.094  33.246  35.772  1.00  0.00     0.034 A 
ATOM     44  C   UNL A   1      40.447  28.925  30.291  1.00  0.00     0.034 A 
ATOM     45  C   UNL A   1      41.066  32.194  35.890  1.00  0.00     0.049 A 
ATOM     46  C   UNL A   1      41.381  28.795  31.463  1.00  0.00     0.074 A 
ATOM     47  C   UNL A   1      41.927  31.934  36.942  1.00  0.00     0.029 A 
ATOM     48  N   UNL A   1      41.314  31.232  34.924  1.00  0.00    -0.354 N 
ATOM     49  N   UNL A   1      41.389  29.465  32.590  1.00  0.00    -0.248 NA
ATOM     50  C   UNL A   1      42.423  27.761  31.373  1.00  0.00     0.031 C 
ATOM     51  C   UNL A   1      42.708  30.824  36.603  1.00  0.00     0.029 A 
ATOM     52  C   UNL A   1      42.323  30.383  35.348  1.00  0.00     0.049 A 
ATOM     53  H   UNL A   1      40.843  31.162  34.062  1.00  0.00     0.167 HD
ATOM     54  C   UNL A   1      42.414  28.917  33.352  1.00  0.00     0.074 A 
ATOM     55  C   UNL A   1      42.989  27.842  32.570  1.00  0.00     0.031 C 
ATOM     56  C   UNL A   1      42.851  29.283  34.583  1.00  0.00     0.034 A 
BRANCH  43  57
ATOM     57  C   UNL A   1      39.995  34.251  36.889  1.00  0.00     0.023 A 
ATOM     58  C   UNL A   1      40.423  35.576  36.664  1.00  0.00     0.012 A 
ATOM     59  C   UNL A   1      39.429  33.909  38.132  1.00  0.00     0.148 A 
ATOM     60  C   UNL A   1      40.318  36.537  37.668  1.00  0.00     0.002 A 
ATOM     61  C   UNL A   1      39.290  34.883  39.114  1.00  0.00     0.091 A 
ATOM     62  F   UNL A   1      39.049  32.640  38.335  1.00  0.00    -0.205 F 
ATOM     63  C   UNL A   1      39.742  36.194  38.887  1.00  0.00     0.022 A 
BRANCH  61  64
ATOM     64  S   UNL A   1      38.494  34.559  40.692  1.00  0.00     0.127 S 
ATOM     65  O   UNL A   1      39.581  33.940  41.449  1.00  0.00    -0.237 OA
ATOM     66  O   UNL A   1      38.132  35.905  41.139  1.00  0.00    -0.237 OA
ATOM     67  O   UNL A   1      37.361  33.693  40.399  1.00  0.00    -0.744 OA
ENDBRANCH  61  64
ENDBRANCH  43  57
BRANCH  44  68
ATOM     68  C   UNL A   1      40.565  28.018  29.114  1.00  0.00     0.023 A 
ATOM     69  C   UNL A   1      39.692  26.918  29.005  1.00  0.00     0.012 A 
ATOM     70  C   UNL A   1      41.503  28.254  28.091  1.00  0.00     0.148 A 
ATOM     71  C   UNL A   1      39.770  26.052  27.914  1.00  0.00     0.002 A 
ATOM     72  C   UNL A   1      41.539  27.419  26.980  1.00  0.00     0.091 A 
ATOM     73  F   UNL A   1      42.335  29.297  28.220  1.00  0.00    -0.205 F 
ATOM     74  C   UNL A   1      40.685  26.309  26.897  1.00  0.00     0.022 A 
BRANCH  72  75
ATOM     75  S   UNL A   1      42.591  27.754  25.562  1.00  0.00     0.127 S 
ATOM     76  O   UNL A   1      43.910  27.847  26.184  1.00  0.00    -0.237 OA
ATOM     77  O   UNL A   1      42.381  26.562  24.738  1.00  0.00    -0.237 OA
ATOM     78  O   UNL A   1      42.075  28.984  24.976  1.00  0.00    -0.744 OA
ENDBRANCH  72  75
ENDBRANCH  44  68
BRANCH  56  79
ATOM     79  C   UNL A   1      43.998  28.507  35.176  1.00  0.00     0.023 A 
ATOM     80  C   UNL A   1      45.319  28.837  34.817  1.00  0.00     0.012 A 
ATOM     81  C   UNL A   1      43.772  27.512  36.147  1.00  0.00     0.148 A 
ATOM     82  C   UNL A   1      46.399  28.170  35.396  1.00  0.00     0.002 A 
ATOM     83  C   UNL A   1      44.853  26.882  36.751  1.00  0.00     0.091 A 
ATOM     84  F   UNL A   1      42.506  27.199  36.460  1.00  0.00    -0.205 F 
ATOM     85  C   UNL A   1      46.166  27.202  36.370  1.00  0.00     0.022 A 
BRANCH  83  86
ATOM     86  S   UNL A   1      44.653  25.690  38.081  1.00  0.00     0.127 S 
ATOM     87  O   UNL A   1      43.926  26.474  39.078  1.00  0.00    -0.237 OA
ATOM     88  O   UNL A   1      43.863  24.637  37.441  1.00  0.00    -0.237 OA
ATOM     89  O   UNL A   1      45.999  25.287  38.463  1.00  0.00    -0.744 OA
ENDBRANCH  83  86
ENDBRANCH  56  79
ENDBRANCH  30  31
ENDBRANCH  22  25
ENDBRANCH  20  21
ENDBRANCH  19  20
ENDBRANCH   1  19
TORSDOF 17
ENDMDL
