MODEL 1
REMARK VINA RESULT:     -12.3      0.000      0.000
REMARK SMILES Cc1nsc(NC(=O)N2CCC[C@@H](C)C2)c1C(=O)NCCCCNC(=O)c1ccc(-c2c3nc(c(-c4cccc(S(=O)(=O)[O-])c4F)c4ccc([nH]4)c(-c4cccc(S(=O)(=O)[O-])c4F)c4nc(c(-c5cccc(S(=O)(=O)[O-])c5F)c5ccc2[nH]5)C=C4)C=C3)cc1
REMARK SMILES IDX 22 1 21 2 20 3 19 4 17 5 18 6 16 8 1 9 2 10 3 11 4 12 5 13
REMARK SMILES IDX 6 14 7 15 8 17 9 18 10 19 15 20 11 21 13 22 12 23 14 24
REMARK SMILES IDX 23 25 24 26 25 27 26 29 27 30 28 31 89 32 29 33 88 34 30 35
REMARK SMILES IDX 31 36 32 37 82 38 33 39 87 40 81 41 83 42 34 43 86 44 80 45
REMARK SMILES IDX 79 46 35 48 67 49 47 50 66 51 48 52 51 53 65 54 84 55 49 56
REMARK SMILES IDX 50 57 64 59 85 60 52 61 36 62 37 63 45 64 38 65 40 66 46 67
REMARK SMILES IDX 39 68 41 69 42 70 43 71 44 72 68 73 69 74 77 75 70 76 72 77
REMARK SMILES IDX 78 78 71 79 73 80 74 81 75 82 76 83 53 84 54 85 62 86 55 87
REMARK SMILES IDX 57 88 63 89 56 90 58 91 59 92 60 93 61 94
REMARK H PARENT 19 7 6 16 24 28 83 47 51 58
REMARK Flexibility Score: inf
ROOT
ATOM      1  C   UNL A   1      37.293  19.975  24.939  1.00  0.00     0.023 C 
ENDROOT
BRANCH   1   2
ATOM      2  C   UNL A   1      36.143  20.971  25.138  1.00  0.00     0.023 C 
BRANCH   2   3
ATOM      3  C   UNL A   1      34.745  20.396  24.898  1.00  0.00     0.116 C 
BRANCH   3   4
ATOM      4  N   UNL A   1      33.927  21.220  24.052  1.00  0.00    -0.352 N 
ATOM      5  C   UNL A   1      33.071  22.261  24.265  1.00  0.00     0.256 C 
ATOM      6  O   UNL A   1      32.754  22.846  23.220  1.00  0.00    -0.269 OA
ATOM      7  H   UNL A   1      34.000  20.978  23.100  1.00  0.00     0.163 HD
BRANCH   5   8
ATOM      8  C   UNL A   1      32.419  22.637  25.531  1.00  0.00     0.097 A 
ATOM      9  C   UNL A   1      33.908  22.267  27.776  1.00  0.00     0.069 C 
ATOM     10  C   UNL A   1      32.685  22.510  26.968  1.00  0.00     0.066 A 
ATOM     11  N   UNL A   1      31.621  22.679  27.766  1.00  0.00    -0.195 NA
ATOM     12  S   UNL A   1      30.331  23.107  26.863  1.00  0.00    -0.017 S 
ATOM     13  C   UNL A   1      31.212  23.352  25.435  1.00  0.00     0.130 A 
BRANCH  13  14
ATOM     14  N   UNL A   1      30.630  23.984  24.344  1.00  0.00    -0.297 N 
ATOM     15  C   UNL A   1      30.478  25.327  24.140  1.00  0.00     0.322 C 
ATOM     16  H   UNL A   1      30.287  23.396  23.633  1.00  0.00     0.172 HD
ATOM     17  O   UNL A   1      29.458  25.754  23.597  1.00  0.00    -0.248 OA
BRANCH  15  18
ATOM     18  N   UNL A   1      31.485  26.177  24.556  1.00  0.00    -0.324 N 
ATOM     19  C   UNL A   1      32.842  26.156  24.007  1.00  0.00     0.121 C 
ATOM     20  C   UNL A   1      31.137  27.372  25.304  1.00  0.00     0.124 C 
ATOM     21  C   UNL A   1      33.908  26.424  25.073  1.00  0.00     0.022 C 
ATOM     22  C   UNL A   1      32.071  27.473  26.514  1.00  0.00     0.005 C 
ATOM     23  C   UNL A   1      33.534  27.548  26.048  1.00  0.00     0.007 C 
ATOM     24  C   UNL A   1      31.704  28.650  27.407  1.00  0.00     0.009 C 
ENDBRANCH  15  18
ENDBRANCH  13  14
ENDBRANCH   5   8
ENDBRANCH   3   4
ENDBRANCH   2   3
ENDBRANCH   1   2
BRANCH   1  25
ATOM     25  C   UNL A   1      38.659  20.476  25.410  1.00  0.00     0.116 C 
BRANCH  25  26
ATOM     26  N   UNL A   1      39.610  19.389  25.626  1.00  0.00    -0.352 N 
ATOM     27  C   UNL A   1      40.952  19.482  25.941  1.00  0.00     0.251 C 
ATOM     28  H   UNL A   1      39.251  18.477  25.536  1.00  0.00     0.163 HD
ATOM     29  O   UNL A   1      41.713  18.557  25.702  1.00  0.00    -0.269 OA
BRANCH  27  30
ATOM     30  C   UNL A   1      41.450  20.712  26.582  1.00  0.00     0.039 A 
ATOM     31  C   UNL A   1      42.020  21.729  25.812  1.00  0.00     0.014 A 
ATOM     32  C   UNL A   1      41.330  20.841  27.967  1.00  0.00     0.014 A 
ATOM     33  C   UNL A   1      42.383  22.921  26.432  1.00  0.00     0.010 A 
ATOM     34  C   UNL A   1      41.618  22.048  28.569  1.00  0.00     0.010 A 
ATOM     35  C   UNL A   1      42.154  23.086  27.806  1.00  0.00    -0.014 A 
BRANCH  35  36
ATOM     36  C   UNL A   1      42.289  24.409  28.414  1.00  0.00     0.031 A 
ATOM     37  C   UNL A   1      41.109  25.298  28.217  1.00  0.00     0.074 A 
ATOM     38  C   UNL A   1      43.283  24.729  29.269  1.00  0.00     0.049 A 
ATOM     39  N   UNL A   1      41.075  26.415  27.568  1.00  0.00    -0.248 NA
ATOM     40  C   UNL A   1      39.785  24.834  28.664  1.00  0.00     0.031 C 
ATOM     41  C   UNL A   1      44.349  23.852  29.760  1.00  0.00     0.029 A 
ATOM     42  N   UNL A   1      43.457  25.863  30.008  1.00  0.00    -0.354 N 
ATOM     43  C   UNL A   1      39.783  26.913  27.730  1.00  0.00     0.074 A 
ATOM     44  C   UNL A   1      38.995  25.816  28.223  1.00  0.00     0.031 C 
ATOM     45  C   UNL A   1      44.882  24.382  30.881  1.00  0.00     0.029 A 
ATOM     46  C   UNL A   1      44.295  25.690  31.110  1.00  0.00     0.049 A 
ATOM     47  H   UNL A   1      43.033  26.724  29.784  1.00  0.00     0.167 HD
ATOM     48  C   UNL A   1      39.535  28.253  27.679  1.00  0.00     0.034 A 
ATOM     49  C   UNL A   1      44.449  26.530  32.165  1.00  0.00     0.034 A 
ATOM     50  C   UNL A   1      40.671  28.965  27.147  1.00  0.00     0.049 A 
ATOM     51  C   UNL A   1      43.994  27.869  31.729  1.00  0.00     0.074 A 
ATOM     52  C   UNL A   1      41.397  28.914  25.972  1.00  0.00     0.029 A 
ATOM     53  N   UNL A   1      41.455  29.639  28.052  1.00  0.00    -0.354 N 
ATOM     54  N   UNL A   1      44.633  28.584  30.848  1.00  0.00    -0.248 NA
ATOM     55  C   UNL A   1      42.605  28.237  31.946  1.00  0.00     0.031 C 
ATOM     56  C   UNL A   1      42.747  29.128  26.371  1.00  0.00     0.029 A 
ATOM     57  C   UNL A   1      42.761  29.382  27.744  1.00  0.00     0.049 A 
ATOM     58  H   UNL A   1      41.133  30.206  28.790  1.00  0.00     0.167 HD
ATOM     59  C   UNL A   1      43.625  29.123  30.062  1.00  0.00     0.074 A 
ATOM     60  C   UNL A   1      42.409  28.993  30.862  1.00  0.00     0.031 C 
ATOM     61  C   UNL A   1      43.819  29.329  28.727  1.00  0.00     0.034 A 
BRANCH  48  62
ATOM     62  C   UNL A   1      38.459  28.996  28.446  1.00  0.00     0.023 A 
ATOM     63  C   UNL A   1      37.690  29.936  27.716  1.00  0.00     0.012 A 
ATOM     64  C   UNL A   1      38.357  29.048  29.853  1.00  0.00     0.148 A 
ATOM     65  C   UNL A   1      36.941  30.932  28.352  1.00  0.00     0.002 A 
ATOM     66  C   UNL A   1      37.550  29.993  30.480  1.00  0.00     0.091 A 
ATOM     67  F   UNL A   1      39.131  28.272  30.612  1.00  0.00    -0.205 F 
ATOM     68  C   UNL A   1      36.871  30.961  29.737  1.00  0.00     0.022 A 
BRANCH  66  69
ATOM     69  S   UNL A   1      37.380  30.052  32.270  1.00  0.00     0.127 S 
ATOM     70  O   UNL A   1      36.313  31.036  32.429  1.00  0.00    -0.237 OA
ATOM     71  O   UNL A   1      37.006  28.672  32.577  1.00  0.00    -0.237 OA
ATOM     72  O   UNL A   1      38.689  30.445  32.777  1.00  0.00    -0.744 OA
ENDBRANCH  66  69
ENDBRANCH  48  62
BRANCH  49  73
ATOM     73  C   UNL A   1      44.790  26.246  33.581  1.00  0.00     0.023 A 
ATOM     74  C   UNL A   1      46.133  26.321  34.005  1.00  0.00     0.012 A 
ATOM     75  C   UNL A   1      43.786  26.180  34.572  1.00  0.00     0.148 A 
ATOM     76  C   UNL A   1      46.461  26.376  35.366  1.00  0.00     0.002 A 
ATOM     77  C   UNL A   1      44.117  26.229  35.923  1.00  0.00     0.091 A 
ATOM     78  F   UNL A   1      42.502  26.173  34.195  1.00  0.00    -0.205 F 
ATOM     79  C   UNL A   1      45.453  26.340  36.325  1.00  0.00     0.022 A 
BRANCH  77  80
ATOM     80  S   UNL A   1      42.856  26.231  37.204  1.00  0.00     0.127 S 
ATOM     81  O   UNL A   1      42.107  27.450  36.896  1.00  0.00    -0.237 OA
ATOM     82  O   UNL A   1      42.145  24.986  36.926  1.00  0.00    -0.237 OA
ATOM     83  O   UNL A   1      43.578  26.280  38.470  1.00  0.00    -0.744 OA
ENDBRANCH  77  80
ENDBRANCH  49  73
BRANCH  61  84
ATOM     84  C   UNL A   1      45.221  29.223  28.180  1.00  0.00     0.023 A 
ATOM     85  C   UNL A   1      46.146  30.284  28.255  1.00  0.00     0.012 A 
ATOM     86  C   UNL A   1      45.670  27.961  27.761  1.00  0.00     0.148 A 
ATOM     87  C   UNL A   1      47.484  30.095  27.899  1.00  0.00     0.002 A 
ATOM     88  C   UNL A   1      47.011  27.761  27.462  1.00  0.00     0.091 A 
ATOM     89  F   UNL A   1      44.778  26.960  27.694  1.00  0.00    -0.205 F 
ATOM     90  C   UNL A   1      47.920  28.829  27.518  1.00  0.00     0.022 A 
BRANCH  88  91
ATOM     91  S   UNL A   1      47.652  26.123  27.114  1.00  0.00     0.127 S 
ATOM     92  O   UNL A   1      49.087  26.375  27.000  1.00  0.00    -0.237 OA
ATOM     93  O   UNL A   1      47.255  25.368  28.304  1.00  0.00    -0.237 OA
ATOM     94  O   UNL A   1      46.990  25.689  25.889  1.00  0.00    -0.744 OA
ENDBRANCH  88  91
ENDBRANCH  61  84
ENDBRANCH  35  36
ENDBRANCH  27  30
ENDBRANCH  25  26
ENDBRANCH   1  25
TORSDOF 16
ENDMDL
MODEL 2
REMARK VINA RESULT:     -12.2      3.925      9.259
REMARK SMILES Cc1nsc(NC(=O)N2CCC[C@@H](C)C2)c1C(=O)NCCCCNC(=O)c1ccc(-c2c3nc(c(-c4cccc(S(=O)(=O)[O-])c4F)c4ccc([nH]4)c(-c4cccc(S(=O)(=O)[O-])c4F)c4nc(c(-c5cccc(S(=O)(=O)[O-])c5F)c5ccc2[nH]5)C=C4)C=C3)cc1
REMARK SMILES IDX 22 1 21 2 20 3 19 4 17 5 18 6 16 8 1 9 2 10 3 11 4 12 5 13
REMARK SMILES IDX 6 14 7 15 8 17 9 18 10 19 15 20 11 21 13 22 12 23 14 24
REMARK SMILES IDX 23 25 24 26 25 27 26 29 27 30 28 31 89 32 29 33 88 34 30 35
REMARK SMILES IDX 31 36 32 37 82 38 33 39 87 40 81 41 83 42 34 43 86 44 80 45
REMARK SMILES IDX 79 46 35 48 67 49 47 50 66 51 48 52 51 53 65 54 84 55 49 56
REMARK SMILES IDX 50 57 64 59 85 60 52 61 36 62 37 63 45 64 38 65 40 66 46 67
REMARK SMILES IDX 39 68 41 69 42 70 43 71 44 72 68 73 69 74 77 75 70 76 72 77
REMARK SMILES IDX 78 78 71 79 73 80 74 81 75 82 76 83 53 84 54 85 62 86 55 87
REMARK SMILES IDX 57 88 63 89 56 90 58 91 59 92 60 93 61 94
REMARK H PARENT 19 7 6 16 24 28 83 47 51 58
REMARK Flexibility Score: inf
ROOT
ATOM      1  C   UNL A   1      33.233  31.761  27.943  1.00  0.00     0.023 C 
ENDROOT
BRANCH   1   2
ATOM      2  C   UNL A   1      34.404  30.903  27.444  1.00  0.00     0.023 C 
BRANCH   2   3
ATOM      3  C   UNL A   1      34.027  29.477  27.034  1.00  0.00     0.116 C 
BRANCH   3   4
ATOM      4  N   UNL A   1      32.804  29.016  27.632  1.00  0.00    -0.352 N 
ATOM      5  C   UNL A   1      31.847  28.109  27.281  1.00  0.00     0.256 C 
ATOM      6  O   UNL A   1      31.072  27.842  28.210  1.00  0.00    -0.269 OA
ATOM      7  H   UNL A   1      32.612  29.457  28.492  1.00  0.00     0.163 HD
BRANCH   5   8
ATOM      8  C   UNL A   1      31.583  27.562  25.939  1.00  0.00     0.097 A 
ATOM      9  C   UNL A   1      32.361  29.129  23.857  1.00  0.00     0.069 C 
ATOM     10  C   UNL A   1      31.649  28.022  24.548  1.00  0.00     0.066 A 
ATOM     11  N   UNL A   1      30.956  27.287  23.667  1.00  0.00    -0.195 NA
ATOM     12  S   UNL A   1      30.324  25.989  24.426  1.00  0.00    -0.017 S 
ATOM     13  C   UNL A   1      31.181  26.217  25.871  1.00  0.00     0.130 A 
BRANCH  13  14
ATOM     14  N   UNL A   1      31.212  25.222  26.839  1.00  0.00    -0.297 N 
ATOM     15  C   UNL A   1      31.670  23.941  26.706  1.00  0.00     0.322 C 
ATOM     16  H   UNL A   1      30.865  25.469  27.727  1.00  0.00     0.172 HD
ATOM     17  O   UNL A   1      31.090  23.019  27.281  1.00  0.00    -0.248 OA
BRANCH  15  18
ATOM     18  N   UNL A   1      32.782  23.715  25.918  1.00  0.00    -0.324 N 
ATOM     19  C   UNL A   1      34.158  23.824  26.406  1.00  0.00     0.121 C 
ATOM     20  C   UNL A   1      32.625  23.005  24.660  1.00  0.00     0.124 C 
ATOM     21  C   UNL A   1      35.104  24.417  25.359  1.00  0.00     0.022 C 
ATOM     22  C   UNL A   1      33.386  23.772  23.575  1.00  0.00     0.005 C 
ATOM     23  C   UNL A   1      34.876  23.871  23.944  1.00  0.00     0.007 C 
ATOM     24  C   UNL A   1      33.187  23.144  22.202  1.00  0.00     0.009 C 
ENDBRANCH  15  18
ENDBRANCH  13  14
ENDBRANCH   5   8
ENDBRANCH   3   4
ENDBRANCH   2   3
ENDBRANCH   1   2
BRANCH   1  25
ATOM     25  C   UNL A   1      32.974  33.024  27.121  1.00  0.00     0.116 C 
BRANCH  25  26
ATOM     26  N   UNL A   1      32.620  34.171  27.954  1.00  0.00    -0.352 N 
ATOM     27  C   UNL A   1      33.173  34.548  29.163  1.00  0.00     0.251 C 
ATOM     28  H   UNL A   1      31.899  34.747  27.612  1.00  0.00     0.163 HD
ATOM     29  O   UNL A   1      32.548  35.255  29.939  1.00  0.00    -0.269 OA
BRANCH  27  30
ATOM     30  C   UNL A   1      34.534  34.094  29.498  1.00  0.00     0.039 A 
ATOM     31  C   UNL A   1      34.761  33.333  30.647  1.00  0.00     0.014 A 
ATOM     32  C   UNL A   1      35.582  34.428  28.639  1.00  0.00     0.014 A 
ATOM     33  C   UNL A   1      36.037  32.828  30.880  1.00  0.00     0.010 A 
ATOM     34  C   UNL A   1      36.827  33.866  28.828  1.00  0.00     0.010 A 
ATOM     35  C   UNL A   1      37.060  33.075  29.953  1.00  0.00    -0.014 A 
BRANCH  35  36
ATOM     36  C   UNL A   1      38.323  32.345  30.050  1.00  0.00     0.031 A 
ATOM     37  C   UNL A   1      38.291  30.978  29.455  1.00  0.00     0.074 A 
ATOM     38  C   UNL A   1      39.482  32.923  30.432  1.00  0.00     0.049 A 
ATOM     39  N   UNL A   1      38.448  29.855  30.074  1.00  0.00    -0.248 NA
ATOM     40  C   UNL A   1      37.899  30.826  28.045  1.00  0.00     0.031 C 
ATOM     41  C   UNL A   1      39.700  34.332  30.775  1.00  0.00     0.029 A 
ATOM     42  N   UNL A   1      40.746  32.409  30.440  1.00  0.00    -0.354 N 
ATOM     43  C   UNL A   1      38.415  28.868  29.091  1.00  0.00     0.074 A 
ATOM     44  C   UNL A   1      37.873  29.497  27.917  1.00  0.00     0.031 C 
ATOM     45  C   UNL A   1      41.018  34.610  30.698  1.00  0.00     0.029 A 
ATOM     46  C   UNL A   1      41.746  33.381  30.436  1.00  0.00     0.049 A 
ATOM     47  H   UNL A   1      40.935  31.442  30.448  1.00  0.00     0.167 HD
ATOM     48  C   UNL A   1      39.069  27.684  29.261  1.00  0.00     0.034 A 
ATOM     49  C   UNL A   1      43.066  33.202  30.175  1.00  0.00     0.034 A 
ATOM     50  C   UNL A   1      39.479  27.517  30.635  1.00  0.00     0.049 A 
ATOM     51  C   UNL A   1      43.365  31.769  30.399  1.00  0.00     0.074 A 
ATOM     52  C   UNL A   1      38.830  27.493  31.854  1.00  0.00     0.029 A 
ATOM     53  N   UNL A   1      40.807  27.733  30.912  1.00  0.00    -0.354 N 
ATOM     54  N   UNL A   1      43.348  31.216  31.577  1.00  0.00    -0.248 NA
ATOM     55  C   UNL A   1      43.264  30.853  29.275  1.00  0.00     0.031 C 
ATOM     56  C   UNL A   1      39.711  28.167  32.747  1.00  0.00     0.029 A 
ATOM     57  C   UNL A   1      40.877  28.487  32.050  1.00  0.00     0.049 A 
ATOM     58  H   UNL A   1      41.571  27.403  30.386  1.00  0.00     0.167 HD
ATOM     59  C   UNL A   1      42.735  29.990  31.361  1.00  0.00     0.074 A 
ATOM     60  C   UNL A   1      42.835  29.765  29.920  1.00  0.00     0.031 C 
ATOM     61  C   UNL A   1      41.935  29.435  32.317  1.00  0.00     0.034 A 
BRANCH  48  62
ATOM     62  C   UNL A   1      39.700  26.842  28.170  1.00  0.00     0.023 A 
ATOM     63  C   UNL A   1      39.397  25.458  28.177  1.00  0.00     0.012 A 
ATOM     64  C   UNL A   1      40.770  27.253  27.345  1.00  0.00     0.148 A 
ATOM     65  C   UNL A   1      40.175  24.526  27.482  1.00  0.00     0.002 A 
ATOM     66  C   UNL A   1      41.495  26.331  26.596  1.00  0.00     0.091 A 
ATOM     67  F   UNL A   1      41.187  28.519  27.367  1.00  0.00    -0.205 F 
ATOM     68  C   UNL A   1      41.227  24.963  26.690  1.00  0.00     0.022 A 
BRANCH  66  69
ATOM     69  S   UNL A   1      42.838  26.839  25.514  1.00  0.00     0.127 S 
ATOM     70  O   UNL A   1      43.828  27.310  26.480  1.00  0.00    -0.237 OA
ATOM     71  O   UNL A   1      43.171  25.582  24.844  1.00  0.00    -0.237 OA
ATOM     72  O   UNL A   1      42.274  27.856  24.635  1.00  0.00    -0.744 OA
ENDBRANCH  66  69
ENDBRANCH  48  62
BRANCH  49  73
ATOM     73  C   UNL A   1      44.064  34.121  29.576  1.00  0.00     0.023 A 
ATOM     74  C   UNL A   1      44.844  34.947  30.412  1.00  0.00     0.012 A 
ATOM     75  C   UNL A   1      44.452  33.993  28.225  1.00  0.00     0.148 A 
ATOM     76  C   UNL A   1      45.995  35.583  29.931  1.00  0.00     0.002 A 
ATOM     77  C   UNL A   1      45.594  34.632  27.750  1.00  0.00     0.091 A 
ATOM     78  F   UNL A   1      43.766  33.165  27.428  1.00  0.00    -0.205 F 
ATOM     79  C   UNL A   1      46.377  35.418  28.603  1.00  0.00     0.022 A 
BRANCH  77  80
ATOM     80  S   UNL A   1      46.159  34.420  26.056  1.00  0.00     0.127 S 
ATOM     81  O   UNL A   1      44.967  34.779  25.288  1.00  0.00    -0.237 OA
ATOM     82  O   UNL A   1      47.252  35.386  25.982  1.00  0.00    -0.237 OA
ATOM     83  O   UNL A   1      46.544  33.018  25.940  1.00  0.00    -0.744 OA
ENDBRANCH  77  80
ENDBRANCH  49  73
BRANCH  61  84
ATOM     84  C   UNL A   1      41.949  30.032  33.702  1.00  0.00     0.023 A 
ATOM     85  C   UNL A   1      42.936  29.711  34.656  1.00  0.00     0.012 A 
ATOM     86  C   UNL A   1      41.061  31.085  33.973  1.00  0.00     0.148 A 
ATOM     87  C   UNL A   1      43.022  30.411  35.863  1.00  0.00     0.002 A 
ATOM     88  C   UNL A   1      41.184  31.816  35.148  1.00  0.00     0.091 A 
ATOM     89  F   UNL A   1      40.125  31.379  33.057  1.00  0.00    -0.205 F 
ATOM     90  C   UNL A   1      42.155  31.475  36.101  1.00  0.00     0.022 A 
BRANCH  88  91
ATOM     91  S   UNL A   1      40.196  33.284  35.436  1.00  0.00     0.127 S 
ATOM     92  O   UNL A   1      40.585  34.138  34.316  1.00  0.00    -0.237 OA
ATOM     93  O   UNL A   1      38.829  32.766  35.365  1.00  0.00    -0.237 OA
ATOM     94  O   UNL A   1      40.578  33.767  36.759  1.00  0.00    -0.744 OA
ENDBRANCH  88  91
ENDBRANCH  61  84
ENDBRANCH  35  36
ENDBRANCH  27  30
ENDBRANCH  25  26
ENDBRANCH   1  25
TORSDOF 16
ENDMDL
MODEL 3
REMARK VINA RESULT:     -11.9      2.772      7.790
REMARK SMILES Cc1nsc(NC(=O)N2CCC[C@@H](C)C2)c1C(=O)NCCCCNC(=O)c1ccc(-c2c3nc(c(-c4cccc(S(=O)(=O)[O-])c4F)c4ccc([nH]4)c(-c4cccc(S(=O)(=O)[O-])c4F)c4nc(c(-c5cccc(S(=O)(=O)[O-])c5F)c5ccc2[nH]5)C=C4)C=C3)cc1
REMARK SMILES IDX 22 1 21 2 20 3 19 4 17 5 18 6 16 8 1 9 2 10 3 11 4 12 5 13
REMARK SMILES IDX 6 14 7 15 8 17 9 18 10 19 15 20 11 21 13 22 12 23 14 24
REMARK SMILES IDX 23 25 24 26 25 27 26 29 27 30 28 31 89 32 29 33 88 34 30 35
REMARK SMILES IDX 31 36 32 37 82 38 33 39 87 40 81 41 83 42 34 43 86 44 80 45
REMARK SMILES IDX 79 46 35 48 67 49 47 50 66 51 48 52 51 53 65 54 84 55 49 56
REMARK SMILES IDX 50 57 64 59 85 60 52 61 36 62 37 63 45 64 38 65 40 66 46 67
REMARK SMILES IDX 39 68 41 69 42 70 43 71 44 72 68 73 69 74 77 75 70 76 72 77
REMARK SMILES IDX 78 78 71 79 73 80 74 81 75 82 76 83 53 84 54 85 62 86 55 87
REMARK SMILES IDX 57 88 63 89 56 90 58 91 59 92 60 93 61 94
REMARK H PARENT 19 7 6 16 24 28 83 47 51 58
REMARK Flexibility Score: inf
ROOT
ATOM      1  C   UNL A   1      33.461  30.640  27.605  1.00  0.00     0.023 C 
ENDROOT
BRANCH   1   2
ATOM      2  C   UNL A   1      34.234  29.392  27.159  1.00  0.00     0.023 C 
BRANCH   2   3
ATOM      3  C   UNL A   1      33.362  28.170  26.859  1.00  0.00     0.116 C 
BRANCH   3   4
ATOM      4  N   UNL A   1      33.863  27.363  25.780  1.00  0.00    -0.352 N 
ATOM      5  C   UNL A   1      33.545  26.139  25.270  1.00  0.00     0.256 C 
ATOM      6  O   UNL A   1      34.075  25.921  24.172  1.00  0.00    -0.269 OA
ATOM      7  H   UNL A   1      34.607  27.794  25.299  1.00  0.00     0.163 HD
BRANCH   5   8
ATOM      8  C   UNL A   1      32.790  25.062  25.934  1.00  0.00     0.097 A 
ATOM      9  C   UNL A   1      30.082  25.298  25.844  1.00  0.00     0.069 C 
ATOM     10  C   UNL A   1      31.398  24.782  26.303  1.00  0.00     0.066 A 
ATOM     11  N   UNL A   1      31.231  23.830  27.232  1.00  0.00    -0.195 NA
ATOM     12  S   UNL A   1      32.679  23.170  27.594  1.00  0.00    -0.017 S 
ATOM     13  C   UNL A   1      33.519  23.929  26.333  1.00  0.00     0.130 A 
BRANCH  13  14
ATOM     14  N   UNL A   1      34.806  23.529  25.999  1.00  0.00    -0.297 N 
ATOM     15  C   UNL A   1      35.192  22.354  25.418  1.00  0.00     0.322 C 
ATOM     16  H   UNL A   1      35.527  24.169  26.205  1.00  0.00     0.172 HD
ATOM     17  O   UNL A   1      36.245  21.816  25.763  1.00  0.00    -0.248 OA
BRANCH  15  18
ATOM     18  N   UNL A   1      34.378  21.796  24.451  1.00  0.00    -0.324 N 
ATOM     19  C   UNL A   1      33.959  22.502  23.239  1.00  0.00     0.121 C 
ATOM     20  C   UNL A   1      34.198  20.355  24.423  1.00  0.00     0.124 C 
ATOM     21  C   UNL A   1      32.518  22.171  22.839  1.00  0.00     0.022 C 
ATOM     22  C   UNL A   1      32.703  20.058  24.272  1.00  0.00     0.005 C 
ATOM     23  C   UNL A   1      32.169  20.683  22.973  1.00  0.00     0.007 C 
ATOM     24  C   UNL A   1      32.420  18.564  24.336  1.00  0.00     0.009 C 
ENDBRANCH  15  18
ENDBRANCH  13  14
ENDBRANCH   5   8
ENDBRANCH   3   4
ENDBRANCH   2   3
ENDBRANCH   1   2
BRANCH   1  25
ATOM     25  C   UNL A   1      34.318  31.897  27.766  1.00  0.00     0.116 C 
BRANCH  25  26
ATOM     26  N   UNL A   1      34.327  32.397  29.139  1.00  0.00    -0.352 N 
ATOM     27  C   UNL A   1      35.122  31.984  30.190  1.00  0.00     0.251 C 
ATOM     28  H   UNL A   1      33.688  33.119  29.339  1.00  0.00     0.163 HD
ATOM     29  O   UNL A   1      34.774  32.175  31.346  1.00  0.00    -0.269 OA
BRANCH  27  30
ATOM     30  C   UNL A   1      36.403  31.318  29.897  1.00  0.00     0.039 A 
ATOM     31  C   UNL A   1      37.545  32.076  29.624  1.00  0.00     0.014 A 
ATOM     32  C   UNL A   1      36.453  29.924  29.911  1.00  0.00     0.014 A 
ATOM     33  C   UNL A   1      38.763  31.423  29.458  1.00  0.00     0.010 A 
ATOM     34  C   UNL A   1      37.670  29.281  29.823  1.00  0.00     0.010 A 
ATOM     35  C   UNL A   1      38.825  30.027  29.585  1.00  0.00    -0.014 A 
BRANCH  35  36
ATOM     36  C   UNL A   1      40.123  29.359  29.669  1.00  0.00     0.031 A 
ATOM     37  C   UNL A   1      40.613  29.142  31.060  1.00  0.00     0.074 A 
ATOM     38  C   UNL A   1      40.726  28.782  28.607  1.00  0.00     0.049 A 
ATOM     39  N   UNL A   1      41.671  29.650  31.602  1.00  0.00    -0.248 NA
ATOM     40  C   UNL A   1      39.767  28.395  32.004  1.00  0.00     0.031 C 
ATOM     41  C   UNL A   1      40.210  28.686  27.239  1.00  0.00     0.029 A 
ATOM     42  N   UNL A   1      41.855  28.018  28.563  1.00  0.00    -0.354 N 
ATOM     43  C   UNL A   1      41.752  29.095  32.878  1.00  0.00     0.074 A 
ATOM     44  C   UNL A   1      40.465  28.509  33.137  1.00  0.00     0.031 C 
ATOM     45  C   UNL A   1      40.871  27.709  26.582  1.00  0.00     0.029 A 
ATOM     46  C   UNL A   1      41.938  27.209  27.430  1.00  0.00     0.049 A 
ATOM     47  H   UNL A   1      42.547  28.036  29.263  1.00  0.00     0.167 HD
ATOM     48  C   UNL A   1      42.953  28.952  33.506  1.00  0.00     0.034 A 
ATOM     49  C   UNL A   1      42.779  26.163  27.226  1.00  0.00     0.034 A 
ATOM     50  C   UNL A   1      43.980  29.707  32.829  1.00  0.00     0.049 A 
ATOM     51  C   UNL A   1      43.919  26.332  28.155  1.00  0.00     0.074 A 
ATOM     52  C   UNL A   1      44.158  31.034  32.491  1.00  0.00     0.029 A 
ATOM     53  N   UNL A   1      44.855  28.992  32.047  1.00  0.00    -0.354 N 
ATOM     54  N   UNL A   1      44.799  27.283  28.033  1.00  0.00    -0.248 NA
ATOM     55  C   UNL A   1      43.847  25.709  29.466  1.00  0.00     0.031 C 
ATOM     56  C   UNL A   1      44.770  31.003  31.206  1.00  0.00     0.029 A 
ATOM     57  C   UNL A   1      45.008  29.669  30.869  1.00  0.00     0.049 A 
ATOM     58  H   UNL A   1      45.293  28.145  32.291  1.00  0.00     0.167 HD
ATOM     59  C   UNL A   1      45.012  27.710  29.336  1.00  0.00     0.074 A 
ATOM     60  C   UNL A   1      44.514  26.623  30.177  1.00  0.00     0.031 C 
ATOM     61  C   UNL A   1      45.274  29.022  29.605  1.00  0.00     0.034 A 
BRANCH  48  62
ATOM     62  C   UNL A   1      43.331  27.854  34.481  1.00  0.00     0.023 A 
ATOM     63  C   UNL A   1      43.847  28.265  35.735  1.00  0.00     0.012 A 
ATOM     64  C   UNL A   1      43.487  26.492  34.146  1.00  0.00     0.148 A 
ATOM     65  C   UNL A   1      44.564  27.393  36.562  1.00  0.00     0.002 A 
ATOM     66  C   UNL A   1      44.134  25.610  35.006  1.00  0.00     0.091 A 
ATOM     67  F   UNL A   1      43.127  26.051  32.940  1.00  0.00    -0.205 F 
ATOM     68  C   UNL A   1      44.708  26.063  36.197  1.00  0.00     0.022 A 
BRANCH  66  69
ATOM     69  S   UNL A   1      44.312  23.864  34.613  1.00  0.00     0.127 S 
ATOM     70  O   UNL A   1      45.214  23.914  33.466  1.00  0.00    -0.237 OA
ATOM     71  O   UNL A   1      44.901  23.341  35.845  1.00  0.00    -0.237 OA
ATOM     72  O   UNL A   1      42.963  23.382  34.341  1.00  0.00    -0.744 OA
ENDBRANCH  66  69
ENDBRANCH  48  62
BRANCH  49  73
ATOM     73  C   UNL A   1      42.605  24.927  26.424  1.00  0.00     0.023 A 
ATOM     74  C   UNL A   1      43.543  24.607  25.421  1.00  0.00     0.012 A 
ATOM     75  C   UNL A   1      41.693  23.925  26.820  1.00  0.00     0.148 A 
ATOM     76  C   UNL A   1      43.600  23.322  24.867  1.00  0.00     0.002 A 
ATOM     77  C   UNL A   1      41.750  22.651  26.263  1.00  0.00     0.091 A 
ATOM     78  F   UNL A   1      40.835  24.185  27.815  1.00  0.00    -0.205 F 
ATOM     79  C   UNL A   1      42.711  22.341  25.294  1.00  0.00     0.022 A 
BRANCH  77  80
ATOM     80  S   UNL A   1      40.656  21.332  26.807  1.00  0.00     0.127 S 
ATOM     81  O   UNL A   1      39.343  21.835  26.399  1.00  0.00    -0.237 OA
ATOM     82  O   UNL A   1      41.147  20.197  26.032  1.00  0.00    -0.237 OA
ATOM     83  O   UNL A   1      40.835  21.239  28.251  1.00  0.00    -0.744 OA
ENDBRANCH  77  80
ENDBRANCH  49  73
BRANCH  61  84
ATOM     84  C   UNL A   1      45.601  29.939  28.453  1.00  0.00     0.023 A 
ATOM     85  C   UNL A   1      44.610  30.638  27.734  1.00  0.00     0.012 A 
ATOM     86  C   UNL A   1      46.951  30.250  28.222  1.00  0.00     0.148 A 
ATOM     87  C   UNL A   1      44.958  31.609  26.791  1.00  0.00     0.002 A 
ATOM     88  C   UNL A   1      47.292  31.255  27.327  1.00  0.00     0.091 A 
ATOM     89  F   UNL A   1      47.885  29.576  28.913  1.00  0.00    -0.205 F 
ATOM     90  C   UNL A   1      46.299  31.929  26.600  1.00  0.00     0.022 A 
BRANCH  88  91
ATOM     91  S   UNL A   1      48.989  31.809  27.154  1.00  0.00     0.127 S 
ATOM     92  O   UNL A   1      49.642  30.624  26.604  1.00  0.00    -0.237 OA
ATOM     93  O   UNL A   1      48.863  32.929  26.220  1.00  0.00    -0.237 OA
ATOM     94  O   UNL A   1      49.418  32.200  28.493  1.00  0.00    -0.744 OA
ENDBRANCH  88  91
ENDBRANCH  61  84
ENDBRANCH  35  36
ENDBRANCH  27  30
ENDBRANCH  25  26
ENDBRANCH   1  25
TORSDOF 16
ENDMDL
