MODEL 1
REMARK VINA RESULT:     -11.6      0.000      0.000
REMARK SMILES CCC[NH2+][C@]1(C(=O)NCCCCNC(=O)c2ccc(-c3c4nc(c(-c5cccc(S(=O)(=O)[O-])c5F)c5ccc([nH]5)c(-c5cccc(S(=O)(=O)[O-])c5F)c5nc(c(-c6cccc(S(=O)(=O)[O-])c6F)c6ccc3[nH]6)C=C5)C=C4)cc2)CCC[C@H](OC(C)(C)C)C1
REMARK SMILES IDX 10 1 9 2 8 3 6 4 7 5 5 7 79 8 88 9 80 10 82 11 81 12 4 13
REMARK SMILES IDX 3 16 2 17 1 18 83 19 84 20 85 21 86 22 87 23 11 24 12 25
REMARK SMILES IDX 13 26 14 27 15 29 16 30 17 31 78 32 18 33 77 34 19 35 20 36
REMARK SMILES IDX 21 37 71 38 22 39 76 40 70 41 72 42 23 43 75 44 69 45 68 46
REMARK SMILES IDX 24 48 56 49 36 50 55 51 37 52 40 53 54 54 73 55 38 56 39 57
REMARK SMILES IDX 53 59 74 60 41 61 25 62 26 63 34 64 27 65 29 66 35 67 28 68
REMARK SMILES IDX 30 69 31 70 32 71 33 72 57 73 58 74 66 75 59 76 61 77 67 78
REMARK SMILES IDX 60 79 62 80 63 81 64 82 65 83 42 84 43 85 51 86 44 87 46 88
REMARK SMILES IDX 52 89 45 90 47 91 48 92 49 93 50 94
REMARK H PARENT 8 6 4 14 4 15 13 28 72 47 40 58
REMARK Flexibility Score: inf
ROOT
ATOM      1  C   UNL A   1      31.757  27.546  26.711  1.00  0.00     0.023 C 
ENDROOT
BRANCH   1   2
ATOM      2  C   UNL A   1      32.147  26.188  26.123  1.00  0.00     0.116 C 
BRANCH   2   3
ATOM      3  N   UNL A   1      31.596  25.112  26.914  1.00  0.00    -0.351 N 
ATOM      4  C   UNL A   1      31.670  23.763  26.788  1.00  0.00     0.281 C 
ATOM      5  O   UNL A   1      30.972  23.125  27.592  1.00  0.00    -0.268 OA
ATOM      6  H   UNL A   1      31.067  25.413  27.687  1.00  0.00     0.163 HD
BRANCH   4   7
ATOM      7  C   UNL A   1      32.635  22.974  25.805  1.00  0.00     0.178 C 
ATOM      8  C   UNL A   1      33.896  23.701  25.281  1.00  0.00     0.079 C 
ATOM      9  C   UNL A   1      33.101  21.721  26.605  1.00  0.00     0.111 C 
ATOM     10  C   UNL A   1      34.891  22.815  24.534  1.00  0.00     0.010 C 
ATOM     11  C   UNL A   1      34.108  20.822  25.862  1.00  0.00     0.125 C 
ATOM     12  C   UNL A   1      35.318  21.639  25.408  1.00  0.00     0.032 C 
BRANCH   7  13
ATOM     13  N   UNL A   1      31.744  22.501  24.695  1.00  0.00    -0.334 N 
ATOM     14  H   UNL A   1      32.006  21.542  24.472  1.00  0.00     0.347 HD
ATOM     15  H   UNL A   1      30.792  22.602  25.046  1.00  0.00     0.347 HD
BRANCH  13  16
ATOM     16  C   UNL A   1      31.795  23.278  23.461  1.00  0.00     0.261 C 
BRANCH  16  17
ATOM     17  C   UNL A   1      30.635  24.276  23.381  1.00  0.00     0.058 C 
ATOM     18  C   UNL A   1      31.053  25.611  22.784  1.00  0.00     0.010 C 
ENDBRANCH  16  17
ENDBRANCH  13  16
ENDBRANCH   7  13
BRANCH  11  19
ATOM     19  O   UNL A   1      33.525  20.275  24.685  1.00  0.00    -0.372 OA
BRANCH  19  20
ATOM     20  C   UNL A   1      33.363  18.866  24.559  1.00  0.00     0.060 C 
ATOM     21  C   UNL A   1      34.733  18.228  24.314  1.00  0.00     0.042 C 
ATOM     22  C   UNL A   1      32.649  18.221  25.750  1.00  0.00     0.042 C 
ATOM     23  C   UNL A   1      32.491  18.688  23.307  1.00  0.00     0.042 C 
ENDBRANCH  19  20
ENDBRANCH  11  19
ENDBRANCH   4   7
ENDBRANCH   2   3
ENDBRANCH   1   2
BRANCH   1  24
ATOM     24  C   UNL A   1      31.718  28.689  25.706  1.00  0.00     0.023 C 
BRANCH  24  25
ATOM     25  C   UNL A   1      32.890  29.649  25.804  1.00  0.00     0.116 C 
BRANCH  25  26
ATOM     26  N   UNL A   1      32.542  30.950  26.365  1.00  0.00    -0.352 N 
ATOM     27  C   UNL A   1      33.276  31.705  27.252  1.00  0.00     0.251 C 
ATOM     28  H   UNL A   1      31.683  31.334  26.075  1.00  0.00     0.163 HD
ATOM     29  O   UNL A   1      32.839  32.756  27.698  1.00  0.00    -0.269 OA
BRANCH  27  30
ATOM     30  C   UNL A   1      34.585  31.179  27.688  1.00  0.00     0.039 A 
ATOM     31  C   UNL A   1      35.629  32.074  27.921  1.00  0.00     0.014 A 
ATOM     32  C   UNL A   1      34.722  29.821  27.986  1.00  0.00     0.014 A 
ATOM     33  C   UNL A   1      36.795  31.615  28.533  1.00  0.00     0.010 A 
ATOM     34  C   UNL A   1      35.845  29.387  28.674  1.00  0.00     0.010 A 
ATOM     35  C   UNL A   1      36.894  30.278  28.952  1.00  0.00    -0.014 A 
BRANCH  35  36
ATOM     36  C   UNL A   1      38.083  29.780  29.683  1.00  0.00     0.031 A 
ATOM     37  C   UNL A   1      38.377  30.301  31.063  1.00  0.00     0.074 A 
ATOM     38  C   UNL A   1      38.950  28.953  29.067  1.00  0.00     0.049 A 
ATOM     39  N   UNL A   1      39.406  30.060  31.831  1.00  0.00    -0.248 NA
ATOM     40  C   UNL A   1      37.409  31.249  31.638  1.00  0.00     0.031 C 
ATOM     41  C   UNL A   1      38.825  28.462  27.692  1.00  0.00     0.029 A 
ATOM     42  N   UNL A   1      40.127  28.403  29.508  1.00  0.00    -0.354 N 
ATOM     43  C   UNL A   1      39.233  30.859  32.954  1.00  0.00     0.074 A 
ATOM     44  C   UNL A   1      38.022  31.623  32.750  1.00  0.00     0.031 C 
ATOM     45  C   UNL A   1      39.878  27.677  27.407  1.00  0.00     0.029 A 
ATOM     46  C   UNL A   1      40.761  27.626  28.567  1.00  0.00     0.049 A 
ATOM     47  H   UNL A   1      40.485  28.550  30.414  1.00  0.00     0.167 HD
ATOM     48  C   UNL A   1      39.991  30.923  34.073  1.00  0.00     0.034 A 
ATOM     49  C   UNL A   1      41.922  26.944  28.637  1.00  0.00     0.034 A 
ATOM     50  C   UNL A   1      41.147  30.103  34.302  1.00  0.00     0.049 A 
ATOM     51  C   UNL A   1      42.697  26.960  29.927  1.00  0.00     0.074 A 
ATOM     52  C   UNL A   1      41.921  30.008  35.445  1.00  0.00     0.029 A 
ATOM     53  N   UNL A   1      41.690  29.231  33.373  1.00  0.00    -0.354 N 
ATOM     54  N   UNL A   1      42.424  27.589  31.044  1.00  0.00    -0.248 NA
ATOM     55  C   UNL A   1      43.917  26.141  29.981  1.00  0.00     0.031 C 
ATOM     56  C   UNL A   1      42.936  29.075  35.204  1.00  0.00     0.029 A 
ATOM     57  C   UNL A   1      42.788  28.587  33.915  1.00  0.00     0.049 A 
ATOM     58  H   UNL A   1      41.346  29.089  32.462  1.00  0.00     0.167 HD
ATOM     59  C   UNL A   1      43.416  27.217  31.945  1.00  0.00     0.074 A 
ATOM     60  C   UNL A   1      44.284  26.291  31.247  1.00  0.00     0.031 C 
ATOM     61  C   UNL A   1      43.601  27.620  33.225  1.00  0.00     0.034 A 
BRANCH  48  62
ATOM     62  C   UNL A   1      39.541  31.857  35.164  1.00  0.00     0.023 A 
ATOM     63  C   UNL A   1      39.838  33.232  35.060  1.00  0.00     0.012 A 
ATOM     64  C   UNL A   1      38.797  31.392  36.264  1.00  0.00     0.148 A 
ATOM     65  C   UNL A   1      39.434  34.124  36.052  1.00  0.00     0.002 A 
ATOM     66  C   UNL A   1      38.361  32.294  37.228  1.00  0.00     0.091 A 
ATOM     67  F   UNL A   1      38.549  30.078  36.361  1.00  0.00    -0.205 F 
ATOM     68  C   UNL A   1      38.687  33.657  37.129  1.00  0.00     0.022 A 
BRANCH  66  69
ATOM     69  S   UNL A   1      37.333  31.800  38.617  1.00  0.00     0.127 S 
ATOM     70  O   UNL A   1      36.204  32.719  38.489  1.00  0.00    -0.237 OA
ATOM     71  O   UNL A   1      37.026  30.406  38.296  1.00  0.00    -0.237 OA
ATOM     72  O   UNL A   1      38.158  31.979  39.804  1.00  0.00    -0.744 OA
ENDBRANCH  66  69
ENDBRANCH  48  62
BRANCH  49  73
ATOM     73  C   UNL A   1      42.367  26.112  27.482  1.00  0.00     0.023 A 
ATOM     74  C   UNL A   1      43.190  26.693  26.497  1.00  0.00     0.012 A 
ATOM     75  C   UNL A   1      42.016  24.754  27.370  1.00  0.00     0.148 A 
ATOM     76  C   UNL A   1      43.633  25.944  25.407  1.00  0.00     0.002 A 
ATOM     77  C   UNL A   1      42.502  24.000  26.307  1.00  0.00     0.091 A 
ATOM     78  F   UNL A   1      41.221  24.221  28.308  1.00  0.00    -0.205 F 
ATOM     79  C   UNL A   1      43.298  24.596  25.316  1.00  0.00     0.022 A 
BRANCH  77  80
ATOM     80  S   UNL A   1      42.227  22.228  26.185  1.00  0.00     0.127 S 
ATOM     81  O   UNL A   1      43.069  21.872  25.048  1.00  0.00    -0.237 OA
ATOM     82  O   UNL A   1      42.709  21.753  27.483  1.00  0.00    -0.237 OA
ATOM     83  O   UNL A   1      40.791  22.074  25.990  1.00  0.00    -0.744 OA
ENDBRANCH  77  80
ENDBRANCH  49  73
BRANCH  61  84
ATOM     84  C   UNL A   1      44.772  27.044  33.976  1.00  0.00     0.023 A 
ATOM     85  C   UNL A   1      46.019  27.697  33.922  1.00  0.00     0.012 A 
ATOM     86  C   UNL A   1      44.613  25.916  34.803  1.00  0.00     0.148 A 
ATOM     87  C   UNL A   1      47.097  27.222  34.666  1.00  0.00     0.002 A 
ATOM     88  C   UNL A   1      45.681  25.475  35.575  1.00  0.00     0.091 A 
ATOM     89  F   UNL A   1      43.424  25.297  34.822  1.00  0.00    -0.205 F 
ATOM     90  C   UNL A   1      46.925  26.120  35.501  1.00  0.00     0.022 A 
BRANCH  88  91
ATOM     91  S   UNL A   1      45.518  24.122  36.746  1.00  0.00     0.127 S 
ATOM     92  O   UNL A   1      44.510  24.644  37.666  1.00  0.00    -0.237 OA
ATOM     93  O   UNL A   1      45.057  23.024  35.896  1.00  0.00    -0.237 OA
ATOM     94  O   UNL A   1      46.846  23.925  37.312  1.00  0.00    -0.744 OA
ENDBRANCH  88  91
ENDBRANCH  61  84
ENDBRANCH  35  36
ENDBRANCH  27  30
ENDBRANCH  25  26
ENDBRANCH  24  25
ENDBRANCH   1  24
TORSDOF 19
ENDMDL
MODEL 2
REMARK VINA RESULT:     -11.3      1.542      7.923
REMARK SMILES CCC[NH2+][C@]1(C(=O)NCCCCNC(=O)c2ccc(-c3c4nc(c(-c5cccc(S(=O)(=O)[O-])c5F)c5ccc([nH]5)c(-c5cccc(S(=O)(=O)[O-])c5F)c5nc(c(-c6cccc(S(=O)(=O)[O-])c6F)c6ccc3[nH]6)C=C5)C=C4)cc2)CCC[C@H](OC(C)(C)C)C1
REMARK SMILES IDX 10 1 9 2 8 3 6 4 7 5 5 7 79 8 88 9 80 10 82 11 81 12 4 13
REMARK SMILES IDX 3 16 2 17 1 18 83 19 84 20 85 21 86 22 87 23 11 24 12 25
REMARK SMILES IDX 13 26 14 27 15 29 16 30 17 31 78 32 18 33 77 34 19 35 20 36
REMARK SMILES IDX 21 37 71 38 22 39 76 40 70 41 72 42 23 43 75 44 69 45 68 46
REMARK SMILES IDX 24 48 56 49 36 50 55 51 37 52 40 53 54 54 73 55 38 56 39 57
REMARK SMILES IDX 53 59 74 60 41 61 25 62 26 63 34 64 27 65 29 66 35 67 28 68
REMARK SMILES IDX 30 69 31 70 32 71 33 72 57 73 58 74 66 75 59 76 61 77 67 78
REMARK SMILES IDX 60 79 62 80 63 81 64 82 65 83 42 84 43 85 51 86 44 87 46 88
REMARK SMILES IDX 52 89 45 90 47 91 48 92 49 93 50 94
REMARK H PARENT 8 6 4 14 4 15 13 28 72 47 40 58
REMARK Flexibility Score: inf
ROOT
ATOM      1  C   UNL A   1      31.447  27.442  26.447  1.00  0.00     0.023 C 
ENDROOT
BRANCH   1   2
ATOM      2  C   UNL A   1      30.571  26.340  25.847  1.00  0.00     0.116 C 
BRANCH   2   3
ATOM      3  N   UNL A   1      30.583  25.164  26.686  1.00  0.00    -0.351 N 
ATOM      4  C   UNL A   1      31.100  23.924  26.502  1.00  0.00     0.281 C 
ATOM      5  O   UNL A   1      30.827  23.107  27.396  1.00  0.00    -0.268 OA
ATOM      6  H   UNL A   1      30.132  25.286  27.552  1.00  0.00     0.163 HD
BRANCH   4   7
ATOM      7  C   UNL A   1      32.085  23.492  25.335  1.00  0.00     0.178 C 
ATOM      8  C   UNL A   1      31.598  23.644  23.875  1.00  0.00     0.079 C 
ATOM      9  C   UNL A   1      33.351  24.383  25.515  1.00  0.00     0.111 C 
ATOM     10  C   UNL A   1      32.671  23.431  22.809  1.00  0.00     0.010 C 
ATOM     11  C   UNL A   1      34.438  24.178  24.442  1.00  0.00     0.125 C 
ATOM     12  C   UNL A   1      33.850  24.370  23.044  1.00  0.00     0.032 C 
BRANCH   7  13
ATOM     13  N   UNL A   1      32.470  22.080  25.666  1.00  0.00    -0.334 N 
ATOM     14  H   UNL A   1      33.488  22.018  25.633  1.00  0.00     0.347 HD
ATOM     15  H   UNL A   1      32.071  21.895  26.586  1.00  0.00     0.347 HD
BRANCH  13  16
ATOM     16  C   UNL A   1      31.931  21.048  24.787  1.00  0.00     0.261 C 
BRANCH  16  17
ATOM     17  C   UNL A   1      32.934  19.909  24.581  1.00  0.00     0.058 C 
ATOM     18  C   UNL A   1      32.520  18.959  23.468  1.00  0.00     0.010 C 
ENDBRANCH  16  17
ENDBRANCH  13  16
ENDBRANCH   7  13
BRANCH  11  19
ATOM     19  O   UNL A   1      34.949  22.850  24.486  1.00  0.00    -0.372 OA
BRANCH  19  20
ATOM     20  C   UNL A   1      36.183  22.583  25.144  1.00  0.00     0.060 C 
ATOM     21  C   UNL A   1      37.051  21.707  24.237  1.00  0.00     0.042 C 
ATOM     22  C   UNL A   1      36.930  23.845  25.585  1.00  0.00     0.042 C 
ATOM     23  C   UNL A   1      35.790  21.783  26.394  1.00  0.00     0.042 C 
ENDBRANCH  19  20
ENDBRANCH  11  19
ENDBRANCH   4   7
ENDBRANCH   2   3
ENDBRANCH   1   2
BRANCH   1  24
ATOM     24  C   UNL A   1      31.672  28.644  25.540  1.00  0.00     0.023 C 
BRANCH  24  25
ATOM     25  C   UNL A   1      32.834  29.530  25.952  1.00  0.00     0.116 C 
BRANCH  25  26
ATOM     26  N   UNL A   1      32.440  30.880  26.340  1.00  0.00    -0.352 N 
ATOM     27  C   UNL A   1      33.143  31.767  27.124  1.00  0.00     0.251 C 
ATOM     28  H   UNL A   1      31.569  31.193  26.003  1.00  0.00     0.163 HD
ATOM     29  O   UNL A   1      32.669  32.850  27.431  1.00  0.00    -0.269 OA
BRANCH  27  30
ATOM     30  C   UNL A   1      34.467  31.346  27.624  1.00  0.00     0.039 A 
ATOM     31  C   UNL A   1      35.480  32.298  27.736  1.00  0.00     0.014 A 
ATOM     32  C   UNL A   1      34.647  30.045  28.099  1.00  0.00     0.014 A 
ATOM     33  C   UNL A   1      36.659  31.963  28.401  1.00  0.00     0.010 A 
ATOM     34  C   UNL A   1      35.782  29.743  28.837  1.00  0.00     0.010 A 
ATOM     35  C   UNL A   1      36.800  30.697  28.993  1.00  0.00    -0.014 A 
BRANCH  35  36
ATOM     36  C   UNL A   1      38.002  30.340  29.783  1.00  0.00     0.031 A 
ATOM     37  C   UNL A   1      38.996  29.361  29.221  1.00  0.00     0.074 A 
ATOM     38  C   UNL A   1      38.140  30.805  31.041  1.00  0.00     0.049 A 
ATOM     39  N   UNL A   1      40.060  28.854  29.784  1.00  0.00    -0.248 NA
ATOM     40  C   UNL A   1      38.737  28.855  27.863  1.00  0.00     0.031 C 
ATOM     41  C   UNL A   1      37.188  31.679  31.733  1.00  0.00     0.029 A 
ATOM     42  N   UNL A   1      39.121  30.582  31.974  1.00  0.00    -0.354 N 
ATOM     43  C   UNL A   1      40.567  27.937  28.872  1.00  0.00     0.074 A 
ATOM     44  C   UNL A   1      39.674  27.927  27.735  1.00  0.00     0.031 C 
ATOM     45  C   UNL A   1      37.637  31.924  32.974  1.00  0.00     0.029 A 
ATOM     46  C   UNL A   1      38.894  31.211  33.175  1.00  0.00     0.049 A 
ATOM     47  H   UNL A   1      39.914  30.025  31.798  1.00  0.00     0.167 HD
ATOM     48  C   UNL A   1      41.699  27.199  28.953  1.00  0.00     0.034 A 
ATOM     49  C   UNL A   1      39.624  31.215  34.309  1.00  0.00     0.034 A 
ATOM     50  C   UNL A   1      42.623  27.273  30.049  1.00  0.00     0.049 A 
ATOM     51  C   UNL A   1      40.924  30.458  34.338  1.00  0.00     0.074 A 
ATOM     52  C   UNL A   1      43.852  26.653  30.181  1.00  0.00     0.029 A 
ATOM     53  N   UNL A   1      42.423  28.020  31.199  1.00  0.00    -0.354 N 
ATOM     54  N   UNL A   1      41.476  29.732  33.397  1.00  0.00    -0.248 NA
ATOM     55  C   UNL A   1      41.723  30.553  35.569  1.00  0.00     0.031 C 
ATOM     56  C   UNL A   1      44.396  27.027  31.415  1.00  0.00     0.029 A 
ATOM     57  C   UNL A   1      43.508  27.882  32.046  1.00  0.00     0.049 A 
ATOM     58  H   UNL A   1      41.627  28.568  31.386  1.00  0.00     0.167 HD
ATOM     59  C   UNL A   1      42.700  29.312  33.906  1.00  0.00     0.074 A 
ATOM     60  C   UNL A   1      42.817  29.883  35.232  1.00  0.00     0.031 C 
ATOM     61  C   UNL A   1      43.633  28.512  33.336  1.00  0.00     0.034 A 
BRANCH  48  62
ATOM     62  C   UNL A   1      42.033  26.310  27.787  1.00  0.00     0.023 A 
ATOM     63  C   UNL A   1      42.764  26.840  26.703  1.00  0.00     0.012 A 
ATOM     64  C   UNL A   1      41.666  24.951  27.774  1.00  0.00     0.148 A 
ATOM     65  C   UNL A   1      43.091  26.043  25.607  1.00  0.00     0.002 A 
ATOM     66  C   UNL A   1      42.033  24.151  26.697  1.00  0.00     0.091 A 
ATOM     67  F   UNL A   1      40.947  24.472  28.799  1.00  0.00    -0.205 F 
ATOM     68  C   UNL A   1      42.735  24.698  25.610  1.00  0.00     0.022 A 
BRANCH  66  69
ATOM     69  S   UNL A   1      41.682  22.391  26.639  1.00  0.00     0.127 S 
ATOM     70  O   UNL A   1      42.259  22.017  25.349  1.00  0.00    -0.237 OA
ATOM     71  O   UNL A   1      42.413  21.890  27.803  1.00  0.00    -0.237 OA
ATOM     72  O   UNL A   1      40.233  22.271  26.739  1.00  0.00    -0.744 OA
ENDBRANCH  66  69
ENDBRANCH  48  62
BRANCH  49  73
ATOM     73  C   UNL A   1      39.187  32.040  35.472  1.00  0.00     0.023 A 
ATOM     74  C   UNL A   1      38.296  31.484  36.410  1.00  0.00     0.012 A 
ATOM     75  C   UNL A   1      39.671  33.347  35.675  1.00  0.00     0.148 A 
ATOM     76  C   UNL A   1      37.872  32.223  37.515  1.00  0.00     0.002 A 
ATOM     77  C   UNL A   1      39.283  34.060  36.804  1.00  0.00     0.091 A 
ATOM     78  F   UNL A   1      40.507  33.866  34.764  1.00  0.00    -0.205 F 
ATOM     79  C   UNL A   1      38.372  33.506  37.718  1.00  0.00     0.022 A 
BRANCH  77  80
ATOM     80  S   UNL A   1      39.981  35.666  37.209  1.00  0.00     0.127 S 
ATOM     81  O   UNL A   1      41.396  35.345  37.367  1.00  0.00    -0.237 OA
ATOM     82  O   UNL A   1      39.655  36.451  36.017  1.00  0.00    -0.237 OA
ATOM     83  O   UNL A   1      39.285  36.095  38.415  1.00  0.00    -0.744 OA
ENDBRANCH  77  80
ENDBRANCH  49  73
BRANCH  61  84
ATOM     84  C   UNL A   1      44.881  28.222  34.125  1.00  0.00     0.023 A 
ATOM     85  C   UNL A   1      46.000  29.067  33.989  1.00  0.00     0.012 A 
ATOM     86  C   UNL A   1      44.912  27.174  35.064  1.00  0.00     0.148 A 
ATOM     87  C   UNL A   1      47.140  28.859  34.762  1.00  0.00     0.002 A 
ATOM     88  C   UNL A   1      46.036  26.999  35.862  1.00  0.00     0.091 A 
ATOM     89  F   UNL A   1      43.844  26.368  35.162  1.00  0.00    -0.205 F 
ATOM     90  C   UNL A   1      47.154  27.835  35.707  1.00  0.00     0.022 A 
BRANCH  88  91
ATOM     91  S   UNL A   1      46.100  25.766  37.166  1.00  0.00     0.127 S 
ATOM     92  O   UNL A   1      46.190  24.525  36.400  1.00  0.00    -0.237 OA
ATOM     93  O   UNL A   1      47.322  26.129  37.884  1.00  0.00    -0.237 OA
ATOM     94  O   UNL A   1      44.877  25.941  37.939  1.00  0.00    -0.744 OA
ENDBRANCH  88  91
ENDBRANCH  61  84
ENDBRANCH  35  36
ENDBRANCH  27  30
ENDBRANCH  25  26
ENDBRANCH  24  25
ENDBRANCH   1  24
TORSDOF 19
ENDMDL
MODEL 3
REMARK VINA RESULT:     -11.2      2.368      8.335
REMARK SMILES CCC[NH2+][C@]1(C(=O)NCCCCNC(=O)c2ccc(-c3c4nc(c(-c5cccc(S(=O)(=O)[O-])c5F)c5ccc([nH]5)c(-c5cccc(S(=O)(=O)[O-])c5F)c5nc(c(-c6cccc(S(=O)(=O)[O-])c6F)c6ccc3[nH]6)C=C5)C=C4)cc2)CCC[C@H](OC(C)(C)C)C1
REMARK SMILES IDX 10 1 9 2 8 3 6 4 7 5 5 7 79 8 88 9 80 10 82 11 81 12 4 13
REMARK SMILES IDX 3 16 2 17 1 18 83 19 84 20 85 21 86 22 87 23 11 24 12 25
REMARK SMILES IDX 13 26 14 27 15 29 16 30 17 31 78 32 18 33 77 34 19 35 20 36
REMARK SMILES IDX 21 37 71 38 22 39 76 40 70 41 72 42 23 43 75 44 69 45 68 46
REMARK SMILES IDX 24 48 56 49 36 50 55 51 37 52 40 53 54 54 73 55 38 56 39 57
REMARK SMILES IDX 53 59 74 60 41 61 25 62 26 63 34 64 27 65 29 66 35 67 28 68
REMARK SMILES IDX 30 69 31 70 32 71 33 72 57 73 58 74 66 75 59 76 61 77 67 78
REMARK SMILES IDX 60 79 62 80 63 81 64 82 65 83 42 84 43 85 51 86 44 87 46 88
REMARK SMILES IDX 52 89 45 90 47 91 48 92 49 93 50 94
REMARK H PARENT 8 6 4 14 4 15 13 28 72 47 40 58
REMARK Flexibility Score: inf
ROOT
ATOM      1  C   UNL A   1      31.179  31.557  25.753  1.00  0.00     0.023 C 
ENDROOT
BRANCH   1   2
ATOM      2  C   UNL A   1      31.849  30.188  25.618  1.00  0.00     0.116 C 
BRANCH   2   3
ATOM      3  N   UNL A   1      31.691  29.420  26.831  1.00  0.00    -0.351 N 
ATOM      4  C   UNL A   1      31.652  28.084  27.061  1.00  0.00     0.281 C 
ATOM      5  O   UNL A   1      31.387  27.763  28.231  1.00  0.00    -0.268 OA
ATOM      6  H   UNL A   1      31.593  29.969  27.642  1.00  0.00     0.163 HD
BRANCH   4   7
ATOM      7  C   UNL A   1      32.024  26.950  26.013  1.00  0.00     0.178 C 
ATOM      8  C   UNL A   1      31.579  27.141  24.545  1.00  0.00     0.079 C 
ATOM      9  C   UNL A   1      33.579  26.861  26.037  1.00  0.00     0.111 C 
ATOM     10  C   UNL A   1      32.165  26.135  23.555  1.00  0.00     0.010 C 
ATOM     11  C   UNL A   1      34.180  25.852  25.041  1.00  0.00     0.125 C 
ATOM     12  C   UNL A   1      33.689  26.146  23.623  1.00  0.00     0.032 C 
BRANCH   7  13
ATOM     13  N   UNL A   1      31.485  25.686  26.615  1.00  0.00    -0.334 N 
ATOM     14  H   UNL A   1      32.209  24.972  26.541  1.00  0.00     0.347 HD
ATOM     15  H   UNL A   1      31.231  25.925  27.573  1.00  0.00     0.347 HD
BRANCH  13  16
ATOM     16  C   UNL A   1      30.270  25.156  26.005  1.00  0.00     0.261 C 
BRANCH  16  17
ATOM     17  C   UNL A   1      30.426  23.675  25.646  1.00  0.00     0.058 C 
ATOM     18  C   UNL A   1      30.941  22.842  26.809  1.00  0.00     0.010 C 
ENDBRANCH  16  17
ENDBRANCH  13  16
ENDBRANCH   7  13
BRANCH  11  19
ATOM     19  O   UNL A   1      33.760  24.527  25.347  1.00  0.00    -0.372 OA
BRANCH  19  20
ATOM     20  C   UNL A   1      34.715  23.473  25.408  1.00  0.00     0.060 C 
ATOM     21  C   UNL A   1      34.309  22.376  24.421  1.00  0.00     0.042 C 
ATOM     22  C   UNL A   1      36.156  23.935  25.170  1.00  0.00     0.042 C 
ATOM     23  C   UNL A   1      34.602  22.931  26.841  1.00  0.00     0.042 C 
ENDBRANCH  19  20
ENDBRANCH  11  19
ENDBRANCH   4   7
ENDBRANCH   2   3
ENDBRANCH   1   2
BRANCH   1  24
ATOM     24  C   UNL A   1      31.398  32.246  27.093  1.00  0.00     0.023 C 
BRANCH  24  25
ATOM     25  C   UNL A   1      32.690  33.039  27.186  1.00  0.00     0.116 C 
BRANCH  25  26
ATOM     26  N   UNL A   1      32.542  34.332  27.846  1.00  0.00    -0.352 N 
ATOM     27  C   UNL A   1      33.328  34.856  28.848  1.00  0.00     0.251 C 
ATOM     28  H   UNL A   1      31.795  34.895  27.539  1.00  0.00     0.163 HD
ATOM     29  O   UNL A   1      33.056  35.930  29.365  1.00  0.00    -0.269 OA
BRANCH  27  30
ATOM     30  C   UNL A   1      34.476  34.055  29.315  1.00  0.00     0.039 A 
ATOM     31  C   UNL A   1      35.765  34.448  28.952  1.00  0.00     0.014 A 
ATOM     32  C   UNL A   1      34.270  33.005  30.212  1.00  0.00     0.014 A 
ATOM     33  C   UNL A   1      36.860  33.831  29.557  1.00  0.00     0.010 A 
ATOM     34  C   UNL A   1      35.358  32.457  30.877  1.00  0.00     0.010 A 
ATOM     35  C   UNL A   1      36.663  32.861  30.554  1.00  0.00    -0.014 A 
BRANCH  35  36
ATOM     36  C   UNL A   1      37.802  32.251  31.278  1.00  0.00     0.031 A 
ATOM     37  C   UNL A   1      38.548  31.103  30.656  1.00  0.00     0.074 A 
ATOM     38  C   UNL A   1      38.090  32.652  32.532  1.00  0.00     0.049 A 
ATOM     39  N   UNL A   1      39.512  30.378  31.159  1.00  0.00    -0.248 NA
ATOM     40  C   UNL A   1      38.128  30.688  29.307  1.00  0.00     0.031 C 
ATOM     41  C   UNL A   1      37.370  33.685  33.281  1.00  0.00     0.029 A 
ATOM     42  N   UNL A   1      39.049  32.215  33.412  1.00  0.00    -0.354 N 
ATOM     43  C   UNL A   1      39.779  29.397  30.212  1.00  0.00     0.074 A 
ATOM     44  C   UNL A   1      38.849  29.593  29.122  1.00  0.00     0.031 C 
ATOM     45  C   UNL A   1      37.918  33.808  34.501  1.00  0.00     0.029 A 
ATOM     46  C   UNL A   1      39.011  32.851  34.631  1.00  0.00     0.049 A 
ATOM     47  H   UNL A   1      39.702  31.512  33.191  1.00  0.00     0.167 HD
ATOM     48  C   UNL A   1      40.738  28.443  30.229  1.00  0.00     0.034 A 
ATOM     49  C   UNL A   1      39.778  32.682  35.727  1.00  0.00     0.034 A 
ATOM     50  C   UNL A   1      41.709  28.305  31.278  1.00  0.00     0.049 A 
ATOM     51  C   UNL A   1      40.897  31.677  35.682  1.00  0.00     0.074 A 
ATOM     52  C   UNL A   1      42.790  27.446  31.341  1.00  0.00     0.029 A 
ATOM     53  N   UNL A   1      41.719  29.052  32.444  1.00  0.00    -0.354 N 
ATOM     54  N   UNL A   1      41.245  30.874  34.707  1.00  0.00    -0.248 NA
ATOM     55  C   UNL A   1      41.755  31.582  36.873  1.00  0.00     0.031 C 
ATOM     56  C   UNL A   1      43.456  27.675  32.550  1.00  0.00     0.029 A 
ATOM     57  C   UNL A   1      42.791  28.679  33.235  1.00  0.00     0.049 A 
ATOM     58  H   UNL A   1      41.061  29.747  32.677  1.00  0.00     0.167 HD
ATOM     59  C   UNL A   1      42.380  30.203  35.148  1.00  0.00     0.074 A 
ATOM     60  C   UNL A   1      42.672  30.710  36.474  1.00  0.00     0.031 C 
ATOM     61  C   UNL A   1      43.102  29.243  34.523  1.00  0.00     0.034 A 
BRANCH  48  62
ATOM     62  C   UNL A   1      40.829  27.529  29.037  1.00  0.00     0.023 A 
ATOM     63  C   UNL A   1      39.979  26.406  28.963  1.00  0.00     0.012 A 
ATOM     64  C   UNL A   1      41.716  27.795  27.977  1.00  0.00     0.148 A 
ATOM     65  C   UNL A   1      40.037  25.541  27.872  1.00  0.00     0.002 A 
ATOM     66  C   UNL A   1      41.738  26.952  26.872  1.00  0.00     0.091 A 
ATOM     67  F   UNL A   1      42.536  28.851  28.078  1.00  0.00    -0.205 F 
ATOM     68  C   UNL A   1      40.908  25.820  26.823  1.00  0.00     0.022 A 
BRANCH  66  69
ATOM     69  S   UNL A   1      42.775  27.265  25.440  1.00  0.00     0.127 S 
ATOM     70  O   UNL A   1      44.083  27.467  26.060  1.00  0.00    -0.237 OA
ATOM     71  O   UNL A   1      42.644  26.020  24.683  1.00  0.00    -0.237 OA
ATOM     72  O   UNL A   1      42.204  28.433  24.783  1.00  0.00    -0.744 OA
ENDBRANCH  66  69
ENDBRANCH  48  62
BRANCH  49  73
ATOM     73  C   UNL A   1      39.574  33.554  36.919  1.00  0.00     0.023 A 
ATOM     74  C   UNL A   1      40.049  34.880  36.886  1.00  0.00     0.012 A 
ATOM     75  C   UNL A   1      38.888  33.099  38.061  1.00  0.00     0.148 A 
ATOM     76  C   UNL A   1      39.869  35.728  37.978  1.00  0.00     0.002 A 
ATOM     77  C   UNL A   1      38.668  33.965  39.126  1.00  0.00     0.091 A 
ATOM     78  F   UNL A   1      38.456  31.830  38.081  1.00  0.00    -0.205 F 
ATOM     79  C   UNL A   1      39.171  35.276  39.094  1.00  0.00     0.022 A 
BRANCH  77  80
ATOM     80  S   UNL A   1      37.666  33.503  40.545  1.00  0.00     0.127 S 
ATOM     81  O   UNL A   1      38.508  32.501  41.192  1.00  0.00    -0.237 OA
ATOM     82  O   UNL A   1      37.553  34.772  41.266  1.00  0.00    -0.237 OA
ATOM     83  O   UNL A   1      36.410  33.020  39.988  1.00  0.00    -0.744 OA
ENDBRANCH  77  80
ENDBRANCH  49  73
BRANCH  61  84
ATOM     84  C   UNL A   1      44.301  28.688  35.245  1.00  0.00     0.023 A 
ATOM     85  C   UNL A   1      45.570  29.254  35.018  1.00  0.00     0.012 A 
ATOM     86  C   UNL A   1      44.154  27.677  36.213  1.00  0.00     0.148 A 
ATOM     87  C   UNL A   1      46.682  28.804  35.728  1.00  0.00     0.002 A 
ATOM     88  C   UNL A   1      45.259  27.264  36.948  1.00  0.00     0.091 A 
ATOM     89  F   UNL A   1      42.940  27.137  36.398  1.00  0.00    -0.205 F 
ATOM     90  C   UNL A   1      46.524  27.819  36.701  1.00  0.00     0.022 A 
BRANCH  88  91
ATOM     91  S   UNL A   1      45.125  26.069  38.283  1.00  0.00     0.127 S 
ATOM     92  O   UNL A   1      46.521  25.913  38.685  1.00  0.00    -0.237 OA
ATOM     93  O   UNL A   1      44.287  26.775  39.254  1.00  0.00    -0.237 OA
ATOM     94  O   UNL A   1      44.502  24.889  37.700  1.00  0.00    -0.744 OA
ENDBRANCH  88  91
ENDBRANCH  61  84
ENDBRANCH  35  36
ENDBRANCH  27  30
ENDBRANCH  25  26
ENDBRANCH  24  25
ENDBRANCH   1  24
TORSDOF 19
ENDMDL
