MODEL 1
REMARK VINA RESULT:     -13.9      0.000      0.000
REMARK SMILES O=C(NCCCCNC(=O)[C@@H](Cc1c[nH]c2ccccc12)Nc1ncnc2ccccc12)c1ccc(-c2c3nc(c(-c4cccc(S(=O)(=O)[O-])c4F)c4ccc([nH]4)c(-c4cccc(S(=O)(=O)[O-])c4F)c4nc(c(-c5cccc(S(=O)(=O)[O-])c5F)c5ccc2[nH]5)C=C4)C=C3)cc1
REMARK SMILES IDX 5 1 4 2 3 3 1 4 2 5 33 7 34 8 95 9 35 10 94 11 36 12 37 13
REMARK SMILES IDX 38 14 88 15 39 16 93 17 87 18 89 19 40 20 92 21 86 22 85 23
REMARK SMILES IDX 41 25 73 26 53 27 72 28 54 29 57 30 71 31 90 32 55 33 56 34
REMARK SMILES IDX 70 36 91 37 58 38 42 39 43 40 51 41 44 42 46 43 52 44 45 45
REMARK SMILES IDX 47 46 48 47 49 48 50 49 74 50 75 51 83 52 76 53 78 54 84 55
REMARK SMILES IDX 77 56 79 57 80 58 81 59 82 60 59 61 60 62 68 63 61 64 63 65
REMARK SMILES IDX 69 66 62 67 64 68 65 69 66 70 67 71 6 72 7 73 8 74 9 75
REMARK SMILES IDX 10 77 11 78 12 79 13 80 14 81 21 82 15 83 16 84 20 85 17 87
REMARK SMILES IDX 19 88 18 89 22 90 23 92 24 93 32 94 25 95 27 96 31 97 26 98
REMARK SMILES IDX 28 99 30 100 29 101
REMARK H PARENT 3 6 89 24 57 35 8 76 15 86 22 91
REMARK Flexibility Score: inf
ROOT
ATOM      1  C   UNL A   1      31.773  28.514  27.298  1.00  0.00     0.023 C 
ENDROOT
BRANCH   1   2
ATOM      2  C   UNL A   1      32.675  29.516  26.587  1.00  0.00     0.116 C 
BRANCH   2   3
ATOM      3  N   UNL A   1      32.365  30.917  26.828  1.00  0.00    -0.352 N 
ATOM      4  O   UNL A   1      32.823  33.022  27.560  1.00  0.00    -0.269 OA
ATOM      5  C   UNL A   1      33.215  31.887  27.338  1.00  0.00     0.251 C 
ATOM      6  H   UNL A   1      31.452  31.210  26.605  1.00  0.00     0.163 HD
BRANCH   5   7
ATOM      7  C   UNL A   1      34.608  31.488  27.668  1.00  0.00     0.039 A 
ATOM      8  C   UNL A   1      34.944  30.137  27.757  1.00  0.00     0.014 A 
ATOM      9  C   UNL A   1      35.537  32.469  28.026  1.00  0.00     0.014 A 
ATOM     10  C   UNL A   1      36.111  29.764  28.416  1.00  0.00     0.010 A 
ATOM     11  C   UNL A   1      36.757  32.087  28.598  1.00  0.00     0.010 A 
ATOM     12  C   UNL A   1      37.022  30.735  28.868  1.00  0.00    -0.014 A 
BRANCH  12  13
ATOM     13  C   UNL A   1      38.224  30.305  29.634  1.00  0.00     0.031 A 
ATOM     14  C   UNL A   1      38.431  30.727  31.068  1.00  0.00     0.074 A 
ATOM     15  C   UNL A   1      39.115  29.483  29.045  1.00  0.00     0.049 A 
ATOM     16  N   UNL A   1      39.400  30.405  31.889  1.00  0.00    -0.248 NA
ATOM     17  C   UNL A   1      37.430  31.630  31.660  1.00  0.00     0.031 C 
ATOM     18  C   UNL A   1      39.043  29.026  27.656  1.00  0.00     0.029 A 
ATOM     19  N   UNL A   1      40.242  28.875  29.536  1.00  0.00    -0.354 N 
ATOM     20  C   UNL A   1      39.156  31.102  33.068  1.00  0.00     0.074 A 
ATOM     21  C   UNL A   1      37.946  31.867  32.860  1.00  0.00     0.031 C 
ATOM     22  C   UNL A   1      40.052  28.177  27.419  1.00  0.00     0.029 A 
ATOM     23  C   UNL A   1      40.874  28.068  28.620  1.00  0.00     0.049 A 
ATOM     24  H   UNL A   1      40.567  29.003  30.457  1.00  0.00     0.167 HD
ATOM     25  C   UNL A   1      39.863  31.091  34.225  1.00  0.00     0.034 A 
ATOM     26  C   UNL A   1      41.993  27.327  28.725  1.00  0.00     0.034 A 
ATOM     27  C   UNL A   1      41.029  30.279  34.455  1.00  0.00     0.049 A 
ATOM     28  C   UNL A   1      42.727  27.295  30.034  1.00  0.00     0.074 A 
ATOM     29  C   UNL A   1      41.777  30.157  35.613  1.00  0.00     0.029 A 
ATOM     30  N   UNL A   1      41.613  29.446  33.513  1.00  0.00    -0.354 N 
ATOM     31  N   UNL A   1      42.419  27.882  31.165  1.00  0.00    -0.248 NA
ATOM     32  C   UNL A   1      43.951  26.483  30.090  1.00  0.00     0.031 C 
ATOM     33  C   UNL A   1      42.817  29.251  35.371  1.00  0.00     0.029 A 
ATOM     34  C   UNL A   1      42.712  28.806  34.062  1.00  0.00     0.049 A 
ATOM     35  H   UNL A   1      41.294  29.327  32.589  1.00  0.00     0.167 HD
ATOM     36  C   UNL A   1      43.402  27.502  32.070  1.00  0.00     0.074 A 
ATOM     37  C   UNL A   1      44.295  26.606  31.365  1.00  0.00     0.031 C 
ATOM     38  C   UNL A   1      43.565  27.881  33.361  1.00  0.00     0.034 A 
BRANCH  25  39
ATOM     39  C   UNL A   1      39.369  31.950  35.362  1.00  0.00     0.023 A 
ATOM     40  C   UNL A   1      38.477  31.404  36.306  1.00  0.00     0.012 A 
ATOM     41  C   UNL A   1      39.844  33.263  35.542  1.00  0.00     0.148 A 
ATOM     42  C   UNL A   1      38.047  32.158  37.398  1.00  0.00     0.002 A 
ATOM     43  C   UNL A   1      39.438  33.997  36.652  1.00  0.00     0.091 A 
ATOM     44  F   UNL A   1      40.674  33.778  34.622  1.00  0.00    -0.205 F 
ATOM     45  C   UNL A   1      38.536  33.449  37.577  1.00  0.00     0.022 A 
BRANCH  43  46
ATOM     46  S   UNL A   1      40.073  35.644  36.999  1.00  0.00     0.127 S 
ATOM     47  O   UNL A   1      39.570  36.401  35.854  1.00  0.00    -0.237 OA
ATOM     48  O   UNL A   1      39.427  35.968  38.273  1.00  0.00    -0.237 OA
ATOM     49  O   UNL A   1      41.519  35.501  37.078  1.00  0.00    -0.744 OA
ENDBRANCH  43  46
ENDBRANCH  25  39
BRANCH  26  50
ATOM     50  C   UNL A   1      42.438  26.507  27.563  1.00  0.00     0.023 A 
ATOM     51  C   UNL A   1      43.364  27.044  26.651  1.00  0.00     0.012 A 
ATOM     52  C   UNL A   1      42.013  25.173  27.406  1.00  0.00     0.148 A 
ATOM     53  C   UNL A   1      43.854  26.272  25.598  1.00  0.00     0.002 A 
ATOM     54  C   UNL A   1      42.552  24.389  26.392  1.00  0.00     0.091 A 
ATOM     55  F   UNL A   1      41.108  24.685  28.268  1.00  0.00    -0.205 F 
ATOM     56  C   UNL A   1      43.461  24.940  25.478  1.00  0.00     0.022 A 
BRANCH  54  57
ATOM     57  S   UNL A   1      42.216  22.628  26.288  1.00  0.00     0.127 S 
ATOM     58  O   UNL A   1      42.835  22.278  25.013  1.00  0.00    -0.237 OA
ATOM     59  O   UNL A   1      42.905  22.109  27.470  1.00  0.00    -0.237 OA
ATOM     60  O   UNL A   1      40.765  22.515  26.352  1.00  0.00    -0.744 OA
ENDBRANCH  54  57
ENDBRANCH  26  50
BRANCH  38  61
ATOM     61  C   UNL A   1      44.754  27.328  34.097  1.00  0.00     0.023 A 
ATOM     62  C   UNL A   1      45.968  28.042  34.079  1.00  0.00     0.012 A 
ATOM     63  C   UNL A   1      44.659  26.140  34.846  1.00  0.00     0.148 A 
ATOM     64  C   UNL A   1      47.079  27.567  34.773  1.00  0.00     0.002 A 
ATOM     65  C   UNL A   1      45.760  25.693  35.568  1.00  0.00     0.091 A 
ATOM     66  F   UNL A   1      43.502  25.462  34.830  1.00  0.00    -0.205 F 
ATOM     67  C   UNL A   1      46.973  26.400  35.525  1.00  0.00     0.022 A 
BRANCH  65  68
ATOM     68  S   UNL A   1      45.677  24.241  36.622  1.00  0.00     0.127 S 
ATOM     69  O   UNL A   1      45.410  23.181  35.652  1.00  0.00    -0.237 OA
ATOM     70  O   UNL A   1      47.014  24.201  37.215  1.00  0.00    -0.237 OA
ATOM     71  O   UNL A   1      44.608  24.511  37.575  1.00  0.00    -0.744 OA
ENDBRANCH  65  68
ENDBRANCH  38  61
ENDBRANCH  12  13
ENDBRANCH   5   7
ENDBRANCH   2   3
ENDBRANCH   1   2
BRANCH   1  72
ATOM     72  C   UNL A   1      31.151  27.432  26.419  1.00  0.00     0.023 C 
BRANCH  72  73
ATOM     73  C   UNL A   1      31.894  26.095  26.428  1.00  0.00     0.116 C 
BRANCH  73  74
ATOM     74  N   UNL A   1      31.137  24.998  26.997  1.00  0.00    -0.354 N 
ATOM     75  C   UNL A   1      30.974  23.696  26.653  1.00  0.00     0.242 C 
ATOM     76  H   UNL A   1      30.634  25.252  27.804  1.00  0.00     0.163 HD
ATOM     77  O   UNL A   1      30.462  22.987  27.535  1.00  0.00    -0.273 OA
BRANCH  75  78
ATOM     78  C   UNL A   1      31.282  23.068  25.274  1.00  0.00     0.174 C 
BRANCH  78  79
ATOM     79  C   UNL A   1      31.399  21.548  25.188  1.00  0.00     0.072 C 
BRANCH  79  80
ATOM     80  C   UNL A   1      32.707  20.805  25.003  1.00  0.00    -0.020 A 
ATOM     81  C   UNL A   1      33.870  21.305  25.574  1.00  0.00     0.087 A 
ATOM     82  C   UNL A   1      33.083  19.550  24.385  1.00  0.00     0.003 A 
ATOM     83  N   UNL A   1      34.879  20.406  25.407  1.00  0.00    -0.361 N 
ATOM     84  C   UNL A   1      34.423  19.314  24.715  1.00  0.00     0.046 A 
ATOM     85  C   UNL A   1      32.434  18.534  23.638  1.00  0.00     0.010 A 
ATOM     86  H   UNL A   1      35.800  20.523  25.734  1.00  0.00     0.166 HD
ATOM     87  C   UNL A   1      35.105  18.134  24.394  1.00  0.00     0.026 A 
ATOM     88  C   UNL A   1      33.102  17.350  23.300  1.00  0.00     0.001 A 
ATOM     89  C   UNL A   1      34.417  17.148  23.689  1.00  0.00     0.002 A 
ENDBRANCH  79  80
ENDBRANCH  78  79
BRANCH  78  90
ATOM     90  N   UNL A   1      30.575  23.645  24.129  1.00  0.00    -0.358 N 
ATOM     91  H   UNL A   1      29.697  23.275  23.883  1.00  0.00     0.162 HD
BRANCH  90  92
ATOM     92  C   UNL A   1      31.089  24.687  23.377  1.00  0.00     0.137 A 
ATOM     93  N   UNL A   1      32.350  24.498  22.961  1.00  0.00    -0.219 NA
ATOM     94  C   UNL A   1      30.439  25.935  23.253  1.00  0.00     0.043 A 
ATOM     95  C   UNL A   1      32.956  25.538  22.381  1.00  0.00     0.224 A 
ATOM     96  C   UNL A   1      31.188  26.944  22.629  1.00  0.00     0.076 A 
ATOM     97  C   UNL A   1      29.134  26.247  23.723  1.00  0.00     0.014 A 
ATOM     98  N   UNL A   1      32.437  26.758  22.195  1.00  0.00    -0.236 NA
ATOM     99  C   UNL A   1      30.621  28.204  22.477  1.00  0.00     0.029 A 
ATOM    100  C   UNL A   1      28.578  27.510  23.538  1.00  0.00     0.001 A 
ATOM    101  C   UNL A   1      29.326  28.495  22.914  1.00  0.00     0.002 A 
ENDBRANCH  90  92
ENDBRANCH  78  90
ENDBRANCH  75  78
ENDBRANCH  73  74
ENDBRANCH  72  73
ENDBRANCH   1  72
TORSDOF 18
ENDMDL
MODEL 2
REMARK VINA RESULT:     -13.9      4.623      9.816
REMARK SMILES O=C(NCCCCNC(=O)[C@@H](Cc1c[nH]c2ccccc12)Nc1ncnc2ccccc12)c1ccc(-c2c3nc(c(-c4cccc(S(=O)(=O)[O-])c4F)c4ccc([nH]4)c(-c4cccc(S(=O)(=O)[O-])c4F)c4nc(c(-c5cccc(S(=O)(=O)[O-])c5F)c5ccc2[nH]5)C=C4)C=C3)cc1
REMARK SMILES IDX 5 1 4 2 3 3 1 4 2 5 33 7 34 8 95 9 35 10 94 11 36 12 37 13
REMARK SMILES IDX 38 14 88 15 39 16 93 17 87 18 89 19 40 20 92 21 86 22 85 23
REMARK SMILES IDX 41 25 73 26 53 27 72 28 54 29 57 30 71 31 90 32 55 33 56 34
REMARK SMILES IDX 70 36 91 37 58 38 42 39 43 40 51 41 44 42 46 43 52 44 45 45
REMARK SMILES IDX 47 46 48 47 49 48 50 49 74 50 75 51 83 52 76 53 78 54 84 55
REMARK SMILES IDX 77 56 79 57 80 58 81 59 82 60 59 61 60 62 68 63 61 64 63 65
REMARK SMILES IDX 69 66 62 67 64 68 65 69 66 70 67 71 6 72 7 73 8 74 9 75
REMARK SMILES IDX 10 77 11 78 12 79 13 80 14 81 21 82 15 83 16 84 20 85 17 87
REMARK SMILES IDX 19 88 18 89 22 90 23 92 24 93 32 94 25 95 27 96 31 97 26 98
REMARK SMILES IDX 28 99 30 100 29 101
REMARK H PARENT 3 6 89 24 57 35 8 76 15 86 22 91
REMARK Flexibility Score: inf
ROOT
ATOM      1  C   UNL A   1      35.862  20.440  24.929  1.00  0.00     0.023 C 
ENDROOT
BRANCH   1   2
ATOM      2  C   UNL A   1      37.259  21.003  25.164  1.00  0.00     0.116 C 
BRANCH   2   3
ATOM      3  N   UNL A   1      38.325  20.017  25.246  1.00  0.00    -0.352 N 
ATOM      4  O   UNL A   1      40.403  19.287  25.816  1.00  0.00    -0.269 OA
ATOM      5  C   UNL A   1      39.557  20.165  25.867  1.00  0.00     0.251 C 
ATOM      6  H   UNL A   1      38.155  19.149  24.815  1.00  0.00     0.163 HD
BRANCH   5   7
ATOM      7  C   UNL A   1      39.843  21.455  26.548  1.00  0.00     0.039 A 
ATOM      8  C   UNL A   1      39.266  22.635  26.076  1.00  0.00     0.014 A 
ATOM      9  C   UNL A   1      40.798  21.498  27.566  1.00  0.00     0.014 A 
ATOM     10  C   UNL A   1      39.807  23.859  26.455  1.00  0.00     0.010 A 
ATOM     11  C   UNL A   1      41.270  22.736  28.019  1.00  0.00     0.010 A 
ATOM     12  C   UNL A   1      40.834  23.925  27.414  1.00  0.00    -0.014 A 
BRANCH  12  13
ATOM     13  C   UNL A   1      41.440  25.245  27.741  1.00  0.00     0.031 A 
ATOM     14  C   UNL A   1      42.833  25.602  27.284  1.00  0.00     0.074 A 
ATOM     15  C   UNL A   1      40.707  26.152  28.417  1.00  0.00     0.049 A 
ATOM     16  N   UNL A   1      43.491  26.723  27.448  1.00  0.00    -0.248 NA
ATOM     17  C   UNL A   1      43.592  24.573  26.555  1.00  0.00     0.031 C 
ATOM     18  C   UNL A   1      39.358  25.919  28.938  1.00  0.00     0.029 A 
ATOM     19  N   UNL A   1      40.978  27.450  28.769  1.00  0.00    -0.354 N 
ATOM     20  C   UNL A   1      44.750  26.518  26.894  1.00  0.00     0.074 A 
ATOM     21  C   UNL A   1      44.768  25.163  26.386  1.00  0.00     0.031 C 
ATOM     22  C   UNL A   1      38.904  27.046  29.502  1.00  0.00     0.029 A 
ATOM     23  C   UNL A   1      39.944  28.066  29.432  1.00  0.00     0.049 A 
ATOM     24  H   UNL A   1      41.832  27.897  28.566  1.00  0.00     0.167 HD
ATOM     25  C   UNL A   1      45.790  27.383  26.798  1.00  0.00     0.034 A 
ATOM     26  C   UNL A   1      39.840  29.311  29.936  1.00  0.00     0.034 A 
ATOM     27  C   UNL A   1      45.749  28.751  27.242  1.00  0.00     0.049 A 
ATOM     28  C   UNL A   1      40.989  30.263  29.770  1.00  0.00     0.074 A 
ATOM     29  C   UNL A   1      46.731  29.720  27.134  1.00  0.00     0.029 A 
ATOM     30  N   UNL A   1      44.668  29.348  27.873  1.00  0.00    -0.354 N 
ATOM     31  N   UNL A   1      42.130  30.077  29.151  1.00  0.00    -0.248 NA
ATOM     32  C   UNL A   1      40.830  31.603  30.352  1.00  0.00     0.031 C 
ATOM     33  C   UNL A   1      46.246  30.904  27.703  1.00  0.00     0.029 A 
ATOM     34  C   UNL A   1      44.958  30.671  28.161  1.00  0.00     0.049 A 
ATOM     35  H   UNL A   1      43.819  28.897  28.085  1.00  0.00     0.167 HD
ATOM     36  C   UNL A   1      42.819  31.279  29.258  1.00  0.00     0.074 A 
ATOM     37  C   UNL A   1      41.954  32.195  29.971  1.00  0.00     0.031 C 
ATOM     38  C   UNL A   1      44.068  31.585  28.829  1.00  0.00     0.034 A 
BRANCH  25  39
ATOM     39  C   UNL A   1      47.056  26.895  26.140  1.00  0.00     0.023 A 
ATOM     40  C   UNL A   1      47.231  27.080  24.754  1.00  0.00     0.012 A 
ATOM     41  C   UNL A   1      48.099  26.328  26.897  1.00  0.00     0.148 A 
ATOM     42  C   UNL A   1      48.415  26.689  24.128  1.00  0.00     0.002 A 
ATOM     43  C   UNL A   1      49.290  25.972  26.272  1.00  0.00     0.091 A 
ATOM     44  F   UNL A   1      47.907  26.136  28.211  1.00  0.00    -0.205 F 
ATOM     45  C   UNL A   1      49.448  26.146  24.888  1.00  0.00     0.022 A 
BRANCH  43  46
ATOM     46  S   UNL A   1      50.699  25.329  27.187  1.00  0.00     0.127 S 
ATOM     47  O   UNL A   1      51.065  26.479  28.012  1.00  0.00    -0.237 OA
ATOM     48  O   UNL A   1      50.108  24.212  27.928  1.00  0.00    -0.237 OA
ATOM     49  O   UNL A   1      51.674  24.934  26.182  1.00  0.00    -0.744 OA
ENDBRANCH  43  46
ENDBRANCH  25  39
BRANCH  26  50
ATOM     50  C   UNL A   1      38.567  29.732  30.585  1.00  0.00     0.023 A 
ATOM     51  C   UNL A   1      38.358  29.447  31.946  1.00  0.00     0.012 A 
ATOM     52  C   UNL A   1      37.604  30.485  29.884  1.00  0.00     0.148 A 
ATOM     53  C   UNL A   1      37.208  29.895  32.597  1.00  0.00     0.002 A 
ATOM     54  C   UNL A   1      36.493  30.982  30.554  1.00  0.00     0.091 A 
ATOM     55  F   UNL A   1      37.807  30.724  28.580  1.00  0.00    -0.205 F 
ATOM     56  C   UNL A   1      36.284  30.677  31.906  1.00  0.00     0.022 A 
BRANCH  54  57
ATOM     57  S   UNL A   1      35.358  32.131  29.766  1.00  0.00     0.127 S 
ATOM     58  O   UNL A   1      34.462  32.472  30.866  1.00  0.00    -0.237 OA
ATOM     59  O   UNL A   1      36.251  33.209  29.341  1.00  0.00    -0.237 OA
ATOM     60  O   UNL A   1      34.767  31.383  28.663  1.00  0.00    -0.744 OA
ENDBRANCH  54  57
ENDBRANCH  26  50
BRANCH  38  61
ATOM     61  C   UNL A   1      44.573  32.972  29.117  1.00  0.00     0.023 A 
ATOM     62  C   UNL A   1      45.214  33.231  30.344  1.00  0.00     0.012 A 
ATOM     63  C   UNL A   1      44.466  34.000  28.160  1.00  0.00     0.148 A 
ATOM     64  C   UNL A   1      45.716  34.500  30.628  1.00  0.00     0.002 A 
ATOM     65  C   UNL A   1      45.003  35.253  28.434  1.00  0.00     0.091 A 
ATOM     66  F   UNL A   1      43.831  33.740  27.008  1.00  0.00    -0.205 F 
ATOM     67  C   UNL A   1      45.620  35.507  29.671  1.00  0.00     0.022 A 
BRANCH  65  68
ATOM     68  S   UNL A   1      44.989  36.577  27.220  1.00  0.00     0.127 S 
ATOM     69  O   UNL A   1      45.611  37.671  27.964  1.00  0.00    -0.237 OA
ATOM     70  O   UNL A   1      45.812  36.029  26.142  1.00  0.00    -0.237 OA
ATOM     71  O   UNL A   1      43.589  36.767  26.866  1.00  0.00    -0.744 OA
ENDBRANCH  65  68
ENDBRANCH  38  61
ENDBRANCH  12  13
ENDBRANCH   5   7
ENDBRANCH   2   3
ENDBRANCH   1   2
BRANCH   1  72
ATOM     72  C   UNL A   1      34.706  21.421  25.105  1.00  0.00     0.023 C 
BRANCH  72  73
ATOM     73  C   UNL A   1      33.912  21.250  26.401  1.00  0.00     0.116 C 
BRANCH  73  74
ATOM     74  N   UNL A   1      32.486  21.458  26.256  1.00  0.00    -0.354 N 
ATOM     75  C   UNL A   1      31.700  22.564  26.220  1.00  0.00     0.242 C 
ATOM     76  H   UNL A   1      31.979  20.619  26.165  1.00  0.00     0.163 HD
ATOM     77  O   UNL A   1      30.544  22.365  25.812  1.00  0.00    -0.273 OA
BRANCH  75  78
ATOM     78  C   UNL A   1      32.087  23.978  26.711  1.00  0.00     0.174 C 
BRANCH  78  79
ATOM     79  C   UNL A   1      33.317  24.640  26.093  1.00  0.00     0.072 C 
BRANCH  79  80
ATOM     80  C   UNL A   1      33.420  25.050  24.638  1.00  0.00    -0.020 A 
ATOM     81  C   UNL A   1      33.083  24.143  23.642  1.00  0.00     0.087 A 
ATOM     82  C   UNL A   1      33.743  26.284  23.952  1.00  0.00     0.003 A 
ATOM     83  N   UNL A   1      33.107  24.770  22.433  1.00  0.00    -0.361 N 
ATOM     84  C   UNL A   1      33.474  26.081  22.593  1.00  0.00     0.046 A 
ATOM     85  C   UNL A   1      34.167  27.586  24.318  1.00  0.00     0.010 A 
ATOM     86  H   UNL A   1      32.893  24.344  21.571  1.00  0.00     0.166 HD
ATOM     87  C   UNL A   1      33.553  27.092  21.627  1.00  0.00     0.026 A 
ATOM     88  C   UNL A   1      34.260  28.609  23.365  1.00  0.00     0.001 A 
ATOM     89  C   UNL A   1      33.940  28.365  22.038  1.00  0.00     0.002 A 
ENDBRANCH  79  80
ENDBRANCH  78  79
BRANCH  78  90
ATOM     90  N   UNL A   1      30.981  24.916  26.912  1.00  0.00    -0.358 N 
ATOM     91  H   UNL A   1      30.455  24.852  27.742  1.00  0.00     0.162 HD
BRANCH  90  92
ATOM     92  C   UNL A   1      30.643  25.888  25.987  1.00  0.00     0.137 A 
ATOM     93  N   UNL A   1      30.077  25.411  24.868  1.00  0.00    -0.219 NA
ATOM     94  C   UNL A   1      31.063  27.231  26.098  1.00  0.00     0.043 A 
ATOM     95  C   UNL A   1      29.888  26.279  23.870  1.00  0.00     0.224 A 
ATOM     96  C   UNL A   1      30.809  28.037  24.977  1.00  0.00     0.076 A 
ATOM     97  C   UNL A   1      31.729  27.808  27.214  1.00  0.00     0.014 A 
ATOM     98  N   UNL A   1      30.229  27.574  23.868  1.00  0.00    -0.236 NA
ATOM     99  C   UNL A   1      31.201  29.370  25.007  1.00  0.00     0.029 A 
ATOM    100  C   UNL A   1      32.091  29.153  27.230  1.00  0.00     0.001 A 
ATOM    101  C   UNL A   1      31.828  29.938  26.119  1.00  0.00     0.002 A 
ENDBRANCH  90  92
ENDBRANCH  78  90
ENDBRANCH  75  78
ENDBRANCH  73  74
ENDBRANCH  72  73
ENDBRANCH   1  72
TORSDOF 18
ENDMDL
MODEL 3
REMARK VINA RESULT:     -13.9      0.524      7.519
REMARK SMILES O=C(NCCCCNC(=O)[C@@H](Cc1c[nH]c2ccccc12)Nc1ncnc2ccccc12)c1ccc(-c2c3nc(c(-c4cccc(S(=O)(=O)[O-])c4F)c4ccc([nH]4)c(-c4cccc(S(=O)(=O)[O-])c4F)c4nc(c(-c5cccc(S(=O)(=O)[O-])c5F)c5ccc2[nH]5)C=C4)C=C3)cc1
REMARK SMILES IDX 5 1 4 2 3 3 1 4 2 5 33 7 34 8 95 9 35 10 94 11 36 12 37 13
REMARK SMILES IDX 38 14 88 15 39 16 93 17 87 18 89 19 40 20 92 21 86 22 85 23
REMARK SMILES IDX 41 25 73 26 53 27 72 28 54 29 57 30 71 31 90 32 55 33 56 34
REMARK SMILES IDX 70 36 91 37 58 38 42 39 43 40 51 41 44 42 46 43 52 44 45 45
REMARK SMILES IDX 47 46 48 47 49 48 50 49 74 50 75 51 83 52 76 53 78 54 84 55
REMARK SMILES IDX 77 56 79 57 80 58 81 59 82 60 59 61 60 62 68 63 61 64 63 65
REMARK SMILES IDX 69 66 62 67 64 68 65 69 66 70 67 71 6 72 7 73 8 74 9 75
REMARK SMILES IDX 10 77 11 78 12 79 13 80 14 81 21 82 15 83 16 84 20 85 17 87
REMARK SMILES IDX 19 88 18 89 22 90 23 92 24 93 32 94 25 95 27 96 31 97 26 98
REMARK SMILES IDX 28 99 30 100 29 101
REMARK H PARENT 3 6 89 24 57 35 8 76 15 86 22 91
REMARK Flexibility Score: inf
ROOT
ATOM      1  C   UNL A   1      31.564  28.812  26.213  1.00  0.00     0.023 C 
ENDROOT
BRANCH   1   2
ATOM      2  C   UNL A   1      32.577  29.912  25.919  1.00  0.00     0.116 C 
BRANCH   2   3
ATOM      3  N   UNL A   1      32.259  31.220  26.471  1.00  0.00    -0.352 N 
ATOM      4  O   UNL A   1      32.662  33.060  27.746  1.00  0.00    -0.269 OA
ATOM      5  C   UNL A   1      33.063  32.002  27.286  1.00  0.00     0.251 C 
ATOM      6  H   UNL A   1      31.376  31.590  26.242  1.00  0.00     0.163 HD
BRANCH   5   7
ATOM      7  C   UNL A   1      34.411  31.485  27.638  1.00  0.00     0.039 A 
ATOM      8  C   UNL A   1      34.581  30.136  27.950  1.00  0.00     0.014 A 
ATOM      9  C   UNL A   1      35.472  32.382  27.792  1.00  0.00     0.014 A 
ATOM     10  C   UNL A   1      35.726  29.730  28.627  1.00  0.00     0.010 A 
ATOM     11  C   UNL A   1      36.664  31.945  28.384  1.00  0.00     0.010 A 
ATOM     12  C   UNL A   1      36.773  30.635  28.876  1.00  0.00    -0.014 A 
BRANCH  12  13
ATOM     13  C   UNL A   1      37.950  30.186  29.669  1.00  0.00     0.031 A 
ATOM     14  C   UNL A   1      39.011  29.301  29.062  1.00  0.00     0.074 A 
ATOM     15  C   UNL A   1      38.090  30.621  30.936  1.00  0.00     0.049 A 
ATOM     16  N   UNL A   1      40.119  28.855  29.601  1.00  0.00    -0.248 NA
ATOM     17  C   UNL A   1      38.805  28.848  27.676  1.00  0.00     0.031 C 
ATOM     18  C   UNL A   1      37.121  31.458  31.647  1.00  0.00     0.029 A 
ATOM     19  N   UNL A   1      39.101  30.438  31.846  1.00  0.00    -0.354 N 
ATOM     20  C   UNL A   1      40.711  28.035  28.647  1.00  0.00     0.074 A 
ATOM     21  C   UNL A   1      39.842  28.041  27.491  1.00  0.00     0.031 C 
ATOM     22  C   UNL A   1      37.602  31.753  32.862  1.00  0.00     0.029 A 
ATOM     23  C   UNL A   1      38.887  31.085  33.040  1.00  0.00     0.049 A 
ATOM     24  H   UNL A   1      39.902  29.896  31.662  1.00  0.00     0.167 HD
ATOM     25  C   UNL A   1      41.881  27.353  28.718  1.00  0.00     0.034 A 
ATOM     26  C   UNL A   1      39.634  31.134  34.160  1.00  0.00     0.034 A 
ATOM     27  C   UNL A   1      42.779  27.400  29.842  1.00  0.00     0.049 A 
ATOM     28  C   UNL A   1      40.950  30.410  34.191  1.00  0.00     0.074 A 
ATOM     29  C   UNL A   1      44.015  26.792  29.981  1.00  0.00     0.029 A 
ATOM     30  N   UNL A   1      42.544  28.099  31.016  1.00  0.00    -0.354 N 
ATOM     31  N   UNL A   1      41.536  29.726  33.239  1.00  0.00    -0.248 NA
ATOM     32  C   UNL A   1      41.717  30.483  35.443  1.00  0.00     0.031 C 
ATOM     33  C   UNL A   1      44.526  27.120  31.243  1.00  0.00     0.029 A 
ATOM     34  C   UNL A   1      43.610  27.937  31.886  1.00  0.00     0.049 A 
ATOM     35  H   UNL A   1      41.738  28.632  31.204  1.00  0.00     0.167 HD
ATOM     36  C   UNL A   1      42.745  29.297  33.770  1.00  0.00     0.074 A 
ATOM     37  C   UNL A   1      42.823  29.828  35.116  1.00  0.00     0.031 C 
ATOM     38  C   UNL A   1      43.694  28.511  33.204  1.00  0.00     0.034 A 
BRANCH  25  39
ATOM     39  C   UNL A   1      42.293  26.531  27.523  1.00  0.00     0.023 A 
ATOM     40  C   UNL A   1      43.067  27.125  26.506  1.00  0.00     0.012 A 
ATOM     41  C   UNL A   1      41.985  25.159  27.442  1.00  0.00     0.148 A 
ATOM     42  C   UNL A   1      43.508  26.374  25.417  1.00  0.00     0.002 A 
ATOM     43  C   UNL A   1      42.458  24.408  26.370  1.00  0.00     0.091 A 
ATOM     44  F   UNL A   1      41.227  24.613  28.405  1.00  0.00    -0.205 F 
ATOM     45  C   UNL A   1      43.214  25.014  25.354  1.00  0.00     0.022 A 
BRANCH  43  46
ATOM     46  S   UNL A   1      42.184  22.635  26.245  1.00  0.00     0.127 S 
ATOM     47  O   UNL A   1      42.889  22.143  27.428  1.00  0.00    -0.237 OA
ATOM     48  O   UNL A   1      40.724  22.537  26.323  1.00  0.00    -0.237 OA
ATOM     49  O   UNL A   1      42.745  22.238  24.963  1.00  0.00    -0.744 OA
ENDBRANCH  43  46
ENDBRANCH  25  39
BRANCH  26  50
ATOM     50  C   UNL A   1      39.170  31.955  35.313  1.00  0.00     0.023 A 
ATOM     51  C   UNL A   1      38.347  31.370  36.292  1.00  0.00     0.012 A 
ATOM     52  C   UNL A   1      39.606  33.284  35.486  1.00  0.00     0.148 A 
ATOM     53  C   UNL A   1      37.960  32.095  37.420  1.00  0.00     0.002 A 
ATOM     54  C   UNL A   1      39.269  33.979  36.641  1.00  0.00     0.091 A 
ATOM     55  F   UNL A   1      40.367  33.835  34.529  1.00  0.00    -0.205 F 
ATOM     56  C   UNL A   1      38.434  33.392  37.603  1.00  0.00     0.022 A 
BRANCH  54  57
ATOM     57  S   UNL A   1      39.983  35.584  37.013  1.00  0.00     0.127 S 
ATOM     58  O   UNL A   1      39.521  36.388  35.885  1.00  0.00    -0.237 OA
ATOM     59  O   UNL A   1      39.364  35.911  38.298  1.00  0.00    -0.237 OA
ATOM     60  O   UNL A   1      41.420  35.350  37.091  1.00  0.00    -0.744 OA
ENDBRANCH  54  57
ENDBRANCH  26  50
BRANCH  38  61
ATOM     61  C   UNL A   1      44.900  28.178  34.038  1.00  0.00     0.023 A 
ATOM     62  C   UNL A   1      46.016  29.037  34.010  1.00  0.00     0.012 A 
ATOM     63  C   UNL A   1      44.911  27.055  34.887  1.00  0.00     0.148 A 
ATOM     64  C   UNL A   1      47.137  28.768  34.792  1.00  0.00     0.002 A 
ATOM     65  C   UNL A   1      46.017  26.813  35.693  1.00  0.00     0.091 A 
ATOM     66  F   UNL A   1      43.849  26.235  34.881  1.00  0.00    -0.205 F 
ATOM     67  C   UNL A   1      47.135  27.664  35.641  1.00  0.00     0.022 A 
BRANCH  65  68
ATOM     68  S   UNL A   1      46.056  25.457  36.870  1.00  0.00     0.127 S 
ATOM     69  O   UNL A   1      47.320  25.698  37.564  1.00  0.00    -0.237 OA
ATOM     70  O   UNL A   1      44.861  25.702  37.678  1.00  0.00    -0.237 OA
ATOM     71  O   UNL A   1      45.996  24.242  36.068  1.00  0.00    -0.744 OA
ENDBRANCH  65  68
ENDBRANCH  38  61
ENDBRANCH  12  13
ENDBRANCH   5   7
ENDBRANCH   2   3
ENDBRANCH   1   2
BRANCH   1  72
ATOM     72  C   UNL A   1      32.070  27.642  27.052  1.00  0.00     0.023 C 
BRANCH  72  73
ATOM     73  C   UNL A   1      32.145  26.307  26.310  1.00  0.00     0.116 C 
BRANCH  73  74
ATOM     74  N   UNL A   1      31.320  25.262  26.881  1.00  0.00    -0.354 N 
ATOM     75  C   UNL A   1      31.052  23.981  26.525  1.00  0.00     0.242 C 
ATOM     76  H   UNL A   1      30.854  25.542  27.703  1.00  0.00     0.163 HD
ATOM     77  O   UNL A   1      30.506  23.300  27.409  1.00  0.00    -0.273 OA
BRANCH  75  78
ATOM     78  C   UNL A   1      31.283  23.351  25.131  1.00  0.00     0.174 C 
BRANCH  78  79
ATOM     79  C   UNL A   1      31.267  21.828  25.021  1.00  0.00     0.072 C 
BRANCH  79  80
ATOM     80  C   UNL A   1      32.512  20.966  24.953  1.00  0.00    -0.020 A 
ATOM     81  C   UNL A   1      33.606  21.274  25.751  1.00  0.00     0.087 A 
ATOM     82  C   UNL A   1      32.865  19.747  24.257  1.00  0.00     0.003 A 
ATOM     83  N   UNL A   1      34.540  20.290  25.636  1.00  0.00    -0.361 N 
ATOM     84  C   UNL A   1      34.104  19.331  24.759  1.00  0.00     0.046 A 
ATOM     85  C   UNL A   1      32.256  18.891  23.304  1.00  0.00     0.010 A 
ATOM     86  H   UNL A   1      35.401  20.270  26.112  1.00  0.00     0.166 HD
ATOM     87  C   UNL A   1      34.716  18.121  24.409  1.00  0.00     0.026 A 
ATOM     88  C   UNL A   1      32.857  17.680  22.936  1.00  0.00     0.001 A 
ATOM     89  C   UNL A   1      34.065  17.295  23.496  1.00  0.00     0.002 A 
ENDBRANCH  79  80
ENDBRANCH  78  79
BRANCH  78  90
ATOM     90  N   UNL A   1      30.612  24.006  24.007  1.00  0.00    -0.358 N 
ATOM     91  H   UNL A   1      29.701  23.717  23.770  1.00  0.00     0.162 HD
BRANCH  90  92
ATOM     92  C   UNL A   1      31.202  25.012  23.263  1.00  0.00     0.137 A 
ATOM     93  N   UNL A   1      32.450  24.735  22.852  1.00  0.00    -0.219 NA
ATOM     94  C   UNL A   1      30.643  26.303  23.140  1.00  0.00     0.043 A 
ATOM     95  C   UNL A   1      33.131  25.732  22.281  1.00  0.00     0.224 A 
ATOM     96  C   UNL A   1      31.466  27.258  22.524  1.00  0.00     0.076 A 
ATOM     97  C   UNL A   1      29.361  26.704  23.604  1.00  0.00     0.014 A 
ATOM     98  N   UNL A   1      32.701  26.986  22.097  1.00  0.00    -0.236 NA
ATOM     99  C   UNL A   1      30.990  28.556  22.374  1.00  0.00     0.029 A 
ATOM    100  C   UNL A   1      28.897  28.005  23.421  1.00  0.00     0.001 A 
ATOM    101  C   UNL A   1      29.716  28.937  22.805  1.00  0.00     0.002 A 
ENDBRANCH  90  92
ENDBRANCH  78  90
ENDBRANCH  75  78
ENDBRANCH  73  74
ENDBRANCH  72  73
ENDBRANCH   1  72
TORSDOF 18
ENDMDL
