MODEL 1
REMARK VINA RESULT:     -11.5      0.000      0.000
REMARK SMILES O=C(CC[NH+]1CC[NH+](Cc2ccccc2C2CC2)CC1)NCCCCNC(=O)c1ccc(-c2c3nc(c(-c4cccc(S(=O)(=O)[O-])c4F)c4ccc([nH]4)c(-c4cccc(S(=O)(=O)[O-])c4F)c4nc(c(-c5cccc(S(=O)(=O)[O-])c5F)c5ccc2[nH]5)C=C4)C=C3)cc1
REMARK SMILES IDX 22 1 21 2 1 3 2 4 3 6 4 7 5 8 6 9 20 10 7 12 19 13 8 14 9 16
REMARK SMILES IDX 10 17 11 18 15 19 12 20 14 21 13 22 16 23 17 24 18 25 23 26
REMARK SMILES IDX 24 27 25 28 26 29 27 30 28 32 29 33 30 34 91 35 31 36 90 37
REMARK SMILES IDX 32 38 33 39 34 40 84 41 35 42 89 43 83 44 85 45 36 46 88 47
REMARK SMILES IDX 82 48 81 49 37 51 69 52 49 53 68 54 50 55 53 56 67 57 86 58
REMARK SMILES IDX 51 59 52 60 66 62 87 63 54 64 38 65 39 66 47 67 40 68 42 69
REMARK SMILES IDX 48 70 41 71 43 72 44 73 45 74 46 75 70 76 71 77 79 78 72 79
REMARK SMILES IDX 74 80 80 81 73 82 75 83 76 84 77 85 78 86 55 87 56 88 64 89
REMARK SMILES IDX 57 90 59 91 65 92 58 93 60 94 61 95 62 96 63 97
REMARK H PARENT 21 5 5 11 8 15 26 31 85 50 53 61
REMARK Flexibility Score: inf
ROOT
ATOM      1  C   UNL A   1      30.920  30.338  24.904  1.00  0.00     0.116 C 
ENDROOT
BRANCH   1   2
ATOM      2  N   UNL A   1      31.202  28.951  24.597  1.00  0.00    -0.356 N 
ATOM      3  O   UNL A   1      33.297  29.245  23.682  1.00  0.00    -0.275 OA
ATOM      4  C   UNL A   1      32.417  28.510  24.102  1.00  0.00     0.225 C 
ATOM      5  H   UNL A   1      30.491  28.287  24.747  1.00  0.00     0.163 HD
BRANCH   4   6
ATOM      6  C   UNL A   1      32.569  26.991  24.166  1.00  0.00     0.161 C 
BRANCH   6   7
ATOM      7  C   UNL A   1      32.300  26.447  25.576  1.00  0.00     0.272 C 
BRANCH   7   8
ATOM      8  N   UNL A   1      32.347  24.994  25.604  1.00  0.00    -0.325 N 
ATOM      9  C   UNL A   1      33.694  24.425  25.529  1.00  0.00     0.324 C 
ATOM     10  C   UNL A   1      31.480  24.311  24.637  1.00  0.00     0.324 C 
ATOM     11  H   UNL A   1      31.968  24.809  26.533  1.00  0.00     0.348 HD
ATOM     12  C   UNL A   1      33.660  22.921  25.891  1.00  0.00     0.324 C 
ATOM     13  C   UNL A   1      31.386  22.827  25.056  1.00  0.00     0.324 C 
ATOM     14  N   UNL A   1      32.653  22.100  25.206  1.00  0.00    -0.322 N 
ATOM     15  H   UNL A   1      32.459  21.317  25.829  1.00  0.00     0.348 HD
BRANCH  14  16
ATOM     16  C   UNL A   1      33.116  21.374  24.018  1.00  0.00     0.299 C 
BRANCH  16  17
ATOM     17  C   UNL A   1      33.593  19.951  24.217  1.00  0.00     0.010 A 
ATOM     18  C   UNL A   1      32.676  18.946  23.802  1.00  0.00     0.010 A 
ATOM     19  C   UNL A   1      34.869  19.577  24.695  1.00  0.00    -0.036 A 
ATOM     20  C   UNL A   1      33.024  17.604  23.745  1.00  0.00     0.001 A 
ATOM     21  C   UNL A   1      35.178  18.193  24.626  1.00  0.00     0.004 A 
ATOM     22  C   UNL A   1      34.291  17.227  24.140  1.00  0.00     0.000 A 
BRANCH  19  23
ATOM     23  C   UNL A   1      35.991  20.467  25.214  1.00  0.00     0.020 C 
ATOM     24  C   UNL A   1      37.464  20.426  24.908  1.00  0.00     0.009 C 
ATOM     25  C   UNL A   1      36.609  21.457  24.248  1.00  0.00     0.009 C 
ENDBRANCH  19  23
ENDBRANCH  16  17
ENDBRANCH  14  16
ENDBRANCH   7   8
ENDBRANCH   6   7
ENDBRANCH   4   6
ENDBRANCH   1   2
BRANCH   1  26
ATOM     26  C   UNL A   1      31.546  30.784  26.230  1.00  0.00     0.023 C 
BRANCH  26  27
ATOM     27  C   UNL A   1      31.389  32.271  26.583  1.00  0.00     0.023 C 
BRANCH  27  28
ATOM     28  C   UNL A   1      32.623  32.952  27.178  1.00  0.00     0.116 C 
BRANCH  28  29
ATOM     29  N   UNL A   1      32.362  34.268  27.724  1.00  0.00    -0.352 N 
ATOM     30  C   UNL A   1      33.047  34.991  28.669  1.00  0.00     0.251 C 
ATOM     31  H   UNL A   1      31.566  34.716  27.358  1.00  0.00     0.163 HD
ATOM     32  O   UNL A   1      32.626  36.107  28.975  1.00  0.00    -0.269 OA
BRANCH  30  33
ATOM     33  C   UNL A   1      34.238  34.448  29.374  1.00  0.00     0.039 A 
ATOM     34  C   UNL A   1      34.014  33.752  30.568  1.00  0.00     0.014 A 
ATOM     35  C   UNL A   1      35.552  34.631  28.929  1.00  0.00     0.014 A 
ATOM     36  C   UNL A   1      35.083  33.193  31.276  1.00  0.00     0.010 A 
ATOM     37  C   UNL A   1      36.616  34.020  29.606  1.00  0.00     0.010 A 
ATOM     38  C   UNL A   1      36.395  33.290  30.786  1.00  0.00    -0.014 A 
BRANCH  38  39
ATOM     39  C   UNL A   1      37.514  32.601  31.493  1.00  0.00     0.031 A 
ATOM     40  C   UNL A   1      38.243  31.445  30.861  1.00  0.00     0.074 A 
ATOM     41  C   UNL A   1      37.860  33.000  32.735  1.00  0.00     0.049 A 
ATOM     42  N   UNL A   1      39.248  30.749  31.330  1.00  0.00    -0.248 NA
ATOM     43  C   UNL A   1      37.776  31.000  29.538  1.00  0.00     0.031 C 
ATOM     44  C   UNL A   1      37.205  34.068  33.493  1.00  0.00     0.029 A 
ATOM     45  N   UNL A   1      38.840  32.545  33.586  1.00  0.00    -0.354 N 
ATOM     46  C   UNL A   1      39.516  29.770  30.382  1.00  0.00     0.074 A 
ATOM     47  C   UNL A   1      38.550  29.946  29.317  1.00  0.00     0.031 C 
ATOM     48  C   UNL A   1      37.803  34.193  34.687  1.00  0.00     0.029 A 
ATOM     49  C   UNL A   1      38.866  33.198  34.798  1.00  0.00     0.049 A 
ATOM     50  H   UNL A   1      39.465  31.822  33.351  1.00  0.00     0.167 HD
ATOM     51  C   UNL A   1      40.489  28.826  30.380  1.00  0.00     0.034 A 
ATOM     52  C   UNL A   1      39.648  33.015  35.882  1.00  0.00     0.034 A 
ATOM     53  C   UNL A   1      41.475  28.670  31.418  1.00  0.00     0.049 A 
ATOM     54  C   UNL A   1      40.732  31.971  35.844  1.00  0.00     0.074 A 
ATOM     55  C   UNL A   1      42.549  27.798  31.457  1.00  0.00     0.029 A 
ATOM     56  N   UNL A   1      41.502  29.385  32.604  1.00  0.00    -0.354 N 
ATOM     57  N   UNL A   1      41.070  31.167  34.867  1.00  0.00    -0.248 NA
ATOM     58  C   UNL A   1      41.568  31.836  37.048  1.00  0.00     0.031 C 
ATOM     59  C   UNL A   1      43.207  27.963  32.680  1.00  0.00     0.029 A 
ATOM     60  C   UNL A   1      42.562  28.963  33.389  1.00  0.00     0.049 A 
ATOM     61  H   UNL A   1      40.861  30.090  32.852  1.00  0.00     0.167 HD
ATOM     62  C   UNL A   1      42.177  30.458  35.321  1.00  0.00     0.074 A 
ATOM     63  C   UNL A   1      42.466  30.943  36.655  1.00  0.00     0.031 C 
ATOM     64  C   UNL A   1      42.881  29.483  34.694  1.00  0.00     0.034 A 
BRANCH  51  65
ATOM     65  C   UNL A   1      40.570  27.901  29.192  1.00  0.00     0.023 A 
ATOM     66  C   UNL A   1      39.673  26.819  29.088  1.00  0.00     0.012 A 
ATOM     67  C   UNL A   1      41.478  28.148  28.142  1.00  0.00     0.148 A 
ATOM     68  C   UNL A   1      39.699  25.977  27.977  1.00  0.00     0.002 A 
ATOM     69  C   UNL A   1      41.468  27.332  27.017  1.00  0.00     0.091 A 
ATOM     70  F   UNL A   1      42.334  29.173  28.264  1.00  0.00    -0.205 F 
ATOM     71  C   UNL A   1      40.587  26.241  26.937  1.00  0.00     0.022 A 
BRANCH  69  72
ATOM     72  S   UNL A   1      42.515  27.636  25.589  1.00  0.00     0.127 S 
ATOM     73  O   UNL A   1      41.898  28.835  25.021  1.00  0.00    -0.237 OA
ATOM     74  O   UNL A   1      43.822  27.859  26.207  1.00  0.00    -0.237 OA
ATOM     75  O   UNL A   1      42.429  26.440  24.765  1.00  0.00    -0.744 OA
ENDBRANCH  69  72
ENDBRANCH  51  65
BRANCH  52  76
ATOM     76  C   UNL A   1      39.471  33.880  37.084  1.00  0.00     0.023 A 
ATOM     77  C   UNL A   1      39.933  35.210  37.057  1.00  0.00     0.012 A 
ATOM     78  C   UNL A   1      38.842  33.395  38.247  1.00  0.00     0.148 A 
ATOM     79  C   UNL A   1      39.804  36.032  38.178  1.00  0.00     0.002 A 
ATOM     80  C   UNL A   1      38.665  34.235  39.339  1.00  0.00     0.091 A 
ATOM     81  F   UNL A   1      38.424  32.122  38.258  1.00  0.00    -0.205 F 
ATOM     82  C   UNL A   1      39.160  35.547  39.314  1.00  0.00     0.022 A 
BRANCH  80  83
ATOM     83  S   UNL A   1      37.734  33.738  40.792  1.00  0.00     0.127 S 
ATOM     84  O   UNL A   1      38.709  32.922  41.509  1.00  0.00    -0.237 OA
ATOM     85  O   UNL A   1      37.432  35.028  41.414  1.00  0.00    -0.237 OA
ATOM     86  O   UNL A   1      36.565  33.030  40.286  1.00  0.00    -0.744 OA
ENDBRANCH  80  83
ENDBRANCH  52  76
BRANCH  64  87
ATOM     87  C   UNL A   1      44.065  28.894  35.417  1.00  0.00     0.023 A 
ATOM     88  C   UNL A   1      45.342  29.471  35.264  1.00  0.00     0.012 A 
ATOM     89  C   UNL A   1      43.899  27.811  36.304  1.00  0.00     0.148 A 
ATOM     90  C   UNL A   1      46.440  28.959  35.956  1.00  0.00     0.002 A 
ATOM     91  C   UNL A   1      44.988  27.339  37.028  1.00  0.00     0.091 A 
ATOM     92  F   UNL A   1      42.682  27.263  36.423  1.00  0.00    -0.205 F 
ATOM     93  C   UNL A   1      46.261  27.902  36.846  1.00  0.00     0.022 A 
BRANCH  91  94
ATOM     94  S   UNL A   1      44.835  26.047  38.268  1.00  0.00     0.127 S 
ATOM     95  O   UNL A   1      46.235  25.738  38.551  1.00  0.00    -0.237 OA
ATOM     96  O   UNL A   1      44.132  26.736  39.350  1.00  0.00    -0.237 OA
ATOM     97  O   UNL A   1      44.074  24.975  37.639  1.00  0.00    -0.744 OA
ENDBRANCH  91  94
ENDBRANCH  64  87
ENDBRANCH  38  39
ENDBRANCH  30  33
ENDBRANCH  28  29
ENDBRANCH  27  28
ENDBRANCH  26  27
ENDBRANCH   1  26
TORSDOF 19
ENDMDL
MODEL 2
REMARK VINA RESULT:     -11.4      2.129      2.469
REMARK SMILES O=C(CC[NH+]1CC[NH+](Cc2ccccc2C2CC2)CC1)NCCCCNC(=O)c1ccc(-c2c3nc(c(-c4cccc(S(=O)(=O)[O-])c4F)c4ccc([nH]4)c(-c4cccc(S(=O)(=O)[O-])c4F)c4nc(c(-c5cccc(S(=O)(=O)[O-])c5F)c5ccc2[nH]5)C=C4)C=C3)cc1
REMARK SMILES IDX 22 1 21 2 1 3 2 4 3 6 4 7 5 8 6 9 20 10 7 12 19 13 8 14 9 16
REMARK SMILES IDX 10 17 11 18 15 19 12 20 14 21 13 22 16 23 17 24 18 25 23 26
REMARK SMILES IDX 24 27 25 28 26 29 27 30 28 32 29 33 30 34 91 35 31 36 90 37
REMARK SMILES IDX 32 38 33 39 34 40 84 41 35 42 89 43 83 44 85 45 36 46 88 47
REMARK SMILES IDX 82 48 81 49 37 51 69 52 49 53 68 54 50 55 53 56 67 57 86 58
REMARK SMILES IDX 51 59 52 60 66 62 87 63 54 64 38 65 39 66 47 67 40 68 42 69
REMARK SMILES IDX 48 70 41 71 43 72 44 73 45 74 46 75 70 76 71 77 79 78 72 79
REMARK SMILES IDX 74 80 80 81 73 82 75 83 76 84 77 85 78 86 55 87 56 88 64 89
REMARK SMILES IDX 57 90 59 91 65 92 58 93 60 94 61 95 62 96 63 97
REMARK H PARENT 21 5 5 11 8 15 26 31 85 50 53 61
REMARK Flexibility Score: inf
ROOT
ATOM      1  C   UNL A   1      30.552  30.037  24.505  1.00  0.00     0.116 C 
ENDROOT
BRANCH   1   2
ATOM      2  N   UNL A   1      30.814  28.727  23.946  1.00  0.00    -0.356 N 
ATOM      3  O   UNL A   1      29.873  29.072  21.869  1.00  0.00    -0.275 OA
ATOM      4  C   UNL A   1      30.541  28.389  22.632  1.00  0.00     0.225 C 
ATOM      5  H   UNL A   1      31.207  28.040  24.532  1.00  0.00     0.163 HD
BRANCH   4   6
ATOM      6  C   UNL A   1      31.194  27.075  22.207  1.00  0.00     0.161 C 
BRANCH   6   7
ATOM      7  C   UNL A   1      32.724  27.137  22.311  1.00  0.00     0.272 C 
BRANCH   7   8
ATOM      8  N   UNL A   1      33.288  25.839  22.647  1.00  0.00    -0.325 N 
ATOM      9  C   UNL A   1      32.434  24.697  22.313  1.00  0.00     0.324 C 
ATOM     10  C   UNL A   1      33.771  25.694  24.024  1.00  0.00     0.324 C 
ATOM     11  H   UNL A   1      34.105  25.822  22.036  1.00  0.00     0.348 HD
ATOM     12  C   UNL A   1      33.242  23.381  22.404  1.00  0.00     0.324 C 
ATOM     13  C   UNL A   1      34.646  24.421  24.085  1.00  0.00     0.324 C 
ATOM     14  N   UNL A   1      34.026  23.170  23.628  1.00  0.00    -0.322 N 
ATOM     15  H   UNL A   1      34.794  22.552  23.366  1.00  0.00     0.348 HD
BRANCH  14  16
ATOM     16  C   UNL A   1      33.386  22.358  24.669  1.00  0.00     0.299 C 
BRANCH  16  17
ATOM     17  C   UNL A   1      33.628  20.865  24.629  1.00  0.00     0.010 A 
ATOM     18  C   UNL A   1      32.500  20.082  24.256  1.00  0.00     0.010 A 
ATOM     19  C   UNL A   1      34.871  20.233  24.854  1.00  0.00    -0.036 A 
ATOM     20  C   UNL A   1      32.596  18.723  23.995  1.00  0.00     0.001 A 
ATOM     21  C   UNL A   1      34.919  18.839  24.583  1.00  0.00     0.004 A 
ATOM     22  C   UNL A   1      33.819  18.100  24.139  1.00  0.00     0.000 A 
BRANCH  19  23
ATOM     23  C   UNL A   1      36.193  20.855  25.285  1.00  0.00     0.020 C 
ATOM     24  C   UNL A   1      37.600  20.425  24.972  1.00  0.00     0.009 C 
ATOM     25  C   UNL A   1      37.007  21.577  24.230  1.00  0.00     0.009 C 
ENDBRANCH  19  23
ENDBRANCH  16  17
ENDBRANCH  14  16
ENDBRANCH   7   8
ENDBRANCH   6   7
ENDBRANCH   4   6
ENDBRANCH   1   2
BRANCH   1  26
ATOM     26  C   UNL A   1      31.495  30.378  25.664  1.00  0.00     0.023 C 
BRANCH  26  27
ATOM     27  C   UNL A   1      31.302  31.761  26.306  1.00  0.00     0.023 C 
BRANCH  27  28
ATOM     28  C   UNL A   1      32.561  32.418  26.874  1.00  0.00     0.116 C 
BRANCH  28  29
ATOM     29  N   UNL A   1      32.336  33.735  27.432  1.00  0.00    -0.352 N 
ATOM     30  C   UNL A   1      33.065  34.450  28.350  1.00  0.00     0.251 C 
ATOM     31  H   UNL A   1      31.529  34.192  27.100  1.00  0.00     0.163 HD
ATOM     32  O   UNL A   1      32.668  35.569  28.675  1.00  0.00    -0.269 OA
BRANCH  30  33
ATOM     33  C   UNL A   1      34.279  33.893  29.004  1.00  0.00     0.039 A 
ATOM     34  C   UNL A   1      34.084  32.945  30.017  1.00  0.00     0.014 A 
ATOM     35  C   UNL A   1      35.582  34.295  28.689  1.00  0.00     0.014 A 
ATOM     36  C   UNL A   1      35.178  32.361  30.663  1.00  0.00     0.010 A 
ATOM     37  C   UNL A   1      36.679  33.665  29.295  1.00  0.00     0.010 A 
ATOM     38  C   UNL A   1      36.491  32.688  30.287  1.00  0.00    -0.014 A 
BRANCH  38  39
ATOM     39  C   UNL A   1      37.648  31.982  30.909  1.00  0.00     0.031 A 
ATOM     40  C   UNL A   1      38.422  30.934  30.154  1.00  0.00     0.074 A 
ATOM     41  C   UNL A   1      37.992  32.265  32.183  1.00  0.00     0.049 A 
ATOM     42  N   UNL A   1      39.464  30.241  30.539  1.00  0.00    -0.248 NA
ATOM     43  C   UNL A   1      37.960  30.609  28.795  1.00  0.00     0.031 C 
ATOM     44  C   UNL A   1      37.297  33.215  33.054  1.00  0.00     0.029 A 
ATOM     45  N   UNL A   1      39.002  31.770  32.975  1.00  0.00    -0.354 N 
ATOM     46  C   UNL A   1      39.766  29.380  29.491  1.00  0.00     0.074 A 
ATOM     47  C   UNL A   1      38.779  29.622  28.458  1.00  0.00     0.031 C 
ATOM     48  C   UNL A   1      37.904  33.243  34.251  1.00  0.00     0.029 A 
ATOM     49  C   UNL A   1      39.012  32.293  34.248  1.00  0.00     0.049 A 
ATOM     50  H   UNL A   1      39.656  31.106  32.660  1.00  0.00     0.167 HD
ATOM     51  C   UNL A   1      40.780  28.489  29.383  1.00  0.00     0.034 A 
ATOM     52  C   UNL A   1      39.816  32.035  35.301  1.00  0.00     0.034 A 
ATOM     53  C   UNL A   1      41.785  28.271  30.392  1.00  0.00     0.049 A 
ATOM     54  C   UNL A   1      40.946  31.053  35.145  1.00  0.00     0.074 A 
ATOM     55  C   UNL A   1      42.899  27.451  30.330  1.00  0.00     0.029 A 
ATOM     56  N   UNL A   1      41.794  28.859  31.646  1.00  0.00    -0.354 N 
ATOM     57  N   UNL A   1      41.308  30.372  34.087  1.00  0.00    -0.248 NA
ATOM     58  C   UNL A   1      41.802  30.832  36.322  1.00  0.00     0.031 C 
ATOM     59  C   UNL A   1      43.563  27.518  31.559  1.00  0.00     0.029 A 
ATOM     60  C   UNL A   1      42.882  28.407  32.374  1.00  0.00     0.049 A 
ATOM     61  H   UNL A   1      41.124  29.503  31.972  1.00  0.00     0.167 HD
ATOM     62  C   UNL A   1      42.452  29.672  34.455  1.00  0.00     0.074 A 
ATOM     63  C   UNL A   1      42.735  30.028  35.830  1.00  0.00     0.031 C 
ATOM     64  C   UNL A   1      43.192  28.802  33.724  1.00  0.00     0.034 A 
BRANCH  51  65
ATOM     65  C   UNL A   1      40.889  27.697  28.103  1.00  0.00     0.023 A 
ATOM     66  C   UNL A   1      41.521  28.270  26.981  1.00  0.00     0.012 A 
ATOM     67  C   UNL A   1      40.441  26.363  28.037  1.00  0.00     0.148 A 
ATOM     68  C   UNL A   1      41.674  27.541  25.803  1.00  0.00     0.002 A 
ATOM     69  C   UNL A   1      40.637  25.628  26.874  1.00  0.00     0.091 A 
ATOM     70  F   UNL A   1      39.829  25.839  29.109  1.00  0.00    -0.205 F 
ATOM     71  C   UNL A   1      41.243  26.218  25.753  1.00  0.00     0.022 A 
BRANCH  69  72
ATOM     72  S   UNL A   1      40.192  23.892  26.736  1.00  0.00     0.127 S 
ATOM     73  O   UNL A   1      38.830  23.978  26.212  1.00  0.00    -0.237 OA
ATOM     74  O   UNL A   1      41.182  23.395  25.780  1.00  0.00    -0.237 OA
ATOM     75  O   UNL A   1      40.311  23.339  28.078  1.00  0.00    -0.744 OA
ENDBRANCH  69  72
ENDBRANCH  51  65
BRANCH  52  76
ATOM     76  C   UNL A   1      39.614  32.760  36.588  1.00  0.00     0.023 A 
ATOM     77  C   UNL A   1      40.346  33.935  36.846  1.00  0.00     0.012 A 
ATOM     78  C   UNL A   1      38.698  32.297  37.552  1.00  0.00     0.148 A 
ATOM     79  C   UNL A   1      40.195  34.617  38.054  1.00  0.00     0.002 A 
ATOM     80  C   UNL A   1      38.510  33.011  38.728  1.00  0.00     0.091 A 
ATOM     81  F   UNL A   1      38.023  31.168  37.294  1.00  0.00    -0.205 F 
ATOM     82  C   UNL A   1      39.270  34.161  38.990  1.00  0.00     0.022 A 
BRANCH  80  83
ATOM     83  S   UNL A   1      37.249  32.571  39.929  1.00  0.00     0.127 S 
ATOM     84  O   UNL A   1      37.781  31.331  40.483  1.00  0.00    -0.237 OA
ATOM     85  O   UNL A   1      37.283  33.719  40.837  1.00  0.00    -0.237 OA
ATOM     86  O   UNL A   1      36.011  32.447  39.170  1.00  0.00    -0.744 OA
ENDBRANCH  80  83
ENDBRANCH  52  76
BRANCH  64  87
ATOM     87  C   UNL A   1      44.412  28.197  34.372  1.00  0.00     0.023 A 
ATOM     88  C   UNL A   1      44.314  26.958  35.036  1.00  0.00     0.012 A 
ATOM     89  C   UNL A   1      45.670  28.823  34.262  1.00  0.00     0.148 A 
ATOM     90  C   UNL A   1      45.441  26.369  35.608  1.00  0.00     0.002 A 
ATOM     91  C   UNL A   1      46.797  28.206  34.791  1.00  0.00     0.091 A 
ATOM     92  F   UNL A   1      45.741  30.011  33.643  1.00  0.00    -0.205 F 
ATOM     93  C   UNL A   1      46.683  26.985  35.475  1.00  0.00     0.022 A 
BRANCH  91  94
ATOM     94  S   UNL A   1      48.451  28.877  34.584  1.00  0.00     0.127 S 
ATOM     95  O   UNL A   1      48.530  29.032  33.133  1.00  0.00    -0.237 OA
ATOM     96  O   UNL A   1      48.372  30.134  35.327  1.00  0.00    -0.237 OA
ATOM     97  O   UNL A   1      49.359  27.892  35.157  1.00  0.00    -0.744 OA
ENDBRANCH  91  94
ENDBRANCH  64  87
ENDBRANCH  38  39
ENDBRANCH  30  33
ENDBRANCH  28  29
ENDBRANCH  27  28
ENDBRANCH  26  27
ENDBRANCH   1  26
TORSDOF 19
ENDMDL
MODEL 3
REMARK VINA RESULT:     -11.3      5.376      9.403
REMARK SMILES O=C(CC[NH+]1CC[NH+](Cc2ccccc2C2CC2)CC1)NCCCCNC(=O)c1ccc(-c2c3nc(c(-c4cccc(S(=O)(=O)[O-])c4F)c4ccc([nH]4)c(-c4cccc(S(=O)(=O)[O-])c4F)c4nc(c(-c5cccc(S(=O)(=O)[O-])c5F)c5ccc2[nH]5)C=C4)C=C3)cc1
REMARK SMILES IDX 22 1 21 2 1 3 2 4 3 6 4 7 5 8 6 9 20 10 7 12 19 13 8 14 9 16
REMARK SMILES IDX 10 17 11 18 15 19 12 20 14 21 13 22 16 23 17 24 18 25 23 26
REMARK SMILES IDX 24 27 25 28 26 29 27 30 28 32 29 33 30 34 91 35 31 36 90 37
REMARK SMILES IDX 32 38 33 39 34 40 84 41 35 42 89 43 83 44 85 45 36 46 88 47
REMARK SMILES IDX 82 48 81 49 37 51 69 52 49 53 68 54 50 55 53 56 67 57 86 58
REMARK SMILES IDX 51 59 52 60 66 62 87 63 54 64 38 65 39 66 47 67 40 68 42 69
REMARK SMILES IDX 48 70 41 71 43 72 44 73 45 74 46 75 70 76 71 77 79 78 72 79
REMARK SMILES IDX 74 80 80 81 73 82 75 83 76 84 77 85 78 86 55 87 56 88 64 89
REMARK SMILES IDX 57 90 59 91 65 92 58 93 60 94 61 95 62 96 63 97
REMARK H PARENT 21 5 5 11 8 15 26 31 85 50 53 61
REMARK Flexibility Score: inf
ROOT
ATOM      1  C   UNL A   1      34.329  20.858  25.887  1.00  0.00     0.116 C 
ENDROOT
BRANCH   1   2
ATOM      2  N   UNL A   1      33.758  21.126  24.584  1.00  0.00    -0.356 N 
ATOM      3  O   UNL A   1      31.813  19.912  24.830  1.00  0.00    -0.275 OA
ATOM      4  C   UNL A   1      32.494  20.710  24.203  1.00  0.00     0.225 C 
ATOM      5  H   UNL A   1      34.298  21.631  23.933  1.00  0.00     0.163 HD
BRANCH   4   6
ATOM      6  C   UNL A   1      32.007  21.384  22.921  1.00  0.00     0.161 C 
BRANCH   6   7
ATOM      7  C   UNL A   1      32.966  22.487  22.454  1.00  0.00     0.272 C 
BRANCH   7   8
ATOM      8  N   UNL A   1      32.288  23.769  22.339  1.00  0.00    -0.325 N 
ATOM      9  C   UNL A   1      32.945  24.729  21.449  1.00  0.00     0.324 C 
ATOM     10  C   UNL A   1      31.964  24.432  23.607  1.00  0.00     0.324 C 
ATOM     11  H   UNL A   1      31.407  23.482  21.913  1.00  0.00     0.348 HD
ATOM     12  C   UNL A   1      31.995  25.911  21.144  1.00  0.00     0.324 C 
ATOM     13  C   UNL A   1      30.950  25.558  23.303  1.00  0.00     0.324 C 
ATOM     14  N   UNL A   1      31.346  26.551  22.297  1.00  0.00    -0.322 N 
ATOM     15  H   UNL A   1      30.481  26.957  21.942  1.00  0.00     0.348 HD
BRANCH  14  16
ATOM     16  C   UNL A   1      32.002  27.757  22.814  1.00  0.00     0.299 C 
BRANCH  16  17
ATOM     17  C   UNL A   1      31.117  28.941  23.141  1.00  0.00     0.010 A 
ATOM     18  C   UNL A   1      30.161  29.272  22.140  1.00  0.00     0.010 A 
ATOM     19  C   UNL A   1      31.128  29.656  24.360  1.00  0.00    -0.036 A 
ATOM     20  C   UNL A   1      29.159  30.207  22.356  1.00  0.00     0.001 A 
ATOM     21  C   UNL A   1      30.089  30.609  24.531  1.00  0.00     0.004 A 
ATOM     22  C   UNL A   1      29.110  30.866  23.567  1.00  0.00     0.000 A 
BRANCH  19  23
ATOM     23  C   UNL A   1      32.066  29.498  25.550  1.00  0.00     0.020 C 
ATOM     24  C   UNL A   1      31.819  29.781  27.006  1.00  0.00     0.009 C 
ATOM     25  C   UNL A   1      31.786  28.369  26.521  1.00  0.00     0.009 C 
ENDBRANCH  19  23
ENDBRANCH  16  17
ENDBRANCH  14  16
ENDBRANCH   7   8
ENDBRANCH   6   7
ENDBRANCH   4   6
ENDBRANCH   1   2
BRANCH   1  26
ATOM     26  C   UNL A   1      35.068  22.070  26.464  1.00  0.00     0.023 C 
BRANCH  26  27
ATOM     27  C   UNL A   1      35.391  23.198  25.470  1.00  0.00     0.023 C 
BRANCH  27  28
ATOM     28  C   UNL A   1      36.790  23.807  25.580  1.00  0.00     0.116 C 
BRANCH  28  29
ATOM     29  N   UNL A   1      37.854  22.827  25.643  1.00  0.00    -0.352 N 
ATOM     30  C   UNL A   1      39.114  22.914  26.182  1.00  0.00     0.251 C 
ATOM     31  H   UNL A   1      37.639  21.958  25.234  1.00  0.00     0.163 HD
ATOM     32  O   UNL A   1      39.852  21.931  26.115  1.00  0.00    -0.269 OA
BRANCH  30  33
ATOM     33  C   UNL A   1      39.632  24.169  26.788  1.00  0.00     0.039 A 
ATOM     34  C   UNL A   1      40.217  25.103  25.923  1.00  0.00     0.014 A 
ATOM     35  C   UNL A   1      39.599  24.439  28.160  1.00  0.00     0.014 A 
ATOM     36  C   UNL A   1      40.708  26.317  26.417  1.00  0.00     0.010 A 
ATOM     37  C   UNL A   1      40.035  25.680  28.645  1.00  0.00     0.010 A 
ATOM     38  C   UNL A   1      40.592  26.636  27.779  1.00  0.00    -0.014 A 
BRANCH  38  39
ATOM     39  C   UNL A   1      41.022  27.975  28.276  1.00  0.00     0.031 A 
ATOM     40  C   UNL A   1      42.475  28.373  28.292  1.00  0.00     0.074 A 
ATOM     41  C   UNL A   1      40.097  28.837  28.749  1.00  0.00     0.049 A 
ATOM     42  N   UNL A   1      43.015  29.503  28.673  1.00  0.00    -0.248 NA
ATOM     43  C   UNL A   1      43.449  27.369  27.837  1.00  0.00     0.031 C 
ATOM     44  C   UNL A   1      38.662  28.565  28.846  1.00  0.00     0.029 A 
ATOM     45  N   UNL A   1      40.226  30.111  29.250  1.00  0.00    -0.354 N 
ATOM     46  C   UNL A   1      44.388  29.340  28.534  1.00  0.00     0.074 A 
ATOM     47  C   UNL A   1      44.601  27.990  28.054  1.00  0.00     0.031 C 
ATOM     48  C   UNL A   1      38.043  29.638  29.364  1.00  0.00     0.029 A 
ATOM     49  C   UNL A   1      39.036  30.665  29.665  1.00  0.00     0.049 A 
ATOM     50  H   UNL A   1      41.088  30.582  29.307  1.00  0.00     0.167 HD
ATOM     51  C   UNL A   1      45.382  30.235  28.758  1.00  0.00     0.034 A 
ATOM     52  C   UNL A   1      38.770  31.861  30.230  1.00  0.00     0.034 A 
ATOM     53  C   UNL A   1      45.173  31.590  29.200  1.00  0.00     0.049 A 
ATOM     54  C   UNL A   1      39.890  32.841  30.451  1.00  0.00     0.074 A 
ATOM     55  C   UNL A   1      46.114  32.591  29.370  1.00  0.00     0.029 A 
ATOM     56  N   UNL A   1      43.949  32.132  29.556  1.00  0.00    -0.354 N 
ATOM     57  N   UNL A   1      41.161  32.722  30.157  1.00  0.00    -0.248 NA
ATOM     58  C   UNL A   1      39.532  34.137  31.048  1.00  0.00     0.031 C 
ATOM     59  C   UNL A   1      45.464  33.728  29.860  1.00  0.00     0.029 A 
ATOM     60  C   UNL A   1      44.112  33.446  29.962  1.00  0.00     0.049 A 
ATOM     61  H   UNL A   1      43.089  31.652  29.525  1.00  0.00     0.167 HD
ATOM     62  C   UNL A   1      41.748  33.936  30.498  1.00  0.00     0.074 A 
ATOM     63  C   UNL A   1      40.688  34.785  31.001  1.00  0.00     0.031 C 
ATOM     64  C   UNL A   1      43.049  34.307  30.413  1.00  0.00     0.034 A 
BRANCH  51  65
ATOM     65  C   UNL A   1      46.799  29.795  28.491  1.00  0.00     0.023 A 
ATOM     66  C   UNL A   1      47.381  30.044  27.232  1.00  0.00     0.012 A 
ATOM     67  C   UNL A   1      47.580  29.210  29.509  1.00  0.00     0.148 A 
ATOM     68  C   UNL A   1      48.704  29.688  26.977  1.00  0.00     0.002 A 
ATOM     69  C   UNL A   1      48.912  28.899  29.262  1.00  0.00     0.091 A 
ATOM     70  F   UNL A   1      47.006  28.968  30.696  1.00  0.00    -0.205 F 
ATOM     71  C   UNL A   1      49.473  29.127  27.995  1.00  0.00     0.022 A 
BRANCH  69  72
ATOM     72  S   UNL A   1      50.008  28.250  30.530  1.00  0.00     0.127 S 
ATOM     73  O   UNL A   1      49.367  26.974  30.847  1.00  0.00    -0.237 OA
ATOM     74  O   UNL A   1      51.276  28.132  29.809  1.00  0.00    -0.237 OA
ATOM     75  O   UNL A   1      50.008  29.233  31.603  1.00  0.00    -0.744 OA
ENDBRANCH  69  72
ENDBRANCH  51  65
BRANCH  52  76
ATOM     76  C   UNL A   1      37.366  32.223  30.580  1.00  0.00     0.023 A 
ATOM     77  C   UNL A   1      36.893  31.988  31.886  1.00  0.00     0.012 A 
ATOM     78  C   UNL A   1      36.503  32.806  29.631  1.00  0.00     0.148 A 
ATOM     79  C   UNL A   1      35.575  32.294  32.231  1.00  0.00     0.002 A 
ATOM     80  C   UNL A   1      35.211  33.161  29.997  1.00  0.00     0.091 A 
ATOM     81  F   UNL A   1      36.968  33.007  28.390  1.00  0.00    -0.205 F 
ATOM     82  C   UNL A   1      34.739  32.890  31.290  1.00  0.00     0.022 A 
BRANCH  80  83
ATOM     83  S   UNL A   1      34.109  34.049  28.892  1.00  0.00     0.127 S 
ATOM     84  O   UNL A   1      33.702  32.998  27.965  1.00  0.00    -0.237 OA
ATOM     85  O   UNL A   1      33.063  34.504  29.809  1.00  0.00    -0.237 OA
ATOM     86  O   UNL A   1      34.910  35.124  28.319  1.00  0.00    -0.744 OA
ENDBRANCH  80  83
ENDBRANCH  52  76
BRANCH  64  87
ATOM     87  C   UNL A   1      43.410  35.709  30.835  1.00  0.00     0.023 A 
ATOM     88  C   UNL A   1      43.790  35.968  32.167  1.00  0.00     0.012 A 
ATOM     89  C   UNL A   1      43.440  36.757  29.892  1.00  0.00     0.148 A 
ATOM     90  C   UNL A   1      44.162  37.253  32.562  1.00  0.00     0.002 A 
ATOM     91  C   UNL A   1      43.860  38.024  30.282  1.00  0.00     0.091 A 
ATOM     92  F   UNL A   1      43.058  36.497  28.634  1.00  0.00    -0.205 F 
ATOM     93  C   UNL A   1      44.209  38.277  31.618  1.00  0.00     0.022 A 
BRANCH  91  94
ATOM     94  S   UNL A   1      44.045  39.379  29.117  1.00  0.00     0.127 S 
ATOM     95  O   UNL A   1      42.662  39.608  28.704  1.00  0.00    -0.237 OA
ATOM     96  O   UNL A   1      44.613  40.435  29.956  1.00  0.00    -0.237 OA
ATOM     97  O   UNL A   1      44.936  38.892  28.072  1.00  0.00    -0.744 OA
ENDBRANCH  91  94
ENDBRANCH  64  87
ENDBRANCH  38  39
ENDBRANCH  30  33
ENDBRANCH  28  29
ENDBRANCH  27  28
ENDBRANCH  26  27
ENDBRANCH   1  26
TORSDOF 19
ENDMDL
