MODEL 1
REMARK VINA RESULT:     -14.0      0.000      0.000
REMARK SMILES Cc1coc2cc3c(cc12)[C@@H](C)[C@H](CCC(=O)N[C@@H](Cc1c[nH]c2ccccc12)C(=O)NCCCCNC(=O)c1ccc(-c2c4nc(c(-c5cccc(S(=O)(=O)[O-])c5F)c5ccc([nH]5)c(-c5cccc(S(=O)(=O)[O-])c5F)c5nc(c(-c6cccc(S(=O)(=O)[O-])c6F)c6ccc2[nH]6)C=C5)C=C4)cc1)C(=O)O3
REMARK SMILES IDX 34 1 33 2 32 3 30 4 31 5 19 7 18 8 16 9 17 10 15 12 14 13
REMARK SMILES IDX 13 14 1 15 2 16 3 17 10 18 4 19 5 20 9 21 6 22 8 23 7 24
REMARK SMILES IDX 11 25 105 26 12 27 103 28 104 29 20 30 21 31 22 32 29 33
REMARK SMILES IDX 23 34 24 35 28 36 25 38 27 39 26 40 35 41 36 42 37 43 38 44
REMARK SMILES IDX 39 46 40 47 41 48 102 49 42 50 101 51 43 52 44 53 45 54
REMARK SMILES IDX 95 55 46 56 100 57 94 58 96 59 47 60 99 61 93 62 92 63 48 65
REMARK SMILES IDX 80 66 60 67 79 68 61 69 64 70 78 71 97 72 62 73 63 74 77 76
REMARK SMILES IDX 98 77 65 78 49 79 50 80 58 81 51 82 53 83 59 84 52 85 54 86
REMARK SMILES IDX 55 87 56 88 57 89 81 90 82 91 90 92 83 93 85 94 91 95 84 96
REMARK SMILES IDX 86 97 87 98 88 99 89 100 66 101 67 102 75 103 68 104 70 105
REMARK SMILES IDX 76 106 69 107 71 108 72 109 73 110 74 111
REMARK H PARENT 32 6 18 11 23 37 37 45 96 64 64 75
REMARK Flexibility Score: inf
ROOT
ATOM      1  C   UNL A   1      34.647  29.224  27.245  1.00  0.00     0.023 C 
ENDROOT
BRANCH   1   2
ATOM      2  C   UNL A   1      33.969  28.173  26.391  1.00  0.00     0.116 C 
BRANCH   2   3
ATOM      3  N   UNL A   1      32.527  28.087  26.584  1.00  0.00    -0.354 N 
ATOM      4  C   UNL A   1      31.690  27.040  26.314  1.00  0.00     0.242 C 
ATOM      5  O   UNL A   1      30.613  26.970  26.915  1.00  0.00    -0.273 OA
ATOM      6  H   UNL A   1      32.099  28.890  26.958  1.00  0.00     0.163 HD
BRANCH   4   7
ATOM      7  C   UNL A   1      32.113  25.928  25.353  1.00  0.00     0.175 C 
BRANCH   7   8
ATOM      8  N   UNL A   1      32.114  24.646  26.107  1.00  0.00    -0.344 N 
ATOM      9  C   UNL A   1      33.046  23.842  26.686  1.00  0.00     0.220 C 
ATOM     10  O   UNL A   1      32.647  22.877  27.344  1.00  0.00    -0.275 OA
ATOM     11  H   UNL A   1      31.204  24.286  26.214  1.00  0.00     0.164 HD
BRANCH   9  12
ATOM     12  C   UNL A   1      34.536  24.030  26.477  1.00  0.00     0.101 C 
BRANCH  12  13
ATOM     13  C   UNL A   1      34.964  24.457  25.050  1.00  0.00     0.026 C 
BRANCH  13  14
ATOM     14  C   UNL A   1      35.258  23.248  24.161  1.00  0.00     0.107 C 
ATOM     15  C   UNL A   1      35.153  16.138  25.296  1.00  0.00     0.048 C 
ATOM     16  C   UNL A   1      34.214  17.007  24.558  1.00  0.00    -0.005 A 
ATOM     17  C   UNL A   1      33.049  16.614  23.928  1.00  0.00     0.199 A 
ATOM     18  C   UNL A   1      34.274  18.425  24.418  1.00  0.00     0.024 A 
ATOM     19  O   UNL A   1      32.355  17.687  23.478  1.00  0.00    -0.464 OA
ATOM     20  C   UNL A   1      33.070  18.786  23.825  1.00  0.00     0.137 A 
ATOM     21  C   UNL A   1      35.193  19.438  24.774  1.00  0.00     0.020 A 
ATOM     22  C   UNL A   1      32.643  20.088  23.662  1.00  0.00     0.095 A 
ATOM     23  C   UNL A   1      34.827  20.780  24.599  1.00  0.00    -0.001 A 
ATOM     24  C   UNL A   1      33.529  21.055  24.128  1.00  0.00     0.138 A 
ATOM     25  C   UNL A   1      35.783  21.947  24.836  1.00  0.00     0.034 C 
ATOM     26  O   UNL A   1      33.063  22.351  24.099  1.00  0.00    -0.426 OA
ATOM     27  C   UNL A   1      37.192  21.623  24.273  1.00  0.00     0.014 C 
ATOM     28  C   UNL A   1      34.023  22.911  23.319  1.00  0.00     0.314 C 
ATOM     29  O   UNL A   1      33.875  23.069  22.130  1.00  0.00    -0.251 OA
ENDBRANCH  13  14
ENDBRANCH  12  13
ENDBRANCH   9  12
ENDBRANCH   7   8
BRANCH   7  30
ATOM     30  C   UNL A   1      31.392  26.095  23.967  1.00  0.00     0.072 C 
BRANCH  30  31
ATOM     31  C   UNL A   1      31.167  27.405  23.264  1.00  0.00    -0.020 A 
ATOM     32  C   UNL A   1      32.126  28.250  22.728  1.00  0.00     0.087 A 
ATOM     33  C   UNL A   1      29.915  28.089  23.115  1.00  0.00     0.003 A 
ATOM     34  N   UNL A   1      31.504  29.336  22.169  1.00  0.00    -0.361 N 
ATOM     35  C   UNL A   1      30.150  29.253  22.382  1.00  0.00     0.046 A 
ATOM     36  C   UNL A   1      28.593  27.776  23.481  1.00  0.00     0.010 A 
ATOM     37  H   UNL A   1      31.959  30.064  21.689  1.00  0.00     0.166 HD
ATOM     38  C   UNL A   1      29.120  30.090  21.942  1.00  0.00     0.026 A 
ATOM     39  C   UNL A   1      27.550  28.588  23.027  1.00  0.00     0.001 A 
ATOM     40  C   UNL A   1      27.810  29.712  22.249  1.00  0.00     0.002 A 
ENDBRANCH  30  31
ENDBRANCH   7  30
ENDBRANCH   4   7
ENDBRANCH   2   3
ENDBRANCH   1   2
BRANCH   1  41
ATOM     41  C   UNL A   1      33.919  30.571  27.242  1.00  0.00     0.023 C 
BRANCH  41  42
ATOM     42  C   UNL A   1      34.696  31.732  27.877  1.00  0.00     0.116 C 
BRANCH  42  43
ATOM     43  N   UNL A   1      34.381  31.974  29.271  1.00  0.00    -0.352 N 
ATOM     44  C   UNL A   1      35.125  32.009  30.419  1.00  0.00     0.251 C 
ATOM     45  H   UNL A   1      33.425  32.150  29.425  1.00  0.00     0.163 HD
ATOM     46  O   UNL A   1      34.626  32.570  31.397  1.00  0.00    -0.269 OA
BRANCH  44  47
ATOM     47  C   UNL A   1      36.415  31.295  30.562  1.00  0.00     0.039 A 
ATOM     48  C   UNL A   1      37.657  31.922  30.518  1.00  0.00     0.014 A 
ATOM     49  C   UNL A   1      36.360  29.890  30.607  1.00  0.00     0.014 A 
ATOM     50  C   UNL A   1      38.800  31.180  30.322  1.00  0.00     0.010 A 
ATOM     51  C   UNL A   1      37.517  29.133  30.472  1.00  0.00     0.010 A 
ATOM     52  C   UNL A   1      38.722  29.789  30.259  1.00  0.00    -0.014 A 
BRANCH  52  53
ATOM     53  C   UNL A   1      39.991  29.101  30.098  1.00  0.00     0.031 A 
ATOM     54  C   UNL A   1      40.719  28.914  31.382  1.00  0.00     0.074 A 
ATOM     55  C   UNL A   1      40.469  28.682  28.914  1.00  0.00     0.049 A 
ATOM     56  N   UNL A   1      41.816  29.487  31.759  1.00  0.00    -0.248 NA
ATOM     57  C   UNL A   1      40.037  28.160  32.445  1.00  0.00     0.031 C 
ATOM     58  C   UNL A   1      39.760  28.583  27.637  1.00  0.00     0.029 A 
ATOM     59  N   UNL A   1      41.683  28.131  28.638  1.00  0.00    -0.354 N 
ATOM     60  C   UNL A   1      42.080  28.983  33.031  1.00  0.00     0.074 A 
ATOM     61  C   UNL A   1      40.874  28.333  33.467  1.00  0.00     0.031 C 
ATOM     62  C   UNL A   1      40.457  27.771  26.810  1.00  0.00     0.029 A 
ATOM     63  C   UNL A   1      41.717  27.422  27.443  1.00  0.00     0.049 A 
ATOM     64  H   UNL A   1      42.464  28.226  29.229  1.00  0.00     0.167 HD
ATOM     65  C   UNL A   1      43.348  28.930  33.519  1.00  0.00     0.034 A 
ATOM     66  C   UNL A   1      42.676  26.543  27.064  1.00  0.00     0.034 A 
ATOM     67  C   UNL A   1      44.225  29.819  32.805  1.00  0.00     0.049 A 
ATOM     68  C   UNL A   1      43.889  26.852  27.854  1.00  0.00     0.074 A 
ATOM     69  C   UNL A   1      44.289  31.182  32.602  1.00  0.00     0.029 A 
ATOM     70  N   UNL A   1      45.040  29.251  31.857  1.00  0.00    -0.354 N 
ATOM     71  N   UNL A   1      44.579  27.950  27.724  1.00  0.00    -0.248 NA
ATOM     72  C   UNL A   1      44.107  26.113  29.087  1.00  0.00     0.031 C 
ATOM     73  C   UNL A   1      44.770  31.332  31.270  1.00  0.00     0.029 A 
ATOM     74  C   UNL A   1      45.022  30.057  30.755  1.00  0.00     0.049 A 
ATOM     75  H   UNL A   1      45.546  28.412  31.955  1.00  0.00     0.167 HD
ATOM     76  C   UNL A   1      44.958  28.272  29.020  1.00  0.00     0.074 A 
ATOM     77  C   UNL A   1      44.738  27.052  29.795  1.00  0.00     0.031 C 
ATOM     78  C   UNL A   1      45.138  29.569  29.399  1.00  0.00     0.034 A 
BRANCH  65  79
ATOM     79  C   UNL A   1      43.893  27.797  34.363  1.00  0.00     0.023 A 
ATOM     80  C   UNL A   1      44.600  28.151  35.536  1.00  0.00     0.012 A 
ATOM     81  C   UNL A   1      44.008  26.455  33.931  1.00  0.00     0.148 A 
ATOM     82  C   UNL A   1      45.432  27.241  36.196  1.00  0.00     0.002 A 
ATOM     83  C   UNL A   1      44.773  25.534  34.636  1.00  0.00     0.091 A 
ATOM     84  F   UNL A   1      43.490  26.076  32.762  1.00  0.00    -0.205 F 
ATOM     85  C   UNL A   1      45.518  25.930  35.748  1.00  0.00     0.022 A 
BRANCH  83  86
ATOM     86  S   UNL A   1      44.873  23.811  34.133  1.00  0.00     0.127 S 
ATOM     87  O   UNL A   1      45.241  23.938  32.725  1.00  0.00    -0.237 OA
ATOM     88  O   UNL A   1      45.932  23.310  35.009  1.00  0.00    -0.237 OA
ATOM     89  O   UNL A   1      43.558  23.243  34.401  1.00  0.00    -0.744 OA
ENDBRANCH  83  86
ENDBRANCH  65  79
BRANCH  66  90
ATOM     90  C   UNL A   1      42.541  25.265  26.322  1.00  0.00     0.023 A 
ATOM     91  C   UNL A   1      43.489  24.943  25.328  1.00  0.00     0.012 A 
ATOM     92  C   UNL A   1      41.692  24.238  26.789  1.00  0.00     0.148 A 
ATOM     93  C   UNL A   1      43.617  23.633  24.849  1.00  0.00     0.002 A 
ATOM     94  C   UNL A   1      41.823  22.938  26.309  1.00  0.00     0.091 A 
ATOM     95  F   UNL A   1      40.824  24.511  27.771  1.00  0.00    -0.205 F 
ATOM     96  C   UNL A   1      42.794  22.629  25.348  1.00  0.00     0.022 A 
BRANCH  94  97
ATOM     97  S   UNL A   1      40.828  21.577  26.938  1.00  0.00     0.127 S 
ATOM     98  O   UNL A   1      41.352  20.444  26.176  1.00  0.00    -0.237 OA
ATOM     99  O   UNL A   1      41.179  21.579  28.355  1.00  0.00    -0.237 OA
ATOM    100  O   UNL A   1      39.445  21.918  26.630  1.00  0.00    -0.744 OA
ENDBRANCH  94  97
ENDBRANCH  66  90
BRANCH  78 101
ATOM    101  C   UNL A   1      45.198  30.633  28.333  1.00  0.00     0.023 A 
ATOM    102  C   UNL A   1      44.048  31.301  27.868  1.00  0.00     0.012 A 
ATOM    103  C   UNL A   1      46.467  31.132  27.990  1.00  0.00     0.148 A 
ATOM    104  C   UNL A   1      44.164  32.451  27.080  1.00  0.00     0.002 A 
ATOM    105  C   UNL A   1      46.577  32.308  27.262  1.00  0.00     0.091 A 
ATOM    106  F   UNL A   1      47.546  30.475  28.441  1.00  0.00    -0.205 F 
ATOM    107  C   UNL A   1      45.427  32.967  26.797  1.00  0.00     0.022 A 
BRANCH 105 108
ATOM    108  S   UNL A   1      48.162  33.114  27.016  1.00  0.00     0.127 S 
ATOM    109  O   UNL A   1      48.532  33.484  28.380  1.00  0.00    -0.237 OA
ATOM    110  O   UNL A   1      48.967  32.041  26.430  1.00  0.00    -0.237 OA
ATOM    111  O   UNL A   1      47.912  34.233  26.114  1.00  0.00    -0.744 OA
ENDBRANCH 105 108
ENDBRANCH  78 101
ENDBRANCH  52  53
ENDBRANCH  44  47
ENDBRANCH  42  43
ENDBRANCH  41  42
ENDBRANCH   1  41
TORSDOF 20
ENDMDL
MODEL 2
REMARK VINA RESULT:     -13.2      1.559      2.024
REMARK SMILES Cc1coc2cc3c(cc12)[C@@H](C)[C@H](CCC(=O)N[C@@H](Cc1c[nH]c2ccccc12)C(=O)NCCCCNC(=O)c1ccc(-c2c4nc(c(-c5cccc(S(=O)(=O)[O-])c5F)c5ccc([nH]5)c(-c5cccc(S(=O)(=O)[O-])c5F)c5nc(c(-c6cccc(S(=O)(=O)[O-])c6F)c6ccc2[nH]6)C=C5)C=C4)cc1)C(=O)O3
REMARK SMILES IDX 34 1 33 2 32 3 30 4 31 5 19 7 18 8 16 9 17 10 15 12 14 13
REMARK SMILES IDX 13 14 1 15 2 16 3 17 10 18 4 19 5 20 9 21 6 22 8 23 7 24
REMARK SMILES IDX 11 25 105 26 12 27 103 28 104 29 20 30 21 31 22 32 29 33
REMARK SMILES IDX 23 34 24 35 28 36 25 38 27 39 26 40 35 41 36 42 37 43 38 44
REMARK SMILES IDX 39 46 40 47 41 48 102 49 42 50 101 51 43 52 44 53 45 54
REMARK SMILES IDX 95 55 46 56 100 57 94 58 96 59 47 60 99 61 93 62 92 63 48 65
REMARK SMILES IDX 80 66 60 67 79 68 61 69 64 70 78 71 97 72 62 73 63 74 77 76
REMARK SMILES IDX 98 77 65 78 49 79 50 80 58 81 51 82 53 83 59 84 52 85 54 86
REMARK SMILES IDX 55 87 56 88 57 89 81 90 82 91 90 92 83 93 85 94 91 95 84 96
REMARK SMILES IDX 86 97 87 98 88 99 89 100 66 101 67 102 75 103 68 104 70 105
REMARK SMILES IDX 76 106 69 107 71 108 72 109 73 110 74 111
REMARK H PARENT 32 6 18 11 23 37 37 45 96 64 64 75
REMARK Flexibility Score: inf
ROOT
ATOM      1  C   UNL A   1      32.217  30.157  26.287  1.00  0.00     0.023 C 
ENDROOT
BRANCH   1   2
ATOM      2  C   UNL A   1      31.920  29.559  24.929  1.00  0.00     0.116 C 
BRANCH   2   3
ATOM      3  N   UNL A   1      33.096  29.360  24.093  1.00  0.00    -0.354 N 
ATOM      4  C   UNL A   1      33.323  28.394  23.151  1.00  0.00     0.242 C 
ATOM      5  O   UNL A   1      34.151  28.614  22.262  1.00  0.00    -0.273 OA
ATOM      6  H   UNL A   1      33.826  30.007  24.224  1.00  0.00     0.163 HD
BRANCH   4   7
ATOM      7  C   UNL A   1      32.505  27.102  23.144  1.00  0.00     0.175 C 
BRANCH   7   8
ATOM      8  N   UNL A   1      32.434  26.597  24.542  1.00  0.00    -0.344 N 
ATOM      9  C   UNL A   1      33.282  25.995  25.419  1.00  0.00     0.220 C 
ATOM     10  O   UNL A   1      32.887  25.817  26.574  1.00  0.00    -0.275 OA
ATOM     11  H   UNL A   1      31.542  26.735  24.933  1.00  0.00     0.164 HD
BRANCH   9  12
ATOM     12  C   UNL A   1      34.640  25.458  25.010  1.00  0.00     0.101 C 
BRANCH  12  13
ATOM     13  C   UNL A   1      35.079  24.146  25.709  1.00  0.00     0.026 C 
BRANCH  13  14
ATOM     14  C   UNL A   1      35.359  23.033  24.699  1.00  0.00     0.107 C 
ATOM     15  C   UNL A   1      35.466  15.848  25.165  1.00  0.00     0.048 C 
ATOM     16  C   UNL A   1      34.474  16.757  24.554  1.00  0.00    -0.005 A 
ATOM     17  C   UNL A   1      33.291  16.393  23.941  1.00  0.00     0.199 A 
ATOM     18  C   UNL A   1      34.496  18.182  24.544  1.00  0.00     0.024 A 
ATOM     19  O   UNL A   1      32.553  17.484  23.624  1.00  0.00    -0.464 OA
ATOM     20  C   UNL A   1      33.259  18.564  24.042  1.00  0.00     0.137 A 
ATOM     21  C   UNL A   1      35.407  19.182  24.953  1.00  0.00     0.020 A 
ATOM     22  C   UNL A   1      32.795  19.864  24.021  1.00  0.00     0.095 A 
ATOM     23  C   UNL A   1      35.004  20.525  24.921  1.00  0.00    -0.001 A 
ATOM     24  C   UNL A   1      33.680  20.807  24.536  1.00  0.00     0.138 A 
ATOM     25  C   UNL A   1      35.944  21.689  25.224  1.00  0.00     0.034 C 
ATOM     26  O   UNL A   1      33.184  22.087  24.649  1.00  0.00    -0.426 OA
ATOM     27  C   UNL A   1      37.332  21.456  24.572  1.00  0.00     0.014 C 
ATOM     28  C   UNL A   1      34.094  22.743  23.883  1.00  0.00     0.314 C 
ATOM     29  O   UNL A   1      33.887  23.006  22.722  1.00  0.00    -0.251 OA
ENDBRANCH  13  14
ENDBRANCH  12  13
ENDBRANCH   9  12
ENDBRANCH   7   8
BRANCH   7  30
ATOM     30  C   UNL A   1      31.234  27.259  22.236  1.00  0.00     0.072 C 
BRANCH  30  31
ATOM     31  C   UNL A   1      29.868  27.657  22.724  1.00  0.00    -0.020 A 
ATOM     32  C   UNL A   1      28.929  26.854  23.352  1.00  0.00     0.087 A 
ATOM     33  C   UNL A   1      29.229  28.925  22.525  1.00  0.00     0.003 A 
ATOM     34  N   UNL A   1      27.820  27.605  23.640  1.00  0.00    -0.361 N 
ATOM     35  C   UNL A   1      27.985  28.879  23.156  1.00  0.00     0.046 A 
ATOM     36  C   UNL A   1      29.637  30.131  21.925  1.00  0.00     0.010 A 
ATOM     37  H   UNL A   1      27.025  27.279  24.121  1.00  0.00     0.166 HD
ATOM     38  C   UNL A   1      27.152  29.997  23.271  1.00  0.00     0.026 A 
ATOM     39  C   UNL A   1      28.829  31.264  22.053  1.00  0.00     0.001 A 
ATOM     40  C   UNL A   1      27.618  31.201  22.738  1.00  0.00     0.002 A 
ENDBRANCH  30  31
ENDBRANCH   7  30
ENDBRANCH   4   7
ENDBRANCH   2   3
ENDBRANCH   1   2
BRANCH   1  41
ATOM     41  C   UNL A   1      33.464  29.566  26.950  1.00  0.00     0.023 C 
BRANCH  41  42
ATOM     42  C   UNL A   1      34.546  30.587  27.327  1.00  0.00     0.116 C 
BRANCH  42  43
ATOM     43  N   UNL A   1      34.287  31.310  28.556  1.00  0.00    -0.352 N 
ATOM     44  C   UNL A   1      35.079  31.756  29.579  1.00  0.00     0.251 C 
ATOM     45  H   UNL A   1      33.335  31.528  28.682  1.00  0.00     0.163 HD
ATOM     46  O   UNL A   1      34.611  32.628  30.315  1.00  0.00    -0.269 OA
BRANCH  44  47
ATOM     47  C   UNL A   1      36.387  31.143  29.908  1.00  0.00     0.039 A 
ATOM     48  C   UNL A   1      37.602  31.813  29.808  1.00  0.00     0.014 A 
ATOM     49  C   UNL A   1      36.386  29.768  30.203  1.00  0.00     0.014 A 
ATOM     50  C   UNL A   1      38.783  31.106  29.802  1.00  0.00     0.010 A 
ATOM     51  C   UNL A   1      37.579  29.058  30.260  1.00  0.00     0.010 A 
ATOM     52  C   UNL A   1      38.766  29.724  29.988  1.00  0.00    -0.014 A 
BRANCH  52  53
ATOM     53  C   UNL A   1      40.068  29.082  30.011  1.00  0.00     0.031 A 
ATOM     54  C   UNL A   1      40.727  29.149  31.344  1.00  0.00     0.074 A 
ATOM     55  C   UNL A   1      40.632  28.494  28.941  1.00  0.00     0.049 A 
ATOM     56  N   UNL A   1      41.775  29.831  31.673  1.00  0.00    -0.248 NA
ATOM     57  C   UNL A   1      40.014  28.551  32.483  1.00  0.00     0.031 C 
ATOM     58  C   UNL A   1      40.005  28.148  27.665  1.00  0.00     0.029 A 
ATOM     59  N   UNL A   1      41.881  27.965  28.826  1.00  0.00    -0.354 N 
ATOM     60  C   UNL A   1      41.984  29.561  33.024  1.00  0.00     0.074 A 
ATOM     61  C   UNL A   1      40.781  28.935  33.502  1.00  0.00     0.031 C 
ATOM     62  C   UNL A   1      40.781  27.244  27.025  1.00  0.00     0.029 A 
ATOM     63  C   UNL A   1      42.014  27.069  27.772  1.00  0.00     0.049 A 
ATOM     64  H   UNL A   1      42.621  28.197  29.432  1.00  0.00     0.167 HD
ATOM     65  C   UNL A   1      43.222  29.653  33.579  1.00  0.00     0.034 A 
ATOM     66  C   UNL A   1      43.027  26.187  27.598  1.00  0.00     0.034 A 
ATOM     67  C   UNL A   1      44.103  30.451  32.770  1.00  0.00     0.049 A 
ATOM     68  C   UNL A   1      44.179  26.683  28.385  1.00  0.00     0.074 A 
ATOM     69  C   UNL A   1      44.125  31.763  32.341  1.00  0.00     0.029 A 
ATOM     70  N   UNL A   1      44.995  29.774  31.976  1.00  0.00    -0.354 N 
ATOM     71  N   UNL A   1      44.831  27.778  28.106  1.00  0.00    -0.248 NA
ATOM     72  C   UNL A   1      44.353  26.174  29.735  1.00  0.00     0.031 C 
ATOM     73  C   UNL A   1      44.677  31.711  31.030  1.00  0.00     0.029 A 
ATOM     74  C   UNL A   1      45.009  30.382  30.753  1.00  0.00     0.049 A 
ATOM     75  H   UNL A   1      45.527  28.989  32.241  1.00  0.00     0.167 HD
ATOM     76  C   UNL A   1      45.120  28.330  29.346  1.00  0.00     0.074 A 
ATOM     77  C   UNL A   1      44.903  27.248  30.305  1.00  0.00     0.031 C 
ATOM     78  C   UNL A   1      45.225  29.680  29.508  1.00  0.00     0.034 A 
BRANCH  65  79
ATOM     79  C   UNL A   1      43.762  28.706  34.630  1.00  0.00     0.023 A 
ATOM     80  C   UNL A   1      44.429  29.283  35.736  1.00  0.00     0.012 A 
ATOM     81  C   UNL A   1      43.911  27.310  34.456  1.00  0.00     0.148 A 
ATOM     82  C   UNL A   1      45.257  28.528  36.572  1.00  0.00     0.002 A 
ATOM     83  C   UNL A   1      44.670  26.551  35.337  1.00  0.00     0.091 A 
ATOM     84  F   UNL A   1      43.432  26.712  33.364  1.00  0.00    -0.205 F 
ATOM     85  C   UNL A   1      45.376  27.160  36.375  1.00  0.00     0.022 A 
BRANCH  83  86
ATOM     86  S   UNL A   1      44.812  24.767  35.162  1.00  0.00     0.127 S 
ATOM     87  O   UNL A   1      45.739  24.440  36.242  1.00  0.00    -0.237 OA
ATOM     88  O   UNL A   1      43.430  24.339  35.378  1.00  0.00    -0.237 OA
ATOM     89  O   UNL A   1      45.302  24.539  33.808  1.00  0.00    -0.744 OA
ENDBRANCH  83  86
ENDBRANCH  65  79
BRANCH  66  90
ATOM     90  C   UNL A   1      42.988  24.798  27.079  1.00  0.00     0.023 A 
ATOM     91  C   UNL A   1      41.788  24.062  27.170  1.00  0.00     0.012 A 
ATOM     92  C   UNL A   1      44.004  24.310  26.227  1.00  0.00     0.148 A 
ATOM     93  C   UNL A   1      41.589  22.906  26.405  1.00  0.00     0.002 A 
ATOM     94  C   UNL A   1      43.803  23.159  25.471  1.00  0.00     0.091 A 
ATOM     95  F   UNL A   1      45.128  25.023  26.086  1.00  0.00    -0.205 F 
ATOM     96  C   UNL A   1      42.590  22.462  25.547  1.00  0.00     0.022 A 
BRANCH  94  97
ATOM     97  S   UNL A   1      45.029  22.548  24.306  1.00  0.00     0.127 S 
ATOM     98  O   UNL A   1      45.798  23.759  24.016  1.00  0.00    -0.237 OA
ATOM     99  O   UNL A   1      45.734  21.552  25.107  1.00  0.00    -0.237 OA
ATOM    100  O   UNL A   1      44.278  22.029  23.170  1.00  0.00    -0.744 OA
ENDBRANCH  94  97
ENDBRANCH  66  90
BRANCH  78 101
ATOM    101  C   UNL A   1      45.306  30.552  28.280  1.00  0.00     0.023 A 
ATOM    102  C   UNL A   1      44.157  31.040  27.626  1.00  0.00     0.012 A 
ATOM    103  C   UNL A   1      46.563  31.084  27.949  1.00  0.00     0.148 A 
ATOM    104  C   UNL A   1      44.265  32.048  26.661  1.00  0.00     0.002 A 
ATOM    105  C   UNL A   1      46.658  32.127  27.038  1.00  0.00     0.091 A 
ATOM    106  F   UNL A   1      47.642  30.599  28.583  1.00  0.00    -0.205 F 
ATOM    107  C   UNL A   1      45.511  32.606  26.384  1.00  0.00     0.022 A 
BRANCH 105 108
ATOM    108  S   UNL A   1      48.202  33.001  26.770  1.00  0.00     0.127 S 
ATOM    109  O   UNL A   1      47.849  33.922  25.692  1.00  0.00    -0.237 OA
ATOM    110  O   UNL A   1      48.428  33.635  28.071  1.00  0.00    -0.237 OA
ATOM    111  O   UNL A   1      49.189  31.985  26.423  1.00  0.00    -0.744 OA
ENDBRANCH 105 108
ENDBRANCH  78 101
ENDBRANCH  52  53
ENDBRANCH  44  47
ENDBRANCH  42  43
ENDBRANCH  41  42
ENDBRANCH   1  41
TORSDOF 20
ENDMDL
MODEL 3
REMARK VINA RESULT:     -13.0      1.957      3.252
REMARK SMILES Cc1coc2cc3c(cc12)[C@@H](C)[C@H](CCC(=O)N[C@@H](Cc1c[nH]c2ccccc12)C(=O)NCCCCNC(=O)c1ccc(-c2c4nc(c(-c5cccc(S(=O)(=O)[O-])c5F)c5ccc([nH]5)c(-c5cccc(S(=O)(=O)[O-])c5F)c5nc(c(-c6cccc(S(=O)(=O)[O-])c6F)c6ccc2[nH]6)C=C5)C=C4)cc1)C(=O)O3
REMARK SMILES IDX 34 1 33 2 32 3 30 4 31 5 19 7 18 8 16 9 17 10 15 12 14 13
REMARK SMILES IDX 13 14 1 15 2 16 3 17 10 18 4 19 5 20 9 21 6 22 8 23 7 24
REMARK SMILES IDX 11 25 105 26 12 27 103 28 104 29 20 30 21 31 22 32 29 33
REMARK SMILES IDX 23 34 24 35 28 36 25 38 27 39 26 40 35 41 36 42 37 43 38 44
REMARK SMILES IDX 39 46 40 47 41 48 102 49 42 50 101 51 43 52 44 53 45 54
REMARK SMILES IDX 95 55 46 56 100 57 94 58 96 59 47 60 99 61 93 62 92 63 48 65
REMARK SMILES IDX 80 66 60 67 79 68 61 69 64 70 78 71 97 72 62 73 63 74 77 76
REMARK SMILES IDX 98 77 65 78 49 79 50 80 58 81 51 82 53 83 59 84 52 85 54 86
REMARK SMILES IDX 55 87 56 88 57 89 81 90 82 91 90 92 83 93 85 94 91 95 84 96
REMARK SMILES IDX 86 97 87 98 88 99 89 100 66 101 67 102 75 103 68 104 70 105
REMARK SMILES IDX 76 106 69 107 71 108 72 109 73 110 74 111
REMARK H PARENT 32 6 18 11 23 37 37 45 96 64 64 75
REMARK Flexibility Score: inf
ROOT
ATOM      1  C   UNL A   1      32.253  28.590  25.999  1.00  0.00     0.023 C 
ENDROOT
BRANCH   1   2
ATOM      2  C   UNL A   1      32.298  27.147  26.456  1.00  0.00     0.116 C 
BRANCH   2   3
ATOM      3  N   UNL A   1      30.995  26.582  26.781  1.00  0.00    -0.354 N 
ATOM      4  C   UNL A   1      30.129  25.904  25.968  1.00  0.00     0.242 C 
ATOM      5  O   UNL A   1      29.302  25.144  26.481  1.00  0.00    -0.273 OA
ATOM      6  H   UNL A   1      30.698  26.705  27.712  1.00  0.00     0.163 HD
BRANCH   4   7
ATOM      7  C   UNL A   1      30.238  26.015  24.446  1.00  0.00     0.175 C 
BRANCH   7   8
ATOM      8  N   UNL A   1      30.279  24.637  23.888  1.00  0.00    -0.344 N 
ATOM      9  C   UNL A   1      31.228  23.803  23.384  1.00  0.00     0.220 C 
ATOM     10  O   UNL A   1      30.895  22.647  23.110  1.00  0.00    -0.275 OA
ATOM     11  H   UNL A   1      29.387  24.220  23.882  1.00  0.00     0.164 HD
BRANCH   9  12
ATOM     12  C   UNL A   1      32.637  24.263  23.062  1.00  0.00     0.101 C 
BRANCH  12  13
ATOM     13  C   UNL A   1      33.681  23.135  22.866  1.00  0.00     0.026 C 
BRANCH  13  14
ATOM     14  C   UNL A   1      34.209  22.614  24.203  1.00  0.00     0.107 C 
ATOM     15  C   UNL A   1      40.645  20.241  26.390  1.00  0.00     0.048 C 
ATOM     16  C   UNL A   1      39.949  21.515  26.660  1.00  0.00    -0.005 A 
ATOM     17  C   UNL A   1      40.430  22.577  27.401  1.00  0.00     0.199 A 
ATOM     18  C   UNL A   1      38.688  21.938  26.147  1.00  0.00     0.024 A 
ATOM     19  O   UNL A   1      39.598  23.642  27.322  1.00  0.00    -0.464 OA
ATOM     20  C   UNL A   1      38.571  23.273  26.516  1.00  0.00     0.137 A 
ATOM     21  C   UNL A   1      37.663  21.350  25.372  1.00  0.00     0.020 A 
ATOM     22  C   UNL A   1      37.571  24.117  26.075  1.00  0.00     0.095 A 
ATOM     23  C   UNL A   1      36.603  22.151  24.924  1.00  0.00    -0.001 A 
ATOM     24  C   UNL A   1      36.643  23.526  25.223  1.00  0.00     0.138 A 
ATOM     25  C   UNL A   1      35.387  21.597  24.186  1.00  0.00     0.034 C 
ATOM     26  O   UNL A   1      35.720  24.384  24.666  1.00  0.00    -0.426 OA
ATOM     27  C   UNL A   1      34.913  20.268  24.832  1.00  0.00     0.014 C 
ATOM     28  C   UNL A   1      34.579  23.793  25.109  1.00  0.00     0.314 C 
ATOM     29  O   UNL A   1      34.001  24.173  26.100  1.00  0.00    -0.251 OA
ENDBRANCH  13  14
ENDBRANCH  12  13
ENDBRANCH   9  12
ENDBRANCH   7   8
BRANCH   7  30
ATOM     30  C   UNL A   1      29.261  27.119  23.904  1.00  0.00     0.072 C 
BRANCH  30  31
ATOM     31  C   UNL A   1      29.675  28.307  23.080  1.00  0.00    -0.020 A 
ATOM     32  C   UNL A   1      30.832  28.453  22.331  1.00  0.00     0.087 A 
ATOM     33  C   UNL A   1      28.999  29.570  23.007  1.00  0.00     0.003 A 
ATOM     34  N   UNL A   1      30.821  29.683  21.727  1.00  0.00    -0.361 N 
ATOM     35  C   UNL A   1      29.704  30.379  22.115  1.00  0.00     0.046 A 
ATOM     36  C   UNL A   1      27.808  30.063  23.570  1.00  0.00     0.010 A 
ATOM     37  H   UNL A   1      31.511  30.015  21.109  1.00  0.00     0.166 HD
ATOM     38  C   UNL A   1      29.244  31.636  21.708  1.00  0.00     0.026 A 
ATOM     39  C   UNL A   1      27.321  31.306  23.154  1.00  0.00     0.001 A 
ATOM     40  C   UNL A   1      28.017  32.067  22.219  1.00  0.00     0.002 A 
ENDBRANCH  30  31
ENDBRANCH   7  30
ENDBRANCH   4   7
ENDBRANCH   2   3
ENDBRANCH   1   2
BRANCH   1  41
ATOM     41  C   UNL A   1      33.626  29.265  25.985  1.00  0.00     0.023 C 
BRANCH  41  42
ATOM     42  C   UNL A   1      34.367  29.261  27.330  1.00  0.00     0.116 C 
BRANCH  42  43
ATOM     43  N   UNL A   1      34.500  30.567  27.945  1.00  0.00    -0.352 N 
ATOM     44  C   UNL A   1      35.554  31.416  28.149  1.00  0.00     0.251 C 
ATOM     45  H   UNL A   1      33.648  30.919  28.290  1.00  0.00     0.163 HD
ATOM     46  O   UNL A   1      35.288  32.594  28.399  1.00  0.00    -0.269 OA
BRANCH  44  47
ATOM     47  C   UNL A   1      36.958  30.950  28.218  1.00  0.00     0.039 A 
ATOM     48  C   UNL A   1      37.418  29.783  27.614  1.00  0.00     0.014 A 
ATOM     49  C   UNL A   1      37.825  31.671  29.058  1.00  0.00     0.014 A 
ATOM     50  C   UNL A   1      38.626  29.240  27.987  1.00  0.00     0.010 A 
ATOM     51  C   UNL A   1      39.073  31.160  29.392  1.00  0.00     0.010 A 
ATOM     52  C   UNL A   1      39.434  29.910  28.907  1.00  0.00    -0.014 A 
BRANCH  52  53
ATOM     53  C   UNL A   1      40.707  29.276  29.195  1.00  0.00     0.031 A 
ATOM     54  C   UNL A   1      40.830  28.834  30.611  1.00  0.00     0.074 A 
ATOM     55  C   UNL A   1      41.684  29.110  28.285  1.00  0.00     0.049 A 
ATOM     56  N   UNL A   1      41.602  29.323  31.526  1.00  0.00    -0.248 NA
ATOM     57  C   UNL A   1      39.834  27.875  31.110  1.00  0.00     0.031 C 
ATOM     58  C   UNL A   1      41.602  29.271  26.833  1.00  0.00     0.029 A 
ATOM     59  N   UNL A   1      42.944  28.633  28.474  1.00  0.00    -0.354 N 
ATOM     60  C   UNL A   1      41.343  28.571  32.670  1.00  0.00     0.074 A 
ATOM     61  C   UNL A   1      40.132  27.840  32.409  1.00  0.00     0.031 C 
ATOM     62  C   UNL A   1      42.658  28.648  26.262  1.00  0.00     0.029 A 
ATOM     63  C   UNL A   1      43.552  28.184  27.308  1.00  0.00     0.049 A 
ATOM     64  H   UNL A   1      43.385  28.609  29.354  1.00  0.00     0.167 HD
ATOM     65  C   UNL A   1      42.279  28.425  33.646  1.00  0.00     0.034 A 
ATOM     66  C   UNL A   1      44.659  27.405  27.234  1.00  0.00     0.034 A 
ATOM     67  C   UNL A   1      43.289  29.445  33.563  1.00  0.00     0.049 A 
ATOM     68  C   UNL A   1      45.383  27.552  28.517  1.00  0.00     0.074 A 
ATOM     69  C   UNL A   1      43.306  30.822  33.659  1.00  0.00     0.029 A 
ATOM     70  N   UNL A   1      44.480  29.087  32.982  1.00  0.00    -0.354 N 
ATOM     71  N   UNL A   1      45.955  28.657  28.905  1.00  0.00    -0.248 NA
ATOM     72  C   UNL A   1      45.121  26.578  29.564  1.00  0.00     0.031 C 
ATOM     73  C   UNL A   1      44.294  31.243  32.725  1.00  0.00     0.029 A 
ATOM     74  C   UNL A   1      44.860  30.102  32.150  1.00  0.00     0.049 A 
ATOM     75  H   UNL A   1      44.972  28.248  33.137  1.00  0.00     0.167 HD
ATOM     76  C   UNL A   1      45.712  28.708  30.270  1.00  0.00     0.074 A 
ATOM     77  C   UNL A   1      45.297  27.355  30.634  1.00  0.00     0.031 C 
ATOM     78  C   UNL A   1      45.591  29.902  30.918  1.00  0.00     0.034 A 
BRANCH  65  79
ATOM     79  C   UNL A   1      42.514  27.147  34.422  1.00  0.00     0.023 A 
ATOM     80  C   UNL A   1      42.234  27.174  35.808  1.00  0.00     0.012 A 
ATOM     81  C   UNL A   1      43.254  26.040  33.944  1.00  0.00     0.148 A 
ATOM     82  C   UNL A   1      42.727  26.196  36.678  1.00  0.00     0.002 A 
ATOM     83  C   UNL A   1      43.674  25.030  34.800  1.00  0.00     0.091 A 
ATOM     84  F   UNL A   1      43.680  26.009  32.681  1.00  0.00    -0.205 F 
ATOM     85  C   UNL A   1      43.446  25.121  36.174  1.00  0.00     0.022 A 
BRANCH  83  86
ATOM     86  S   UNL A   1      44.558  23.587  34.193  1.00  0.00     0.127 S 
ATOM     87  O   UNL A   1      44.708  22.800  35.414  1.00  0.00    -0.237 OA
ATOM     88  O   UNL A   1      43.609  23.049  33.219  1.00  0.00    -0.237 OA
ATOM     89  O   UNL A   1      45.792  24.097  33.606  1.00  0.00    -0.744 OA
ENDBRANCH  83  86
ENDBRANCH  65  79
BRANCH  66  90
ATOM     90  C   UNL A   1      44.975  26.306  26.290  1.00  0.00     0.023 A 
ATOM     91  C   UNL A   1      46.186  26.345  25.568  1.00  0.00     0.012 A 
ATOM     92  C   UNL A   1      44.261  25.087  26.325  1.00  0.00     0.148 A 
ATOM     93  C   UNL A   1      46.692  25.198  24.942  1.00  0.00     0.002 A 
ATOM     94  C   UNL A   1      44.767  23.951  25.700  1.00  0.00     0.091 A 
ATOM     95  F   UNL A   1      43.138  25.016  27.050  1.00  0.00    -0.205 F 
ATOM     96  C   UNL A   1      45.990  23.999  25.019  1.00  0.00     0.022 A 
BRANCH  94  97
ATOM     97  S   UNL A   1      43.941  22.356  25.793  1.00  0.00     0.127 S 
ATOM     98  O   UNL A   1      43.648  22.251  27.223  1.00  0.00    -0.237 OA
ATOM     99  O   UNL A   1      42.775  22.572  24.942  1.00  0.00    -0.237 OA
ATOM    100  O   UNL A   1      44.906  21.378  25.306  1.00  0.00    -0.744 OA
ENDBRANCH  94  97
ENDBRANCH  66  90
BRANCH  78 101
ATOM    101  C   UNL A   1      46.001  31.162  30.199  1.00  0.00     0.023 A 
ATOM    102  C   UNL A   1      47.289  31.719  30.330  1.00  0.00     0.012 A 
ATOM    103  C   UNL A   1      45.149  31.633  29.185  1.00  0.00     0.148 A 
ATOM    104  C   UNL A   1      47.719  32.725  29.457  1.00  0.00     0.002 A 
ATOM    105  C   UNL A   1      45.602  32.585  28.284  1.00  0.00     0.091 A 
ATOM    106  F   UNL A   1      43.926  31.089  29.085  1.00  0.00    -0.205 F 
ATOM    107  C   UNL A   1      46.885  33.141  28.422  1.00  0.00     0.022 A 
BRANCH 105 108
ATOM    108  S   UNL A   1      44.647  33.032  26.832  1.00  0.00     0.127 S 
ATOM    109  O   UNL A   1      43.879  31.815  26.585  1.00  0.00    -0.237 OA
ATOM    110  O   UNL A   1      43.860  34.168  27.317  1.00  0.00    -0.237 OA
ATOM    111  O   UNL A   1      45.617  33.378  25.799  1.00  0.00    -0.744 OA
ENDBRANCH 105 108
ENDBRANCH  78 101
ENDBRANCH  52  53
ENDBRANCH  44  47
ENDBRANCH  42  43
ENDBRANCH  41  42
ENDBRANCH   1  41
TORSDOF 20
ENDMDL
