MODEL 1
REMARK VINA RESULT:     -11.4      0.000      0.000
REMARK SMILES CC[C@](O)(C(=O)NCCCCNC(=O)c1ccc(-c2c3nc(c(-c4cccc(S(=O)(=O)[O-])c4F)c4ccc([nH]4)c(-c4cccc(S(=O)(=O)[O-])c4F)c4nc(c(-c5cccc(S(=O)(=O)[O-])c5F)c5ccc2[nH]5)C=C4)C=C3)cc1)[C@@H](C)c1ccc2c(c1)OCCO2
REMARK SMILES IDX 10 1 9 2 8 3 7 4 5 5 6 6 3 8 2 9 1 10 78 11 79 12 80 13
REMARK SMILES IDX 81 14 85 15 82 16 84 17 83 18 86 19 89 20 87 21 88 22 4 23
REMARK SMILES IDX 11 25 12 26 13 27 14 29 15 30 16 31 77 32 17 33 76 34 18 35
REMARK SMILES IDX 19 36 20 37 70 38 21 39 75 40 69 41 71 42 22 43 74 44 68 45
REMARK SMILES IDX 67 46 23 48 55 49 35 50 54 51 36 52 39 53 53 54 72 55 37 56
REMARK SMILES IDX 38 57 52 59 73 60 40 61 24 62 25 63 33 64 26 65 28 66 34 67
REMARK SMILES IDX 27 68 29 69 30 70 31 71 32 72 56 73 57 74 65 75 58 76 60 77
REMARK SMILES IDX 66 78 59 79 61 80 62 81 63 82 64 83 41 84 42 85 50 86 43 87
REMARK SMILES IDX 45 88 51 89 44 90 46 91 47 92 48 93 49 94
REMARK H PARENT 7 7 4 24 12 28 71 47 39 58
REMARK Flexibility Score: inf
ROOT
ATOM      1  C   UNL A   1      36.247  22.204  24.766  1.00  0.00     0.023 C 
ENDROOT
BRANCH   1   2
ATOM      2  C   UNL A   1      35.863  20.748  25.023  1.00  0.00     0.023 C 
BRANCH   2   3
ATOM      3  C   UNL A   1      34.421  20.551  25.484  1.00  0.00     0.116 C 
BRANCH   3   4
ATOM      4  N   UNL A   1      34.130  21.224  26.739  1.00  0.00    -0.354 N 
ATOM      5  C   UNL A   1      33.071  22.028  27.079  1.00  0.00     0.252 C 
ATOM      6  O   UNL A   1      32.970  22.365  28.262  1.00  0.00    -0.272 OA
ATOM      7  H   UNL A   1      34.793  21.081  27.453  1.00  0.00     0.163 HD
BRANCH   5   8
ATOM      8  C   UNL A   1      31.977  22.379  26.021  1.00  0.00     0.149 C 
BRANCH   8   9
ATOM      9  C   UNL A   1      31.011  23.336  26.782  1.00  0.00     0.043 C 
ATOM     10  C   UNL A   1      29.606  22.833  27.076  1.00  0.00     0.007 C 
ENDBRANCH   8   9
BRANCH   8  11
ATOM     11  C   UNL A   1      32.592  23.034  24.722  1.00  0.00     0.058 C 
ATOM     12  C   UNL A   1      31.756  22.823  23.440  1.00  0.00     0.016 C 
BRANCH  11  13
ATOM     13  C   UNL A   1      32.791  24.556  24.822  1.00  0.00    -0.038 A 
ATOM     14  C   UNL A   1      33.812  25.118  25.605  1.00  0.00     0.008 A 
ATOM     15  C   UNL A   1      32.020  25.415  24.021  1.00  0.00     0.054 A 
ATOM     16  C   UNL A   1      34.062  26.497  25.564  1.00  0.00     0.051 A 
ATOM     17  C   UNL A   1      32.267  26.774  23.970  1.00  0.00     0.161 A 
ATOM     18  C   UNL A   1      33.316  27.309  24.711  1.00  0.00     0.161 A 
ATOM     19  O   UNL A   1      31.494  27.484  23.097  1.00  0.00    -0.486 OA
ATOM     20  O   UNL A   1      33.705  28.614  24.536  1.00  0.00    -0.486 OA
ATOM     21  C   UNL A   1      32.010  28.781  22.801  1.00  0.00     0.271 C 
ATOM     22  C   UNL A   1      33.483  28.937  23.154  1.00  0.00     0.271 C 
ENDBRANCH  11  13
ENDBRANCH   8  11
BRANCH   8  23
ATOM     23  O   UNL A   1      31.310  21.160  25.670  1.00  0.00    -0.379 OA
ATOM     24  H   UNL A   1      30.540  21.361  25.116  1.00  0.00     0.212 HD
ENDBRANCH   8  23
ENDBRANCH   5   8
ENDBRANCH   3   4
ENDBRANCH   2   3
ENDBRANCH   1   2
BRANCH   1  25
ATOM     25  C   UNL A   1      37.119  22.837  25.842  1.00  0.00     0.116 C 
BRANCH  25  26
ATOM     26  N   UNL A   1      38.330  22.078  26.141  1.00  0.00    -0.352 N 
ATOM     27  C   UNL A   1      39.515  22.569  26.642  1.00  0.00     0.251 C 
ATOM     28  H   UNL A   1      38.294  21.111  25.967  1.00  0.00     0.163 HD
ATOM     29  O   UNL A   1      40.495  21.847  26.786  1.00  0.00    -0.269 OA
BRANCH  27  30
ATOM     30  C   UNL A   1      39.578  24.006  26.961  1.00  0.00     0.039 A 
ATOM     31  C   UNL A   1      39.303  24.427  28.263  1.00  0.00     0.014 A 
ATOM     32  C   UNL A   1      40.058  24.899  26.000  1.00  0.00     0.014 A 
ATOM     33  C   UNL A   1      39.587  25.744  28.628  1.00  0.00     0.010 A 
ATOM     34  C   UNL A   1      40.410  26.183  26.387  1.00  0.00     0.010 A 
ATOM     35  C   UNL A   1      40.183  26.617  27.704  1.00  0.00    -0.014 A 
BRANCH  35  36
ATOM     36  C   UNL A   1      40.595  27.994  28.070  1.00  0.00     0.031 A 
ATOM     37  C   UNL A   1      42.058  28.335  28.118  1.00  0.00     0.074 A 
ATOM     38  C   UNL A   1      39.676  28.880  28.503  1.00  0.00     0.049 A 
ATOM     39  N   UNL A   1      42.641  29.404  28.588  1.00  0.00    -0.248 NA
ATOM     40  C   UNL A   1      42.988  27.312  27.612  1.00  0.00     0.031 C 
ATOM     41  C   UNL A   1      38.234  28.637  28.578  1.00  0.00     0.029 A 
ATOM     42  N   UNL A   1      39.826  30.148  29.007  1.00  0.00    -0.354 N 
ATOM     43  C   UNL A   1      44.005  29.159  28.494  1.00  0.00     0.074 A 
ATOM     44  C   UNL A   1      44.160  27.829  27.945  1.00  0.00     0.031 C 
ATOM     45  C   UNL A   1      37.635  29.713  29.114  1.00  0.00     0.029 A 
ATOM     46  C   UNL A   1      38.651  30.707  29.451  1.00  0.00     0.049 A 
ATOM     47  H   UNL A   1      40.694  30.613  29.049  1.00  0.00     0.167 HD
ATOM     48  C   UNL A   1      45.037  29.976  28.811  1.00  0.00     0.034 A 
ATOM     49  C   UNL A   1      38.418  31.878  30.077  1.00  0.00     0.034 A 
ATOM     50  C   UNL A   1      44.873  31.319  29.292  1.00  0.00     0.049 A 
ATOM     51  C   UNL A   1      39.573  32.803  30.348  1.00  0.00     0.074 A 
ATOM     52  C   UNL A   1      45.848  32.270  29.537  1.00  0.00     0.029 A 
ATOM     53  N   UNL A   1      43.655  31.903  29.602  1.00  0.00    -0.354 N 
ATOM     54  N   UNL A   1      40.848  32.620  30.106  1.00  0.00    -0.248 NA
ATOM     55  C   UNL A   1      39.258  34.110  30.944  1.00  0.00     0.031 C 
ATOM     56  C   UNL A   1      45.218  33.427  30.007  1.00  0.00     0.029 A 
ATOM     57  C   UNL A   1      43.850  33.202  30.037  1.00  0.00     0.049 A 
ATOM     58  H   UNL A   1      42.780  31.460  29.523  1.00  0.00     0.167 HD
ATOM     59  C   UNL A   1      41.483  33.798  30.483  1.00  0.00     0.074 A 
ATOM     60  C   UNL A   1      40.450  34.693  30.960  1.00  0.00     0.031 C 
ATOM     61  C   UNL A   1      42.804  34.104  30.446  1.00  0.00     0.034 A 
BRANCH  48  62
ATOM     62  C   UNL A   1      46.430  29.449  28.592  1.00  0.00     0.023 A 
ATOM     63  C   UNL A   1      47.081  29.690  27.364  1.00  0.00     0.012 A 
ATOM     64  C   UNL A   1      47.103  28.735  29.602  1.00  0.00     0.148 A 
ATOM     65  C   UNL A   1      48.359  29.189  27.127  1.00  0.00     0.002 A 
ATOM     66  C   UNL A   1      48.398  28.280  29.375  1.00  0.00     0.091 A 
ATOM     67  F   UNL A   1      46.462  28.490  30.754  1.00  0.00    -0.205 F 
ATOM     68  C   UNL A   1      49.021  28.493  28.135  1.00  0.00     0.022 A 
BRANCH  66  69
ATOM     69  S   UNL A   1      49.353  27.446  30.646  1.00  0.00     0.127 S 
ATOM     70  O   UNL A   1      49.380  28.451  31.706  1.00  0.00    -0.237 OA
ATOM     71  O   UNL A   1      48.527  26.274  30.940  1.00  0.00    -0.237 OA
ATOM     72  O   UNL A   1      50.638  27.136  30.033  1.00  0.00    -0.744 OA
ENDBRANCH  66  69
ENDBRANCH  48  62
BRANCH  49  73
ATOM     73  C   UNL A   1      37.020  32.262  30.418  1.00  0.00     0.023 A 
ATOM     74  C   UNL A   1      36.557  32.073  31.735  1.00  0.00     0.012 A 
ATOM     75  C   UNL A   1      36.172  32.872  29.473  1.00  0.00     0.148 A 
ATOM     76  C   UNL A   1      35.269  32.466  32.100  1.00  0.00     0.002 A 
ATOM     77  C   UNL A   1      34.909  33.308  29.856  1.00  0.00     0.091 A 
ATOM     78  F   UNL A   1      36.632  33.037  28.224  1.00  0.00    -0.205 F 
ATOM     79  C   UNL A   1      34.450  33.093  31.165  1.00  0.00     0.022 A 
BRANCH  77  80
ATOM     80  S   UNL A   1      33.834  34.244  28.763  1.00  0.00     0.127 S 
ATOM     81  O   UNL A   1      34.744  35.266  28.251  1.00  0.00    -0.237 OA
ATOM     82  O   UNL A   1      33.440  33.225  27.788  1.00  0.00    -0.237 OA
ATOM     83  O   UNL A   1      32.746  34.730  29.599  1.00  0.00    -0.744 OA
ENDBRANCH  77  80
ENDBRANCH  49  73
BRANCH  61  84
ATOM     84  C   UNL A   1      43.222  35.481  30.888  1.00  0.00     0.023 A 
ATOM     85  C   UNL A   1      43.579  35.707  32.232  1.00  0.00     0.012 A 
ATOM     86  C   UNL A   1      43.370  36.518  29.946  1.00  0.00     0.148 A 
ATOM     87  C   UNL A   1      44.061  36.952  32.634  1.00  0.00     0.002 A 
ATOM     88  C   UNL A   1      43.895  37.741  30.346  1.00  0.00     0.091 A 
ATOM     89  F   UNL A   1      43.005  36.286  28.677  1.00  0.00    -0.205 F 
ATOM     90  C   UNL A   1      44.233  37.962  31.690  1.00  0.00     0.022 A 
BRANCH  88  91
ATOM     91  S   UNL A   1      44.242  39.065  29.181  1.00  0.00     0.127 S 
ATOM     92  O   UNL A   1      42.899  39.430  28.736  1.00  0.00    -0.237 OA
ATOM     93  O   UNL A   1      44.897  40.061  30.029  1.00  0.00    -0.237 OA
ATOM     94  O   UNL A   1      45.103  38.484  28.159  1.00  0.00    -0.744 OA
ENDBRANCH  88  91
ENDBRANCH  61  84
ENDBRANCH  35  36
ENDBRANCH  27  30
ENDBRANCH  25  26
ENDBRANCH   1  25
TORSDOF 18
ENDMDL
MODEL 2
REMARK VINA RESULT:     -11.3      2.625      4.226
REMARK SMILES CC[C@](O)(C(=O)NCCCCNC(=O)c1ccc(-c2c3nc(c(-c4cccc(S(=O)(=O)[O-])c4F)c4ccc([nH]4)c(-c4cccc(S(=O)(=O)[O-])c4F)c4nc(c(-c5cccc(S(=O)(=O)[O-])c5F)c5ccc2[nH]5)C=C4)C=C3)cc1)[C@@H](C)c1ccc2c(c1)OCCO2
REMARK SMILES IDX 10 1 9 2 8 3 7 4 5 5 6 6 3 8 2 9 1 10 78 11 79 12 80 13
REMARK SMILES IDX 81 14 85 15 82 16 84 17 83 18 86 19 89 20 87 21 88 22 4 23
REMARK SMILES IDX 11 25 12 26 13 27 14 29 15 30 16 31 77 32 17 33 76 34 18 35
REMARK SMILES IDX 19 36 20 37 70 38 21 39 75 40 69 41 71 42 22 43 74 44 68 45
REMARK SMILES IDX 67 46 23 48 55 49 35 50 54 51 36 52 39 53 53 54 72 55 37 56
REMARK SMILES IDX 38 57 52 59 73 60 40 61 24 62 25 63 33 64 26 65 28 66 34 67
REMARK SMILES IDX 27 68 29 69 30 70 31 71 32 72 56 73 57 74 65 75 58 76 60 77
REMARK SMILES IDX 66 78 59 79 61 80 62 81 63 82 64 83 41 84 42 85 50 86 43 87
REMARK SMILES IDX 45 88 51 89 44 90 46 91 47 92 48 93 49 94
REMARK H PARENT 7 7 4 24 12 28 71 47 39 58
REMARK Flexibility Score: inf
ROOT
ATOM      1  C   UNL A   1      36.627  21.812  24.175  1.00  0.00     0.023 C 
ENDROOT
BRANCH   1   2
ATOM      2  C   UNL A   1      36.090  23.089  23.529  1.00  0.00     0.023 C 
BRANCH   2   3
ATOM      3  C   UNL A   1      35.219  23.939  24.450  1.00  0.00     0.116 C 
BRANCH   3   4
ATOM      4  N   UNL A   1      33.953  24.316  23.843  1.00  0.00    -0.354 N 
ATOM      5  C   UNL A   1      32.672  24.141  24.304  1.00  0.00     0.252 C 
ATOM      6  O   UNL A   1      31.761  24.683  23.672  1.00  0.00    -0.272 OA
ATOM      7  H   UNL A   1      34.025  24.765  22.970  1.00  0.00     0.163 HD
BRANCH   5   8
ATOM      8  C   UNL A   1      32.415  23.393  25.651  1.00  0.00     0.149 C 
BRANCH   8   9
ATOM      9  C   UNL A   1      30.924  22.950  25.557  1.00  0.00     0.043 C 
ATOM     10  C   UNL A   1      30.114  22.918  26.843  1.00  0.00     0.007 C 
ENDBRANCH   8   9
BRANCH   8  11
ATOM     11  C   UNL A   1      33.404  22.180  25.857  1.00  0.00     0.058 C 
ATOM     12  C   UNL A   1      33.567  21.728  27.326  1.00  0.00     0.016 C 
BRANCH  11  13
ATOM     13  C   UNL A   1      33.003  20.908  25.092  1.00  0.00    -0.038 A 
ATOM     14  C   UNL A   1      32.784  20.917  23.705  1.00  0.00     0.008 A 
ATOM     15  C   UNL A   1      32.970  19.672  25.760  1.00  0.00     0.054 A 
ATOM     16  C   UNL A   1      32.562  19.720  23.011  1.00  0.00     0.051 A 
ATOM     17  C   UNL A   1      32.760  18.486  25.080  1.00  0.00     0.161 A 
ATOM     18  C   UNL A   1      32.598  18.507  23.699  1.00  0.00     0.161 A 
ATOM     19  O   UNL A   1      32.826  17.352  25.836  1.00  0.00    -0.486 OA
ATOM     20  O   UNL A   1      32.578  17.340  22.977  1.00  0.00    -0.486 OA
ATOM     21  C   UNL A   1      32.973  16.159  25.065  1.00  0.00     0.271 C 
ATOM     22  C   UNL A   1      33.455  16.418  23.644  1.00  0.00     0.271 C 
ENDBRANCH  11  13
ENDBRANCH   8  11
BRANCH   8  23
ATOM     23  O   UNL A   1      32.594  24.341  26.711  1.00  0.00    -0.379 OA
ATOM     24  H   UNL A   1      33.244  23.999  27.344  1.00  0.00     0.212 HD
ENDBRANCH   8  23
ENDBRANCH   5   8
ENDBRANCH   3   4
ENDBRANCH   2   3
ENDBRANCH   1   2
BRANCH   1  25
ATOM     25  C   UNL A   1      37.369  22.019  25.488  1.00  0.00     0.116 C 
BRANCH  25  26
ATOM     26  N   UNL A   1      38.428  21.044  25.726  1.00  0.00    -0.352 N 
ATOM     27  C   UNL A   1      39.642  21.268  26.335  1.00  0.00     0.251 C 
ATOM     28  H   UNL A   1      38.255  20.125  25.419  1.00  0.00     0.163 HD
ATOM     29  O   UNL A   1      40.490  20.386  26.416  1.00  0.00    -0.269 OA
BRANCH  27  30
ATOM     30  C   UNL A   1      39.907  22.624  26.850  1.00  0.00     0.039 A 
ATOM     31  C   UNL A   1      40.848  22.793  27.867  1.00  0.00     0.014 A 
ATOM     32  C   UNL A   1      39.329  23.723  26.212  1.00  0.00     0.014 A 
ATOM     33  C   UNL A   1      41.273  24.081  28.196  1.00  0.00     0.010 A 
ATOM     34  C   UNL A   1      39.810  24.994  26.487  1.00  0.00     0.010 A 
ATOM     35  C   UNL A   1      40.789  25.186  27.477  1.00  0.00    -0.014 A 
BRANCH  35  36
ATOM     36  C   UNL A   1      41.281  26.564  27.719  1.00  0.00     0.031 A 
ATOM     37  C   UNL A   1      42.711  26.900  27.400  1.00  0.00     0.074 A 
ATOM     38  C   UNL A   1      40.500  27.456  28.360  1.00  0.00     0.049 A 
ATOM     39  N   UNL A   1      43.395  27.970  27.702  1.00  0.00    -0.248 NA
ATOM     40  C   UNL A   1      43.484  25.870  26.686  1.00  0.00     0.031 C 
ATOM     41  C   UNL A   1      39.122  27.218  28.793  1.00  0.00     0.029 A 
ATOM     42  N   UNL A   1      40.773  28.727  28.801  1.00  0.00    -0.354 N 
ATOM     43  C   UNL A   1      44.692  27.719  27.274  1.00  0.00     0.074 A 
ATOM     44  C   UNL A   1      44.703  26.385  26.714  1.00  0.00     0.031 C 
ATOM     45  C   UNL A   1      38.677  28.300  29.453  1.00  0.00     0.029 A 
ATOM     46  C   UNL A   1      39.746  29.292  29.519  1.00  0.00     0.049 A 
ATOM     47  H   UNL A   1      41.625  29.188  28.623  1.00  0.00     0.167 HD
ATOM     48  C   UNL A   1      45.771  28.534  27.318  1.00  0.00     0.034 A 
ATOM     49  C   UNL A   1      39.679  30.468  30.175  1.00  0.00     0.034 A 
ATOM     50  C   UNL A   1      45.735  29.881  27.815  1.00  0.00     0.049 A 
ATOM     51  C   UNL A   1      40.866  31.392  30.144  1.00  0.00     0.074 A 
ATOM     52  C   UNL A   1      46.741  30.830  27.803  1.00  0.00     0.029 A 
ATOM     53  N   UNL A   1      44.633  30.472  28.413  1.00  0.00    -0.354 N 
ATOM     54  N   UNL A   1      42.041  31.202  29.594  1.00  0.00    -0.248 NA
ATOM     55  C   UNL A   1      40.711  32.703  30.790  1.00  0.00     0.031 C 
ATOM     56  C   UNL A   1      46.250  31.992  28.406  1.00  0.00     0.029 A 
ATOM     57  C   UNL A   1      44.932  31.773  28.777  1.00  0.00     0.049 A 
ATOM     58  H   UNL A   1      43.765  30.031  28.558  1.00  0.00     0.167 HD
ATOM     59  C   UNL A   1      42.752  32.380  29.793  1.00  0.00     0.074 A 
ATOM     60  C   UNL A   1      41.871  33.283  30.505  1.00  0.00     0.031 C 
ATOM     61  C   UNL A   1      44.022  32.681  29.426  1.00  0.00     0.034 A 
BRANCH  48  62
ATOM     62  C   UNL A   1      47.066  28.001  26.764  1.00  0.00     0.023 A 
ATOM     63  C   UNL A   1      48.085  27.588  27.648  1.00  0.00     0.012 A 
ATOM     64  C   UNL A   1      47.269  27.890  25.376  1.00  0.00     0.148 A 
ATOM     65  C   UNL A   1      49.301  27.117  27.160  1.00  0.00     0.002 A 
ATOM     66  C   UNL A   1      48.469  27.374  24.896  1.00  0.00     0.091 A 
ATOM     67  F   UNL A   1      46.303  28.313  24.547  1.00  0.00    -0.205 F 
ATOM     68  C   UNL A   1      49.490  27.002  25.785  1.00  0.00     0.022 A 
BRANCH  66  69
ATOM     69  S   UNL A   1      48.765  27.115  23.145  1.00  0.00     0.127 S 
ATOM     70  O   UNL A   1      50.224  27.162  23.080  1.00  0.00    -0.237 OA
ATOM     71  O   UNL A   1      48.189  25.788  22.923  1.00  0.00    -0.237 OA
ATOM     72  O   UNL A   1      48.064  28.194  22.462  1.00  0.00    -0.744 OA
ENDBRANCH  66  69
ENDBRANCH  48  62
BRANCH  49  73
ATOM     73  C   UNL A   1      38.409  30.860  30.850  1.00  0.00     0.023 A 
ATOM     74  C   UNL A   1      38.273  30.645  32.235  1.00  0.00     0.012 A 
ATOM     75  C   UNL A   1      37.370  31.500  30.149  1.00  0.00     0.148 A 
ATOM     76  C   UNL A   1      37.118  31.045  32.907  1.00  0.00     0.002 A 
ATOM     77  C   UNL A   1      36.243  31.942  30.833  1.00  0.00     0.091 A 
ATOM     78  F   UNL A   1      37.518  31.690  28.830  1.00  0.00    -0.205 F 
ATOM     79  C   UNL A   1      36.108  31.702  32.209  1.00  0.00     0.022 A 
BRANCH  77  80
ATOM     80  S   UNL A   1      34.952  32.914  30.049  1.00  0.00     0.127 S 
ATOM     81  O   UNL A   1      34.122  33.288  31.192  1.00  0.00    -0.237 OA
ATOM     82  O   UNL A   1      35.721  34.013  29.460  1.00  0.00    -0.237 OA
ATOM     83  O   UNL A   1      34.326  32.030  29.077  1.00  0.00    -0.744 OA
ENDBRANCH  77  80
ENDBRANCH  49  73
BRANCH  61  84
ATOM     84  C   UNL A   1      44.539  34.060  29.740  1.00  0.00     0.023 A 
ATOM     85  C   UNL A   1      45.203  34.298  30.960  1.00  0.00     0.012 A 
ATOM     86  C   UNL A   1      44.467  35.085  28.777  1.00  0.00     0.148 A 
ATOM     87  C   UNL A   1      45.773  35.543  31.221  1.00  0.00     0.002 A 
ATOM     88  C   UNL A   1      45.077  36.308  29.027  1.00  0.00     0.091 A 
ATOM     89  F   UNL A   1      43.813  34.842  27.632  1.00  0.00    -0.205 F 
ATOM     90  C   UNL A   1      45.723  36.542  30.251  1.00  0.00     0.022 A 
BRANCH  88  91
ATOM     91  S   UNL A   1      45.148  37.617  27.797  1.00  0.00     0.127 S 
ATOM     92  O   UNL A   1      45.837  38.677  28.529  1.00  0.00    -0.237 OA
ATOM     93  O   UNL A   1      45.935  36.999  26.730  1.00  0.00    -0.237 OA
ATOM     94  O   UNL A   1      43.765  37.903  27.437  1.00  0.00    -0.744 OA
ENDBRANCH  88  91
ENDBRANCH  61  84
ENDBRANCH  35  36
ENDBRANCH  27  30
ENDBRANCH  25  26
ENDBRANCH   1  25
TORSDOF 18
ENDMDL
MODEL 3
REMARK VINA RESULT:     -11.2      2.000      2.436
REMARK SMILES CC[C@](O)(C(=O)NCCCCNC(=O)c1ccc(-c2c3nc(c(-c4cccc(S(=O)(=O)[O-])c4F)c4ccc([nH]4)c(-c4cccc(S(=O)(=O)[O-])c4F)c4nc(c(-c5cccc(S(=O)(=O)[O-])c5F)c5ccc2[nH]5)C=C4)C=C3)cc1)[C@@H](C)c1ccc2c(c1)OCCO2
REMARK SMILES IDX 10 1 9 2 8 3 7 4 5 5 6 6 3 8 2 9 1 10 78 11 79 12 80 13
REMARK SMILES IDX 81 14 85 15 82 16 84 17 83 18 86 19 89 20 87 21 88 22 4 23
REMARK SMILES IDX 11 25 12 26 13 27 14 29 15 30 16 31 77 32 17 33 76 34 18 35
REMARK SMILES IDX 19 36 20 37 70 38 21 39 75 40 69 41 71 42 22 43 74 44 68 45
REMARK SMILES IDX 67 46 23 48 55 49 35 50 54 51 36 52 39 53 53 54 72 55 37 56
REMARK SMILES IDX 38 57 52 59 73 60 40 61 24 62 25 63 33 64 26 65 28 66 34 67
REMARK SMILES IDX 27 68 29 69 30 70 31 71 32 72 56 73 57 74 65 75 58 76 60 77
REMARK SMILES IDX 66 78 59 79 61 80 62 81 63 82 64 83 41 84 42 85 50 86 43 87
REMARK SMILES IDX 45 88 51 89 44 90 46 91 47 92 48 93 49 94
REMARK H PARENT 7 7 4 24 12 28 71 47 39 58
REMARK Flexibility Score: inf
ROOT
ATOM      1  C   UNL A   1      35.955  22.788  25.208  1.00  0.00     0.023 C 
ENDROOT
BRANCH   1   2
ATOM      2  C   UNL A   1      35.674  21.300  25.002  1.00  0.00     0.023 C 
BRANCH   2   3
ATOM      3  C   UNL A   1      34.360  20.819  25.613  1.00  0.00     0.116 C 
BRANCH   3   4
ATOM      4  N   UNL A   1      34.031  21.497  26.856  1.00  0.00    -0.354 N 
ATOM      5  C   UNL A   1      32.917  22.225  27.190  1.00  0.00     0.252 C 
ATOM      6  O   UNL A   1      32.802  22.580  28.366  1.00  0.00    -0.272 OA
ATOM      7  H   UNL A   1      34.710  21.422  27.565  1.00  0.00     0.163 HD
BRANCH   5   8
ATOM      8  C   UNL A   1      31.789  22.467  26.137  1.00  0.00     0.149 C 
BRANCH   8   9
ATOM      9  C   UNL A   1      30.711  23.275  26.919  1.00  0.00     0.043 C 
ATOM     10  C   UNL A   1      29.395  22.580  27.231  1.00  0.00     0.007 C 
ENDBRANCH   8   9
BRANCH   8  11
ATOM     11  C   UNL A   1      32.320  23.228  24.859  1.00  0.00     0.058 C 
ATOM     12  C   UNL A   1      31.652  22.798  23.533  1.00  0.00     0.016 C 
BRANCH  11  13
ATOM     13  C   UNL A   1      32.138  24.754  24.919  1.00  0.00    -0.038 A 
ATOM     14  C   UNL A   1      30.975  25.379  24.441  1.00  0.00     0.008 A 
ATOM     15  C   UNL A   1      33.094  25.547  25.576  1.00  0.00     0.054 A 
ATOM     16  C   UNL A   1      30.772  26.752  24.639  1.00  0.00     0.051 A 
ATOM     17  C   UNL A   1      32.896  26.899  25.782  1.00  0.00     0.161 A 
ATOM     18  C   UNL A   1      31.715  27.493  25.349  1.00  0.00     0.161 A 
ATOM     19  O   UNL A   1      33.868  27.537  26.499  1.00  0.00    -0.486 OA
ATOM     20  O   UNL A   1      31.407  28.783  25.704  1.00  0.00    -0.486 OA
ATOM     21  C   UNL A   1      33.465  28.811  27.000  1.00  0.00     0.271 C 
ATOM     22  C   UNL A   1      31.954  29.000  27.015  1.00  0.00     0.271 C 
ENDBRANCH  11  13
ENDBRANCH   8  11
BRANCH   8  23
ATOM     23  O   UNL A   1      31.278  21.184  25.750  1.00  0.00    -0.379 OA
ATOM     24  H   UNL A   1      30.779  20.800  26.488  1.00  0.00     0.212 HD
ENDBRANCH   8  23
ENDBRANCH   5   8
ENDBRANCH   3   4
ENDBRANCH   2   3
ENDBRANCH   1   2
BRANCH   1  25
ATOM     25  C   UNL A   1      37.403  23.205  24.988  1.00  0.00     0.116 C 
BRANCH  25  26
ATOM     26  N   UNL A   1      38.375  22.313  25.612  1.00  0.00    -0.352 N 
ATOM     27  C   UNL A   1      39.377  22.660  26.491  1.00  0.00     0.251 C 
ATOM     28  H   UNL A   1      38.305  21.358  25.381  1.00  0.00     0.163 HD
ATOM     29  O   UNL A   1      40.185  21.833  26.898  1.00  0.00    -0.269 OA
BRANCH  27  30
ATOM     30  C   UNL A   1      39.471  24.075  26.894  1.00  0.00     0.039 A 
ATOM     31  C   UNL A   1      39.140  24.433  28.202  1.00  0.00     0.014 A 
ATOM     32  C   UNL A   1      40.032  25.001  26.012  1.00  0.00     0.014 A 
ATOM     33  C   UNL A   1      39.446  25.716  28.656  1.00  0.00     0.010 A 
ATOM     34  C   UNL A   1      40.405  26.248  26.490  1.00  0.00     0.010 A 
ATOM     35  C   UNL A   1      40.121  26.617  27.816  1.00  0.00    -0.014 A 
BRANCH  35  36
ATOM     36  C   UNL A   1      40.558  27.956  28.280  1.00  0.00     0.031 A 
ATOM     37  C   UNL A   1      42.025  28.230  28.455  1.00  0.00     0.074 A 
ATOM     38  C   UNL A   1      39.645  28.859  28.687  1.00  0.00     0.049 A 
ATOM     39  N   UNL A   1      42.614  29.249  29.021  1.00  0.00    -0.248 NA
ATOM     40  C   UNL A   1      42.950  27.192  27.969  1.00  0.00     0.031 C 
ATOM     41  C   UNL A   1      38.193  28.676  28.643  1.00  0.00     0.029 A 
ATOM     42  N   UNL A   1      39.806  30.094  29.265  1.00  0.00    -0.354 N 
ATOM     43  C   UNL A   1      43.970  28.949  29.017  1.00  0.00     0.074 A 
ATOM     44  C   UNL A   1      44.113  27.641  28.414  1.00  0.00     0.031 C 
ATOM     45  C   UNL A   1      37.598  29.750  29.186  1.00  0.00     0.029 A 
ATOM     46  C   UNL A   1      38.624  30.682  29.647  1.00  0.00     0.049 A 
ATOM     47  H   UNL A   1      40.686  30.518  29.395  1.00  0.00     0.167 HD
ATOM     48  C   UNL A   1      45.005  29.704  29.450  1.00  0.00     0.034 A 
ATOM     49  C   UNL A   1      38.391  31.831  30.313  1.00  0.00     0.034 A 
ATOM     50  C   UNL A   1      44.859  31.029  29.985  1.00  0.00     0.049 A 
ATOM     51  C   UNL A   1      39.557  32.691  30.716  1.00  0.00     0.074 A 
ATOM     52  C   UNL A   1      45.849  31.924  30.350  1.00  0.00     0.029 A 
ATOM     53  N   UNL A   1      43.645  31.651  30.232  1.00  0.00    -0.354 N 
ATOM     54  N   UNL A   1      40.839  32.464  30.561  1.00  0.00    -0.248 NA
ATOM     55  C   UNL A   1      39.249  33.980  31.352  1.00  0.00     0.031 C 
ATOM     56  C   UNL A   1      45.232  33.083  30.830  1.00  0.00     0.029 A 
ATOM     57  C   UNL A   1      43.858  32.918  30.746  1.00  0.00     0.049 A 
ATOM     58  H   UNL A   1      42.761  31.250  30.066  1.00  0.00     0.167 HD
ATOM     59  C   UNL A   1      41.490  33.594  31.044  1.00  0.00     0.074 A 
ATOM     60  C   UNL A   1      40.459  34.510  31.487  1.00  0.00     0.031 C 
ATOM     61  C   UNL A   1      42.820  33.844  31.121  1.00  0.00     0.034 A 
BRANCH  48  62
ATOM     62  C   UNL A   1      46.390  29.128  29.310  1.00  0.00     0.023 A 
ATOM     63  C   UNL A   1      46.908  28.303  30.330  1.00  0.00     0.012 A 
ATOM     64  C   UNL A   1      47.169  29.385  28.166  1.00  0.00     0.148 A 
ATOM     65  C   UNL A   1      48.196  27.781  30.236  1.00  0.00     0.002 A 
ATOM     66  C   UNL A   1      48.436  28.820  28.058  1.00  0.00     0.091 A 
ATOM     67  F   UNL A   1      46.675  30.193  27.218  1.00  0.00    -0.205 F 
ATOM     68  C   UNL A   1      48.956  28.032  29.097  1.00  0.00     0.022 A 
BRANCH  66  69
ATOM     69  S   UNL A   1      49.450  29.024  26.591  1.00  0.00     0.127 S 
ATOM     70  O   UNL A   1      50.592  28.166  26.897  1.00  0.00    -0.237 OA
ATOM     71  O   UNL A   1      48.575  28.518  25.532  1.00  0.00    -0.237 OA
ATOM     72  O   UNL A   1      49.734  30.450  26.503  1.00  0.00    -0.744 OA
ENDBRANCH  66  69
ENDBRANCH  48  62
BRANCH  49  73
ATOM     73  C   UNL A   1      36.986  32.259  30.568  1.00  0.00     0.023 A 
ATOM     74  C   UNL A   1      36.454  32.131  31.865  1.00  0.00     0.012 A 
ATOM     75  C   UNL A   1      36.202  32.850  29.558  1.00  0.00     0.148 A 
ATOM     76  C   UNL A   1      35.160  32.568  32.149  1.00  0.00     0.002 A 
ATOM     77  C   UNL A   1      34.932  33.329  29.860  1.00  0.00     0.091 A 
ATOM     78  F   UNL A   1      36.727  32.956  28.329  1.00  0.00    -0.205 F 
ATOM     79  C   UNL A   1      34.403  33.175  31.151  1.00  0.00     0.022 A 
BRANCH  77  80
ATOM     80  S   UNL A   1      33.936  34.245  28.678  1.00  0.00     0.127 S 
ATOM     81  O   UNL A   1      33.618  33.214  27.693  1.00  0.00    -0.237 OA
ATOM     82  O   UNL A   1      32.809  34.675  29.507  1.00  0.00    -0.237 OA
ATOM     83  O   UNL A   1      34.783  35.330  28.205  1.00  0.00    -0.744 OA
ENDBRANCH  77  80
ENDBRANCH  49  73
BRANCH  61  84
ATOM     84  C   UNL A   1      43.257  35.178  31.662  1.00  0.00     0.023 A 
ATOM     85  C   UNL A   1      43.545  36.234  30.775  1.00  0.00     0.012 A 
ATOM     86  C   UNL A   1      43.270  35.416  33.050  1.00  0.00     0.148 A 
ATOM     87  C   UNL A   1      43.856  37.502  31.264  1.00  0.00     0.002 A 
ATOM     88  C   UNL A   1      43.536  36.693  33.528  1.00  0.00     0.091 A 
ATOM     89  F   UNL A   1      43.012  34.391  33.877  1.00  0.00    -0.205 F 
ATOM     90  C   UNL A   1      43.837  37.735  32.637  1.00  0.00     0.022 A 
BRANCH  88  91
ATOM     91  S   UNL A   1      43.437  37.107  35.274  1.00  0.00     0.127 S 
ATOM     92  O   UNL A   1      43.795  38.524  35.265  1.00  0.00    -0.237 OA
ATOM     93  O   UNL A   1      42.032  36.834  35.579  1.00  0.00    -0.237 OA
ATOM     94  O   UNL A   1      44.382  36.227  35.949  1.00  0.00    -0.744 OA
ENDBRANCH  88  91
ENDBRANCH  61  84
ENDBRANCH  35  36
ENDBRANCH  27  30
ENDBRANCH  25  26
ENDBRANCH   1  25
TORSDOF 18
ENDMDL
