MODEL 1
REMARK VINA RESULT:     -12.4      0.000      0.000
REMARK SMILES Cc1nn(-c2cccc(C(=O)NCCCCNC(=O)c3ccc(-c4c5nc(c(-c6cccc(S(=O)(=O)[O-])c6F)c6ccc([nH]6)c(-c6cccc(S(=O)(=O)[O-])c6F)c6nc(c(-c7cccc(S(=O)(=O)[O-])c7F)c7ccc4[nH]7)C=C6)C=C5)cc3)c2)c(C)c1Cl
REMARK SMILES IDX 15 1 14 2 13 3 12 4 10 5 11 6 9 8 5 9 6 10 83 11 7 12 8 13
REMARK SMILES IDX 4 14 1 15 2 16 3 17 86 18 84 19 87 20 85 21 16 22 17 23
REMARK SMILES IDX 18 24 19 26 20 27 21 28 82 29 22 30 81 31 23 32 24 33 25 34
REMARK SMILES IDX 75 35 26 36 80 37 74 38 76 39 27 40 79 41 73 42 72 43 28 45
REMARK SMILES IDX 60 46 40 47 59 48 41 49 44 50 58 51 77 52 42 53 43 54 57 56
REMARK SMILES IDX 78 57 45 58 29 59 30 60 38 61 31 62 33 63 39 64 32 65 34 66
REMARK SMILES IDX 35 67 36 68 37 69 61 70 62 71 70 72 63 73 65 74 71 75 64 76
REMARK SMILES IDX 66 77 67 78 68 79 69 80 46 81 47 82 55 83 48 84 50 85 56 86
REMARK SMILES IDX 49 87 51 88 52 89 53 90 54 91
REMARK H PARENT 12 7 17 25 76 44 44 55
REMARK Flexibility Score: inf
ROOT
ATOM      1  C   UNL A   1      38.024  19.879  25.026  1.00  0.00     0.023 C 
ENDROOT
BRANCH   1   2
ATOM      2  C   UNL A   1      37.271  21.094  24.479  1.00  0.00     0.023 C 
BRANCH   2   3
ATOM      3  C   UNL A   1      36.933  22.200  25.481  1.00  0.00     0.116 C 
BRANCH   3   4
ATOM      4  N   UNL A   1      35.906  21.838  26.451  1.00  0.00    -0.352 N 
ATOM      5  C   UNL A   1      34.547  21.615  26.381  1.00  0.00     0.251 C 
ATOM      6  O   UNL A   1      33.944  21.436  27.441  1.00  0.00    -0.269 OA
ATOM      7  H   UNL A   1      36.265  21.728  27.362  1.00  0.00     0.163 HD
BRANCH   5   8
ATOM      8  C   UNL A   1      33.752  21.665  25.119  1.00  0.00     0.041 A 
ATOM      9  C   UNL A   1      32.296  22.820  23.557  1.00  0.00     0.066 A 
ATOM     10  C   UNL A   1      31.934  21.599  22.979  1.00  0.00     0.028 A 
ATOM     11  C   UNL A   1      33.275  22.847  24.559  1.00  0.00     0.042 A 
ATOM     12  C   UNL A   1      32.567  20.426  23.391  1.00  0.00     0.003 A 
ATOM     13  C   UNL A   1      33.452  20.456  24.474  1.00  0.00     0.014 A 
BRANCH   9  14
ATOM     14  N   UNL A   1      31.568  24.004  23.245  1.00  0.00    -0.236 N 
ATOM     15  C   UNL A   1      29.110  26.240  24.507  1.00  0.00     0.070 C 
ATOM     16  C   UNL A   1      30.200  25.567  23.759  1.00  0.00     0.079 A 
ATOM     17  N   UNL A   1      30.400  24.250  23.907  1.00  0.00    -0.171 NA
ATOM     18  C   UNL A   1      31.112  26.123  22.842  1.00  0.00     0.085 A 
ATOM     19  C   UNL A   1      31.946  25.091  22.470  1.00  0.00     0.060 A 
ATOM     20  Cl  UNL A   1      31.149  27.731  22.300  1.00  0.00    -0.080 Cl
ATOM     21  C   UNL A   1      33.020  25.072  21.442  1.00  0.00     0.068 C 
ENDBRANCH   9  14
ENDBRANCH   5   8
ENDBRANCH   3   4
ENDBRANCH   2   3
ENDBRANCH   1   2
BRANCH   1  22
ATOM     22  C   UNL A   1      39.235  20.197  25.899  1.00  0.00     0.116 C 
BRANCH  22  23
ATOM     23  N   UNL A   1      40.282  19.178  25.847  1.00  0.00    -0.352 N 
ATOM     24  C   UNL A   1      41.648  19.373  25.974  1.00  0.00     0.251 C 
ATOM     25  H   UNL A   1      39.983  18.251  25.705  1.00  0.00     0.163 HD
ATOM     26  O   UNL A   1      42.449  18.546  25.585  1.00  0.00    -0.269 OA
BRANCH  24  27
ATOM     27  C   UNL A   1      42.105  20.629  26.601  1.00  0.00     0.039 A 
ATOM     28  C   UNL A   1      42.608  21.674  25.824  1.00  0.00     0.014 A 
ATOM     29  C   UNL A   1      41.929  20.768  27.976  1.00  0.00     0.014 A 
ATOM     30  C   UNL A   1      42.839  22.909  26.427  1.00  0.00     0.010 A 
ATOM     31  C   UNL A   1      42.063  22.013  28.548  1.00  0.00     0.010 A 
ATOM     32  C   UNL A   1      42.536  23.084  27.786  1.00  0.00    -0.014 A 
BRANCH  32  33
ATOM     33  C   UNL A   1      42.569  24.420  28.382  1.00  0.00     0.031 A 
ATOM     34  C   UNL A   1      41.368  25.275  28.134  1.00  0.00     0.074 A 
ATOM     35  C   UNL A   1      43.475  24.772  29.319  1.00  0.00     0.049 A 
ATOM     36  N   UNL A   1      41.314  26.427  27.546  1.00  0.00    -0.248 NA
ATOM     37  C   UNL A   1      40.050  24.740  28.510  1.00  0.00     0.031 C 
ATOM     38  C   UNL A   1      44.503  23.919  29.931  1.00  0.00     0.029 A 
ATOM     39  N   UNL A   1      43.552  25.917  30.054  1.00  0.00    -0.354 N 
ATOM     40  C   UNL A   1      39.992  26.862  27.675  1.00  0.00     0.074 A 
ATOM     41  C   UNL A   1      39.235  25.719  28.109  1.00  0.00     0.031 C 
ATOM     42  C   UNL A   1      44.893  24.465  31.103  1.00  0.00     0.029 A 
ATOM     43  C   UNL A   1      44.284  25.774  31.228  1.00  0.00     0.049 A 
ATOM     44  H   UNL A   1      43.131  26.764  29.780  1.00  0.00     0.167 HD
ATOM     45  C   UNL A   1      39.664  28.186  27.641  1.00  0.00     0.034 A 
ATOM     46  C   UNL A   1      44.344  26.647  32.261  1.00  0.00     0.034 A 
ATOM     47  C   UNL A   1      40.748  28.985  27.131  1.00  0.00     0.049 A 
ATOM     48  C   UNL A   1      43.917  27.966  31.750  1.00  0.00     0.074 A 
ATOM     49  C   UNL A   1      41.476  29.035  25.959  1.00  0.00     0.029 A 
ATOM     50  N   UNL A   1      41.464  29.709  28.050  1.00  0.00    -0.354 N 
ATOM     51  N   UNL A   1      44.588  28.652  30.867  1.00  0.00    -0.248 NA
ATOM     52  C   UNL A   1      42.534  28.369  31.937  1.00  0.00     0.031 C 
ATOM     53  C   UNL A   1      42.800  29.375  26.367  1.00  0.00     0.029 A 
ATOM     54  C   UNL A   1      42.789  29.558  27.752  1.00  0.00     0.049 A 
ATOM     55  H   UNL A   1      41.091  30.240  28.792  1.00  0.00     0.167 HD
ATOM     56  C   UNL A   1      43.613  29.246  30.080  1.00  0.00     0.074 A 
ATOM     57  C   UNL A   1      42.388  29.157  30.868  1.00  0.00     0.031 C 
ATOM     58  C   UNL A   1      43.832  29.482  28.752  1.00  0.00     0.034 A 
BRANCH  45  59
ATOM     59  C   UNL A   1      38.523  28.840  28.401  1.00  0.00     0.023 A 
ATOM     60  C   UNL A   1      37.630  29.646  27.654  1.00  0.00     0.012 A 
ATOM     61  C   UNL A   1      38.450  28.949  29.807  1.00  0.00     0.148 A 
ATOM     62  C   UNL A   1      36.770  30.566  28.269  1.00  0.00     0.002 A 
ATOM     63  C   UNL A   1      37.535  29.804  30.415  1.00  0.00     0.091 A 
ATOM     64  F   UNL A   1      39.351  28.335  30.578  1.00  0.00    -0.205 F 
ATOM     65  C   UNL A   1      36.720  30.642  29.653  1.00  0.00     0.022 A 
BRANCH  63  66
ATOM     66  S   UNL A   1      37.385  29.895  32.205  1.00  0.00     0.127 S 
ATOM     67  O   UNL A   1      38.656  30.508  32.573  1.00  0.00    -0.237 OA
ATOM     68  O   UNL A   1      36.211  30.754  32.366  1.00  0.00    -0.237 OA
ATOM     69  O   UNL A   1      37.179  28.520  32.641  1.00  0.00    -0.744 OA
ENDBRANCH  63  66
ENDBRANCH  45  59
BRANCH  46  70
ATOM     70  C   UNL A   1      44.551  26.390  33.702  1.00  0.00     0.023 A 
ATOM     71  C   UNL A   1      45.838  26.520  34.256  1.00  0.00     0.012 A 
ATOM     72  C   UNL A   1      43.451  26.279  34.582  1.00  0.00     0.148 A 
ATOM     73  C   UNL A   1      46.023  26.573  35.641  1.00  0.00     0.002 A 
ATOM     74  C   UNL A   1      43.640  26.324  35.960  1.00  0.00     0.091 A 
ATOM     75  F   UNL A   1      42.215  26.222  34.066  1.00  0.00    -0.205 F 
ATOM     76  C   UNL A   1      44.924  26.485  36.493  1.00  0.00     0.022 A 
BRANCH  74  77
ATOM     77  S   UNL A   1      42.268  26.230  37.117  1.00  0.00     0.127 S 
ATOM     78  O   UNL A   1      42.950  26.354  38.406  1.00  0.00    -0.237 OA
ATOM     79  O   UNL A   1      41.469  27.389  36.732  1.00  0.00    -0.237 OA
ATOM     80  O   UNL A   1      41.652  24.928  36.894  1.00  0.00    -0.744 OA
ENDBRANCH  74  77
ENDBRANCH  46  70
BRANCH  58  81
ATOM     81  C   UNL A   1      45.242  29.366  28.228  1.00  0.00     0.023 A 
ATOM     82  C   UNL A   1      46.178  30.415  28.348  1.00  0.00     0.012 A 
ATOM     83  C   UNL A   1      45.683  28.113  27.771  1.00  0.00     0.148 A 
ATOM     84  C   UNL A   1      47.516  30.224  27.996  1.00  0.00     0.002 A 
ATOM     85  C   UNL A   1      47.024  27.914  27.467  1.00  0.00     0.091 A 
ATOM     86  F   UNL A   1      44.783  27.123  27.667  1.00  0.00    -0.205 F 
ATOM     87  C   UNL A   1      47.943  28.970  27.568  1.00  0.00     0.022 A 
BRANCH  85  88
ATOM     88  S   UNL A   1      47.655  26.289  27.043  1.00  0.00     0.127 S 
ATOM     89  O   UNL A   1      47.241  25.490  28.195  1.00  0.00    -0.237 OA
ATOM     90  O   UNL A   1      46.943  25.986  25.801  1.00  0.00    -0.237 OA
ATOM     91  O   UNL A   1      49.095  26.452  26.875  1.00  0.00    -0.744 OA
ENDBRANCH  85  88
ENDBRANCH  58  81
ENDBRANCH  32  33
ENDBRANCH  24  27
ENDBRANCH  22  23
ENDBRANCH   1  22
TORSDOF 15
ENDMDL
MODEL 2
REMARK VINA RESULT:     -12.0      4.170      9.491
REMARK SMILES Cc1nn(-c2cccc(C(=O)NCCCCNC(=O)c3ccc(-c4c5nc(c(-c6cccc(S(=O)(=O)[O-])c6F)c6ccc([nH]6)c(-c6cccc(S(=O)(=O)[O-])c6F)c6nc(c(-c7cccc(S(=O)(=O)[O-])c7F)c7ccc4[nH]7)C=C6)C=C5)cc3)c2)c(C)c1Cl
REMARK SMILES IDX 15 1 14 2 13 3 12 4 10 5 11 6 9 8 5 9 6 10 83 11 7 12 8 13
REMARK SMILES IDX 4 14 1 15 2 16 3 17 86 18 84 19 87 20 85 21 16 22 17 23
REMARK SMILES IDX 18 24 19 26 20 27 21 28 82 29 22 30 81 31 23 32 24 33 25 34
REMARK SMILES IDX 75 35 26 36 80 37 74 38 76 39 27 40 79 41 73 42 72 43 28 45
REMARK SMILES IDX 60 46 40 47 59 48 41 49 44 50 58 51 77 52 42 53 43 54 57 56
REMARK SMILES IDX 78 57 45 58 29 59 30 60 38 61 31 62 33 63 39 64 32 65 34 66
REMARK SMILES IDX 35 67 36 68 37 69 61 70 62 71 70 72 63 73 65 74 71 75 64 76
REMARK SMILES IDX 66 77 67 78 68 79 69 80 46 81 47 82 55 83 48 84 50 85 56 86
REMARK SMILES IDX 49 87 51 88 52 89 53 90 54 91
REMARK H PARENT 12 7 17 25 76 44 44 55
REMARK Flexibility Score: inf
ROOT
ATOM      1  C   UNL A   1      33.174  31.885  27.996  1.00  0.00     0.023 C 
ENDROOT
BRANCH   1   2
ATOM      2  C   UNL A   1      34.447  31.048  27.842  1.00  0.00     0.023 C 
BRANCH   2   3
ATOM      3  C   UNL A   1      34.275  29.633  27.291  1.00  0.00     0.116 C 
BRANCH   3   4
ATOM      4  N   UNL A   1      33.035  28.978  27.693  1.00  0.00    -0.352 N 
ATOM      5  C   UNL A   1      32.293  27.926  27.197  1.00  0.00     0.251 C 
ATOM      6  O   UNL A   1      31.204  27.699  27.726  1.00  0.00    -0.269 OA
ATOM      7  H   UNL A   1      32.639  29.377  28.502  1.00  0.00     0.163 HD
BRANCH   5   8
ATOM      8  C   UNL A   1      32.685  27.108  26.011  1.00  0.00     0.041 A 
ATOM      9  C   UNL A   1      33.418  25.025  25.003  1.00  0.00     0.066 A 
ATOM     10  C   UNL A   1      33.823  25.715  23.855  1.00  0.00     0.028 A 
ATOM     11  C   UNL A   1      32.766  25.719  26.031  1.00  0.00     0.042 A 
ATOM     12  C   UNL A   1      33.552  27.078  23.737  1.00  0.00     0.003 A 
ATOM     13  C   UNL A   1      33.010  27.776  24.822  1.00  0.00     0.014 A 
BRANCH   9  14
ATOM     14  N   UNL A   1      33.804  23.668  25.196  1.00  0.00    -0.236 N 
ATOM     15  C   UNL A   1      32.894  20.320  24.425  1.00  0.00     0.070 C 
ATOM     16  C   UNL A   1      33.579  21.573  24.828  1.00  0.00     0.079 A 
ATOM     17  N   UNL A   1      32.867  22.689  25.033  1.00  0.00    -0.171 NA
ATOM     18  C   UNL A   1      34.951  21.790  25.061  1.00  0.00     0.085 A 
ATOM     19  C   UNL A   1      35.072  23.129  25.361  1.00  0.00     0.060 A 
ATOM     20  Cl  UNL A   1      36.184  20.626  25.003  1.00  0.00    -0.080 Cl
ATOM     21  C   UNL A   1      36.270  23.890  25.804  1.00  0.00     0.068 C 
ENDBRANCH   9  14
ENDBRANCH   5   8
ENDBRANCH   3   4
ENDBRANCH   2   3
ENDBRANCH   1   2
BRANCH   1  22
ATOM     22  C   UNL A   1      33.148  33.190  27.205  1.00  0.00     0.116 C 
BRANCH  22  23
ATOM     23  N   UNL A   1      32.693  34.341  27.984  1.00  0.00    -0.352 N 
ATOM     24  C   UNL A   1      33.200  34.786  29.195  1.00  0.00     0.251 C 
ATOM     25  H   UNL A   1      31.944  34.856  27.607  1.00  0.00     0.163 HD
ATOM     26  O   UNL A   1      32.561  35.520  29.922  1.00  0.00    -0.269 OA
BRANCH  24  27
ATOM     27  C   UNL A   1      34.553  34.337  29.577  1.00  0.00     0.039 A 
ATOM     28  C   UNL A   1      34.759  33.605  30.749  1.00  0.00     0.014 A 
ATOM     29  C   UNL A   1      35.595  34.586  28.687  1.00  0.00     0.014 A 
ATOM     30  C   UNL A   1      36.009  33.030  30.971  1.00  0.00     0.010 A 
ATOM     31  C   UNL A   1      36.797  33.936  28.858  1.00  0.00     0.010 A 
ATOM     32  C   UNL A   1      37.018  33.172  30.007  1.00  0.00    -0.014 A 
BRANCH  32  33
ATOM     33  C   UNL A   1      38.259  32.404  30.120  1.00  0.00     0.031 A 
ATOM     34  C   UNL A   1      38.232  31.033  29.525  1.00  0.00     0.074 A 
ATOM     35  C   UNL A   1      39.431  32.971  30.477  1.00  0.00     0.049 A 
ATOM     36  N   UNL A   1      38.433  29.900  30.119  1.00  0.00    -0.248 NA
ATOM     37  C   UNL A   1      37.849  30.900  28.111  1.00  0.00     0.031 C 
ATOM     38  C   UNL A   1      39.690  34.391  30.747  1.00  0.00     0.029 A 
ATOM     39  N   UNL A   1      40.679  32.424  30.499  1.00  0.00    -0.354 N 
ATOM     40  C   UNL A   1      38.421  28.931  29.111  1.00  0.00     0.074 A 
ATOM     41  C   UNL A   1      37.884  29.576  27.942  1.00  0.00     0.031 C 
ATOM     42  C   UNL A   1      41.012  34.633  30.623  1.00  0.00     0.029 A 
ATOM     43  C   UNL A   1      41.699  33.369  30.450  1.00  0.00     0.049 A 
ATOM     44  H   UNL A   1      40.843  31.455  30.546  1.00  0.00     0.167 HD
ATOM     45  C   UNL A   1      39.072  27.740  29.250  1.00  0.00     0.034 A 
ATOM     46  C   UNL A   1      43.014  33.137  30.227  1.00  0.00     0.034 A 
ATOM     47  C   UNL A   1      39.441  27.498  30.621  1.00  0.00     0.049 A 
ATOM     48  C   UNL A   1      43.267  31.712  30.528  1.00  0.00     0.074 A 
ATOM     49  C   UNL A   1      38.771  27.384  31.822  1.00  0.00     0.029 A 
ATOM     50  N   UNL A   1      40.763  27.675  30.942  1.00  0.00    -0.354 N 
ATOM     51  N   UNL A   1      43.172  31.197  31.722  1.00  0.00    -0.248 NA
ATOM     52  C   UNL A   1      43.264  30.759  29.431  1.00  0.00     0.031 C 
ATOM     53  C   UNL A   1      39.645  27.971  32.784  1.00  0.00     0.029 A 
ATOM     54  C   UNL A   1      40.811  28.363  32.122  1.00  0.00     0.049 A 
ATOM     55  H   UNL A   1      41.537  27.365  30.417  1.00  0.00     0.167 HD
ATOM     56  C   UNL A   1      42.643  29.933  31.508  1.00  0.00     0.074 A 
ATOM     57  C   UNL A   1      42.860  29.669  30.089  1.00  0.00     0.031 C 
ATOM     58  C   UNL A   1      41.822  29.351  32.432  1.00  0.00     0.034 A 
BRANCH  45  59
ATOM     59  C   UNL A   1      39.720  26.944  28.131  1.00  0.00     0.023 A 
ATOM     60  C   UNL A   1      39.387  25.570  28.041  1.00  0.00     0.012 A 
ATOM     61  C   UNL A   1      40.828  27.378  27.370  1.00  0.00     0.148 A 
ATOM     62  C   UNL A   1      40.160  24.667  27.300  1.00  0.00     0.002 A 
ATOM     63  C   UNL A   1      41.543  26.491  26.570  1.00  0.00     0.091 A 
ATOM     64  F   UNL A   1      41.294  28.622  27.511  1.00  0.00    -0.205 F 
ATOM     65  C   UNL A   1      41.238  25.129  26.560  1.00  0.00     0.022 A 
BRANCH  63  66
ATOM     66  S   UNL A   1      42.908  27.050  25.542  1.00  0.00     0.127 S 
ATOM     67  O   UNL A   1      43.842  27.551  26.545  1.00  0.00    -0.237 OA
ATOM     68  O   UNL A   1      43.314  25.810  24.880  1.00  0.00    -0.237 OA
ATOM     69  O   UNL A   1      42.330  28.041  24.644  1.00  0.00    -0.744 OA
ENDBRANCH  63  66
ENDBRANCH  45  59
BRANCH  46  70
ATOM     70  C   UNL A   1      44.027  33.999  29.583  1.00  0.00     0.023 A 
ATOM     71  C   UNL A   1      44.902  34.761  30.380  1.00  0.00     0.012 A 
ATOM     72  C   UNL A   1      44.314  33.873  28.205  1.00  0.00     0.148 A 
ATOM     73  C   UNL A   1      46.045  35.351  29.831  1.00  0.00     0.002 A 
ATOM     74  C   UNL A   1      45.448  34.468  27.662  1.00  0.00     0.091 A 
ATOM     75  F   UNL A   1      43.525  33.095  27.450  1.00  0.00    -0.205 F 
ATOM     76  C   UNL A   1      46.324  35.197  28.475  1.00  0.00     0.022 A 
BRANCH  74  77
ATOM     77  S   UNL A   1      45.877  34.301  25.924  1.00  0.00     0.127 S 
ATOM     78  O   UNL A   1      46.198  32.876  25.827  1.00  0.00    -0.237 OA
ATOM     79  O   UNL A   1      44.635  34.695  25.268  1.00  0.00    -0.237 OA
ATOM     80  O   UNL A   1      47.019  35.183  25.713  1.00  0.00    -0.744 OA
ENDBRANCH  74  77
ENDBRANCH  46  70
BRANCH  58  81
ATOM     81  C   UNL A   1      41.740  29.970  33.806  1.00  0.00     0.023 A 
ATOM     82  C   UNL A   1      42.690  29.695  34.812  1.00  0.00     0.012 A 
ATOM     83  C   UNL A   1      40.793  30.984  34.026  1.00  0.00     0.148 A 
ATOM     84  C   UNL A   1      42.679  30.399  36.019  1.00  0.00     0.002 A 
ATOM     85  C   UNL A   1      40.815  31.714  35.208  1.00  0.00     0.091 A 
ATOM     86  F   UNL A   1      39.899  31.238  33.058  1.00  0.00    -0.205 F 
ATOM     87  C   UNL A   1      41.751  31.419  36.212  1.00  0.00     0.022 A 
BRANCH  85  88
ATOM     88  S   UNL A   1      39.735  33.125  35.456  1.00  0.00     0.127 S 
ATOM     89  O   UNL A   1      40.172  33.620  36.759  1.00  0.00    -0.237 OA
ATOM     90  O   UNL A   1      40.078  33.990  34.326  1.00  0.00    -0.237 OA
ATOM     91  O   UNL A   1      38.375  32.599  35.406  1.00  0.00    -0.744 OA
ENDBRANCH  85  88
ENDBRANCH  58  81
ENDBRANCH  32  33
ENDBRANCH  24  27
ENDBRANCH  22  23
ENDBRANCH   1  22
TORSDOF 15
ENDMDL
MODEL 3
REMARK VINA RESULT:     -11.9      2.398      3.462
REMARK SMILES Cc1nn(-c2cccc(C(=O)NCCCCNC(=O)c3ccc(-c4c5nc(c(-c6cccc(S(=O)(=O)[O-])c6F)c6ccc([nH]6)c(-c6cccc(S(=O)(=O)[O-])c6F)c6nc(c(-c7cccc(S(=O)(=O)[O-])c7F)c7ccc4[nH]7)C=C6)C=C5)cc3)c2)c(C)c1Cl
REMARK SMILES IDX 15 1 14 2 13 3 12 4 10 5 11 6 9 8 5 9 6 10 83 11 7 12 8 13
REMARK SMILES IDX 4 14 1 15 2 16 3 17 86 18 84 19 87 20 85 21 16 22 17 23
REMARK SMILES IDX 18 24 19 26 20 27 21 28 82 29 22 30 81 31 23 32 24 33 25 34
REMARK SMILES IDX 75 35 26 36 80 37 74 38 76 39 27 40 79 41 73 42 72 43 28 45
REMARK SMILES IDX 60 46 40 47 59 48 41 49 44 50 58 51 77 52 42 53 43 54 57 56
REMARK SMILES IDX 78 57 45 58 29 59 30 60 38 61 31 62 33 63 39 64 32 65 34 66
REMARK SMILES IDX 35 67 36 68 37 69 61 70 62 71 70 72 63 73 65 74 71 75 64 76
REMARK SMILES IDX 66 77 67 78 68 79 69 80 46 81 47 82 55 83 48 84 50 85 56 86
REMARK SMILES IDX 49 87 51 88 52 89 53 90 54 91
REMARK H PARENT 12 7 17 25 76 44 44 55
REMARK Flexibility Score: inf
ROOT
ATOM      1  C   UNL A   1      37.015  21.759  24.379  1.00  0.00     0.023 C 
ENDROOT
BRANCH   1   2
ATOM      2  C   UNL A   1      36.060  22.945  24.542  1.00  0.00     0.023 C 
BRANCH   2   3
ATOM      3  C   UNL A   1      35.250  23.000  25.838  1.00  0.00     0.116 C 
BRANCH   3   4
ATOM      4  N   UNL A   1      33.965  23.676  25.714  1.00  0.00    -0.352 N 
ATOM      5  C   UNL A   1      32.761  23.362  25.118  1.00  0.00     0.251 C 
ATOM      6  O   UNL A   1      31.890  24.233  25.100  1.00  0.00    -0.269 OA
ATOM      7  H   UNL A   1      33.953  24.556  26.156  1.00  0.00     0.163 HD
BRANCH   5   8
ATOM      8  C   UNL A   1      32.482  22.072  24.420  1.00  0.00     0.041 A 
ATOM      9  C   UNL A   1      32.621  19.653  24.270  1.00  0.00     0.066 A 
ATOM     10  C   UNL A   1      32.331  19.714  22.902  1.00  0.00     0.028 A 
ATOM     11  C   UNL A   1      32.600  20.828  25.033  1.00  0.00     0.042 A 
ATOM     12  C   UNL A   1      32.001  20.938  22.321  1.00  0.00     0.003 A 
ATOM     13  C   UNL A   1      32.103  22.115  23.071  1.00  0.00     0.014 A 
BRANCH   9  14
ATOM     14  N   UNL A   1      33.088  18.439  24.849  1.00  0.00    -0.236 N 
ATOM     15  C   UNL A   1      32.087  15.145  25.733  1.00  0.00     0.070 C 
ATOM     16  C   UNL A   1      32.824  16.389  25.401  1.00  0.00     0.079 A 
ATOM     17  N   UNL A   1      32.176  17.561  25.359  1.00  0.00    -0.171 NA
ATOM     18  C   UNL A   1      34.194  16.551  25.120  1.00  0.00     0.085 A 
ATOM     19  C   UNL A   1      34.361  17.888  24.830  1.00  0.00     0.060 A 
ATOM     20  Cl  UNL A   1      35.386  15.343  25.157  1.00  0.00    -0.080 Cl
ATOM     21  C   UNL A   1      35.614  18.646  24.573  1.00  0.00     0.068 C 
ENDBRANCH   9  14
ENDBRANCH   5   8
ENDBRANCH   3   4
ENDBRANCH   2   3
ENDBRANCH   1   2
BRANCH   1  22
ATOM     22  C   UNL A   1      38.187  21.723  25.356  1.00  0.00     0.116 C 
BRANCH  22  23
ATOM     23  N   UNL A   1      38.798  20.400  25.492  1.00  0.00    -0.352 N 
ATOM     24  C   UNL A   1      40.108  20.115  25.841  1.00  0.00     0.251 C 
ATOM     25  H   UNL A   1      38.213  19.629  25.316  1.00  0.00     0.163 HD
ATOM     26  O   UNL A   1      40.610  19.035  25.602  1.00  0.00    -0.269 OA
BRANCH  24  27
ATOM     27  C   UNL A   1      40.882  21.173  26.517  1.00  0.00     0.039 A 
ATOM     28  C   UNL A   1      41.649  22.080  25.782  1.00  0.00     0.014 A 
ATOM     29  C   UNL A   1      40.748  21.293  27.899  1.00  0.00     0.014 A 
ATOM     30  C   UNL A   1      42.200  23.180  26.436  1.00  0.00     0.010 A 
ATOM     31  C   UNL A   1      41.208  22.431  28.524  1.00  0.00     0.010 A 
ATOM     32  C   UNL A   1      41.952  23.369  27.804  1.00  0.00    -0.014 A 
BRANCH  32  33
ATOM     33  C   UNL A   1      42.340  24.619  28.457  1.00  0.00     0.031 A 
ATOM     34  C   UNL A   1      41.407  25.772  28.266  1.00  0.00     0.074 A 
ATOM     35  C   UNL A   1      43.311  24.676  29.393  1.00  0.00     0.049 A 
ATOM     36  N   UNL A   1      41.656  26.923  27.730  1.00  0.00    -0.248 NA
ATOM     37  C   UNL A   1      39.996  25.587  28.641  1.00  0.00     0.031 C 
ATOM     38  C   UNL A   1      44.079  23.555  29.951  1.00  0.00     0.029 A 
ATOM     39  N   UNL A   1      43.691  25.725  30.176  1.00  0.00    -0.354 N 
ATOM     40  C   UNL A   1      40.498  27.686  27.900  1.00  0.00     0.074 A 
ATOM     41  C   UNL A   1      39.467  26.764  28.297  1.00  0.00     0.031 C 
ATOM     42  C   UNL A   1      44.605  23.923  31.139  1.00  0.00     0.029 A 
ATOM     43  C   UNL A   1      44.365  25.339  31.331  1.00  0.00     0.049 A 
ATOM     44  H   UNL A   1      43.508  26.664  29.947  1.00  0.00     0.167 HD
ATOM     45  C   UNL A   1      40.531  29.049  27.930  1.00  0.00     0.034 A 
ATOM     46  C   UNL A   1      44.658  26.116  32.400  1.00  0.00     0.034 A 
ATOM     47  C   UNL A   1      41.786  29.556  27.437  1.00  0.00     0.049 A 
ATOM     48  C   UNL A   1      44.593  27.524  31.953  1.00  0.00     0.074 A 
ATOM     49  C   UNL A   1      42.496  29.467  26.256  1.00  0.00     0.029 A 
ATOM     50  N   UNL A   1      42.672  30.022  28.375  1.00  0.00    -0.354 N 
ATOM     51  N   UNL A   1      45.418  28.048  31.091  1.00  0.00    -0.248 NA
ATOM     52  C   UNL A   1      43.366  28.268  32.181  1.00  0.00     0.031 C 
ATOM     53  C   UNL A   1      43.864  29.427  26.657  1.00  0.00     0.029 A 
ATOM     54  C   UNL A   1      43.909  29.541  28.048  1.00  0.00     0.049 A 
ATOM     55  H   UNL A   1      42.456  30.598  29.146  1.00  0.00     0.167 HD
ATOM     56  C   UNL A   1      44.631  28.914  30.347  1.00  0.00     0.074 A 
ATOM     57  C   UNL A   1      43.429  29.116  31.151  1.00  0.00     0.031 C 
ATOM     58  C   UNL A   1      44.898  29.146  29.027  1.00  0.00     0.034 A 
BRANCH  45  59
ATOM     59  C   UNL A   1      39.607  29.945  28.736  1.00  0.00     0.023 A 
ATOM     60  C   UNL A   1      39.977  30.213  30.077  1.00  0.00     0.012 A 
ATOM     61  C   UNL A   1      38.288  30.285  28.364  1.00  0.00     0.148 A 
ATOM     62  C   UNL A   1      39.064  30.717  31.012  1.00  0.00     0.002 A 
ATOM     63  C   UNL A   1      37.409  30.862  29.276  1.00  0.00     0.091 A 
ATOM     64  F   UNL A   1      37.816  29.933  27.165  1.00  0.00    -0.205 F 
ATOM     65  C   UNL A   1      37.778  31.046  30.609  1.00  0.00     0.022 A 
BRANCH  63  66
ATOM     66  S   UNL A   1      35.752  31.366  28.790  1.00  0.00     0.127 S 
ATOM     67  O   UNL A   1      35.191  30.104  28.321  1.00  0.00    -0.237 OA
ATOM     68  O   UNL A   1      35.204  31.858  30.054  1.00  0.00    -0.237 OA
ATOM     69  O   UNL A   1      35.947  32.402  27.784  1.00  0.00    -0.744 OA
ENDBRANCH  63  66
ENDBRANCH  45  59
BRANCH  46  70
ATOM     70  C   UNL A   1      44.796  25.747  33.824  1.00  0.00     0.023 A 
ATOM     71  C   UNL A   1      46.066  25.434  34.344  1.00  0.00     0.012 A 
ATOM     72  C   UNL A   1      43.734  25.959  34.732  1.00  0.00     0.148 A 
ATOM     73  C   UNL A   1      46.282  25.367  35.724  1.00  0.00     0.002 A 
ATOM     74  C   UNL A   1      43.952  25.883  36.105  1.00  0.00     0.091 A 
ATOM     75  F   UNL A   1      42.537  26.322  34.251  1.00  0.00    -0.205 F 
ATOM     76  C   UNL A   1      45.228  25.601  36.605  1.00  0.00     0.022 A 
BRANCH  74  77
ATOM     77  S   UNL A   1      42.643  26.187  37.298  1.00  0.00     0.127 S 
ATOM     78  O   UNL A   1      41.757  25.043  37.075  1.00  0.00    -0.237 OA
ATOM     79  O   UNL A   1      43.374  26.158  38.561  1.00  0.00    -0.237 OA
ATOM     80  O   UNL A   1      42.060  27.471  36.927  1.00  0.00    -0.744 OA
ENDBRANCH  74  77
ENDBRANCH  46  70
BRANCH  58  81
ATOM     81  C   UNL A   1      46.225  28.687  28.475  1.00  0.00     0.023 A 
ATOM     82  C   UNL A   1      47.409  29.437  28.638  1.00  0.00     0.012 A 
ATOM     83  C   UNL A   1      46.313  27.389  27.942  1.00  0.00     0.148 A 
ATOM     84  C   UNL A   1      48.646  28.915  28.255  1.00  0.00     0.002 A 
ATOM     85  C   UNL A   1      47.551  26.856  27.606  1.00  0.00     0.091 A 
ATOM     86  F   UNL A   1      45.180  26.685  27.798  1.00  0.00    -0.205 F 
ATOM     87  C   UNL A   1      48.720  27.619  27.752  1.00  0.00     0.022 A 
BRANCH  85  88
ATOM     88  S   UNL A   1      47.722  25.148  27.083  1.00  0.00     0.127 S 
ATOM     89  O   UNL A   1      49.174  24.986  27.037  1.00  0.00    -0.237 OA
ATOM     90  O   UNL A   1      47.058  24.417  28.165  1.00  0.00    -0.237 OA
ATOM     91  O   UNL A   1      47.037  25.054  25.799  1.00  0.00    -0.744 OA
ENDBRANCH  85  88
ENDBRANCH  58  81
ENDBRANCH  32  33
ENDBRANCH  24  27
ENDBRANCH  22  23
ENDBRANCH   1  22
TORSDOF 15
ENDMDL
