MODEL 1
REMARK VINA RESULT:     -10.6      0.000      0.000
REMARK SMILES CCOC(=O)c1noc(C)c1C(=O)NCCCCNC(=O)c1ccc(-c2c3nc(c(-c4cccc(S(=O)(=O)[O-])c4F)c4ccc([nH]4)c(-c4cccc(S(=O)(=O)[O-])c4F)c4nc(c(-c5cccc(S(=O)(=O)[O-])c5F)c5ccc2[nH]5)C=C4)C=C3)cc1
REMARK SMILES IDX 16 1 15 2 14 3 12 4 13 5 11 7 6 8 7 9 8 10 9 11 10 12 4 13
REMARK SMILES IDX 5 14 3 15 2 16 1 17 17 18 18 19 19 20 20 21 21 23 22 24
REMARK SMILES IDX 23 25 84 26 24 27 83 28 25 29 26 30 27 31 77 32 28 33 82 34
REMARK SMILES IDX 76 35 78 36 29 37 81 38 75 39 74 40 30 42 62 43 42 44 61 45
REMARK SMILES IDX 43 46 46 47 60 48 79 49 44 50 45 51 59 53 80 54 47 55 31 56
REMARK SMILES IDX 32 57 40 58 33 59 35 60 41 61 34 62 36 63 37 64 38 65 39 66
REMARK SMILES IDX 63 67 64 68 72 69 65 70 67 71 73 72 66 73 68 74 69 75 70 76
REMARK SMILES IDX 71 77 48 78 49 79 57 80 50 81 52 82 58 83 51 84 53 85 54 86
REMARK SMILES IDX 55 87 56 88
REMARK H PARENT 14 6 19 22 78 41 46 52
REMARK Flexibility Score: inf
ROOT
ATOM      1  C   UNL A   1      34.086  28.660  25.555  1.00  0.00     0.023 C 
ENDROOT
BRANCH   1   2
ATOM      2  C   UNL A   1      33.826  27.426  24.693  1.00  0.00     0.116 C 
BRANCH   2   3
ATOM      3  N   UNL A   1      33.531  26.274  25.508  1.00  0.00    -0.352 N 
ATOM      4  C   UNL A   1      33.523  24.925  25.297  1.00  0.00     0.257 C 
ATOM      5  O   UNL A   1      33.348  24.266  26.324  1.00  0.00    -0.269 OA
ATOM      6  H   UNL A   1      33.279  26.516  26.429  1.00  0.00     0.163 HD
BRANCH   4   7
ATOM      7  C   UNL A   1      33.741  24.247  24.023  1.00  0.00     0.117 A 
ATOM      8  C   UNL A   1      32.698  24.135  23.027  1.00  0.00     0.204 A 
ATOM      9  N   UNL A   1      33.098  23.417  21.969  1.00  0.00    -0.072 NA
ATOM     10  O   UNL A   1      34.405  23.106  22.207  1.00  0.00    -0.360 OA
ATOM     11  C   UNL A   1      34.808  23.608  23.407  1.00  0.00     0.147 A 
ATOM     12  C   UNL A   1      36.233  23.318  23.653  1.00  0.00     0.092 C 
BRANCH   8  13
ATOM     13  C   UNL A   1      31.345  24.676  23.056  1.00  0.00     0.361 C 
ATOM     14  O   UNL A   1      30.344  23.988  23.254  1.00  0.00    -0.244 OA
BRANCH  13  15
ATOM     15  O   UNL A   1      31.322  26.013  22.776  1.00  0.00    -0.461 OA
BRANCH  15  16
ATOM     16  C   UNL A   1      30.463  26.805  23.604  1.00  0.00     0.230 C 
ATOM     17  C   UNL A   1      29.854  27.935  22.796  1.00  0.00     0.049 C 
ENDBRANCH  15  16
ENDBRANCH  13  15
ENDBRANCH   8  13
ENDBRANCH   4   7
ENDBRANCH   2   3
ENDBRANCH   1   2
BRANCH   1  18
ATOM     18  C   UNL A   1      32.933  29.666  25.615  1.00  0.00     0.023 C 
BRANCH  18  19
ATOM     19  C   UNL A   1      32.569  30.164  27.011  1.00  0.00     0.116 C 
BRANCH  19  20
ATOM     20  N   UNL A   1      32.626  31.612  27.149  1.00  0.00    -0.352 N 
ATOM     21  C   UNL A   1      33.636  32.380  27.678  1.00  0.00     0.251 C 
ATOM     22  H   UNL A   1      31.839  32.105  26.820  1.00  0.00     0.163 HD
ATOM     23  O   UNL A   1      33.491  33.592  27.800  1.00  0.00    -0.269 OA
BRANCH  21  24
ATOM     24  C   UNL A   1      34.877  31.723  28.139  1.00  0.00     0.039 A 
ATOM     25  C   UNL A   1      36.072  32.445  28.105  1.00  0.00     0.014 A 
ATOM     26  C   UNL A   1      34.849  30.424  28.648  1.00  0.00     0.014 A 
ATOM     27  C   UNL A   1      37.229  31.887  28.652  1.00  0.00     0.010 A 
ATOM     28  C   UNL A   1      35.985  29.897  29.253  1.00  0.00     0.010 A 
ATOM     29  C   UNL A   1      37.185  30.625  29.265  1.00  0.00    -0.014 A 
BRANCH  29  30
ATOM     30  C   UNL A   1      38.372  30.061  29.955  1.00  0.00     0.031 A 
ATOM     31  C   UNL A   1      38.748  30.531  31.332  1.00  0.00     0.074 A 
ATOM     32  C   UNL A   1      39.173  29.203  29.293  1.00  0.00     0.049 A 
ATOM     33  N   UNL A   1      39.775  30.192  32.066  1.00  0.00    -0.248 NA
ATOM     34  C   UNL A   1      37.874  31.540  31.954  1.00  0.00     0.031 C 
ATOM     35  C   UNL A   1      38.973  28.752  27.914  1.00  0.00     0.029 A 
ATOM     36  N   UNL A   1      40.336  28.584  29.679  1.00  0.00    -0.354 N 
ATOM     37  C   UNL A   1      39.696  30.969  33.214  1.00  0.00     0.074 A 
ATOM     38  C   UNL A   1      38.535  31.821  33.067  1.00  0.00     0.031 C 
ATOM     39  C   UNL A   1      39.978  27.930  27.569  1.00  0.00     0.029 A 
ATOM     40  C   UNL A   1      40.903  27.812  28.692  1.00  0.00     0.049 A 
ATOM     41  H   UNL A   1      40.727  28.682  30.577  1.00  0.00     0.167 HD
ATOM     42  C   UNL A   1      40.497  30.953  34.305  1.00  0.00     0.034 A 
ATOM     43  C   UNL A   1      42.043  27.091  28.689  1.00  0.00     0.034 A 
ATOM     44  C   UNL A   1      41.614  30.064  34.471  1.00  0.00     0.049 A 
ATOM     45  C   UNL A   1      42.870  27.029  29.943  1.00  0.00     0.074 A 
ATOM     46  C   UNL A   1      42.414  29.886  35.586  1.00  0.00     0.029 A 
ATOM     47  N   UNL A   1      42.094  29.207  33.493  1.00  0.00    -0.354 N 
ATOM     48  N   UNL A   1      42.669  27.625  31.094  1.00  0.00    -0.248 NA
ATOM     49  C   UNL A   1      44.058  26.163  29.916  1.00  0.00     0.031 C 
ATOM     50  C   UNL A   1      43.387  28.930  35.277  1.00  0.00     0.029 A 
ATOM     51  C   UNL A   1      43.185  28.503  33.974  1.00  0.00     0.049 A 
ATOM     52  H   UNL A   1      41.715  29.113  32.589  1.00  0.00     0.167 HD
ATOM     53  C   UNL A   1      43.685  27.187  31.934  1.00  0.00     0.074 A 
ATOM     54  C   UNL A   1      44.488  26.255  31.168  1.00  0.00     0.031 C 
ATOM     55  C   UNL A   1      43.942  27.538  33.219  1.00  0.00     0.034 A 
BRANCH  42  56
ATOM     56  C   UNL A   1      40.152  31.884  35.438  1.00  0.00     0.023 A 
ATOM     57  C   UNL A   1      40.851  33.102  35.569  1.00  0.00     0.012 A 
ATOM     58  C   UNL A   1      39.111  31.585  36.337  1.00  0.00     0.148 A 
ATOM     59  C   UNL A   1      40.542  33.992  36.596  1.00  0.00     0.002 A 
ATOM     60  C   UNL A   1      38.780  32.497  37.333  1.00  0.00     0.091 A 
ATOM     61  F   UNL A   1      38.474  30.411  36.212  1.00  0.00    -0.205 F 
ATOM     62  C   UNL A   1      39.500  33.695  37.471  1.00  0.00     0.022 A 
BRANCH  60  63
ATOM     63  S   UNL A   1      37.406  32.236  38.461  1.00  0.00     0.127 S 
ATOM     64  O   UNL A   1      37.909  32.854  39.686  1.00  0.00    -0.237 OA
ATOM     65  O   UNL A   1      36.323  32.974  37.807  1.00  0.00    -0.237 OA
ATOM     66  O   UNL A   1      37.206  30.795  38.517  1.00  0.00    -0.744 OA
ENDBRANCH  60  63
ENDBRANCH  42  56
BRANCH  43  67
ATOM     67  C   UNL A   1      42.416  26.305  27.480  1.00  0.00     0.023 A 
ATOM     68  C   UNL A   1      43.184  26.916  26.471  1.00  0.00     0.012 A 
ATOM     69  C   UNL A   1      42.058  24.949  27.347  1.00  0.00     0.148 A 
ATOM     70  C   UNL A   1      43.568  26.198  25.336  1.00  0.00     0.002 A 
ATOM     71  C   UNL A   1      42.489  24.226  26.241  1.00  0.00     0.091 A 
ATOM     72  F   UNL A   1      41.316  24.390  28.313  1.00  0.00    -0.205 F 
ATOM     73  C   UNL A   1      43.231  24.852  25.227  1.00  0.00     0.022 A 
BRANCH  71  74
ATOM     74  S   UNL A   1      42.219  22.456  26.088  1.00  0.00     0.127 S 
ATOM     75  O   UNL A   1      42.941  22.148  24.857  1.00  0.00    -0.237 OA
ATOM     76  O   UNL A   1      42.839  21.946  27.311  1.00  0.00    -0.237 OA
ATOM     77  O   UNL A   1      40.773  22.286  26.038  1.00  0.00    -0.744 OA
ENDBRANCH  71  74
ENDBRANCH  43  67
BRANCH  55  78
ATOM     78  C   UNL A   1      45.128  26.902  33.892  1.00  0.00     0.023 A 
ATOM     79  C   UNL A   1      46.394  27.511  33.794  1.00  0.00     0.012 A 
ATOM     80  C   UNL A   1      44.974  25.749  34.688  1.00  0.00     0.148 A 
ATOM     81  C   UNL A   1      47.495  26.967  34.455  1.00  0.00     0.002 A 
ATOM     82  C   UNL A   1      46.067  25.239  35.380  1.00  0.00     0.091 A 
ATOM     83  F   UNL A   1      43.766  25.171  34.752  1.00  0.00    -0.205 F 
ATOM     84  C   UNL A   1      47.330  25.840  35.257  1.00  0.00     0.022 A 
BRANCH  82  85
ATOM     85  S   UNL A   1      45.921  23.847  36.507  1.00  0.00     0.127 S 
ATOM     86  O   UNL A   1      45.592  22.755  35.592  1.00  0.00    -0.237 OA
ATOM     87  O   UNL A   1      47.263  23.774  37.089  1.00  0.00    -0.237 OA
ATOM     88  O   UNL A   1      44.875  24.211  37.454  1.00  0.00    -0.744 OA
ENDBRANCH  82  85
ENDBRANCH  55  78
ENDBRANCH  29  30
ENDBRANCH  21  24
ENDBRANCH  19  20
ENDBRANCH  18  19
ENDBRANCH   1  18
TORSDOF 17
ENDMDL
MODEL 2
REMARK VINA RESULT:     -10.6      3.567      6.619
REMARK SMILES CCOC(=O)c1noc(C)c1C(=O)NCCCCNC(=O)c1ccc(-c2c3nc(c(-c4cccc(S(=O)(=O)[O-])c4F)c4ccc([nH]4)c(-c4cccc(S(=O)(=O)[O-])c4F)c4nc(c(-c5cccc(S(=O)(=O)[O-])c5F)c5ccc2[nH]5)C=C4)C=C3)cc1
REMARK SMILES IDX 16 1 15 2 14 3 12 4 13 5 11 7 6 8 7 9 8 10 9 11 10 12 4 13
REMARK SMILES IDX 5 14 3 15 2 16 1 17 17 18 18 19 19 20 20 21 21 23 22 24
REMARK SMILES IDX 23 25 84 26 24 27 83 28 25 29 26 30 27 31 77 32 28 33 82 34
REMARK SMILES IDX 76 35 78 36 29 37 81 38 75 39 74 40 30 42 62 43 42 44 61 45
REMARK SMILES IDX 43 46 46 47 60 48 79 49 44 50 45 51 59 53 80 54 47 55 31 56
REMARK SMILES IDX 32 57 40 58 33 59 35 60 41 61 34 62 36 63 37 64 38 65 39 66
REMARK SMILES IDX 63 67 64 68 72 69 65 70 67 71 73 72 66 73 68 74 69 75 70 76
REMARK SMILES IDX 71 77 48 78 49 79 57 80 50 81 52 82 58 83 51 84 53 85 54 86
REMARK SMILES IDX 55 87 56 88
REMARK H PARENT 14 6 19 22 78 41 46 52
REMARK Flexibility Score: inf
ROOT
ATOM      1  C   UNL A   1      34.682  32.696  30.373  1.00  0.00     0.023 C 
ENDROOT
BRANCH   1   2
ATOM      2  C   UNL A   1      36.099  32.297  30.785  1.00  0.00     0.116 C 
BRANCH   2   3
ATOM      3  N   UNL A   1      36.911  33.457  31.050  1.00  0.00    -0.352 N 
ATOM      4  C   UNL A   1      37.409  34.042  32.178  1.00  0.00     0.257 C 
ATOM      5  O   UNL A   1      38.196  34.964  31.951  1.00  0.00    -0.269 OA
ATOM      6  H   UNL A   1      37.165  33.938  30.229  1.00  0.00     0.163 HD
BRANCH   4   7
ATOM      7  C   UNL A   1      37.129  33.646  33.555  1.00  0.00     0.117 A 
ATOM      8  C   UNL A   1      35.889  33.992  34.215  1.00  0.00     0.204 A 
ATOM      9  N   UNL A   1      35.876  33.586  35.492  1.00  0.00    -0.072 NA
ATOM     10  O   UNL A   1      37.051  32.918  35.678  1.00  0.00    -0.360 OA
ATOM     11  C   UNL A   1      37.794  32.924  34.537  1.00  0.00     0.147 A 
ATOM     12  C   UNL A   1      39.046  32.164  34.714  1.00  0.00     0.092 C 
BRANCH   8  13
ATOM     13  C   UNL A   1      34.734  34.698  33.675  1.00  0.00     0.361 C 
ATOM     14  O   UNL A   1      33.723  34.129  33.264  1.00  0.00    -0.244 OA
BRANCH  13  15
ATOM     15  O   UNL A   1      34.937  36.048  33.621  1.00  0.00    -0.461 OA
BRANCH  15  16
ATOM     16  C   UNL A   1      33.756  36.847  33.494  1.00  0.00     0.230 C 
ATOM     17  C   UNL A   1      33.753  37.568  32.159  1.00  0.00     0.049 C 
ENDBRANCH  15  16
ENDBRANCH  13  15
ENDBRANCH   8  13
ENDBRANCH   4   7
ENDBRANCH   2   3
ENDBRANCH   1   2
BRANCH   1  18
ATOM     18  C   UNL A   1      34.588  33.510  29.078  1.00  0.00     0.023 C 
BRANCH  18  19
ATOM     19  C   UNL A   1      35.087  32.801  27.822  1.00  0.00     0.116 C 
BRANCH  19  20
ATOM     20  N   UNL A   1      34.345  31.590  27.499  1.00  0.00    -0.352 N 
ATOM     21  C   UNL A   1      34.753  30.283  27.620  1.00  0.00     0.251 C 
ATOM     22  H   UNL A   1      33.435  31.726  27.151  1.00  0.00     0.163 HD
ATOM     23  O   UNL A   1      34.032  29.373  27.220  1.00  0.00    -0.269 OA
BRANCH  21  24
ATOM     24  C   UNL A   1      36.083  29.990  28.191  1.00  0.00     0.039 A 
ATOM     25  C   UNL A   1      36.157  29.366  29.439  1.00  0.00     0.014 A 
ATOM     26  C   UNL A   1      37.246  30.283  27.476  1.00  0.00     0.014 A 
ATOM     27  C   UNL A   1      37.398  28.968  29.937  1.00  0.00     0.010 A 
ATOM     28  C   UNL A   1      38.474  29.825  27.943  1.00  0.00     0.010 A 
ATOM     29  C   UNL A   1      38.562  29.160  29.175  1.00  0.00    -0.014 A 
BRANCH  29  30
ATOM     30  C   UNL A   1      39.876  28.643  29.632  1.00  0.00     0.031 A 
ATOM     31  C   UNL A   1      40.632  29.342  30.726  1.00  0.00     0.074 A 
ATOM     32  C   UNL A   1      40.436  27.602  28.983  1.00  0.00     0.049 A 
ATOM     33  N   UNL A   1      41.811  29.066  31.218  1.00  0.00    -0.248 NA
ATOM     34  C   UNL A   1      39.996  30.527  31.324  1.00  0.00     0.031 C 
ATOM     35  C   UNL A   1      39.849  26.905  27.837  1.00  0.00     0.029 A 
ATOM     36  N   UNL A   1      41.641  26.972  29.173  1.00  0.00    -0.354 N 
ATOM     37  C   UNL A   1      42.077  30.060  32.151  1.00  0.00     0.074 A 
ATOM     38  C   UNL A   1      40.947  30.965  32.136  1.00  0.00     0.031 C 
ATOM     39  C   UNL A   1      40.694  25.946  27.424  1.00  0.00     0.029 A 
ATOM     40  C   UNL A   1      41.889  25.972  28.261  1.00  0.00     0.049 A 
ATOM     41  H   UNL A   1      42.267  27.212  29.893  1.00  0.00     0.167 HD
ATOM     42  C   UNL A   1      43.147  30.191  32.969  1.00  0.00     0.034 A 
ATOM     43  C   UNL A   1      42.960  25.167  28.114  1.00  0.00     0.034 A 
ATOM     44  C   UNL A   1      44.238  29.256  33.022  1.00  0.00     0.049 A 
ATOM     45  C   UNL A   1      44.100  25.283  29.088  1.00  0.00     0.074 A 
ATOM     46  C   UNL A   1      45.310  29.234  33.898  1.00  0.00     0.029 A 
ATOM     47  N   UNL A   1      44.403  28.183  32.161  1.00  0.00    -0.354 N 
ATOM     48  N   UNL A   1      44.243  26.111  30.094  1.00  0.00    -0.248 NA
ATOM     49  C   UNL A   1      45.207  24.327  28.936  1.00  0.00     0.031 C 
ATOM     50  C   UNL A   1      46.130  28.154  33.556  1.00  0.00     0.029 A 
ATOM     51  C   UNL A   1      45.562  27.496  32.477  1.00  0.00     0.049 A 
ATOM     52  H   UNL A   1      43.786  27.945  31.431  1.00  0.00     0.167 HD
ATOM     53  C   UNL A   1      45.438  25.760  30.711  1.00  0.00     0.074 A 
ATOM     54  C   UNL A   1      45.968  24.628  29.980  1.00  0.00     0.031 C 
ATOM     55  C   UNL A   1      46.051  26.337  31.775  1.00  0.00     0.034 A 
BRANCH  42  56
ATOM     56  C   UNL A   1      43.158  31.355  33.924  1.00  0.00     0.023 A 
ATOM     57  C   UNL A   1      43.617  32.612  33.478  1.00  0.00     0.012 A 
ATOM     58  C   UNL A   1      42.670  31.225  35.239  1.00  0.00     0.148 A 
ATOM     59  C   UNL A   1      43.621  33.712  34.333  1.00  0.00     0.002 A 
ATOM     60  C   UNL A   1      42.638  32.337  36.073  1.00  0.00     0.091 A 
ATOM     61  F   UNL A   1      42.261  30.017  35.654  1.00  0.00    -0.205 F 
ATOM     62  C   UNL A   1      43.123  33.578  35.626  1.00  0.00     0.022 A 
BRANCH  60  63
ATOM     63  S   UNL A   1      41.946  32.280  37.730  1.00  0.00     0.127 S 
ATOM     64  O   UNL A   1      42.179  33.646  38.194  1.00  0.00    -0.237 OA
ATOM     65  O   UNL A   1      40.543  31.955  37.469  1.00  0.00    -0.237 OA
ATOM     66  O   UNL A   1      42.686  31.241  38.433  1.00  0.00    -0.744 OA
ENDBRANCH  60  63
ENDBRANCH  42  56
BRANCH  43  67
ATOM     67  C   UNL A   1      42.961  24.126  27.048  1.00  0.00     0.023 A 
ATOM     68  C   UNL A   1      43.662  24.365  25.851  1.00  0.00     0.012 A 
ATOM     69  C   UNL A   1      42.314  22.887  27.232  1.00  0.00     0.148 A 
ATOM     70  C   UNL A   1      43.699  23.399  24.843  1.00  0.00     0.002 A 
ATOM     71  C   UNL A   1      42.400  21.910  26.246  1.00  0.00     0.091 A 
ATOM     72  F   UNL A   1      41.642  22.684  28.373  1.00  0.00    -0.205 F 
ATOM     73  C   UNL A   1      43.078  22.170  25.046  1.00  0.00     0.022 A 
BRANCH  71  74
ATOM     74  S   UNL A   1      41.750  20.252  26.482  1.00  0.00     0.127 S 
ATOM     75  O   UNL A   1      40.310  20.493  26.490  1.00  0.00    -0.237 OA
ATOM     76  O   UNL A   1      42.253  19.557  25.296  1.00  0.00    -0.237 OA
ATOM     77  O   UNL A   1      42.325  19.783  27.735  1.00  0.00    -0.744 OA
ENDBRANCH  71  74
ENDBRANCH  43  67
BRANCH  55  78
ATOM     78  C   UNL A   1      47.357  25.745  32.233  1.00  0.00     0.023 A 
ATOM     79  C   UNL A   1      48.557  26.141  31.611  1.00  0.00     0.012 A 
ATOM     80  C   UNL A   1      47.405  24.861  33.329  1.00  0.00     0.148 A 
ATOM     81  C   UNL A   1      49.782  25.645  32.056  1.00  0.00     0.002 A 
ATOM     82  C   UNL A   1      48.633  24.406  33.795  1.00  0.00     0.091 A 
ATOM     83  F   UNL A   1      46.250  24.478  33.894  1.00  0.00    -0.205 F 
ATOM     84  C   UNL A   1      49.822  24.790  33.153  1.00  0.00     0.022 A 
BRANCH  82  85
ATOM     85  S   UNL A   1      48.780  23.376  35.260  1.00  0.00     0.127 S 
ATOM     86  O   UNL A   1      47.972  22.215  34.890  1.00  0.00    -0.237 OA
ATOM     87  O   UNL A   1      50.220  23.123  35.321  1.00  0.00    -0.237 OA
ATOM     88  O   UNL A   1      48.264  24.177  36.362  1.00  0.00    -0.744 OA
ENDBRANCH  82  85
ENDBRANCH  55  78
ENDBRANCH  29  30
ENDBRANCH  21  24
ENDBRANCH  19  20
ENDBRANCH  18  19
ENDBRANCH   1  18
TORSDOF 17
ENDMDL
MODEL 3
REMARK VINA RESULT:     -10.4      2.022      3.115
REMARK SMILES CCOC(=O)c1noc(C)c1C(=O)NCCCCNC(=O)c1ccc(-c2c3nc(c(-c4cccc(S(=O)(=O)[O-])c4F)c4ccc([nH]4)c(-c4cccc(S(=O)(=O)[O-])c4F)c4nc(c(-c5cccc(S(=O)(=O)[O-])c5F)c5ccc2[nH]5)C=C4)C=C3)cc1
REMARK SMILES IDX 16 1 15 2 14 3 12 4 13 5 11 7 6 8 7 9 8 10 9 11 10 12 4 13
REMARK SMILES IDX 5 14 3 15 2 16 1 17 17 18 18 19 19 20 20 21 21 23 22 24
REMARK SMILES IDX 23 25 84 26 24 27 83 28 25 29 26 30 27 31 77 32 28 33 82 34
REMARK SMILES IDX 76 35 78 36 29 37 81 38 75 39 74 40 30 42 62 43 42 44 61 45
REMARK SMILES IDX 43 46 46 47 60 48 79 49 44 50 45 51 59 53 80 54 47 55 31 56
REMARK SMILES IDX 32 57 40 58 33 59 35 60 41 61 34 62 36 63 37 64 38 65 39 66
REMARK SMILES IDX 63 67 64 68 72 69 65 70 67 71 73 72 66 73 68 74 69 75 70 76
REMARK SMILES IDX 71 77 48 78 49 79 57 80 50 81 52 82 58 83 51 84 53 85 54 86
REMARK SMILES IDX 55 87 56 88
REMARK H PARENT 14 6 19 22 78 41 46 52
REMARK Flexibility Score: inf
ROOT
ATOM      1  C   UNL A   1      32.187  27.647  26.809  1.00  0.00     0.023 C 
ENDROOT
BRANCH   1   2
ATOM      2  C   UNL A   1      31.060  26.688  26.425  1.00  0.00     0.116 C 
BRANCH   2   3
ATOM      3  N   UNL A   1      31.307  25.364  26.938  1.00  0.00    -0.352 N 
ATOM      4  C   UNL A   1      31.815  24.210  26.412  1.00  0.00     0.257 C 
ATOM      5  O   UNL A   1      31.994  23.323  27.248  1.00  0.00    -0.269 OA
ATOM      6  H   UNL A   1      31.053  25.269  27.884  1.00  0.00     0.163 HD
BRANCH   4   7
ATOM      7  C   UNL A   1      32.183  23.984  25.018  1.00  0.00     0.117 A 
ATOM      8  C   UNL A   1      33.495  23.503  24.640  1.00  0.00     0.204 A 
ATOM      9  N   UNL A   1      33.634  23.433  23.309  1.00  0.00    -0.072 NA
ATOM     10  O   UNL A   1      32.423  23.790  22.793  1.00  0.00    -0.360 OA
ATOM     11  C   UNL A   1      31.546  24.098  23.790  1.00  0.00     0.147 A 
ATOM     12  C   UNL A   1      30.220  24.440  23.244  1.00  0.00     0.092 C 
BRANCH   8  13
ATOM     13  C   UNL A   1      34.610  23.123  25.499  1.00  0.00     0.361 C 
ATOM     14  O   UNL A   1      35.277  23.933  26.142  1.00  0.00    -0.244 OA
BRANCH  13  15
ATOM     15  O   UNL A   1      34.860  21.781  25.450  1.00  0.00    -0.461 OA
BRANCH  15  16
ATOM     16  C   UNL A   1      36.176  21.381  25.848  1.00  0.00     0.230 C 
ATOM     17  C   UNL A   1      37.075  21.257  24.633  1.00  0.00     0.049 C 
ENDBRANCH  15  16
ENDBRANCH  13  15
ENDBRANCH   8  13
ENDBRANCH   4   7
ENDBRANCH   2   3
ENDBRANCH   1   2
BRANCH   1  18
ATOM     18  C   UNL A   1      33.396  27.637  25.870  1.00  0.00     0.023 C 
BRANCH  18  19
ATOM     19  C   UNL A   1      34.481  28.663  26.188  1.00  0.00     0.116 C 
BRANCH  19  20
ATOM     20  N   UNL A   1      33.959  29.939  26.656  1.00  0.00    -0.352 N 
ATOM     21  C   UNL A   1      34.489  30.781  27.606  1.00  0.00     0.251 C 
ATOM     22  H   UNL A   1      33.119  30.239  26.238  1.00  0.00     0.163 HD
ATOM     23  O   UNL A   1      33.876  31.787  27.949  1.00  0.00    -0.269 OA
BRANCH  21  24
ATOM     24  C   UNL A   1      35.779  30.435  28.238  1.00  0.00     0.039 A 
ATOM     25  C   UNL A   1      35.772  29.656  29.398  1.00  0.00     0.014 A 
ATOM     26  C   UNL A   1      36.986  30.834  27.661  1.00  0.00     0.014 A 
ATOM     27  C   UNL A   1      36.981  29.215  29.938  1.00  0.00     0.010 A 
ATOM     28  C   UNL A   1      38.185  30.337  28.161  1.00  0.00     0.010 A 
ATOM     29  C   UNL A   1      38.195  29.520  29.301  1.00  0.00    -0.014 A 
BRANCH  29  30
ATOM     30  C   UNL A   1      39.482  28.966  29.791  1.00  0.00     0.031 A 
ATOM     31  C   UNL A   1      40.226  29.641  30.908  1.00  0.00     0.074 A 
ATOM     32  C   UNL A   1      40.031  27.914  29.151  1.00  0.00     0.049 A 
ATOM     33  N   UNL A   1      41.384  29.331  31.430  1.00  0.00    -0.248 NA
ATOM     34  C   UNL A   1      39.605  30.840  31.495  1.00  0.00     0.031 C 
ATOM     35  C   UNL A   1      39.457  27.237  27.986  1.00  0.00     0.029 A 
ATOM     36  N   UNL A   1      41.214  27.251  29.370  1.00  0.00    -0.354 N 
ATOM     37  C   UNL A   1      41.650  30.314  32.375  1.00  0.00     0.074 A 
ATOM     38  C   UNL A   1      40.545  31.249  32.334  1.00  0.00     0.031 C 
ATOM     39  C   UNL A   1      40.288  26.258  27.592  1.00  0.00     0.029 A 
ATOM     40  C   UNL A   1      41.460  26.249  28.461  1.00  0.00     0.049 A 
ATOM     41  H   UNL A   1      41.826  27.471  30.109  1.00  0.00     0.167 HD
ATOM     42  C   UNL A   1      42.701  30.413  33.222  1.00  0.00     0.034 A 
ATOM     43  C   UNL A   1      42.514  25.417  28.339  1.00  0.00     0.034 A 
ATOM     44  C   UNL A   1      43.765  29.450  33.299  1.00  0.00     0.049 A 
ATOM     45  C   UNL A   1      43.630  25.498  29.343  1.00  0.00     0.074 A 
ATOM     46  C   UNL A   1      44.812  29.396  34.204  1.00  0.00     0.029 A 
ATOM     47  N   UNL A   1      43.925  28.377  32.438  1.00  0.00    -0.354 N 
ATOM     48  N   UNL A   1      43.767  26.319  30.357  1.00  0.00    -0.248 NA
ATOM     49  C   UNL A   1      44.715  24.515  29.216  1.00  0.00     0.031 C 
ATOM     50  C   UNL A   1      45.612  28.296  33.879  1.00  0.00     0.029 A 
ATOM     51  C   UNL A   1      45.057  27.658  32.782  1.00  0.00     0.049 A 
ATOM     52  H   UNL A   1      43.322  28.158  31.690  1.00  0.00     0.167 HD
ATOM     53  C   UNL A   1      44.935  25.934  31.004  1.00  0.00     0.074 A 
ATOM     54  C   UNL A   1      45.455  24.791  30.282  1.00  0.00     0.031 C 
ATOM     55  C   UNL A   1      45.534  26.489  32.087  1.00  0.00     0.034 A 
BRANCH  42  56
ATOM     56  C   UNL A   1      42.716  31.573  34.183  1.00  0.00     0.023 A 
ATOM     57  C   UNL A   1      43.266  32.805  33.771  1.00  0.00     0.012 A 
ATOM     58  C   UNL A   1      42.145  31.465  35.465  1.00  0.00     0.148 A 
ATOM     59  C   UNL A   1      43.277  33.900  34.632  1.00  0.00     0.002 A 
ATOM     60  C   UNL A   1      42.122  32.575  36.302  1.00  0.00     0.091 A 
ATOM     61  F   UNL A   1      41.649  30.279  35.849  1.00  0.00    -0.205 F 
ATOM     62  C   UNL A   1      42.697  33.790  35.892  1.00  0.00     0.022 A 
BRANCH  60  63
ATOM     63  S   UNL A   1      41.332  32.550  37.916  1.00  0.00     0.127 S 
ATOM     64  O   UNL A   1      42.152  31.575  38.631  1.00  0.00    -0.237 OA
ATOM     65  O   UNL A   1      41.499  33.934  38.364  1.00  0.00    -0.237 OA
ATOM     66  O   UNL A   1      39.950  32.157  37.675  1.00  0.00    -0.744 OA
ENDBRANCH  60  63
ENDBRANCH  42  56
BRANCH  43  67
ATOM     67  C   UNL A   1      42.516  24.381  27.268  1.00  0.00     0.023 A 
ATOM     68  C   UNL A   1      43.169  24.648  26.051  1.00  0.00     0.012 A 
ATOM     69  C   UNL A   1      41.919  23.120  27.466  1.00  0.00     0.148 A 
ATOM     70  C   UNL A   1      43.207  23.689  25.037  1.00  0.00     0.002 A 
ATOM     71  C   UNL A   1      42.006  22.150  26.473  1.00  0.00     0.091 A 
ATOM     72  F   UNL A   1      41.291  22.889  28.627  1.00  0.00    -0.205 F 
ATOM     73  C   UNL A   1      42.636  22.438  25.253  1.00  0.00     0.022 A 
BRANCH  71  74
ATOM     74  S   UNL A   1      41.422  20.470  26.721  1.00  0.00     0.127 S 
ATOM     75  O   UNL A   1      39.978  20.666  26.817  1.00  0.00    -0.237 OA
ATOM     76  O   UNL A   1      41.874  19.806  25.497  1.00  0.00    -0.237 OA
ATOM     77  O   UNL A   1      42.084  20.002  27.931  1.00  0.00    -0.744 OA
ENDBRANCH  71  74
ENDBRANCH  43  67
BRANCH  55  78
ATOM     78  C   UNL A   1      46.811  25.861  32.577  1.00  0.00     0.023 A 
ATOM     79  C   UNL A   1      48.050  26.372  32.143  1.00  0.00     0.012 A 
ATOM     80  C   UNL A   1      46.787  24.821  33.527  1.00  0.00     0.148 A 
ATOM     81  C   UNL A   1      49.244  25.840  32.626  1.00  0.00     0.002 A 
ATOM     82  C   UNL A   1      47.981  24.326  34.038  1.00  0.00     0.091 A 
ATOM     83  F   UNL A   1      45.598  24.333  33.913  1.00  0.00    -0.205 F 
ATOM     84  C   UNL A   1      49.211  24.828  33.581  1.00  0.00     0.022 A 
BRANCH  82  85
ATOM     85  S   UNL A   1      48.026  23.088  35.339  1.00  0.00     0.127 S 
ATOM     86  O   UNL A   1      49.465  22.920  35.541  1.00  0.00    -0.237 OA
ATOM     87  O   UNL A   1      47.330  23.761  36.437  1.00  0.00    -0.237 OA
ATOM     88  O   UNL A   1      47.326  21.926  34.806  1.00  0.00    -0.744 OA
ENDBRANCH  82  85
ENDBRANCH  55  78
ENDBRANCH  29  30
ENDBRANCH  21  24
ENDBRANCH  19  20
ENDBRANCH  18  19
ENDBRANCH   1  18
TORSDOF 17
ENDMDL
