MODEL 1
REMARK VINA RESULT:     -11.6      0.000      0.000
REMARK SMILES CC(C)Cc1s/c(=N/C(=O)CCC(=O)Nc2nccs2)[nH]c1C(=O)NCCCCNC(=O)c1ccc(-c2c3nc(c(-c4cccc(S(=O)(=O)[O-])c4F)c4ccc([nH]4)c(-c4cccc(S(=O)(=O)[O-])c4F)c4nc(c(-c5cccc(S(=O)(=O)[O-])c5F)c5ccc2[nH]5)C=C4)C=C3)cc1
REMARK SMILES IDX 26 1 25 2 23 3 24 4 22 6 5 7 6 8 7 9 21 10 8 11 4 13 2 14
REMARK SMILES IDX 1 15 3 16 9 17 10 18 11 19 12 20 13 21 14 22 15 23 16 25
REMARK SMILES IDX 17 26 20 27 18 28 19 29 27 30 28 31 29 32 30 33 31 34 32 36
REMARK SMILES IDX 33 37 34 38 95 39 35 40 94 41 36 42 37 43 38 44 88 45 39 46
REMARK SMILES IDX 93 47 87 48 89 49 40 50 92 51 86 52 85 53 41 55 73 56 53 57
REMARK SMILES IDX 72 58 54 59 57 60 71 61 90 62 55 63 56 64 70 66 91 67 58 68
REMARK SMILES IDX 42 69 43 70 51 71 44 72 46 73 52 74 45 75 47 76 48 77 49 78
REMARK SMILES IDX 50 79 74 80 75 81 83 82 76 83 78 84 84 85 77 86 79 87 80 88
REMARK SMILES IDX 81 89 82 90 59 91 60 92 68 93 61 94 63 95 69 96 62 97 64 98
REMARK SMILES IDX 65 99 66 100 67 101
REMARK H PARENT 25 5 21 12 15 24 30 35 89 54 57 65
REMARK Flexibility Score: inf
ROOT
ATOM      1  C   UNL A   1      33.290  28.699  26.369  1.00  0.00     0.116 C 
ENDROOT
BRANCH   1   2
ATOM      2  N   UNL A   1      33.822  29.035  25.064  1.00  0.00    -0.351 N 
ATOM      3  C   UNL A   1      33.399  28.727  23.811  1.00  0.00     0.268 C 
ATOM      4  O   UNL A   1      34.004  29.219  22.854  1.00  0.00    -0.268 OA
ATOM      5  H   UNL A   1      34.637  29.586  25.091  1.00  0.00     0.163 HD
BRANCH   3   6
ATOM      6  C   UNL A   1      32.162  27.926  23.523  1.00  0.00     0.119 A 
ATOM      7  C   UNL A   1      30.846  28.238  23.586  1.00  0.00     0.038 A 
ATOM      8  S   UNL A   1      29.856  26.794  23.224  1.00  0.00    -0.101 S 
ATOM      9  C   UNL A   1      31.291  25.750  23.268  1.00  0.00     0.190 A 
ATOM     10  N   UNL A   1      32.380  26.562  23.349  1.00  0.00    -0.326 N 
ATOM     11  N   UNL A   1      31.106  24.485  23.298  1.00  0.00    -0.185 NA
ATOM     12  H   UNL A   1      33.292  26.196  23.287  1.00  0.00     0.169 HD
BRANCH   7  13
ATOM     13  C   UNL A   1      30.082  29.487  23.922  1.00  0.00     0.052 C 
BRANCH  13  14
ATOM     14  C   UNL A   1      28.896  29.902  23.014  1.00  0.00    -0.012 C 
ATOM     15  C   UNL A   1      28.030  31.065  23.496  1.00  0.00     0.008 C 
ATOM     16  C   UNL A   1      29.414  30.210  21.601  1.00  0.00     0.008 C 
ENDBRANCH  13  14
ENDBRANCH   7  13
BRANCH  11  17
ATOM     17  C   UNL A   1      32.193  23.685  23.521  1.00  0.00     0.248 C 
ATOM     18  O   UNL A   1      33.336  23.916  23.136  1.00  0.00    -0.273 OA
BRANCH  17  19
ATOM     19  C   UNL A   1      31.841  22.408  24.261  1.00  0.00     0.112 C 
BRANCH  19  20
ATOM     20  C   UNL A   1      32.697  21.199  23.908  1.00  0.00     0.110 C 
BRANCH  20  21
ATOM     21  C   UNL A   1      32.173  20.381  22.742  1.00  0.00     0.226 C 
ATOM     22  O   UNL A   1      31.740  20.956  21.736  1.00  0.00    -0.275 OA
ATOM     23  N   UNL A   1      32.201  19.021  22.746  1.00  0.00    -0.302 N 
ATOM     24  H   UNL A   1      31.948  18.572  21.907  1.00  0.00     0.172 HD
BRANCH  23  25
ATOM     25  C   UNL A   1      32.540  18.214  23.792  1.00  0.00     0.189 A 
ATOM     26  N   UNL A   1      32.093  18.232  25.020  1.00  0.00    -0.229 NA
ATOM     27  S   UNL A   1      33.659  16.986  23.408  1.00  0.00    -0.105 S 
ATOM     28  C   UNL A   1      32.642  17.179  25.722  1.00  0.00     0.125 A 
ATOM     29  C   UNL A   1      33.536  16.403  25.018  1.00  0.00     0.088 A 
ENDBRANCH  23  25
ENDBRANCH  20  21
ENDBRANCH  19  20
ENDBRANCH  17  19
ENDBRANCH  11  17
ENDBRANCH   3   6
ENDBRANCH   1   2
BRANCH   1  30
ATOM     30  C   UNL A   1      33.588  29.809  27.369  1.00  0.00     0.023 C 
BRANCH  30  31
ATOM     31  C   UNL A   1      32.785  31.091  27.238  1.00  0.00     0.023 C 
BRANCH  31  32
ATOM     32  C   UNL A   1      33.654  32.331  27.214  1.00  0.00     0.116 C 
BRANCH  32  33
ATOM     33  N   UNL A   1      32.934  33.558  27.555  1.00  0.00    -0.352 N 
ATOM     34  C   UNL A   1      33.183  34.444  28.579  1.00  0.00     0.251 C 
ATOM     35  H   UNL A   1      32.169  33.778  26.975  1.00  0.00     0.163 HD
ATOM     36  O   UNL A   1      32.453  35.407  28.763  1.00  0.00    -0.269 OA
BRANCH  34  37
ATOM     37  C   UNL A   1      34.312  34.164  29.488  1.00  0.00     0.039 A 
ATOM     38  C   UNL A   1      34.079  33.418  30.644  1.00  0.00     0.014 A 
ATOM     39  C   UNL A   1      35.608  34.523  29.119  1.00  0.00     0.014 A 
ATOM     40  C   UNL A   1      35.165  32.945  31.380  1.00  0.00     0.010 A 
ATOM     41  C   UNL A   1      36.682  33.950  29.779  1.00  0.00     0.010 A 
ATOM     42  C   UNL A   1      36.474  33.160  30.920  1.00  0.00    -0.014 A 
BRANCH  42  43
ATOM     43  C   UNL A   1      37.656  32.578  31.602  1.00  0.00     0.031 A 
ATOM     44  C   UNL A   1      38.416  31.463  30.935  1.00  0.00     0.074 A 
ATOM     45  C   UNL A   1      37.956  32.953  32.862  1.00  0.00     0.049 A 
ATOM     46  N   UNL A   1      39.375  30.718  31.414  1.00  0.00    -0.248 NA
ATOM     47  C   UNL A   1      38.004  31.102  29.565  1.00  0.00     0.031 C 
ATOM     48  C   UNL A   1      37.224  33.945  33.653  1.00  0.00     0.029 A 
ATOM     49  N   UNL A   1      38.942  32.517  33.711  1.00  0.00    -0.354 N 
ATOM     50  C   UNL A   1      39.632  29.764  30.437  1.00  0.00     0.074 A 
ATOM     51  C   UNL A   1      38.701  29.996  29.358  1.00  0.00     0.031 C 
ATOM     52  C   UNL A   1      37.794  34.054  34.863  1.00  0.00     0.029 A 
ATOM     53  C   UNL A   1      38.913  33.121  34.948  1.00  0.00     0.049 A 
ATOM     54  H   UNL A   1      39.607  31.837  33.460  1.00  0.00     0.167 HD
ATOM     55  C   UNL A   1      40.589  28.807  30.419  1.00  0.00     0.034 A 
ATOM     56  C   UNL A   1      39.702  32.940  36.025  1.00  0.00     0.034 A 
ATOM     57  C   UNL A   1      41.578  28.655  31.449  1.00  0.00     0.049 A 
ATOM     58  C   UNL A   1      40.832  31.949  35.935  1.00  0.00     0.074 A 
ATOM     59  C   UNL A   1      42.670  27.809  31.475  1.00  0.00     0.029 A 
ATOM     60  N   UNL A   1      41.601  29.381  32.630  1.00  0.00    -0.354 N 
ATOM     61  N   UNL A   1      41.164  31.168  34.935  1.00  0.00    -0.248 NA
ATOM     62  C   UNL A   1      41.716  31.838  37.103  1.00  0.00     0.031 C 
ATOM     63  C   UNL A   1      43.357  28.025  32.673  1.00  0.00     0.029 A 
ATOM     64  C   UNL A   1      42.694  29.007  33.390  1.00  0.00     0.049 A 
ATOM     65  H   UNL A   1      40.938  30.061  32.888  1.00  0.00     0.167 HD
ATOM     66  C   UNL A   1      42.311  30.497  35.339  1.00  0.00     0.074 A 
ATOM     67  C   UNL A   1      42.629  30.981  36.668  1.00  0.00     0.031 C 
ATOM     68  C   UNL A   1      43.025  29.551  34.682  1.00  0.00     0.034 A 
BRANCH  55  69
ATOM     69  C   UNL A   1      40.662  27.916  29.209  1.00  0.00     0.023 A 
ATOM     70  C   UNL A   1      39.798  26.805  29.115  1.00  0.00     0.012 A 
ATOM     71  C   UNL A   1      41.554  28.188  28.154  1.00  0.00     0.148 A 
ATOM     72  C   UNL A   1      39.849  25.955  28.012  1.00  0.00     0.002 A 
ATOM     73  C   UNL A   1      41.567  27.362  27.036  1.00  0.00     0.091 A 
ATOM     74  F   UNL A   1      42.386  29.233  28.272  1.00  0.00    -0.205 F 
ATOM     75  C   UNL A   1      40.725  26.239  26.969  1.00  0.00     0.022 A 
BRANCH  73  76
ATOM     76  S   UNL A   1      42.607  27.685  25.608  1.00  0.00     0.127 S 
ATOM     77  O   UNL A   1      43.942  27.664  26.203  1.00  0.00    -0.237 OA
ATOM     78  O   UNL A   1      42.308  26.544  24.742  1.00  0.00    -0.237 OA
ATOM     79  O   UNL A   1      42.173  28.972  25.083  1.00  0.00    -0.744 OA
ENDBRANCH  73  76
ENDBRANCH  55  69
BRANCH  56  80
ATOM     80  C   UNL A   1      39.513  33.785  37.239  1.00  0.00     0.023 A 
ATOM     81  C   UNL A   1      39.955  35.122  37.217  1.00  0.00     0.012 A 
ATOM     82  C   UNL A   1      38.867  33.296  38.390  1.00  0.00     0.148 A 
ATOM     83  C   UNL A   1      39.786  35.948  38.328  1.00  0.00     0.002 A 
ATOM     84  C   UNL A   1      38.654  34.139  39.476  1.00  0.00     0.091 A 
ATOM     85  F   UNL A   1      38.462  32.017  38.399  1.00  0.00    -0.205 F 
ATOM     86  C   UNL A   1      39.127  35.461  39.453  1.00  0.00     0.022 A 
BRANCH  84  87
ATOM     87  S   UNL A   1      37.699  33.633  40.911  1.00  0.00     0.127 S 
ATOM     88  O   UNL A   1      36.447  33.197  40.300  1.00  0.00    -0.237 OA
ATOM     89  O   UNL A   1      38.522  32.558  41.465  1.00  0.00    -0.237 OA
ATOM     90  O   UNL A   1      37.619  34.816  41.758  1.00  0.00    -0.744 OA
ENDBRANCH  84  87
ENDBRANCH  56  80
BRANCH  68  91
ATOM     91  C   UNL A   1      44.237  28.987  35.370  1.00  0.00     0.023 A 
ATOM     92  C   UNL A   1      45.492  29.596  35.171  1.00  0.00     0.012 A 
ATOM     93  C   UNL A   1      44.116  27.927  36.288  1.00  0.00     0.148 A 
ATOM     94  C   UNL A   1      46.613  29.143  35.862  1.00  0.00     0.002 A 
ATOM     95  C   UNL A   1      45.230  27.509  37.006  1.00  0.00     0.091 A 
ATOM     96  F   UNL A   1      42.916  27.350  36.446  1.00  0.00    -0.205 F 
ATOM     97  C   UNL A   1      46.481  28.110  36.788  1.00  0.00     0.022 A 
BRANCH  95  98
ATOM     98  S   UNL A   1      45.131  26.253  38.285  1.00  0.00     0.127 S 
ATOM     99  O   UNL A   1      44.461  25.161  37.581  1.00  0.00    -0.237 OA
ATOM    100  O   UNL A   1      46.540  26.008  38.593  1.00  0.00    -0.237 OA
ATOM    101  O   UNL A   1      44.374  26.854  39.376  1.00  0.00    -0.744 OA
ENDBRANCH  95  98
ENDBRANCH  68  91
ENDBRANCH  42  43
ENDBRANCH  34  37
ENDBRANCH  32  33
ENDBRANCH  31  32
ENDBRANCH  30  31
ENDBRANCH   1  30
TORSDOF 21
ENDMDL
MODEL 2
REMARK VINA RESULT:     -10.9      0.978      7.617
REMARK SMILES CC(C)Cc1s/c(=N/C(=O)CCC(=O)Nc2nccs2)[nH]c1C(=O)NCCCCNC(=O)c1ccc(-c2c3nc(c(-c4cccc(S(=O)(=O)[O-])c4F)c4ccc([nH]4)c(-c4cccc(S(=O)(=O)[O-])c4F)c4nc(c(-c5cccc(S(=O)(=O)[O-])c5F)c5ccc2[nH]5)C=C4)C=C3)cc1
REMARK SMILES IDX 26 1 25 2 23 3 24 4 22 6 5 7 6 8 7 9 21 10 8 11 4 13 2 14
REMARK SMILES IDX 1 15 3 16 9 17 10 18 11 19 12 20 13 21 14 22 15 23 16 25
REMARK SMILES IDX 17 26 20 27 18 28 19 29 27 30 28 31 29 32 30 33 31 34 32 36
REMARK SMILES IDX 33 37 34 38 95 39 35 40 94 41 36 42 37 43 38 44 88 45 39 46
REMARK SMILES IDX 93 47 87 48 89 49 40 50 92 51 86 52 85 53 41 55 73 56 53 57
REMARK SMILES IDX 72 58 54 59 57 60 71 61 90 62 55 63 56 64 70 66 91 67 58 68
REMARK SMILES IDX 42 69 43 70 51 71 44 72 46 73 52 74 45 75 47 76 48 77 49 78
REMARK SMILES IDX 50 79 74 80 75 81 83 82 76 83 78 84 84 85 77 86 79 87 80 88
REMARK SMILES IDX 81 89 82 90 59 91 60 92 68 93 61 94 63 95 69 96 62 97 64 98
REMARK SMILES IDX 65 99 66 100 67 101
REMARK H PARENT 25 5 21 12 15 24 30 35 89 54 57 65
REMARK Flexibility Score: inf
ROOT
ATOM      1  C   UNL A   1      32.738  29.232  25.988  1.00  0.00     0.116 C 
ENDROOT
BRANCH   1   2
ATOM      2  N   UNL A   1      33.704  29.276  24.909  1.00  0.00    -0.351 N 
ATOM      3  C   UNL A   1      33.743  28.646  23.708  1.00  0.00     0.268 C 
ATOM      4  O   UNL A   1      34.658  28.930  22.929  1.00  0.00    -0.268 OA
ATOM      5  H   UNL A   1      34.469  29.871  25.078  1.00  0.00     0.163 HD
BRANCH   3   6
ATOM      6  C   UNL A   1      32.670  27.718  23.218  1.00  0.00     0.119 A 
ATOM      7  C   UNL A   1      31.325  27.854  23.131  1.00  0.00     0.038 A 
ATOM      8  S   UNL A   1      30.590  26.325  22.564  1.00  0.00    -0.101 S 
ATOM      9  C   UNL A   1      32.138  25.473  22.730  1.00  0.00     0.190 A 
ATOM     10  N   UNL A   1      33.090  26.409  22.996  1.00  0.00    -0.326 N 
ATOM     11  N   UNL A   1      32.124  24.196  22.662  1.00  0.00    -0.185 NA
ATOM     12  H   UNL A   1      34.044  26.167  23.030  1.00  0.00     0.169 HD
BRANCH   7  13
ATOM     13  C   UNL A   1      30.364  28.967  23.439  1.00  0.00     0.052 C 
BRANCH  13  14
ATOM     14  C   UNL A   1      29.110  29.136  22.544  1.00  0.00    -0.012 C 
ATOM     15  C   UNL A   1      27.800  28.551  23.070  1.00  0.00     0.008 C 
ATOM     16  C   UNL A   1      28.905  30.624  22.223  1.00  0.00     0.008 C 
ENDBRANCH  13  14
ENDBRANCH   7  13
BRANCH  11  17
ATOM     17  C   UNL A   1      33.275  23.527  22.977  1.00  0.00     0.248 C 
ATOM     18  O   UNL A   1      34.412  23.899  22.698  1.00  0.00    -0.273 OA
BRANCH  17  19
ATOM     19  C   UNL A   1      33.015  22.203  23.671  1.00  0.00     0.112 C 
BRANCH  19  20
ATOM     20  C   UNL A   1      34.088  21.770  24.660  1.00  0.00     0.110 C 
BRANCH  20  21
ATOM     21  C   UNL A   1      33.547  21.192  25.955  1.00  0.00     0.226 C 
ATOM     22  O   UNL A   1      33.304  21.943  26.907  1.00  0.00    -0.275 OA
ATOM     23  N   UNL A   1      33.279  19.865  26.095  1.00  0.00    -0.302 N 
ATOM     24  H   UNL A   1      32.825  19.592  26.925  1.00  0.00     0.172 HD
BRANCH  23  25
ATOM     25  C   UNL A   1      33.573  18.873  25.207  1.00  0.00     0.189 A 
ATOM     26  N   UNL A   1      34.715  18.600  24.633  1.00  0.00    -0.229 NA
ATOM     27  S   UNL A   1      32.274  17.826  24.854  1.00  0.00    -0.105 S 
ATOM     28  C   UNL A   1      34.583  17.455  23.874  1.00  0.00     0.125 A 
ATOM     29  C   UNL A   1      33.321  16.904  23.854  1.00  0.00     0.088 A 
ENDBRANCH  23  25
ENDBRANCH  20  21
ENDBRANCH  19  20
ENDBRANCH  17  19
ENDBRANCH  11  17
ENDBRANCH   3   6
ENDBRANCH   1   2
BRANCH   1  30
ATOM     30  C   UNL A   1      33.195  30.103  27.151  1.00  0.00     0.023 C 
BRANCH  30  31
ATOM     31  C   UNL A   1      32.508  31.447  27.320  1.00  0.00     0.023 C 
BRANCH  31  32
ATOM     32  C   UNL A   1      33.482  32.605  27.371  1.00  0.00     0.116 C 
BRANCH  32  33
ATOM     33  N   UNL A   1      32.872  33.865  27.794  1.00  0.00    -0.352 N 
ATOM     34  C   UNL A   1      33.214  34.671  28.857  1.00  0.00     0.251 C 
ATOM     35  H   UNL A   1      32.116  34.179  27.245  1.00  0.00     0.163 HD
ATOM     36  O   UNL A   1      32.569  35.678  29.110  1.00  0.00    -0.269 OA
BRANCH  34  37
ATOM     37  C   UNL A   1      34.334  34.251  29.721  1.00  0.00     0.039 A 
ATOM     38  C   UNL A   1      34.064  33.458  30.838  1.00  0.00     0.014 A 
ATOM     39  C   UNL A   1      35.647  34.529  29.344  1.00  0.00     0.014 A 
ATOM     40  C   UNL A   1      35.124  32.859  31.520  1.00  0.00     0.010 A 
ATOM     41  C   UNL A   1      36.684  33.837  29.945  1.00  0.00     0.010 A 
ATOM     42  C   UNL A   1      36.437  32.999  31.042  1.00  0.00    -0.014 A 
BRANCH  42  43
ATOM     43  C   UNL A   1      37.581  32.288  31.662  1.00  0.00     0.031 A 
ATOM     44  C   UNL A   1      38.124  32.772  32.979  1.00  0.00     0.074 A 
ATOM     45  C   UNL A   1      38.209  31.306  30.983  1.00  0.00     0.049 A 
ATOM     46  N   UNL A   1      39.200  32.396  33.616  1.00  0.00    -0.248 NA
ATOM     47  C   UNL A   1      37.388  33.866  33.641  1.00  0.00     0.031 C 
ATOM     48  C   UNL A   1      37.842  30.824  29.649  1.00  0.00     0.029 A 
ATOM     49  N   UNL A   1      39.312  30.558  31.311  1.00  0.00    -0.354 N 
ATOM     50  C   UNL A   1      39.305  33.246  34.710  1.00  0.00     0.074 A 
ATOM     51  C   UNL A   1      38.211  34.186  34.628  1.00  0.00     0.031 C 
ATOM     52  C   UNL A   1      38.692  29.852  29.280  1.00  0.00     0.029 A 
ATOM     53  C   UNL A   1      39.682  29.661  30.335  1.00  0.00     0.049 A 
ATOM     54  H   UNL A   1      39.792  30.655  32.164  1.00  0.00     0.167 HD
ATOM     55  C   UNL A   1      40.206  33.220  35.719  1.00  0.00     0.034 A 
ATOM     56  C   UNL A   1      40.704  28.784  30.300  1.00  0.00     0.034 A 
ATOM     57  C   UNL A   1      41.224  32.216  35.847  1.00  0.00     0.049 A 
ATOM     58  C   UNL A   1      41.624  28.698  31.489  1.00  0.00     0.074 A 
ATOM     59  C   UNL A   1      42.107  32.014  36.891  1.00  0.00     0.029 A 
ATOM     60  N   UNL A   1      41.483  31.234  34.904  1.00  0.00    -0.354 N 
ATOM     61  N   UNL A   1      41.607  29.403  32.595  1.00  0.00    -0.248 NA
ATOM     62  C   UNL A   1      42.678  27.676  31.444  1.00  0.00     0.031 C 
ATOM     63  C   UNL A   1      42.900  30.906  36.580  1.00  0.00     0.029 A 
ATOM     64  C   UNL A   1      42.508  30.417  35.344  1.00  0.00     0.049 A 
ATOM     65  H   UNL A   1      41.007  31.133  34.048  1.00  0.00     0.167 HD
ATOM     66  C   UNL A   1      42.626  28.891  33.389  1.00  0.00     0.074 A 
ATOM     67  C   UNL A   1      43.225  27.800  32.646  1.00  0.00     0.031 C 
ATOM     68  C   UNL A   1      43.043  29.297  34.613  1.00  0.00     0.034 A 
BRANCH  55  69
ATOM     69  C   UNL A   1      40.069  34.255  36.803  1.00  0.00     0.023 A 
ATOM     70  C   UNL A   1      40.446  35.588  36.538  1.00  0.00     0.012 A 
ATOM     71  C   UNL A   1      39.544  33.923  38.067  1.00  0.00     0.148 A 
ATOM     72  C   UNL A   1      40.341  36.567  37.524  1.00  0.00     0.002 A 
ATOM     73  C   UNL A   1      39.401  34.915  39.031  1.00  0.00     0.091 A 
ATOM     74  F   UNL A   1      39.217  32.646  38.310  1.00  0.00    -0.205 F 
ATOM     75  C   UNL A   1      39.810  36.232  38.767  1.00  0.00     0.022 A 
BRANCH  73  76
ATOM     76  S   UNL A   1      38.658  34.601  40.636  1.00  0.00     0.127 S 
ATOM     77  O   UNL A   1      38.368  35.957  41.098  1.00  0.00    -0.237 OA
ATOM     78  O   UNL A   1      37.477  33.812  40.282  1.00  0.00    -0.237 OA
ATOM     79  O   UNL A   1      39.661  33.876  41.404  1.00  0.00    -0.744 OA
ENDBRANCH  73  76
ENDBRANCH  55  69
BRANCH  56  80
ATOM     80  C   UNL A   1      40.849  27.853  29.145  1.00  0.00     0.023 A 
ATOM     81  C   UNL A   1      40.059  26.687  29.104  1.00  0.00     0.012 A 
ATOM     82  C   UNL A   1      41.721  28.127  28.075  1.00  0.00     0.148 A 
ATOM     83  C   UNL A   1      40.156  25.796  28.034  1.00  0.00     0.002 A 
ATOM     84  C   UNL A   1      41.776  27.261  26.987  1.00  0.00     0.091 A 
ATOM     85  F   UNL A   1      42.475  29.234  28.135  1.00  0.00    -0.205 F 
ATOM     86  C   UNL A   1      41.006  26.088  26.972  1.00  0.00     0.022 A 
BRANCH  84  87
ATOM     87  S   UNL A   1      42.744  27.628  25.518  1.00  0.00     0.127 S 
ATOM     88  O   UNL A   1      42.108  28.850  25.036  1.00  0.00    -0.237 OA
ATOM     89  O   UNL A   1      44.086  27.808  26.071  1.00  0.00    -0.237 OA
ATOM     90  O   UNL A   1      42.606  26.456  24.663  1.00  0.00    -0.744 OA
ENDBRANCH  84  87
ENDBRANCH  56  80
BRANCH  68  91
ATOM     91  C   UNL A   1      44.185  28.551  35.245  1.00  0.00     0.023 A 
ATOM     92  C   UNL A   1      45.508  28.899  34.910  1.00  0.00     0.012 A 
ATOM     93  C   UNL A   1      43.950  27.584  36.240  1.00  0.00     0.148 A 
ATOM     94  C   UNL A   1      46.582  28.279  35.544  1.00  0.00     0.002 A 
ATOM     95  C   UNL A   1      45.026  27.000  36.899  1.00  0.00     0.091 A 
ATOM     96  F   UNL A   1      42.682  27.255  36.527  1.00  0.00    -0.205 F 
ATOM     97  C   UNL A   1      46.342  27.341  36.547  1.00  0.00     0.022 A 
BRANCH  95  98
ATOM     98  S   UNL A   1      44.807  25.857  38.265  1.00  0.00     0.127 S 
ATOM     99  O   UNL A   1      46.105  25.938  38.933  1.00  0.00    -0.237 OA
ATOM    100  O   UNL A   1      43.700  26.462  39.007  1.00  0.00    -0.237 OA
ATOM    101  O   UNL A   1      44.492  24.568  37.662  1.00  0.00    -0.744 OA
ENDBRANCH  95  98
ENDBRANCH  68  91
ENDBRANCH  42  43
ENDBRANCH  34  37
ENDBRANCH  32  33
ENDBRANCH  31  32
ENDBRANCH  30  31
ENDBRANCH   1  30
TORSDOF 21
ENDMDL
MODEL 3
REMARK VINA RESULT:     -10.9      5.716      9.837
REMARK SMILES CC(C)Cc1s/c(=N/C(=O)CCC(=O)Nc2nccs2)[nH]c1C(=O)NCCCCNC(=O)c1ccc(-c2c3nc(c(-c4cccc(S(=O)(=O)[O-])c4F)c4ccc([nH]4)c(-c4cccc(S(=O)(=O)[O-])c4F)c4nc(c(-c5cccc(S(=O)(=O)[O-])c5F)c5ccc2[nH]5)C=C4)C=C3)cc1
REMARK SMILES IDX 26 1 25 2 23 3 24 4 22 6 5 7 6 8 7 9 21 10 8 11 4 13 2 14
REMARK SMILES IDX 1 15 3 16 9 17 10 18 11 19 12 20 13 21 14 22 15 23 16 25
REMARK SMILES IDX 17 26 20 27 18 28 19 29 27 30 28 31 29 32 30 33 31 34 32 36
REMARK SMILES IDX 33 37 34 38 95 39 35 40 94 41 36 42 37 43 38 44 88 45 39 46
REMARK SMILES IDX 93 47 87 48 89 49 40 50 92 51 86 52 85 53 41 55 73 56 53 57
REMARK SMILES IDX 72 58 54 59 57 60 71 61 90 62 55 63 56 64 70 66 91 67 58 68
REMARK SMILES IDX 42 69 43 70 51 71 44 72 46 73 52 74 45 75 47 76 48 77 49 78
REMARK SMILES IDX 50 79 74 80 75 81 83 82 76 83 78 84 84 85 77 86 79 87 80 88
REMARK SMILES IDX 81 89 82 90 59 91 60 92 68 93 61 94 63 95 69 96 62 97 64 98
REMARK SMILES IDX 65 99 66 100 67 101
REMARK H PARENT 25 5 21 12 15 24 30 35 89 54 57 65
REMARK Flexibility Score: inf
ROOT
ATOM      1  C   UNL A   1      36.184  23.409  25.165  1.00  0.00     0.116 C 
ENDROOT
BRANCH   1   2
ATOM      2  N   UNL A   1      35.716  23.362  23.794  1.00  0.00    -0.351 N 
ATOM      3  C   UNL A   1      34.466  23.291  23.270  1.00  0.00     0.268 C 
ATOM      4  O   UNL A   1      34.344  23.347  22.043  1.00  0.00    -0.268 OA
ATOM      5  H   UNL A   1      36.435  23.386  23.122  1.00  0.00     0.163 HD
BRANCH   3   6
ATOM      6  C   UNL A   1      33.215  23.277  24.099  1.00  0.00     0.119 A 
ATOM      7  C   UNL A   1      32.347  22.285  24.413  1.00  0.00     0.038 A 
ATOM      8  S   UNL A   1      30.976  22.945  25.353  1.00  0.00    -0.101 S 
ATOM      9  C   UNL A   1      31.512  24.608  25.041  1.00  0.00     0.190 A 
ATOM     10  N   UNL A   1      32.736  24.536  24.451  1.00  0.00    -0.326 N 
ATOM     11  N   UNL A   1      30.700  25.557  25.320  1.00  0.00    -0.185 NA
ATOM     12  H   UNL A   1      33.266  25.349  24.279  1.00  0.00     0.169 HD
BRANCH   7  13
ATOM     13  C   UNL A   1      32.286  20.815  24.112  1.00  0.00     0.052 C 
BRANCH  13  14
ATOM     14  C   UNL A   1      33.090  19.838  25.008  1.00  0.00    -0.012 C 
ATOM     15  C   UNL A   1      33.186  20.181  26.494  1.00  0.00     0.008 C 
ATOM     16  C   UNL A   1      32.526  18.417  24.854  1.00  0.00     0.008 C 
ENDBRANCH  13  14
ENDBRANCH   7  13
BRANCH  11  17
ATOM     17  C   UNL A   1      31.029  26.820  24.910  1.00  0.00     0.248 C 
ATOM     18  O   UNL A   1      31.443  27.719  25.638  1.00  0.00    -0.273 OA
BRANCH  17  19
ATOM     19  C   UNL A   1      30.769  27.045  23.432  1.00  0.00     0.112 C 
BRANCH  19  20
ATOM     20  C   UNL A   1      29.931  28.272  23.102  1.00  0.00     0.110 C 
BRANCH  20  21
ATOM     21  C   UNL A   1      28.432  28.045  23.175  1.00  0.00     0.226 C 
ATOM     22  O   UNL A   1      27.996  26.979  23.627  1.00  0.00    -0.275 OA
ATOM     23  N   UNL A   1      27.539  28.998  22.795  1.00  0.00    -0.302 N 
ATOM     24  H   UNL A   1      26.591  28.813  22.981  1.00  0.00     0.172 HD
BRANCH  23  25
ATOM     25  C   UNL A   1      27.821  30.183  22.182  1.00  0.00     0.189 A 
ATOM     26  N   UNL A   1      28.005  30.424  20.910  1.00  0.00    -0.229 NA
ATOM     27  S   UNL A   1      27.879  31.529  23.227  1.00  0.00    -0.105 S 
ATOM     28  C   UNL A   1      28.177  31.781  20.722  1.00  0.00     0.125 A 
ATOM     29  C   UNL A   1      28.161  32.541  21.870  1.00  0.00     0.088 A 
ENDBRANCH  23  25
ENDBRANCH  20  21
ENDBRANCH  19  20
ENDBRANCH  17  19
ENDBRANCH  11  17
ENDBRANCH   3   6
ENDBRANCH   1   2
BRANCH   1  30
ATOM     30  C   UNL A   1      36.098  22.031  25.807  1.00  0.00     0.023 C 
BRANCH  30  31
ATOM     31  C   UNL A   1      36.581  20.852  24.979  1.00  0.00     0.023 C 
BRANCH  31  32
ATOM     32  C   UNL A   1      38.057  20.930  24.649  1.00  0.00     0.116 C 
BRANCH  32  33
ATOM     33  N   UNL A   1      38.894  20.093  25.509  1.00  0.00    -0.352 N 
ATOM     34  C   UNL A   1      39.994  20.456  26.253  1.00  0.00     0.251 C 
ATOM     35  H   UNL A   1      38.634  19.144  25.563  1.00  0.00     0.163 HD
ATOM     36  O   UNL A   1      40.621  19.620  26.889  1.00  0.00    -0.269 OA
BRANCH  34  37
ATOM     37  C   UNL A   1      40.436  21.863  26.208  1.00  0.00     0.039 A 
ATOM     38  C   UNL A   1      39.511  22.870  26.485  1.00  0.00     0.014 A 
ATOM     39  C   UNL A   1      41.786  22.163  26.028  1.00  0.00     0.014 A 
ATOM     40  C   UNL A   1      39.963  24.175  26.681  1.00  0.00     0.010 A 
ATOM     41  C   UNL A   1      42.245  23.431  26.344  1.00  0.00     0.010 A 
ATOM     42  C   UNL A   1      41.340  24.452  26.669  1.00  0.00    -0.014 A 
BRANCH  42  43
ATOM     43  C   UNL A   1      41.876  25.798  26.988  1.00  0.00     0.031 A 
ATOM     44  C   UNL A   1      43.247  26.180  26.498  1.00  0.00     0.074 A 
ATOM     45  C   UNL A   1      41.197  26.611  27.821  1.00  0.00     0.049 A 
ATOM     46  N   UNL A   1      43.962  27.234  26.785  1.00  0.00    -0.248 NA
ATOM     47  C   UNL A   1      43.928  25.219  25.609  1.00  0.00     0.031 C 
ATOM     48  C   UNL A   1      39.909  26.305  28.448  1.00  0.00     0.029 A 
ATOM     49  N   UNL A   1      41.514  27.854  28.311  1.00  0.00    -0.354 N 
ATOM     50  C   UNL A   1      45.191  27.033  26.172  1.00  0.00     0.074 A 
ATOM     51  C   UNL A   1      45.144  25.737  25.533  1.00  0.00     0.031 C 
ATOM     52  C   UNL A   1      39.538  27.336  29.224  1.00  0.00     0.029 A 
ATOM     53  C   UNL A   1      40.572  28.364  29.176  1.00  0.00     0.049 A 
ATOM     54  H   UNL A   1      42.337  28.334  28.066  1.00  0.00     0.167 HD
ATOM     55  C   UNL A   1      46.252  27.870  26.106  1.00  0.00     0.034 A 
ATOM     56  C   UNL A   1      40.550  29.530  29.850  1.00  0.00     0.034 A 
ATOM     57  C   UNL A   1      46.249  29.197  26.653  1.00  0.00     0.049 A 
ATOM     58  C   UNL A   1      41.692  30.493  29.667  1.00  0.00     0.074 A 
ATOM     59  C   UNL A   1      47.215  30.179  26.534  1.00  0.00     0.029 A 
ATOM     60  N   UNL A   1      45.219  29.735  27.408  1.00  0.00    -0.354 N 
ATOM     61  N   UNL A   1      42.779  30.353  28.946  1.00  0.00    -0.248 NA
ATOM     62  C   UNL A   1      41.592  31.786  30.358  1.00  0.00     0.031 C 
ATOM     63  C   UNL A   1      46.767  31.313  27.218  1.00  0.00     0.029 A 
ATOM     64  C   UNL A   1      45.521  31.037  27.758  1.00  0.00     0.049 A 
ATOM     65  H   UNL A   1      44.394  29.259  27.658  1.00  0.00     0.167 HD
ATOM     66  C   UNL A   1      43.477  31.548  29.071  1.00  0.00     0.074 A 
ATOM     67  C   UNL A   1      42.677  32.410  29.920  1.00  0.00     0.031 C 
ATOM     68  C   UNL A   1      44.678  31.896  28.550  1.00  0.00     0.034 A 
BRANCH  55  69
ATOM     69  C   UNL A   1      47.463  27.404  25.344  1.00  0.00     0.023 A 
ATOM     70  C   UNL A   1      48.410  26.578  25.986  1.00  0.00     0.012 A 
ATOM     71  C   UNL A   1      47.654  27.751  23.993  1.00  0.00     0.148 A 
ATOM     72  C   UNL A   1      49.546  26.139  25.311  1.00  0.00     0.002 A 
ATOM     73  C   UNL A   1      48.767  27.272  23.312  1.00  0.00     0.091 A 
ATOM     74  F   UNL A   1      46.758  28.558  23.406  1.00  0.00    -0.205 F 
ATOM     75  C   UNL A   1      49.720  26.477  23.972  1.00  0.00     0.022 A 
BRANCH  73  76
ATOM     76  S   UNL A   1      49.043  27.590  21.566  1.00  0.00     0.127 S 
ATOM     77  O   UNL A   1      47.748  27.226  20.991  1.00  0.00    -0.237 OA
ATOM     78  O   UNL A   1      49.333  29.024  21.555  1.00  0.00    -0.237 OA
ATOM     79  O   UNL A   1      50.162  26.743  21.179  1.00  0.00    -0.744 OA
ENDBRANCH  73  76
ENDBRANCH  55  69
BRANCH  56  80
ATOM     80  C   UNL A   1      39.363  29.891  30.677  1.00  0.00     0.023 A 
ATOM     81  C   UNL A   1      39.260  29.381  31.985  1.00  0.00     0.012 A 
ATOM     82  C   UNL A   1      38.365  30.762  30.201  1.00  0.00     0.148 A 
ATOM     83  C   UNL A   1      38.171  29.706  32.795  1.00  0.00     0.002 A 
ATOM     84  C   UNL A   1      37.308  31.124  31.030  1.00  0.00     0.091 A 
ATOM     85  F   UNL A   1      38.471  31.230  28.948  1.00  0.00    -0.205 F 
ATOM     86  C   UNL A   1      37.201  30.585  32.322  1.00  0.00     0.022 A 
BRANCH  84  87
ATOM     87  S   UNL A   1      36.087  32.351  30.549  1.00  0.00     0.127 S 
ATOM     88  O   UNL A   1      35.272  31.606  29.594  1.00  0.00    -0.237 OA
ATOM     89  O   UNL A   1      35.430  32.648  31.822  1.00  0.00    -0.237 OA
ATOM     90  O   UNL A   1      36.854  33.464  30.002  1.00  0.00    -0.744 OA
ENDBRANCH  84  87
ENDBRANCH  56  80
BRANCH  68  91
ATOM     91  C   UNL A   1      45.200  33.273  28.856  1.00  0.00     0.023 A 
ATOM     92  C   UNL A   1      46.104  33.449  29.922  1.00  0.00     0.012 A 
ATOM     93  C   UNL A   1      44.878  34.365  28.029  1.00  0.00     0.148 A 
ATOM     94  C   UNL A   1      46.664  34.699  30.171  1.00  0.00     0.002 A 
ATOM     95  C   UNL A   1      45.474  35.599  28.257  1.00  0.00     0.091 A 
ATOM     96  F   UNL A   1      43.999  34.177  27.032  1.00  0.00    -0.205 F 
ATOM     97  C   UNL A   1      46.361  35.770  29.332  1.00  0.00     0.022 A 
BRANCH  95  98
ATOM     98  S   UNL A   1      45.214  37.005  27.171  1.00  0.00     0.127 S 
ATOM     99  O   UNL A   1      46.209  36.764  26.128  1.00  0.00    -0.237 OA
ATOM    100  O   UNL A   1      43.826  36.820  26.745  1.00  0.00    -0.237 OA
ATOM    101  O   UNL A   1      45.439  38.190  27.990  1.00  0.00    -0.744 OA
ENDBRANCH  95  98
ENDBRANCH  68  91
ENDBRANCH  42  43
ENDBRANCH  34  37
ENDBRANCH  32  33
ENDBRANCH  31  32
ENDBRANCH  30  31
ENDBRANCH   1  30
TORSDOF 21
ENDMDL
