MODEL 1
REMARK VINA RESULT:     -12.1      0.000      0.000
REMARK SMILES CC1(C)CCSC[C@@]1(Nc1ccccc1Br)C(=O)NCCCCNC(=O)c1ccc(-c2c3nc(c(-c4cccc(S(=O)(=O)[O-])c4F)c4ccc([nH]4)c(-c4cccc(S(=O)(=O)[O-])c4F)c4nc(c(-c5cccc(S(=O)(=O)[O-])c5F)c5ccc2[nH]5)C=C4)C=C3)cc1
REMARK SMILES IDX 22 1 21 2 20 3 19 4 17 5 18 6 8 8 1 9 2 10 3 11 4 12 5 13
REMARK SMILES IDX 7 14 6 15 9 16 10 18 11 19 15 20 12 21 14 22 16 23 13 24
REMARK SMILES IDX 23 25 24 26 25 27 26 29 27 30 28 31 89 32 29 33 88 34 30 35
REMARK SMILES IDX 31 36 32 37 82 38 33 39 87 40 81 41 83 42 34 43 86 44 80 45
REMARK SMILES IDX 79 46 35 48 67 49 47 50 66 51 48 52 51 53 65 54 84 55 49 56
REMARK SMILES IDX 50 57 64 59 85 60 52 61 36 62 37 63 45 64 38 65 40 66 46 67
REMARK SMILES IDX 39 68 41 69 42 70 43 71 44 72 68 73 69 74 77 75 70 76 72 77
REMARK SMILES IDX 78 78 71 79 73 80 74 81 75 82 76 83 53 84 54 85 62 86 55 87
REMARK SMILES IDX 57 88 63 89 56 90 58 91 59 92 60 93 61 94
REMARK H PARENT 19 7 9 17 24 28 83 47 51 58
REMARK Flexibility Score: inf
ROOT
ATOM      1  C   UNL A   1      31.576  29.634  26.337  1.00  0.00     0.023 C 
ENDROOT
BRANCH   1   2
ATOM      2  C   UNL A   1      31.793  28.504  27.340  1.00  0.00     0.023 C 
BRANCH   2   3
ATOM      3  C   UNL A   1      32.338  27.212  26.734  1.00  0.00     0.116 C 
BRANCH   3   4
ATOM      4  N   UNL A   1      31.408  26.114  26.873  1.00  0.00    -0.354 N 
ATOM      5  C   UNL A   1      31.212  24.948  26.199  1.00  0.00     0.247 C 
ATOM      6  O   UNL A   1      30.299  24.262  26.681  1.00  0.00    -0.272 OA
ATOM      7  H   UNL A   1      30.777  26.238  27.620  1.00  0.00     0.163 HD
BRANCH   5   8
ATOM      8  C   UNL A   1      32.029  24.473  24.919  1.00  0.00     0.131 C 
ATOM      9  C   UNL A   1      33.541  23.096  26.585  1.00  0.00     0.014 C 
ATOM     10  C   UNL A   1      33.538  24.068  25.370  1.00  0.00    -0.002 C 
ATOM     11  C   UNL A   1      34.382  25.313  25.764  1.00  0.00     0.014 C 
ATOM     12  C   UNL A   1      34.345  23.382  24.220  1.00  0.00     0.020 C 
ATOM     13  C   UNL A   1      33.746  22.100  23.670  1.00  0.00     0.070 C 
ATOM     14  C   UNL A   1      31.331  23.233  24.289  1.00  0.00     0.108 C 
ATOM     15  S   UNL A   1      32.176  22.453  22.868  1.00  0.00    -0.159 SA
BRANCH   8  16
ATOM     16  N   UNL A   1      32.179  25.550  23.873  1.00  0.00    -0.369 N 
ATOM     17  H   UNL A   1      33.024  25.582  23.368  1.00  0.00     0.161 HD
BRANCH  16  18
ATOM     18  C   UNL A   1      31.210  26.503  23.568  1.00  0.00     0.049 A 
ATOM     19  C   UNL A   1      29.857  26.139  23.689  1.00  0.00     0.027 A 
ATOM     20  C   UNL A   1      31.494  27.825  23.181  1.00  0.00     0.041 A 
ATOM     21  C   UNL A   1      28.829  27.068  23.503  1.00  0.00     0.002 A 
ATOM     22  C   UNL A   1      30.464  28.759  23.001  1.00  0.00     0.018 A 
ATOM     23  Br  UNL A   1      33.257  28.403  22.768  1.00  0.00    -0.049 Br
ATOM     24  C   UNL A   1      29.134  28.384  23.174  1.00  0.00     0.001 A 
ENDBRANCH  16  18
ENDBRANCH   8  16
ENDBRANCH   5   8
ENDBRANCH   3   4
ENDBRANCH   2   3
ENDBRANCH   1   2
BRANCH   1  25
ATOM     25  C   UNL A   1      32.759  30.581  26.156  1.00  0.00     0.116 C 
BRANCH  25  26
ATOM     26  N   UNL A   1      32.564  31.897  26.735  1.00  0.00    -0.352 N 
ATOM     27  C   UNL A   1      33.446  32.580  27.565  1.00  0.00     0.251 C 
ATOM     28  H   UNL A   1      31.720  32.353  26.517  1.00  0.00     0.163 HD
ATOM     29  O   UNL A   1      33.176  33.668  28.027  1.00  0.00    -0.269 OA
BRANCH  27  30
ATOM     30  C   UNL A   1      34.710  31.891  27.897  1.00  0.00     0.039 A 
ATOM     31  C   UNL A   1      35.872  32.652  28.018  1.00  0.00     0.014 A 
ATOM     32  C   UNL A   1      34.684  30.543  28.252  1.00  0.00     0.014 A 
ATOM     33  C   UNL A   1      37.004  32.074  28.594  1.00  0.00     0.010 A 
ATOM     34  C   UNL A   1      35.793  29.987  28.876  1.00  0.00     0.010 A 
ATOM     35  C   UNL A   1      36.953  30.755  29.074  1.00  0.00    -0.014 A 
BRANCH  35  36
ATOM     36  C   UNL A   1      38.077  30.165  29.839  1.00  0.00     0.031 A 
ATOM     37  C   UNL A   1      38.344  30.620  31.243  1.00  0.00     0.074 A 
ATOM     38  C   UNL A   1      38.924  29.316  29.223  1.00  0.00     0.049 A 
ATOM     39  N   UNL A   1      39.339  30.313  32.032  1.00  0.00    -0.248 NA
ATOM     40  C   UNL A   1      37.381  31.569  31.828  1.00  0.00     0.031 C 
ATOM     41  C   UNL A   1      38.810  28.864  27.834  1.00  0.00     0.029 A 
ATOM     42  N   UNL A   1      40.067  28.706  29.676  1.00  0.00    -0.354 N 
ATOM     43  C   UNL A   1      39.147  31.056  33.188  1.00  0.00     0.074 A 
ATOM     44  C   UNL A   1      37.952  31.849  32.991  1.00  0.00     0.031 C 
ATOM     45  C   UNL A   1      39.840  28.049  27.550  1.00  0.00     0.029 A 
ATOM     46  C   UNL A   1      40.698  27.939  28.725  1.00  0.00     0.049 A 
ATOM     47  H   UNL A   1      40.403  28.809  30.595  1.00  0.00     0.167 HD
ATOM     48  C   UNL A   1      39.878  31.053  34.326  1.00  0.00     0.034 A 
ATOM     49  C   UNL A   1      41.842  27.229  28.794  1.00  0.00     0.034 A 
ATOM     50  C   UNL A   1      41.025  30.215  34.543  1.00  0.00     0.049 A 
ATOM     51  C   UNL A   1      42.610  27.208  30.087  1.00  0.00     0.074 A 
ATOM     52  C   UNL A   1      41.773  30.063  35.696  1.00  0.00     0.029 A 
ATOM     53  N   UNL A   1      41.584  29.381  33.588  1.00  0.00    -0.354 N 
ATOM     54  N   UNL A   1      42.324  27.796  31.224  1.00  0.00    -0.248 NA
ATOM     55  C   UNL A   1      43.844  26.408  30.118  1.00  0.00     0.031 C 
ATOM     56  C   UNL A   1      42.785  29.132  35.438  1.00  0.00     0.029 A 
ATOM     57  C   UNL A   1      42.669  28.711  34.123  1.00  0.00     0.049 A 
ATOM     58  H   UNL A   1      41.257  29.281  32.665  1.00  0.00     0.167 HD
ATOM     59  C   UNL A   1      43.325  27.418  32.110  1.00  0.00     0.074 A 
ATOM     60  C   UNL A   1      44.215  26.533  31.385  1.00  0.00     0.031 C 
ATOM     61  C   UNL A   1      43.506  27.787  33.402  1.00  0.00     0.034 A 
BRANCH  48  62
ATOM     62  C   UNL A   1      39.404  31.924  35.455  1.00  0.00     0.023 A 
ATOM     63  C   UNL A   1      38.496  31.391  36.391  1.00  0.00     0.012 A 
ATOM     64  C   UNL A   1      39.878  33.240  35.617  1.00  0.00     0.148 A 
ATOM     65  C   UNL A   1      38.044  32.162  37.459  1.00  0.00     0.002 A 
ATOM     66  C   UNL A   1      39.447  33.993  36.704  1.00  0.00     0.091 A 
ATOM     67  F   UNL A   1      40.719  33.737  34.699  1.00  0.00    -0.205 F 
ATOM     68  C   UNL A   1      38.526  33.458  37.622  1.00  0.00     0.022 A 
BRANCH  66  69
ATOM     69  S   UNL A   1      40.054  35.651  37.026  1.00  0.00     0.127 S 
ATOM     70  O   UNL A   1      39.384  35.972  38.284  1.00  0.00    -0.237 OA
ATOM     71  O   UNL A   1      41.499  35.439  37.141  1.00  0.00    -0.237 OA
ATOM     72  O   UNL A   1      39.653  36.450  35.875  1.00  0.00    -0.744 OA
ENDBRANCH  66  69
ENDBRANCH  48  62
BRANCH  49  73
ATOM     73  C   UNL A   1      42.283  26.412  27.630  1.00  0.00     0.023 A 
ATOM     74  C   UNL A   1      43.134  26.995  26.671  1.00  0.00     0.012 A 
ATOM     75  C   UNL A   1      41.902  25.065  27.477  1.00  0.00     0.148 A 
ATOM     76  C   UNL A   1      43.579  26.262  25.570  1.00  0.00     0.002 A 
ATOM     77  C   UNL A   1      42.386  24.325  26.402  1.00  0.00     0.091 A 
ATOM     78  F   UNL A   1      41.073  24.527  28.383  1.00  0.00    -0.205 F 
ATOM     79  C   UNL A   1      43.215  24.924  25.441  1.00  0.00     0.022 A 
BRANCH  77  80
ATOM     80  S   UNL A   1      42.055  22.565  26.259  1.00  0.00     0.127 S 
ATOM     81  O   UNL A   1      40.598  22.534  26.192  1.00  0.00    -0.237 OA
ATOM     82  O   UNL A   1      42.737  22.212  25.013  1.00  0.00    -0.237 OA
ATOM     83  O   UNL A   1      42.662  21.979  27.449  1.00  0.00    -0.744 OA
ENDBRANCH  77  80
ENDBRANCH  49  73
BRANCH  61  84
ATOM     84  C   UNL A   1      44.702  27.235  34.124  1.00  0.00     0.023 A 
ATOM     85  C   UNL A   1      45.907  27.964  34.112  1.00  0.00     0.012 A 
ATOM     86  C   UNL A   1      44.609  26.056  34.888  1.00  0.00     0.148 A 
ATOM     87  C   UNL A   1      47.007  27.521  34.843  1.00  0.00     0.002 A 
ATOM     88  C   UNL A   1      45.700  25.639  35.641  1.00  0.00     0.091 A 
ATOM     89  F   UNL A   1      43.458  25.367  34.865  1.00  0.00    -0.205 F 
ATOM     90  C   UNL A   1      46.901  26.367  35.616  1.00  0.00     0.022 A 
BRANCH  88  91
ATOM     91  S   UNL A   1      45.621  24.212  36.729  1.00  0.00     0.127 S 
ATOM     92  O   UNL A   1      45.392  23.124  35.778  1.00  0.00    -0.237 OA
ATOM     93  O   UNL A   1      46.948  24.212  37.346  1.00  0.00    -0.237 OA
ATOM     94  O   UNL A   1      44.529  24.478  37.656  1.00  0.00    -0.744 OA
ENDBRANCH  88  91
ENDBRANCH  61  84
ENDBRANCH  35  36
ENDBRANCH  27  30
ENDBRANCH  25  26
ENDBRANCH   1  25
TORSDOF 16
ENDMDL
MODEL 2
REMARK VINA RESULT:     -12.0      0.935      7.843
REMARK SMILES CC1(C)CCSC[C@@]1(Nc1ccccc1Br)C(=O)NCCCCNC(=O)c1ccc(-c2c3nc(c(-c4cccc(S(=O)(=O)[O-])c4F)c4ccc([nH]4)c(-c4cccc(S(=O)(=O)[O-])c4F)c4nc(c(-c5cccc(S(=O)(=O)[O-])c5F)c5ccc2[nH]5)C=C4)C=C3)cc1
REMARK SMILES IDX 22 1 21 2 20 3 19 4 17 5 18 6 8 8 1 9 2 10 3 11 4 12 5 13
REMARK SMILES IDX 7 14 6 15 9 16 10 18 11 19 15 20 12 21 14 22 16 23 13 24
REMARK SMILES IDX 23 25 24 26 25 27 26 29 27 30 28 31 89 32 29 33 88 34 30 35
REMARK SMILES IDX 31 36 32 37 82 38 33 39 87 40 81 41 83 42 34 43 86 44 80 45
REMARK SMILES IDX 79 46 35 48 67 49 47 50 66 51 48 52 51 53 65 54 84 55 49 56
REMARK SMILES IDX 50 57 64 59 85 60 52 61 36 62 37 63 45 64 38 65 40 66 46 67
REMARK SMILES IDX 39 68 41 69 42 70 43 71 44 72 68 73 69 74 77 75 70 76 72 77
REMARK SMILES IDX 78 78 71 79 73 80 74 81 75 82 76 83 53 84 54 85 62 86 55 87
REMARK SMILES IDX 57 88 63 89 56 90 58 91 59 92 60 93 61 94
REMARK H PARENT 19 7 9 17 24 28 83 47 51 58
REMARK Flexibility Score: inf
ROOT
ATOM      1  C   UNL A   1      31.764  28.973  25.839  1.00  0.00     0.023 C 
ENDROOT
BRANCH   1   2
ATOM      2  C   UNL A   1      31.617  28.096  27.079  1.00  0.00     0.023 C 
BRANCH   2   3
ATOM      3  C   UNL A   1      31.876  26.609  26.841  1.00  0.00     0.116 C 
BRANCH   3   4
ATOM      4  N   UNL A   1      33.109  26.383  26.121  1.00  0.00    -0.354 N 
ATOM      5  C   UNL A   1      33.542  25.417  25.266  1.00  0.00     0.247 C 
ATOM      6  O   UNL A   1      34.688  25.628  24.844  1.00  0.00    -0.272 OA
ATOM      7  H   UNL A   1      33.784  27.081  26.287  1.00  0.00     0.163 HD
BRANCH   5   8
ATOM      8  C   UNL A   1      32.715  24.130  24.831  1.00  0.00     0.131 C 
ATOM      9  C   UNL A   1      34.825  22.720  25.552  1.00  0.00     0.014 C 
ATOM     10  C   UNL A   1      33.751  22.935  24.447  1.00  0.00    -0.002 C 
ATOM     11  C   UNL A   1      34.500  23.221  23.115  1.00  0.00     0.014 C 
ATOM     12  C   UNL A   1      33.032  21.566  24.220  1.00  0.00     0.020 C 
ATOM     13  C   UNL A   1      32.244  21.032  25.402  1.00  0.00     0.070 C 
ATOM     14  C   UNL A   1      31.814  23.668  26.013  1.00  0.00     0.108 C 
ATOM     15  S   UNL A   1      30.863  22.127  25.762  1.00  0.00    -0.159 SA
BRANCH   8  16
ATOM     16  N   UNL A   1      31.862  24.354  23.606  1.00  0.00    -0.369 N 
ATOM     17  H   UNL A   1      31.844  23.642  22.926  1.00  0.00     0.161 HD
BRANCH  16  18
ATOM     18  C   UNL A   1      31.097  25.492  23.368  1.00  0.00     0.049 A 
ATOM     19  C   UNL A   1      29.808  25.558  23.926  1.00  0.00     0.027 A 
ATOM     20  C   UNL A   1      31.544  26.606  22.634  1.00  0.00     0.041 A 
ATOM     21  C   UNL A   1      29.021  26.709  23.820  1.00  0.00     0.002 A 
ATOM     22  C   UNL A   1      30.759  27.764  22.533  1.00  0.00     0.018 A 
ATOM     23  Br  UNL A   1      33.167  26.583  21.645  1.00  0.00    -0.049 Br
ATOM     24  C   UNL A   1      29.504  27.819  23.137  1.00  0.00     0.001 A 
ENDBRANCH  16  18
ENDBRANCH   8  16
ENDBRANCH   5   8
ENDBRANCH   3   4
ENDBRANCH   2   3
ENDBRANCH   1   2
BRANCH   1  25
ATOM     25  C   UNL A   1      32.868  30.024  25.911  1.00  0.00     0.116 C 
BRANCH  25  26
ATOM     26  N   UNL A   1      32.450  31.290  26.484  1.00  0.00    -0.352 N 
ATOM     27  C   UNL A   1      33.191  32.104  27.335  1.00  0.00     0.251 C 
ATOM     28  H   UNL A   1      31.549  31.605  26.245  1.00  0.00     0.163 HD
ATOM     29  O   UNL A   1      32.738  33.133  27.789  1.00  0.00    -0.269 OA
BRANCH  27  30
ATOM     30  C   UNL A   1      34.541  31.626  27.697  1.00  0.00     0.039 A 
ATOM     31  C   UNL A   1      35.567  32.561  27.819  1.00  0.00     0.014 A 
ATOM     32  C   UNL A   1      34.719  30.297  28.077  1.00  0.00     0.014 A 
ATOM     33  C   UNL A   1      36.766  32.177  28.423  1.00  0.00     0.010 A 
ATOM     34  C   UNL A   1      35.891  29.932  28.727  1.00  0.00     0.010 A 
ATOM     35  C   UNL A   1      36.913  30.875  28.926  1.00  0.00    -0.014 A 
BRANCH  35  36
ATOM     36  C   UNL A   1      38.103  30.480  29.718  1.00  0.00     0.031 A 
ATOM     37  C   UNL A   1      39.082  29.495  29.153  1.00  0.00     0.074 A 
ATOM     38  C   UNL A   1      38.228  30.917  30.988  1.00  0.00     0.049 A 
ATOM     39  N   UNL A   1      40.114  28.939  29.729  1.00  0.00    -0.248 NA
ATOM     40  C   UNL A   1      38.854  29.053  27.767  1.00  0.00     0.031 C 
ATOM     41  C   UNL A   1      37.294  31.815  31.671  1.00  0.00     0.029 A 
ATOM     42  N   UNL A   1      39.175  30.637  31.941  1.00  0.00    -0.354 N 
ATOM     43  C   UNL A   1      40.637  28.055  28.795  1.00  0.00     0.074 A 
ATOM     44  C   UNL A   1      39.794  28.129  27.621  1.00  0.00     0.031 C 
ATOM     45  C   UNL A   1      37.715  32.013  32.931  1.00  0.00     0.029 A 
ATOM     46  C   UNL A   1      38.933  31.240  33.154  1.00  0.00     0.049 A 
ATOM     47  H   UNL A   1      39.954  30.060  31.772  1.00  0.00     0.167 HD
ATOM     48  C   UNL A   1      41.739  27.278  28.892  1.00  0.00     0.034 A 
ATOM     49  C   UNL A   1      39.616  31.173  34.314  1.00  0.00     0.034 A 
ATOM     50  C   UNL A   1      42.612  27.258  30.033  1.00  0.00     0.049 A 
ATOM     51  C   UNL A   1      40.865  30.336  34.378  1.00  0.00     0.074 A 
ATOM     52  C   UNL A   1      43.809  26.582  30.189  1.00  0.00     0.029 A 
ATOM     53  N   UNL A   1      42.385  27.950  31.211  1.00  0.00    -0.354 N 
ATOM     54  N   UNL A   1      41.430  29.629  33.430  1.00  0.00    -0.248 NA
ATOM     55  C   UNL A   1      41.583  30.305  35.661  1.00  0.00     0.031 C 
ATOM     56  C   UNL A   1      44.308  26.870  31.463  1.00  0.00     0.029 A 
ATOM     57  C   UNL A   1      43.418  27.719  32.101  1.00  0.00     0.049 A 
ATOM     58  H   UNL A   1      41.604  28.523  31.388  1.00  0.00     0.167 HD
ATOM     59  C   UNL A   1      42.581  29.091  33.991  1.00  0.00     0.074 A 
ATOM     60  C   UNL A   1      42.645  29.571  35.357  1.00  0.00     0.031 C 
ATOM     61  C   UNL A   1      43.493  28.256  33.435  1.00  0.00     0.034 A 
BRANCH  48  62
ATOM     62  C   UNL A   1      42.110  26.450  27.693  1.00  0.00     0.023 A 
ATOM     63  C   UNL A   1      42.851  27.049  26.655  1.00  0.00     0.012 A 
ATOM     64  C   UNL A   1      41.766  25.088  27.606  1.00  0.00     0.148 A 
ATOM     65  C   UNL A   1      43.225  26.311  25.534  1.00  0.00     0.002 A 
ATOM     66  C   UNL A   1      42.170  24.350  26.499  1.00  0.00     0.091 A 
ATOM     67  F   UNL A   1      41.034  24.546  28.591  1.00  0.00    -0.205 F 
ATOM     68  C   UNL A   1      42.894  24.960  25.460  1.00  0.00     0.022 A 
BRANCH  66  69
ATOM     69  S   UNL A   1      41.837  22.593  26.341  1.00  0.00     0.127 S 
ATOM     70  O   UNL A   1      42.509  22.277  25.082  1.00  0.00    -0.237 OA
ATOM     71  O   UNL A   1      42.487  22.042  27.533  1.00  0.00    -0.237 OA
ATOM     72  O   UNL A   1      40.386  22.464  26.333  1.00  0.00    -0.744 OA
ENDBRANCH  66  69
ENDBRANCH  48  62
BRANCH  49  73
ATOM     73  C   UNL A   1      39.182  31.988  35.482  1.00  0.00     0.023 A 
ATOM     74  C   UNL A   1      38.293  31.421  36.416  1.00  0.00     0.012 A 
ATOM     75  C   UNL A   1      39.659  33.295  35.698  1.00  0.00     0.148 A 
ATOM     76  C   UNL A   1      37.869  32.147  37.530  1.00  0.00     0.002 A 
ATOM     77  C   UNL A   1      39.269  33.996  36.835  1.00  0.00     0.091 A 
ATOM     78  F   UNL A   1      40.487  33.833  34.791  1.00  0.00    -0.205 F 
ATOM     79  C   UNL A   1      38.365  33.429  37.746  1.00  0.00     0.022 A 
BRANCH  77  80
ATOM     80  S   UNL A   1      39.980  35.599  37.230  1.00  0.00     0.127 S 
ATOM     81  O   UNL A   1      39.576  36.402  36.081  1.00  0.00    -0.237 OA
ATOM     82  O   UNL A   1      39.313  35.942  38.487  1.00  0.00    -0.237 OA
ATOM     83  O   UNL A   1      41.409  35.342  37.372  1.00  0.00    -0.744 OA
ENDBRANCH  77  80
ENDBRANCH  49  73
BRANCH  61  84
ATOM     84  C   UNL A   1      44.644  27.810  34.292  1.00  0.00     0.023 A 
ATOM     85  C   UNL A   1      45.797  28.616  34.365  1.00  0.00     0.012 A 
ATOM     86  C   UNL A   1      44.550  26.657  35.093  1.00  0.00     0.148 A 
ATOM     87  C   UNL A   1      46.845  28.274  35.215  1.00  0.00     0.002 A 
ATOM     88  C   UNL A   1      45.585  26.340  35.965  1.00  0.00     0.091 A 
ATOM     89  F   UNL A   1      43.452  25.893  34.990  1.00  0.00    -0.205 F 
ATOM     90  C   UNL A   1      46.735  27.144  36.023  1.00  0.00     0.022 A 
BRANCH  88  91
ATOM     91  S   UNL A   1      45.488  24.951  37.100  1.00  0.00     0.127 S 
ATOM     92  O   UNL A   1      46.778  25.035  37.784  1.00  0.00    -0.237 OA
ATOM     93  O   UNL A   1      44.334  25.302  37.929  1.00  0.00    -0.237 OA
ATOM     94  O   UNL A   1      45.293  23.771  36.268  1.00  0.00    -0.744 OA
ENDBRANCH  88  91
ENDBRANCH  61  84
ENDBRANCH  35  36
ENDBRANCH  27  30
ENDBRANCH  25  26
ENDBRANCH   1  25
TORSDOF 16
ENDMDL
MODEL 3
REMARK VINA RESULT:     -12.0      4.915      7.936
REMARK SMILES CC1(C)CCSC[C@@]1(Nc1ccccc1Br)C(=O)NCCCCNC(=O)c1ccc(-c2c3nc(c(-c4cccc(S(=O)(=O)[O-])c4F)c4ccc([nH]4)c(-c4cccc(S(=O)(=O)[O-])c4F)c4nc(c(-c5cccc(S(=O)(=O)[O-])c5F)c5ccc2[nH]5)C=C4)C=C3)cc1
REMARK SMILES IDX 22 1 21 2 20 3 19 4 17 5 18 6 8 8 1 9 2 10 3 11 4 12 5 13
REMARK SMILES IDX 7 14 6 15 9 16 10 18 11 19 15 20 12 21 14 22 16 23 13 24
REMARK SMILES IDX 23 25 24 26 25 27 26 29 27 30 28 31 89 32 29 33 88 34 30 35
REMARK SMILES IDX 31 36 32 37 82 38 33 39 87 40 81 41 83 42 34 43 86 44 80 45
REMARK SMILES IDX 79 46 35 48 67 49 47 50 66 51 48 52 51 53 65 54 84 55 49 56
REMARK SMILES IDX 50 57 64 59 85 60 52 61 36 62 37 63 45 64 38 65 40 66 46 67
REMARK SMILES IDX 39 68 41 69 42 70 43 71 44 72 68 73 69 74 77 75 70 76 72 77
REMARK SMILES IDX 78 78 71 79 73 80 74 81 75 82 76 83 53 84 54 85 62 86 55 87
REMARK SMILES IDX 57 88 63 89 56 90 58 91 59 92 60 93 61 94
REMARK H PARENT 19 7 9 17 24 28 83 47 51 58
REMARK Flexibility Score: inf
ROOT
ATOM      1  C   UNL A   1      36.188  21.742  24.305  1.00  0.00     0.023 C 
ENDROOT
BRANCH   1   2
ATOM      2  C   UNL A   1      36.399  23.086  23.613  1.00  0.00     0.023 C 
BRANCH   2   3
ATOM      3  C   UNL A   1      35.134  23.930  23.466  1.00  0.00     0.116 C 
BRANCH   3   4
ATOM      4  N   UNL A   1      34.875  24.726  24.645  1.00  0.00    -0.354 N 
ATOM      5  C   UNL A   1      33.814  25.462  25.075  1.00  0.00     0.247 C 
ATOM      6  O   UNL A   1      34.004  25.974  26.187  1.00  0.00    -0.272 OA
ATOM      7  H   UNL A   1      35.632  24.737  25.275  1.00  0.00     0.163 HD
BRANCH   5   8
ATOM      8  C   UNL A   1      32.459  25.687  24.271  1.00  0.00     0.131 C 
ATOM      9  C   UNL A   1      32.662  28.230  24.944  1.00  0.00     0.014 C 
ATOM     10  C   UNL A   1      31.706  27.005  24.855  1.00  0.00    -0.002 C 
ATOM     11  C   UNL A   1      31.124  26.762  26.276  1.00  0.00     0.014 C 
ATOM     12  C   UNL A   1      30.479  27.432  23.985  1.00  0.00     0.020 C 
ATOM     13  C   UNL A   1      30.785  27.768  22.536  1.00  0.00     0.070 C 
ATOM     14  C   UNL A   1      32.779  25.904  22.764  1.00  0.00     0.108 C 
ATOM     15  S   UNL A   1      31.364  26.298  21.676  1.00  0.00    -0.159 SA
BRANCH   8  16
ATOM     16  N   UNL A   1      31.481  24.547  24.419  1.00  0.00    -0.369 N 
ATOM     17  H   UNL A   1      30.541  24.773  24.601  1.00  0.00     0.161 HD
BRANCH  16  18
ATOM     18  C   UNL A   1      31.811  23.198  24.315  1.00  0.00     0.049 A 
ATOM     19  C   UNL A   1      31.805  22.607  23.039  1.00  0.00     0.027 A 
ATOM     20  C   UNL A   1      32.193  22.391  25.402  1.00  0.00     0.041 A 
ATOM     21  C   UNL A   1      32.226  21.289  22.840  1.00  0.00     0.002 A 
ATOM     22  C   UNL A   1      32.621  21.071  25.203  1.00  0.00     0.018 A 
ATOM     23  Br  UNL A   1      32.046  22.982  27.203  1.00  0.00    -0.049 Br
ATOM     24  C   UNL A   1      32.650  20.525  23.921  1.00  0.00     0.001 A 
ENDBRANCH  16  18
ENDBRANCH   8  16
ENDBRANCH   5   8
ENDBRANCH   3   4
ENDBRANCH   2   3
ENDBRANCH   1   2
BRANCH   1  25
ATOM     25  C   UNL A   1      36.964  21.549  25.605  1.00  0.00     0.116 C 
BRANCH  25  26
ATOM     26  N   UNL A   1      38.002  20.538  25.537  1.00  0.00    -0.352 N 
ATOM     27  C   UNL A   1      39.301  20.643  26.023  1.00  0.00     0.251 C 
ATOM     28  H   UNL A   1      37.761  19.689  25.102  1.00  0.00     0.163 HD
ATOM     29  O   UNL A   1      40.108  19.749  25.887  1.00  0.00    -0.269 OA
BRANCH  27  30
ATOM     30  C   UNL A   1      39.663  21.921  26.670  1.00  0.00     0.039 A 
ATOM     31  C   UNL A   1      40.630  21.909  27.674  1.00  0.00     0.014 A 
ATOM     32  C   UNL A   1      39.169  23.117  26.151  1.00  0.00     0.014 A 
ATOM     33  C   UNL A   1      41.181  23.119  28.099  1.00  0.00     0.010 A 
ATOM     34  C   UNL A   1      39.758  24.315  26.536  1.00  0.00     0.010 A 
ATOM     35  C   UNL A   1      40.785  24.322  27.494  1.00  0.00    -0.014 A 
BRANCH  35  36
ATOM     36  C   UNL A   1      41.465  25.604  27.801  1.00  0.00     0.031 A 
ATOM     37  C   UNL A   1      40.714  26.697  28.501  1.00  0.00     0.074 A 
ATOM     38  C   UNL A   1      42.712  25.819  27.337  1.00  0.00     0.049 A 
ATOM     39  N   UNL A   1      41.092  27.922  28.754  1.00  0.00    -0.248 NA
ATOM     40  C   UNL A   1      39.348  26.382  28.951  1.00  0.00     0.031 C 
ATOM     41  C   UNL A   1      43.511  24.857  26.574  1.00  0.00     0.029 A 
ATOM     42  N   UNL A   1      43.516  26.929  27.413  1.00  0.00    -0.354 N 
ATOM     43  C   UNL A   1      40.003  28.536  29.356  1.00  0.00     0.074 A 
ATOM     44  C   UNL A   1      38.938  27.557  29.409  1.00  0.00     0.031 C 
ATOM     45  C   UNL A   1      44.688  25.418  26.252  1.00  0.00     0.029 A 
ATOM     46  C   UNL A   1      44.721  26.784  26.765  1.00  0.00     0.049 A 
ATOM     47  H   UNL A   1      43.254  27.751  27.886  1.00  0.00     0.167 HD
ATOM     48  C   UNL A   1      39.907  29.791  29.851  1.00  0.00     0.034 A 
ATOM     49  C   UNL A   1      45.736  27.656  26.602  1.00  0.00     0.034 A 
ATOM     50  C   UNL A   1      40.987  30.738  29.857  1.00  0.00     0.049 A 
ATOM     51  C   UNL A   1      45.619  29.030  27.204  1.00  0.00     0.074 A 
ATOM     52  C   UNL A   1      41.023  31.998  30.426  1.00  0.00     0.029 A 
ATOM     53  N   UNL A   1      42.225  30.525  29.273  1.00  0.00    -0.354 N 
ATOM     54  N   UNL A   1      44.638  29.540  27.908  1.00  0.00    -0.248 NA
ATOM     55  C   UNL A   1      46.757  29.942  27.011  1.00  0.00     0.031 C 
ATOM     56  C   UNL A   1      42.288  32.547  30.187  1.00  0.00     0.029 A 
ATOM     57  C   UNL A   1      43.035  31.631  29.464  1.00  0.00     0.049 A 
ATOM     58  H   UNL A   1      42.490  29.708  28.791  1.00  0.00     0.167 HD
ATOM     59  C   UNL A   1      45.048  30.818  28.264  1.00  0.00     0.074 A 
ATOM     60  C   UNL A   1      46.377  30.999  27.716  1.00  0.00     0.031 C 
ATOM     61  C   UNL A   1      44.377  31.767  28.962  1.00  0.00     0.034 A 
BRANCH  48  62
ATOM     62  C   UNL A   1      38.612  30.179  30.507  1.00  0.00     0.023 A 
ATOM     63  C   UNL A   1      38.378  29.784  31.839  1.00  0.00     0.012 A 
ATOM     64  C   UNL A   1      37.651  30.957  29.834  1.00  0.00     0.148 A 
ATOM     65  C   UNL A   1      37.196  30.136  32.486  1.00  0.00     0.002 A 
ATOM     66  C   UNL A   1      36.487  31.331  30.497  1.00  0.00     0.091 A 
ATOM     67  F   UNL A   1      37.880  31.296  28.556  1.00  0.00    -0.205 F 
ATOM     68  C   UNL A   1      36.256  30.918  31.819  1.00  0.00     0.022 A 
BRANCH  66  69
ATOM     69  S   UNL A   1      35.244  32.381  29.737  1.00  0.00     0.127 S 
ATOM     70  O   UNL A   1      34.347  32.637  30.863  1.00  0.00    -0.237 OA
ATOM     71  O   UNL A   1      36.031  33.539  29.309  1.00  0.00    -0.237 OA
ATOM     72  O   UNL A   1      34.679  31.599  28.645  1.00  0.00    -0.744 OA
ENDBRANCH  66  69
ENDBRANCH  48  62
BRANCH  49  73
ATOM     73  C   UNL A   1      46.983  27.228  25.911  1.00  0.00     0.023 A 
ATOM     74  C   UNL A   1      47.113  27.467  24.529  1.00  0.00     0.012 A 
ATOM     75  C   UNL A   1      48.048  26.621  26.603  1.00  0.00     0.148 A 
ATOM     76  C   UNL A   1      48.269  27.091  23.845  1.00  0.00     0.002 A 
ATOM     77  C   UNL A   1      49.217  26.290  25.925  1.00  0.00     0.091 A 
ATOM     78  F   UNL A   1      47.904  26.377  27.914  1.00  0.00    -0.205 F 
ATOM     79  C   UNL A   1      49.326  26.513  24.544  1.00  0.00     0.022 A 
BRANCH  77  80
ATOM     80  S   UNL A   1      50.657  25.665  26.800  1.00  0.00     0.127 S 
ATOM     81  O   UNL A   1      50.142  24.436  27.393  1.00  0.00    -0.237 OA
ATOM     82  O   UNL A   1      51.626  25.469  25.720  1.00  0.00    -0.237 OA
ATOM     83  O   UNL A   1      51.015  26.733  27.727  1.00  0.00    -0.744 OA
ENDBRANCH  77  80
ENDBRANCH  49  73
BRANCH  61  84
ATOM     84  C   UNL A   1      45.064  33.085  29.185  1.00  0.00     0.023 A 
ATOM     85  C   UNL A   1      45.884  33.246  30.319  1.00  0.00     0.012 A 
ATOM     86  C   UNL A   1      44.977  34.119  28.235  1.00  0.00     0.148 A 
ATOM     87  C   UNL A   1      46.601  34.426  30.509  1.00  0.00     0.002 A 
ATOM     88  C   UNL A   1      45.722  35.279  28.413  1.00  0.00     0.091 A 
ATOM     89  F   UNL A   1      44.173  33.950  27.176  1.00  0.00    -0.205 F 
ATOM     90  C   UNL A   1      46.530  35.436  29.552  1.00  0.00     0.022 A 
BRANCH  88  91
ATOM     91  S   UNL A   1      45.754  36.593  27.190  1.00  0.00     0.127 S 
ATOM     92  O   UNL A   1      46.645  37.567  27.820  1.00  0.00    -0.237 OA
ATOM     93  O   UNL A   1      46.317  35.920  26.019  1.00  0.00    -0.237 OA
ATOM     94  O   UNL A   1      44.370  37.019  27.029  1.00  0.00    -0.744 OA
ENDBRANCH  88  91
ENDBRANCH  61  84
ENDBRANCH  35  36
ENDBRANCH  27  30
ENDBRANCH  25  26
ENDBRANCH   1  25
TORSDOF 16
ENDMDL
