MODEL 1
REMARK VINA RESULT:     -12.3      0.000      0.000
REMARK SMILES COc1ccc(C[NH2+]Cc2cccn2-c2sc(C)c(C)c2C(=O)NCCCCNC(=O)c2ccc(-c3c4nc(c(-c5cccc(S(=O)(=O)[O-])c5F)c5ccc([nH]5)c(-c5cccc(S(=O)(=O)[O-])c5F)c5nc(c(-c6cccc(S(=O)(=O)[O-])c6F)c6ccc3[nH]6)C=C5)C=C4)cc2)cc1
REMARK SMILES IDX 25 1 24 2 22 3 23 4 21 6 15 7 16 8 17 9 19 10 18 11 20 12
REMARK SMILES IDX 14 13 10 14 11 15 12 16 13 17 9 18 8 19 7 22 6 23 3 24 4 25
REMARK SMILES IDX 96 26 5 27 95 28 2 29 1 30 26 31 27 32 28 33 29 34 30 35
REMARK SMILES IDX 31 37 32 38 33 39 94 40 34 41 93 42 35 43 36 44 37 45 87 46
REMARK SMILES IDX 38 47 92 48 86 49 88 50 39 51 91 52 85 53 84 54 40 56 72 57
REMARK SMILES IDX 52 58 71 59 53 60 56 61 70 62 89 63 54 64 55 65 69 67 90 68
REMARK SMILES IDX 57 69 41 70 42 71 50 72 43 73 45 74 51 75 44 76 46 77 47 78
REMARK SMILES IDX 48 79 49 80 73 81 74 82 82 83 75 84 77 85 83 86 76 87 78 88
REMARK SMILES IDX 79 89 80 90 81 91 58 92 59 93 67 94 60 95 62 96 68 97 61 98
REMARK SMILES IDX 63 99 64 100 65 101 66 102
REMARK H PARENT 24 5 8 20 8 21 29 36 88 55 56 66
REMARK Flexibility Score: inf
ROOT
ATOM      1  C   UNL A   1      36.446  21.540  25.656  1.00  0.00     0.116 C 
ENDROOT
BRANCH   1   2
ATOM      2  N   UNL A   1      35.413  21.638  26.642  1.00  0.00    -0.352 N 
ATOM      3  C   UNL A   1      34.045  21.750  26.461  1.00  0.00     0.254 C 
ATOM      4  O   UNL A   1      33.382  21.723  27.501  1.00  0.00    -0.269 OA
ATOM      5  H   UNL A   1      35.717  21.625  27.578  1.00  0.00     0.163 HD
BRANCH   3   6
ATOM      6  C   UNL A   1      33.366  22.016  25.154  1.00  0.00     0.078 A 
ATOM      7  C   UNL A   1      32.938  23.200  24.563  1.00  0.00     0.113 A 
ATOM      8  S   UNL A   1      32.179  23.019  23.054  1.00  0.00    -0.122 S 
ATOM      9  C   UNL A   1      32.383  21.335  23.076  1.00  0.00     0.007 A 
ATOM     10  C   UNL A   1      33.049  20.908  24.217  1.00  0.00    -0.022 A 
ATOM     11  C   UNL A   1      31.882  20.522  21.924  1.00  0.00     0.057 C 
ATOM     12  C   UNL A   1      33.403  19.467  24.465  1.00  0.00     0.046 C 
BRANCH   7  13
ATOM     13  N   UNL A   1      33.124  24.533  24.934  1.00  0.00    -0.306 N 
ATOM     14  C   UNL A   1      32.131  25.486  25.202  1.00  0.00     0.078 A 
ATOM     15  C   UNL A   1      32.763  26.615  25.709  1.00  0.00     0.029 A 
ATOM     16  C   UNL A   1      34.154  26.399  25.656  1.00  0.00     0.020 A 
ATOM     17  C   UNL A   1      34.349  25.123  25.180  1.00  0.00     0.092 A 
BRANCH  14  18
ATOM     18  C   UNL A   1      30.657  25.204  25.093  1.00  0.00     0.316 C 
BRANCH  18  19
ATOM     19  N   UNL A   1      30.081  25.719  23.852  1.00  0.00    -0.338 N 
ATOM     20  H   UNL A   1      30.742  26.366  23.421  1.00  0.00     0.346 HD
ATOM     21  H   UNL A   1      29.894  24.932  23.231  1.00  0.00     0.346 HD
BRANCH  19  22
ATOM     22  C   UNL A   1      28.825  26.420  24.106  1.00  0.00     0.297 C 
BRANCH  22  23
ATOM     23  C   UNL A   1      28.801  27.752  23.405  1.00  0.00     0.006 A 
ATOM     24  C   UNL A   1      28.767  30.178  21.997  1.00  0.00     0.118 A 
ATOM     25  C   UNL A   1      27.574  29.599  22.433  1.00  0.00     0.047 A 
ATOM     26  C   UNL A   1      29.984  29.576  22.320  1.00  0.00     0.047 A 
ATOM     27  C   UNL A   1      27.588  28.391  23.130  1.00  0.00     0.013 A 
ATOM     28  C   UNL A   1      30.000  28.370  23.024  1.00  0.00     0.013 A 
BRANCH  24  29
ATOM     29  O   UNL A   1      28.636  31.348  21.300  1.00  0.00    -0.497 OA
ATOM     30  C   UNL A   1      28.808  32.528  22.077  1.00  0.00     0.278 C 
ENDBRANCH  24  29
ENDBRANCH  22  23
ENDBRANCH  19  22
ENDBRANCH  18  19
ENDBRANCH  14  18
ENDBRANCH   7  13
ENDBRANCH   3   6
ENDBRANCH   1   2
BRANCH   1  31
ATOM     31  C   UNL A   1      36.836  20.189  25.075  1.00  0.00     0.023 C 
BRANCH  31  32
ATOM     32  C   UNL A   1      38.317  19.931  24.799  1.00  0.00     0.023 C 
BRANCH  32  33
ATOM     33  C   UNL A   1      39.291  20.222  25.947  1.00  0.00     0.116 C 
BRANCH  33  34
ATOM     34  N   UNL A   1      40.342  19.219  26.076  1.00  0.00    -0.352 N 
ATOM     35  C   UNL A   1      41.702  19.422  26.163  1.00  0.00     0.251 C 
ATOM     36  H   UNL A   1      40.043  18.281  26.103  1.00  0.00     0.163 HD
ATOM     37  O   UNL A   1      42.471  18.487  25.947  1.00  0.00    -0.269 OA
BRANCH  35  38
ATOM     38  C   UNL A   1      42.251  20.749  26.527  1.00  0.00     0.039 A 
ATOM     39  C   UNL A   1      42.744  21.591  25.522  1.00  0.00     0.014 A 
ATOM     40  C   UNL A   1      42.353  21.125  27.870  1.00  0.00     0.014 A 
ATOM     41  C   UNL A   1      43.271  22.840  25.860  1.00  0.00     0.010 A 
ATOM     42  C   UNL A   1      42.881  22.367  28.209  1.00  0.00     0.010 A 
ATOM     43  C   UNL A   1      43.315  23.237  27.206  1.00  0.00    -0.014 A 
BRANCH  43  44
ATOM     44  C   UNL A   1      43.554  24.667  27.536  1.00  0.00     0.031 A 
ATOM     45  C   UNL A   1      42.165  25.394  27.641  1.00  0.00     0.074 A 
ATOM     46  C   UNL A   1      44.864  25.080  27.666  1.00  0.00     0.049 A 
ATOM     47  N   UNL A   1      41.796  26.569  27.221  1.00  0.00    -0.248 NA
ATOM     48  C   UNL A   1      40.969  24.649  28.145  1.00  0.00     0.031 C 
ATOM     49  C   UNL A   1      46.054  24.190  27.616  1.00  0.00     0.029 A 
ATOM     50  N   UNL A   1      45.490  26.299  27.892  1.00  0.00    -0.354 N 
ATOM     51  C   UNL A   1      40.468  26.798  27.692  1.00  0.00     0.074 A 
ATOM     52  C   UNL A   1      39.957  25.520  28.058  1.00  0.00     0.031 C 
ATOM     53  C   UNL A   1      47.214  24.892  27.703  1.00  0.00     0.029 A 
ATOM     54  C   UNL A   1      46.923  26.309  27.843  1.00  0.00     0.049 A 
ATOM     55  H   UNL A   1      44.974  27.117  28.076  1.00  0.00     0.167 HD
ATOM     56  C   UNL A   1      39.993  28.055  27.980  1.00  0.00     0.034 A 
ATOM     57  C   UNL A   1      47.786  27.387  27.882  1.00  0.00     0.034 A 
ATOM     58  C   UNL A   1      41.072  28.968  27.791  1.00  0.00     0.049 A 
ATOM     59  C   UNL A   1      46.924  28.512  28.235  1.00  0.00     0.074 A 
ATOM     60  C   UNL A   1      41.764  29.383  26.686  1.00  0.00     0.029 A 
ATOM     61  N   UNL A   1      41.814  29.181  28.932  1.00  0.00    -0.354 N 
ATOM     62  N   UNL A   1      46.440  28.709  29.421  1.00  0.00    -0.248 NA
ATOM     63  C   UNL A   1      46.510  29.440  27.177  1.00  0.00     0.031 C 
ATOM     64  C   UNL A   1      43.092  29.322  27.146  1.00  0.00     0.029 A 
ATOM     65  C   UNL A   1      43.115  29.244  28.546  1.00  0.00     0.049 A 
ATOM     66  H   UNL A   1      41.469  29.272  29.849  1.00  0.00     0.167 HD
ATOM     67  C   UNL A   1      45.365  29.504  29.135  1.00  0.00     0.074 A 
ATOM     68  C   UNL A   1      45.664  30.181  27.887  1.00  0.00     0.031 C 
ATOM     69  C   UNL A   1      44.137  29.081  29.540  1.00  0.00     0.034 A 
BRANCH  56  70
ATOM     70  C   UNL A   1      38.831  28.644  28.773  1.00  0.00     0.023 A 
ATOM     71  C   UNL A   1      38.025  29.577  28.041  1.00  0.00     0.012 A 
ATOM     72  C   UNL A   1      38.682  28.643  30.167  1.00  0.00     0.148 A 
ATOM     73  C   UNL A   1      37.281  30.580  28.654  1.00  0.00     0.002 A 
ATOM     74  C   UNL A   1      37.873  29.612  30.778  1.00  0.00     0.091 A 
ATOM     75  F   UNL A   1      39.366  27.761  30.900  1.00  0.00    -0.205 F 
ATOM     76  C   UNL A   1      37.223  30.610  30.032  1.00  0.00     0.022 A 
BRANCH  74  77
ATOM     77  S   UNL A   1      37.595  29.692  32.552  1.00  0.00     0.127 S 
ATOM     78  O   UNL A   1      36.397  30.515  32.638  1.00  0.00    -0.237 OA
ATOM     79  O   UNL A   1      37.391  28.282  32.885  1.00  0.00    -0.237 OA
ATOM     80  O   UNL A   1      38.818  30.263  33.115  1.00  0.00    -0.744 OA
ENDBRANCH  74  77
ENDBRANCH  56  70
BRANCH  57  81
ATOM     81  C   UNL A   1      49.240  27.803  27.633  1.00  0.00     0.023 A 
ATOM     82  C   UNL A   1      49.982  28.675  28.436  1.00  0.00     0.012 A 
ATOM     83  C   UNL A   1      49.994  27.150  26.586  1.00  0.00     0.148 A 
ATOM     84  C   UNL A   1      51.386  28.797  28.276  1.00  0.00     0.002 A 
ATOM     85  C   UNL A   1      51.383  27.151  26.534  1.00  0.00     0.091 A 
ATOM     86  F   UNL A   1      49.352  26.532  25.588  1.00  0.00    -0.205 F 
ATOM     87  C   UNL A   1      52.093  27.994  27.374  1.00  0.00     0.022 A 
BRANCH  85  88
ATOM     88  S   UNL A   1      52.306  25.960  25.527  1.00  0.00     0.127 S 
ATOM     89  O   UNL A   1      53.695  26.295  25.833  1.00  0.00    -0.237 OA
ATOM     90  O   UNL A   1      51.844  24.690  26.089  1.00  0.00    -0.237 OA
ATOM     91  O   UNL A   1      51.909  26.190  24.145  1.00  0.00    -0.744 OA
ENDBRANCH  85  88
ENDBRANCH  57  81
BRANCH  69  92
ATOM     92  C   UNL A   1      44.110  28.225  30.815  1.00  0.00     0.023 A 
ATOM     93  C   UNL A   1      44.047  26.825  30.627  1.00  0.00     0.012 A 
ATOM     94  C   UNL A   1      44.040  28.687  32.154  1.00  0.00     0.148 A 
ATOM     95  C   UNL A   1      43.897  25.932  31.693  1.00  0.00     0.002 A 
ATOM     96  C   UNL A   1      43.874  27.791  33.224  1.00  0.00     0.091 A 
ATOM     97  F   UNL A   1      44.127  29.996  32.385  1.00  0.00    -0.205 F 
ATOM     98  C   UNL A   1      43.809  26.413  32.990  1.00  0.00     0.022 A 
BRANCH  96  99
ATOM     99  S   UNL A   1      43.664  28.290  34.951  1.00  0.00     0.127 S 
ATOM    100  O   UNL A   1      44.913  29.003  35.231  1.00  0.00    -0.237 OA
ATOM    101  O   UNL A   1      42.487  29.152  34.888  1.00  0.00    -0.237 OA
ATOM    102  O   UNL A   1      43.500  27.063  35.721  1.00  0.00    -0.744 OA
ENDBRANCH  96  99
ENDBRANCH  69  92
ENDBRANCH  43  44
ENDBRANCH  35  38
ENDBRANCH  33  34
ENDBRANCH  32  33
ENDBRANCH  31  32
ENDBRANCH   1  31
TORSDOF 20
ENDMDL
MODEL 2
REMARK VINA RESULT:     -12.3      3.034      9.133
REMARK SMILES COc1ccc(C[NH2+]Cc2cccn2-c2sc(C)c(C)c2C(=O)NCCCCNC(=O)c2ccc(-c3c4nc(c(-c5cccc(S(=O)(=O)[O-])c5F)c5ccc([nH]5)c(-c5cccc(S(=O)(=O)[O-])c5F)c5nc(c(-c6cccc(S(=O)(=O)[O-])c6F)c6ccc3[nH]6)C=C5)C=C4)cc2)cc1
REMARK SMILES IDX 25 1 24 2 22 3 23 4 21 6 15 7 16 8 17 9 19 10 18 11 20 12
REMARK SMILES IDX 14 13 10 14 11 15 12 16 13 17 9 18 8 19 7 22 6 23 3 24 4 25
REMARK SMILES IDX 96 26 5 27 95 28 2 29 1 30 26 31 27 32 28 33 29 34 30 35
REMARK SMILES IDX 31 37 32 38 33 39 94 40 34 41 93 42 35 43 36 44 37 45 87 46
REMARK SMILES IDX 38 47 92 48 86 49 88 50 39 51 91 52 85 53 84 54 40 56 72 57
REMARK SMILES IDX 52 58 71 59 53 60 56 61 70 62 89 63 54 64 55 65 69 67 90 68
REMARK SMILES IDX 57 69 41 70 42 71 50 72 43 73 45 74 51 75 44 76 46 77 47 78
REMARK SMILES IDX 48 79 49 80 73 81 74 82 82 83 75 84 77 85 83 86 76 87 78 88
REMARK SMILES IDX 79 89 80 90 81 91 58 92 59 93 67 94 60 95 62 96 68 97 61 98
REMARK SMILES IDX 63 99 64 100 65 101 66 102
REMARK H PARENT 24 5 8 20 8 21 29 36 88 55 56 66
REMARK Flexibility Score: inf
ROOT
ATOM      1  C   UNL A   1      33.685  28.979  23.549  1.00  0.00     0.116 C 
ENDROOT
BRANCH   1   2
ATOM      2  N   UNL A   1      33.908  27.937  22.594  1.00  0.00    -0.352 N 
ATOM      3  C   UNL A   1      33.140  26.816  22.333  1.00  0.00     0.254 C 
ATOM      4  O   UNL A   1      33.529  26.132  21.383  1.00  0.00    -0.269 OA
ATOM      5  H   UNL A   1      34.722  28.029  22.047  1.00  0.00     0.163 HD
BRANCH   3   6
ATOM      6  C   UNL A   1      31.996  26.341  23.172  1.00  0.00     0.078 A 
ATOM      7  C   UNL A   1      31.916  25.349  24.143  1.00  0.00     0.113 A 
ATOM      8  S   UNL A   1      30.377  25.133  24.829  1.00  0.00    -0.122 S 
ATOM      9  C   UNL A   1      29.705  26.368  23.880  1.00  0.00     0.007 A 
ATOM     10  C   UNL A   1      30.652  26.964  23.058  1.00  0.00    -0.022 A 
ATOM     11  C   UNL A   1      28.253  26.698  24.028  1.00  0.00     0.057 C 
ATOM     12  C   UNL A   1      30.334  28.121  22.149  1.00  0.00     0.046 C 
BRANCH   7  13
ATOM     13  N   UNL A   1      32.905  24.569  24.745  1.00  0.00    -0.306 N 
ATOM     14  C   UNL A   1      33.015  23.171  24.726  1.00  0.00     0.078 A 
ATOM     15  C   UNL A   1      34.241  22.842  25.290  1.00  0.00     0.029 A 
ATOM     16  C   UNL A   1      34.843  24.027  25.754  1.00  0.00     0.020 A 
ATOM     17  C   UNL A   1      34.010  25.066  25.410  1.00  0.00     0.092 A 
BRANCH  14  18
ATOM     18  C   UNL A   1      32.019  22.270  24.048  1.00  0.00     0.316 C 
BRANCH  18  19
ATOM     19  N   UNL A   1      32.155  20.875  24.466  1.00  0.00    -0.338 N 
ATOM     20  H   UNL A   1      32.805  20.825  25.250  1.00  0.00     0.346 HD
ATOM     21  H   UNL A   1      31.235  20.529  24.739  1.00  0.00     0.346 HD
BRANCH  19  22
ATOM     22  C   UNL A   1      32.658  20.046  23.374  1.00  0.00     0.297 C 
BRANCH  22  23
ATOM     23  C   UNL A   1      32.875  18.628  23.832  1.00  0.00     0.006 A 
ATOM     24  C   UNL A   1      33.383  16.017  24.722  1.00  0.00     0.118 A 
ATOM     25  C   UNL A   1      32.634  16.896  25.506  1.00  0.00     0.047 A 
ATOM     26  C   UNL A   1      33.827  16.423  23.463  1.00  0.00     0.047 A 
ATOM     27  C   UNL A   1      32.382  18.195  25.067  1.00  0.00     0.013 A 
ATOM     28  C   UNL A   1      33.570  17.722  23.020  1.00  0.00     0.013 A 
BRANCH  24  29
ATOM     29  O   UNL A   1      33.592  14.777  25.260  1.00  0.00    -0.497 OA
ATOM     30  C   UNL A   1      32.582  14.340  26.163  1.00  0.00     0.278 C 
ENDBRANCH  24  29
ENDBRANCH  22  23
ENDBRANCH  19  22
ENDBRANCH  18  19
ENDBRANCH  14  18
ENDBRANCH   7  13
ENDBRANCH   3   6
ENDBRANCH   1   2
BRANCH   1  31
ATOM     31  C   UNL A   1      33.603  28.663  25.034  1.00  0.00     0.023 C 
BRANCH  31  32
ATOM     32  C   UNL A   1      34.911  28.581  25.821  1.00  0.00     0.023 C 
BRANCH  32  33
ATOM     33  C   UNL A   1      34.851  28.986  27.299  1.00  0.00     0.116 C 
BRANCH  33  34
ATOM     34  N   UNL A   1      35.294  30.355  27.536  1.00  0.00    -0.352 N 
ATOM     35  C   UNL A   1      36.466  30.776  28.127  1.00  0.00     0.251 C 
ATOM     36  H   UNL A   1      34.680  31.065  27.239  1.00  0.00     0.163 HD
ATOM     37  O   UNL A   1      36.555  31.930  28.542  1.00  0.00    -0.269 OA
BRANCH  35  38
ATOM     38  C   UNL A   1      37.625  29.862  28.254  1.00  0.00     0.039 A 
ATOM     39  C   UNL A   1      38.544  29.764  27.201  1.00  0.00     0.014 A 
ATOM     40  C   UNL A   1      37.756  29.042  29.379  1.00  0.00     0.014 A 
ATOM     41  C   UNL A   1      39.634  28.897  27.312  1.00  0.00     0.010 A 
ATOM     42  C   UNL A   1      38.838  28.176  29.489  1.00  0.00     0.010 A 
ATOM     43  C   UNL A   1      39.793  28.121  28.470  1.00  0.00    -0.014 A 
BRANCH  43  44
ATOM     44  C   UNL A   1      41.102  27.466  28.733  1.00  0.00     0.031 A 
ATOM     45  C   UNL A   1      41.025  25.977  28.236  1.00  0.00     0.074 A 
ATOM     46  C   UNL A   1      42.082  28.223  29.342  1.00  0.00     0.049 A 
ATOM     47  N   UNL A   1      41.479  24.885  28.775  1.00  0.00    -0.248 NA
ATOM     48  C   UNL A   1      40.184  25.632  27.046  1.00  0.00     0.031 C 
ATOM     49  C   UNL A   1      41.977  29.673  29.654  1.00  0.00     0.029 A 
ATOM     50  N   UNL A   1      43.368  27.973  29.804  1.00  0.00    -0.354 N 
ATOM     51  C   UNL A   1      41.260  23.822  27.848  1.00  0.00     0.074 A 
ATOM     52  C   UNL A   1      40.289  24.303  26.924  1.00  0.00     0.031 C 
ATOM     53  C   UNL A   1      43.072  30.127  30.318  1.00  0.00     0.029 A 
ATOM     54  C   UNL A   1      44.025  29.044  30.496  1.00  0.00     0.049 A 
ATOM     55  H   UNL A   1      43.807  27.104  29.662  1.00  0.00     0.167 HD
ATOM     56  C   UNL A   1      42.088  22.726  27.770  1.00  0.00     0.034 A 
ATOM     57  C   UNL A   1      45.225  29.029  31.180  1.00  0.00     0.034 A 
ATOM     58  C   UNL A   1      43.154  22.936  28.692  1.00  0.00     0.049 A 
ATOM     59  C   UNL A   1      45.808  27.736  30.833  1.00  0.00     0.074 A 
ATOM     60  C   UNL A   1      43.212  22.998  30.058  1.00  0.00     0.029 A 
ATOM     61  N   UNL A   1      44.241  23.574  28.135  1.00  0.00    -0.354 N 
ATOM     62  N   UNL A   1      46.331  27.463  29.677  1.00  0.00    -0.248 NA
ATOM     63  C   UNL A   1      45.739  26.647  31.812  1.00  0.00     0.031 C 
ATOM     64  C   UNL A   1      44.029  24.126  30.255  1.00  0.00     0.029 A 
ATOM     65  C   UNL A   1      44.700  24.450  29.067  1.00  0.00     0.049 A 
ATOM     66  H   UNL A   1      44.614  23.424  27.237  1.00  0.00     0.167 HD
ATOM     67  C   UNL A   1      46.248  26.098  29.670  1.00  0.00     0.074 A 
ATOM     68  C   UNL A   1      46.236  25.671  31.057  1.00  0.00     0.031 C 
ATOM     69  C   UNL A   1      45.574  25.507  28.647  1.00  0.00     0.034 A 
BRANCH  56  70
ATOM     70  C   UNL A   1      42.369  21.623  26.756  1.00  0.00     0.023 A 
ATOM     71  C   UNL A   1      41.589  20.435  26.940  1.00  0.00     0.012 A 
ATOM     72  C   UNL A   1      43.495  21.514  25.928  1.00  0.00     0.148 A 
ATOM     73  C   UNL A   1      42.006  19.179  26.507  1.00  0.00     0.002 A 
ATOM     74  C   UNL A   1      43.873  20.257  25.434  1.00  0.00     0.091 A 
ATOM     75  F   UNL A   1      44.233  22.598  25.676  1.00  0.00    -0.205 F 
ATOM     76  C   UNL A   1      43.166  19.088  25.768  1.00  0.00     0.022 A 
BRANCH  74  77
ATOM     77  S   UNL A   1      45.284  20.004  24.349  1.00  0.00     0.127 S 
ATOM     78  O   UNL A   1      44.743  20.378  23.050  1.00  0.00    -0.237 OA
ATOM     79  O   UNL A   1      46.256  20.948  24.900  1.00  0.00    -0.237 OA
ATOM     80  O   UNL A   1      45.659  18.601  24.516  1.00  0.00    -0.744 OA
ENDBRANCH  74  77
ENDBRANCH  56  70
BRANCH  57  81
ATOM     81  C   UNL A   1      46.081  29.824  32.173  1.00  0.00     0.023 A 
ATOM     82  C   UNL A   1      47.170  30.633  31.836  1.00  0.00     0.012 A 
ATOM     83  C   UNL A   1      45.675  29.895  33.558  1.00  0.00     0.148 A 
ATOM     84  C   UNL A   1      47.734  31.527  32.782  1.00  0.00     0.002 A 
ATOM     85  C   UNL A   1      46.123  30.877  34.434  1.00  0.00     0.091 A 
ATOM     86  F   UNL A   1      44.853  28.967  34.061  1.00  0.00    -0.205 F 
ATOM     87  C   UNL A   1      47.176  31.695  34.054  1.00  0.00     0.022 A 
BRANCH  85  88
ATOM     88  S   UNL A   1      45.264  31.242  35.986  1.00  0.00     0.127 S 
ATOM     89  O   UNL A   1      45.882  30.303  36.919  1.00  0.00    -0.237 OA
ATOM     90  O   UNL A   1      45.630  32.644  36.196  1.00  0.00    -0.237 OA
ATOM     91  O   UNL A   1      43.846  31.018  35.739  1.00  0.00    -0.744 OA
ENDBRANCH  85  88
ENDBRANCH  57  81
BRANCH  69  92
ATOM     92  C   UNL A   1      45.599  26.257  27.307  1.00  0.00     0.023 A 
ATOM     93  C   UNL A   1      44.354  26.728  26.829  1.00  0.00     0.012 A 
ATOM     94  C   UNL A   1      46.715  26.441  26.450  1.00  0.00     0.148 A 
ATOM     95  C   UNL A   1      44.209  27.321  25.572  1.00  0.00     0.002 A 
ATOM     96  C   UNL A   1      46.568  27.023  25.180  1.00  0.00     0.091 A 
ATOM     97  F   UNL A   1      47.915  26.043  26.869  1.00  0.00    -0.205 F 
ATOM     98  C   UNL A   1      45.314  27.467  24.746  1.00  0.00     0.022 A 
BRANCH  96  99
ATOM     99  S   UNL A   1      47.907  27.199  23.975  1.00  0.00     0.127 S 
ATOM    100  O   UNL A   1      48.950  27.872  24.754  1.00  0.00    -0.237 OA
ATOM    101  O   UNL A   1      48.213  25.811  23.642  1.00  0.00    -0.237 OA
ATOM    102  O   UNL A   1      47.377  28.003  22.879  1.00  0.00    -0.744 OA
ENDBRANCH  96  99
ENDBRANCH  69  92
ENDBRANCH  43  44
ENDBRANCH  35  38
ENDBRANCH  33  34
ENDBRANCH  32  33
ENDBRANCH  31  32
ENDBRANCH   1  31
TORSDOF 20
ENDMDL
MODEL 3
REMARK VINA RESULT:     -12.1      4.812     10.758
REMARK SMILES COc1ccc(C[NH2+]Cc2cccn2-c2sc(C)c(C)c2C(=O)NCCCCNC(=O)c2ccc(-c3c4nc(c(-c5cccc(S(=O)(=O)[O-])c5F)c5ccc([nH]5)c(-c5cccc(S(=O)(=O)[O-])c5F)c5nc(c(-c6cccc(S(=O)(=O)[O-])c6F)c6ccc3[nH]6)C=C5)C=C4)cc2)cc1
REMARK SMILES IDX 25 1 24 2 22 3 23 4 21 6 15 7 16 8 17 9 19 10 18 11 20 12
REMARK SMILES IDX 14 13 10 14 11 15 12 16 13 17 9 18 8 19 7 22 6 23 3 24 4 25
REMARK SMILES IDX 96 26 5 27 95 28 2 29 1 30 26 31 27 32 28 33 29 34 30 35
REMARK SMILES IDX 31 37 32 38 33 39 94 40 34 41 93 42 35 43 36 44 37 45 87 46
REMARK SMILES IDX 38 47 92 48 86 49 88 50 39 51 91 52 85 53 84 54 40 56 72 57
REMARK SMILES IDX 52 58 71 59 53 60 56 61 70 62 89 63 54 64 55 65 69 67 90 68
REMARK SMILES IDX 57 69 41 70 42 71 50 72 43 73 45 74 51 75 44 76 46 77 47 78
REMARK SMILES IDX 48 79 49 80 73 81 74 82 82 83 75 84 77 85 83 86 76 87 78 88
REMARK SMILES IDX 79 89 80 90 81 91 58 92 59 93 67 94 60 95 62 96 68 97 61 98
REMARK SMILES IDX 63 99 64 100 65 101 66 102
REMARK H PARENT 24 5 8 20 8 21 29 36 88 55 56 66
REMARK Flexibility Score: inf
ROOT
ATOM      1  C   UNL A   1      32.818  29.884  25.950  1.00  0.00     0.116 C 
ENDROOT
BRANCH   1   2
ATOM      2  N   UNL A   1      33.333  29.689  24.629  1.00  0.00    -0.352 N 
ATOM      3  C   UNL A   1      32.859  28.865  23.622  1.00  0.00     0.254 C 
ATOM      4  O   UNL A   1      33.453  28.970  22.546  1.00  0.00    -0.269 OA
ATOM      5  H   UNL A   1      34.136  30.213  24.405  1.00  0.00     0.163 HD
BRANCH   3   6
ATOM      6  C   UNL A   1      31.805  27.817  23.791  1.00  0.00     0.078 A 
ATOM      7  C   UNL A   1      31.894  26.457  24.062  1.00  0.00     0.113 A 
ATOM      8  S   UNL A   1      30.408  25.637  24.142  1.00  0.00    -0.122 S 
ATOM      9  C   UNL A   1      29.531  27.056  23.831  1.00  0.00     0.007 A 
ATOM     10  C   UNL A   1      30.362  28.159  23.690  1.00  0.00    -0.022 A 
ATOM     11  C   UNL A   1      28.038  26.995  23.768  1.00  0.00     0.057 C 
ATOM     12  C   UNL A   1      29.841  29.551  23.457  1.00  0.00     0.046 C 
BRANCH   7  13
ATOM     13  N   UNL A   1      32.987  25.656  24.400  1.00  0.00    -0.306 N 
ATOM     14  C   UNL A   1      33.636  24.717  23.585  1.00  0.00     0.078 A 
ATOM     15  C   UNL A   1      34.774  24.294  24.262  1.00  0.00     0.029 A 
ATOM     16  C   UNL A   1      34.772  24.891  25.537  1.00  0.00     0.020 A 
ATOM     17  C   UNL A   1      33.674  25.717  25.597  1.00  0.00     0.092 A 
BRANCH  14  18
ATOM     18  C   UNL A   1      33.208  24.402  22.177  1.00  0.00     0.316 C 
BRANCH  18  19
ATOM     19  N   UNL A   1      33.120  22.964  21.929  1.00  0.00    -0.338 N 
ATOM     20  H   UNL A   1      32.904  22.809  20.944  1.00  0.00     0.346 HD
ATOM     21  H   UNL A   1      34.016  22.539  22.171  1.00  0.00     0.346 HD
BRANCH  19  22
ATOM     22  C   UNL A   1      32.079  22.351  22.750  1.00  0.00     0.297 C 
BRANCH  22  23
ATOM     23  C   UNL A   1      32.548  21.040  23.322  1.00  0.00     0.006 A 
ATOM     24  C   UNL A   1      33.498  18.590  24.303  1.00  0.00     0.118 A 
ATOM     25  C   UNL A   1      33.926  19.791  24.872  1.00  0.00     0.047 A 
ATOM     26  C   UNL A   1      32.546  18.610  23.284  1.00  0.00     0.047 A 
ATOM     27  C   UNL A   1      33.457  21.010  24.384  1.00  0.00     0.013 A 
ATOM     28  C   UNL A   1      32.071  19.831  22.798  1.00  0.00     0.013 A 
BRANCH  24  29
ATOM     29  O   UNL A   1      34.041  17.455  24.841  1.00  0.00    -0.497 OA
ATOM     30  C   UNL A   1      33.511  16.238  24.326  1.00  0.00     0.278 C 
ENDBRANCH  24  29
ENDBRANCH  22  23
ENDBRANCH  19  22
ENDBRANCH  18  19
ENDBRANCH  14  18
ENDBRANCH   7  13
ENDBRANCH   3   6
ENDBRANCH   1   2
BRANCH   1  31
ATOM     31  C   UNL A   1      33.707  30.439  27.052  1.00  0.00     0.023 C 
BRANCH  31  32
ATOM     32  C   UNL A   1      33.689  31.948  27.293  1.00  0.00     0.023 C 
BRANCH  32  33
ATOM     33  C   UNL A   1      32.322  32.583  27.574  1.00  0.00     0.116 C 
BRANCH  33  34
ATOM     34  N   UNL A   1      32.372  34.038  27.663  1.00  0.00    -0.352 N 
ATOM     35  C   UNL A   1      33.117  34.809  28.529  1.00  0.00     0.251 C 
ATOM     36  H   UNL A   1      31.805  34.529  27.026  1.00  0.00     0.163 HD
ATOM     37  O   UNL A   1      32.820  35.990  28.699  1.00  0.00    -0.269 OA
BRANCH  35  38
ATOM     38  C   UNL A   1      34.280  34.238  29.247  1.00  0.00     0.039 A 
ATOM     39  C   UNL A   1      34.093  33.655  30.508  1.00  0.00     0.014 A 
ATOM     40  C   UNL A   1      35.566  34.354  28.712  1.00  0.00     0.014 A 
ATOM     41  C   UNL A   1      35.187  33.123  31.195  1.00  0.00     0.010 A 
ATOM     42  C   UNL A   1      36.657  33.828  29.396  1.00  0.00     0.010 A 
ATOM     43  C   UNL A   1      36.467  33.189  30.623  1.00  0.00    -0.014 A 
BRANCH  43  44
ATOM     44  C   UNL A   1      37.556  32.343  31.179  1.00  0.00     0.031 A 
ATOM     45  C   UNL A   1      37.715  31.071  30.270  1.00  0.00     0.074 A 
ATOM     46  C   UNL A   1      38.182  32.783  32.328  1.00  0.00     0.049 A 
ATOM     47  N   UNL A   1      37.919  29.827  30.590  1.00  0.00    -0.248 NA
ATOM     48  C   UNL A   1      37.453  31.169  28.799  1.00  0.00     0.031 C 
ATOM     49  C   UNL A   1      37.936  34.090  32.992  1.00  0.00     0.029 A 
ATOM     50  N   UNL A   1      39.161  32.271  33.168  1.00  0.00    -0.354 N 
ATOM     51  C   UNL A   1      38.123  29.098  29.380  1.00  0.00     0.074 A 
ATOM     52  C   UNL A   1      37.619  29.925  28.335  1.00  0.00     0.031 C 
ATOM     53  C   UNL A   1      38.647  34.214  34.143  1.00  0.00     0.029 A 
ATOM     54  C   UNL A   1      39.454  33.024  34.354  1.00  0.00     0.049 A 
ATOM     55  H   UNL A   1      39.633  31.432  32.961  1.00  0.00     0.167 HD
ATOM     56  C   UNL A   1      38.923  27.982  29.315  1.00  0.00     0.034 A 
ATOM     57  C   UNL A   1      40.259  32.682  35.423  1.00  0.00     0.034 A 
ATOM     58  C   UNL A   1      39.505  27.803  30.604  1.00  0.00     0.049 A 
ATOM     59  C   UNL A   1      40.953  31.481  34.968  1.00  0.00     0.074 A 
ATOM     60  C   UNL A   1      38.986  27.474  31.827  1.00  0.00     0.029 A 
ATOM     61  N   UNL A   1      40.715  28.444  30.752  1.00  0.00    -0.354 N 
ATOM     62  N   UNL A   1      41.914  31.484  34.096  1.00  0.00    -0.248 NA
ATOM     63  C   UNL A   1      40.497  30.176  35.459  1.00  0.00     0.031 C 
ATOM     64  C   UNL A   1      39.630  28.402  32.666  1.00  0.00     0.029 A 
ATOM     65  C   UNL A   1      40.731  28.966  32.006  1.00  0.00     0.049 A 
ATOM     66  H   UNL A   1      41.431  28.510  30.080  1.00  0.00     0.167 HD
ATOM     67  C   UNL A   1      41.862  30.194  33.645  1.00  0.00     0.074 A 
ATOM     68  C   UNL A   1      41.278  29.401  34.712  1.00  0.00     0.031 C 
ATOM     69  C   UNL A   1      41.684  29.993  32.312  1.00  0.00     0.034 A 
BRANCH  56  70
ATOM     70  C   UNL A   1      39.618  27.181  28.219  1.00  0.00     0.023 A 
ATOM     71  C   UNL A   1      39.539  25.759  28.382  1.00  0.00     0.012 A 
ATOM     72  C   UNL A   1      40.575  27.658  27.312  1.00  0.00     0.148 A 
ATOM     73  C   UNL A   1      40.478  24.881  27.847  1.00  0.00     0.002 A 
ATOM     74  C   UNL A   1      41.474  26.761  26.717  1.00  0.00     0.091 A 
ATOM     75  F   UNL A   1      40.661  28.970  27.077  1.00  0.00    -0.205 F 
ATOM     76  C   UNL A   1      41.464  25.389  27.027  1.00  0.00     0.022 A 
BRANCH  74  77
ATOM     77  S   UNL A   1      42.726  27.258  25.527  1.00  0.00     0.127 S 
ATOM     78  O   UNL A   1      42.048  28.320  24.795  1.00  0.00    -0.237 OA
ATOM     79  O   UNL A   1      43.805  27.715  26.403  1.00  0.00    -0.237 OA
ATOM     80  O   UNL A   1      43.048  26.050  24.769  1.00  0.00    -0.744 OA
ENDBRANCH  74  77
ENDBRANCH  56  70
BRANCH  57  81
ATOM     81  C   UNL A   1      40.611  33.066  36.865  1.00  0.00     0.023 A 
ATOM     82  C   UNL A   1      41.747  33.780  37.259  1.00  0.00     0.012 A 
ATOM     83  C   UNL A   1      39.649  32.826  37.915  1.00  0.00     0.148 A 
ATOM     84  C   UNL A   1      41.856  34.310  38.570  1.00  0.00     0.002 A 
ATOM     85  C   UNL A   1      39.684  33.475  39.145  1.00  0.00     0.091 A 
ATOM     86  F   UNL A   1      38.680  31.920  37.740  1.00  0.00    -0.205 F 
ATOM     87  C   UNL A   1      40.806  34.212  39.489  1.00  0.00     0.022 A 
BRANCH  85  88
ATOM     88  S   UNL A   1      38.243  33.534  40.241  1.00  0.00     0.127 S 
ATOM     89  O   UNL A   1      38.589  32.557  41.271  1.00  0.00    -0.237 OA
ATOM     90  O   UNL A   1      38.275  34.928  40.684  1.00  0.00    -0.237 OA
ATOM     91  O   UNL A   1      37.088  33.184  39.426  1.00  0.00    -0.744 OA
ENDBRANCH  85  88
ENDBRANCH  57  81
BRANCH  69  92
ATOM     92  C   UNL A   1      42.256  31.081  31.389  1.00  0.00     0.023 A 
ATOM     93  C   UNL A   1      41.317  31.958  30.800  1.00  0.00     0.012 A 
ATOM     94  C   UNL A   1      43.607  31.236  30.986  1.00  0.00     0.148 A 
ATOM     95  C   UNL A   1      41.681  32.917  29.850  1.00  0.00     0.002 A 
ATOM     96  C   UNL A   1      43.971  32.190  30.019  1.00  0.00     0.091 A 
ATOM     97  F   UNL A   1      44.534  30.454  31.537  1.00  0.00    -0.205 F 
ATOM     98  C   UNL A   1      43.005  33.032  29.457  1.00  0.00     0.022 A 
BRANCH  96  99
ATOM     99  S   UNL A   1      45.645  32.389  29.361  1.00  0.00     0.127 S 
ATOM    100  O   UNL A   1      46.396  32.846  30.533  1.00  0.00    -0.237 OA
ATOM    101  O   UNL A   1      45.977  31.033  28.932  1.00  0.00    -0.237 OA
ATOM    102  O   UNL A   1      45.557  33.378  28.294  1.00  0.00    -0.744 OA
ENDBRANCH  96  99
ENDBRANCH  69  92
ENDBRANCH  43  44
ENDBRANCH  35  38
ENDBRANCH  33  34
ENDBRANCH  32  33
ENDBRANCH  31  32
ENDBRANCH   1  31
TORSDOF 20
ENDMDL
