MODEL 1
REMARK VINA RESULT:     -10.1      0.000      0.000
REMARK SMILES C[C@@H](OCC(F)(F)F)C(=O)NCCCCNC(=O)c1ccc(-c2c3nc(c(-c4cccc(S(=O)(=O)[O-])c4F)c4ccc([nH]4)c(-c4cccc(S(=O)(=O)[O-])c4F)c4nc(c(-c5cccc(S(=O)(=O)[O-])c5F)c5ccc2[nH]5)C=C4)C=C3)cc1
REMARK SMILES IDX 13 1 12 2 11 3 9 4 10 5 2 7 1 8 3 9 4 10 5 11 6 12 7 13 8 14
REMARK SMILES IDX 14 15 15 16 16 17 17 18 18 20 19 21 20 22 81 23 21 24 80 25
REMARK SMILES IDX 22 26 23 27 24 28 74 29 25 30 79 31 73 32 75 33 26 34 78 35
REMARK SMILES IDX 72 36 71 37 27 39 59 40 39 41 58 42 40 43 43 44 57 45 76 46
REMARK SMILES IDX 41 47 42 48 56 50 77 51 44 52 28 53 29 54 37 55 30 56 32 57
REMARK SMILES IDX 38 58 31 59 33 60 34 61 35 62 36 63 60 64 61 65 69 66 62 67
REMARK SMILES IDX 64 68 70 69 63 70 65 71 66 72 67 73 68 74 45 75 46 76 54 77
REMARK SMILES IDX 47 78 49 79 55 80 48 81 50 82 51 83 52 84 53 85
REMARK H PARENT 11 6 16 19 75 38 43 49
REMARK Flexibility Score: inf
ROOT
ATOM      1  C   UNL A   1      34.227  36.154  28.497  1.00  0.00     0.023 C 
ENDROOT
BRANCH   1   2
ATOM      2  C   UNL A   1      33.158  36.157  29.588  1.00  0.00     0.116 C 
BRANCH   2   3
ATOM      3  N   UNL A   1      33.415  37.174  30.589  1.00  0.00    -0.354 N 
ATOM      4  C   UNL A   1      33.265  37.120  31.945  1.00  0.00     0.248 C 
ATOM      5  O   UNL A   1      33.534  38.128  32.603  1.00  0.00    -0.272 OA
ATOM      6  H   UNL A   1      33.745  38.033  30.238  1.00  0.00     0.163 HD
BRANCH   4   7
ATOM      7  C   UNL A   1      32.737  35.847  32.637  1.00  0.00     0.204 C 
ATOM      8  C   UNL A   1      31.219  35.764  32.503  1.00  0.00     0.049 C 
BRANCH   7   9
ATOM      9  O   UNL A   1      33.417  34.697  32.131  1.00  0.00    -0.359 OA
BRANCH   9  10
ATOM     10  C   UNL A   1      34.105  33.883  33.087  1.00  0.00     0.276 C 
BRANCH  10  11
ATOM     11  C   UNL A   1      35.254  34.532  33.857  1.00  0.00     0.411 C 
ATOM     12  F   UNL A   1      36.098  35.192  33.033  1.00  0.00    -0.168 F 
ATOM     13  F   UNL A   1      34.769  35.441  34.738  1.00  0.00    -0.168 F 
ATOM     14  F   UNL A   1      35.971  33.630  34.558  1.00  0.00    -0.168 F 
ENDBRANCH  10  11
ENDBRANCH   9  10
ENDBRANCH   7   9
ENDBRANCH   4   7
ENDBRANCH   2   3
ENDBRANCH   1   2
BRANCH   1  15
ATOM     15  C   UNL A   1      34.437  34.804  27.809  1.00  0.00     0.023 C 
BRANCH  15  16
ATOM     16  C   UNL A   1      33.847  33.600  28.537  1.00  0.00     0.116 C 
BRANCH  16  17
ATOM     17  N   UNL A   1      33.336  32.580  27.633  1.00  0.00    -0.352 N 
ATOM     18  C   UNL A   1      33.882  31.360  27.314  1.00  0.00     0.251 C 
ATOM     19  H   UNL A   1      32.483  32.794  27.189  1.00  0.00     0.163 HD
ATOM     20  O   UNL A   1      33.373  30.671  26.432  1.00  0.00    -0.269 OA
BRANCH  18  21
ATOM     21  C   UNL A   1      35.099  30.895  28.014  1.00  0.00     0.039 A 
ATOM     22  C   UNL A   1      36.226  31.720  28.028  1.00  0.00     0.014 A 
ATOM     23  C   UNL A   1      35.119  29.663  28.674  1.00  0.00     0.014 A 
ATOM     24  C   UNL A   1      37.351  31.340  28.764  1.00  0.00     0.010 A 
ATOM     25  C   UNL A   1      36.213  29.321  29.462  1.00  0.00     0.010 A 
ATOM     26  C   UNL A   1      37.341  30.153  29.516  1.00  0.00    -0.014 A 
BRANCH  26  27
ATOM     27  C   UNL A   1      38.488  29.775  30.380  1.00  0.00     0.031 A 
ATOM     28  C   UNL A   1      38.652  30.396  31.741  1.00  0.00     0.074 A 
ATOM     29  C   UNL A   1      39.437  28.945  29.900  1.00  0.00     0.049 A 
ATOM     30  N   UNL A   1      39.618  30.238  32.607  1.00  0.00    -0.248 NA
ATOM     31  C   UNL A   1      37.609  31.342  32.173  1.00  0.00     0.031 C 
ATOM     32  C   UNL A   1      39.437  28.343  28.565  1.00  0.00     0.029 A 
ATOM     33  N   UNL A   1      40.599  28.488  30.469  1.00  0.00    -0.354 N 
ATOM     34  C   UNL A   1      39.324  31.088  33.666  1.00  0.00     0.074 A 
ATOM     35  C   UNL A   1      38.103  31.784  33.319  1.00  0.00     0.031 C 
ATOM     36  C   UNL A   1      40.542  27.594  28.420  1.00  0.00     0.029 A 
ATOM     37  C   UNL A   1      41.342  27.683  29.636  1.00  0.00     0.049 A 
ATOM     38  H   UNL A   1      40.875  28.716  31.386  1.00  0.00     0.167 HD
ATOM     39  C   UNL A   1      39.990  31.255  34.833  1.00  0.00     0.034 A 
ATOM     40  C   UNL A   1      42.535  27.087  29.829  1.00  0.00     0.034 A 
ATOM     41  C   UNL A   1      41.172  30.523  35.196  1.00  0.00     0.049 A 
ATOM     42  C   UNL A   1      43.229  27.249  31.156  1.00  0.00     0.074 A 
ATOM     43  C   UNL A   1      41.863  30.544  36.396  1.00  0.00     0.029 A 
ATOM     44  N   UNL A   1      41.845  29.643  34.365  1.00  0.00    -0.354 N 
ATOM     45  N   UNL A   1      42.842  27.924  32.211  1.00  0.00    -0.248 NA
ATOM     46  C   UNL A   1      44.503  26.537  31.332  1.00  0.00     0.031 C 
ATOM     47  C   UNL A   1      42.964  29.690  36.282  1.00  0.00     0.029 A 
ATOM     48  C   UNL A   1      42.948  29.121  35.019  1.00  0.00     0.049 A 
ATOM     49  H   UNL A   1      41.578  29.421  33.443  1.00  0.00     0.167 HD
ATOM     50  C   UNL A   1      43.805  27.689  33.187  1.00  0.00     0.074 A 
ATOM     51  C   UNL A   1      44.781  26.793  32.604  1.00  0.00     0.031 C 
ATOM     52  C   UNL A   1      43.881  28.183  34.448  1.00  0.00     0.034 A 
BRANCH  39  53
ATOM     53  C   UNL A   1      39.420  32.227  35.833  1.00  0.00     0.023 A 
ATOM     54  C   UNL A   1      38.441  31.787  36.748  1.00  0.00     0.012 A 
ATOM     55  C   UNL A   1      39.890  33.553  35.909  1.00  0.00     0.148 A 
ATOM     56  C   UNL A   1      37.914  32.659  37.699  1.00  0.00     0.002 A 
ATOM     57  C   UNL A   1      39.392  34.403  36.889  1.00  0.00     0.091 A 
ATOM     58  F   UNL A   1      40.804  33.960  35.016  1.00  0.00    -0.205 F 
ATOM     59  C   UNL A   1      38.396  33.962  37.777  1.00  0.00     0.022 A 
BRANCH  57  60
ATOM     60  S   UNL A   1      40.004  36.076  37.121  1.00  0.00     0.127 S 
ATOM     61  O   UNL A   1      41.430  35.842  37.338  1.00  0.00    -0.237 OA
ATOM     62  O   UNL A   1      39.678  36.704  35.840  1.00  0.00    -0.237 OA
ATOM     63  O   UNL A   1      39.275  36.614  38.261  1.00  0.00    -0.744 OA
ENDBRANCH  57  60
ENDBRANCH  39  53
BRANCH  40  64
ATOM     64  C   UNL A   1      43.114  26.216  28.767  1.00  0.00     0.023 A 
ATOM     65  C   UNL A   1      42.686  24.877  28.667  1.00  0.00     0.012 A 
ATOM     66  C   UNL A   1      44.057  26.706  27.844  1.00  0.00     0.148 A 
ATOM     67  C   UNL A   1      43.209  24.033  27.688  1.00  0.00     0.002 A 
ATOM     68  C   UNL A   1      44.534  25.875  26.835  1.00  0.00     0.091 A 
ATOM     69  F   UNL A   1      44.461  27.978  27.962  1.00  0.00    -0.205 F 
ATOM     70  C   UNL A   1      44.125  24.534  26.766  1.00  0.00     0.022 A 
BRANCH  68  71
ATOM     71  S   UNL A   1      45.613  26.470  25.528  1.00  0.00     0.127 S 
ATOM     72  O   UNL A   1      46.851  26.731  26.258  1.00  0.00    -0.237 OA
ATOM     73  O   UNL A   1      45.661  25.318  24.627  1.00  0.00    -0.237 OA
ATOM     74  O   UNL A   1      44.944  27.637  24.971  1.00  0.00    -0.744 OA
ENDBRANCH  68  71
ENDBRANCH  40  64
BRANCH  52  75
ATOM     75  C   UNL A   1      45.039  27.744  35.303  1.00  0.00     0.023 A 
ATOM     76  C   UNL A   1      46.219  28.513  35.333  1.00  0.00     0.012 A 
ATOM     77  C   UNL A   1      44.928  26.612  36.138  1.00  0.00     0.148 A 
ATOM     78  C   UNL A   1      47.282  28.146  36.158  1.00  0.00     0.002 A 
ATOM     79  C   UNL A   1      45.974  26.282  36.991  1.00  0.00     0.091 A 
ATOM     80  F   UNL A   1      43.805  25.883  36.080  1.00  0.00    -0.205 F 
ATOM     81  C   UNL A   1      47.155  27.040  36.995  1.00  0.00     0.022 A 
BRANCH  79  82
ATOM     82  S   UNL A   1      45.859  24.932  38.171  1.00  0.00     0.127 S 
ATOM     83  O   UNL A   1      47.238  24.833  38.646  1.00  0.00    -0.237 OA
ATOM     84  O   UNL A   1      44.912  25.458  39.155  1.00  0.00    -0.237 OA
ATOM     85  O   UNL A   1      45.371  23.783  37.420  1.00  0.00    -0.744 OA
ENDBRANCH  79  82
ENDBRANCH  52  75
ENDBRANCH  26  27
ENDBRANCH  18  21
ENDBRANCH  16  17
ENDBRANCH  15  16
ENDBRANCH   1  15
TORSDOF 17
ENDMDL
MODEL 2
REMARK VINA RESULT:      -9.6      4.023      5.723
REMARK SMILES C[C@@H](OCC(F)(F)F)C(=O)NCCCCNC(=O)c1ccc(-c2c3nc(c(-c4cccc(S(=O)(=O)[O-])c4F)c4ccc([nH]4)c(-c4cccc(S(=O)(=O)[O-])c4F)c4nc(c(-c5cccc(S(=O)(=O)[O-])c5F)c5ccc2[nH]5)C=C4)C=C3)cc1
REMARK SMILES IDX 13 1 12 2 11 3 9 4 10 5 2 7 1 8 3 9 4 10 5 11 6 12 7 13 8 14
REMARK SMILES IDX 14 15 15 16 16 17 17 18 18 20 19 21 20 22 81 23 21 24 80 25
REMARK SMILES IDX 22 26 23 27 24 28 74 29 25 30 79 31 73 32 75 33 26 34 78 35
REMARK SMILES IDX 72 36 71 37 27 39 59 40 39 41 58 42 40 43 43 44 57 45 76 46
REMARK SMILES IDX 41 47 42 48 56 50 77 51 44 52 28 53 29 54 37 55 30 56 32 57
REMARK SMILES IDX 38 58 31 59 33 60 34 61 35 62 36 63 60 64 61 65 69 66 62 67
REMARK SMILES IDX 64 68 70 69 63 70 65 71 66 72 67 73 68 74 45 75 46 76 54 77
REMARK SMILES IDX 47 78 49 79 55 80 48 81 50 82 51 83 52 84 53 85
REMARK H PARENT 11 6 16 19 75 38 43 49
REMARK Flexibility Score: inf
ROOT
ATOM      1  C   UNL A   1      32.107  27.070  26.031  1.00  0.00     0.023 C 
ENDROOT
BRANCH   1   2
ATOM      2  C   UNL A   1      30.943  26.728  25.103  1.00  0.00     0.116 C 
BRANCH   2   3
ATOM      3  N   UNL A   1      31.259  27.016  23.717  1.00  0.00    -0.354 N 
ATOM      4  C   UNL A   1      30.668  27.892  22.853  1.00  0.00     0.248 C 
ATOM      5  O   UNL A   1      31.102  27.957  21.700  1.00  0.00    -0.272 OA
ATOM      6  H   UNL A   1      32.010  26.500  23.343  1.00  0.00     0.163 HD
BRANCH   4   7
ATOM      7  C   UNL A   1      29.466  28.753  23.290  1.00  0.00     0.204 C 
ATOM      8  C   UNL A   1      29.951  30.062  23.908  1.00  0.00     0.049 C 
BRANCH   7   9
ATOM      9  O   UNL A   1      28.571  28.938  22.192  1.00  0.00    -0.359 OA
BRANCH   9  10
ATOM     10  C   UNL A   1      27.766  30.123  22.210  1.00  0.00     0.276 C 
BRANCH  10  11
ATOM     11  C   UNL A   1      28.130  31.227  21.218  1.00  0.00     0.411 C 
ATOM     12  F   UNL A   1      27.925  32.455  21.741  1.00  0.00    -0.168 F 
ATOM     13  F   UNL A   1      29.444  31.148  20.895  1.00  0.00    -0.168 F 
ATOM     14  F   UNL A   1      27.424  31.134  20.072  1.00  0.00    -0.168 F 
ENDBRANCH  10  11
ENDBRANCH   9  10
ENDBRANCH   7   9
ENDBRANCH   4   7
ENDBRANCH   2   3
ENDBRANCH   1   2
BRANCH   1  15
ATOM     15  C   UNL A   1      32.062  28.480  26.623  1.00  0.00     0.023 C 
BRANCH  15  16
ATOM     16  C   UNL A   1      32.942  29.511  25.924  1.00  0.00     0.116 C 
BRANCH  16  17
ATOM     17  N   UNL A   1      32.671  30.876  26.350  1.00  0.00    -0.352 N 
ATOM     18  C   UNL A   1      33.358  31.648  27.257  1.00  0.00     0.251 C 
ATOM     19  H   UNL A   1      31.889  31.305  25.933  1.00  0.00     0.163 HD
ATOM     20  O   UNL A   1      32.916  32.745  27.590  1.00  0.00    -0.269 OA
BRANCH  18  21
ATOM     21  C   UNL A   1      34.613  31.138  27.852  1.00  0.00     0.039 A 
ATOM     22  C   UNL A   1      35.682  32.020  28.030  1.00  0.00     0.014 A 
ATOM     23  C   UNL A   1      34.724  29.805  28.256  1.00  0.00     0.014 A 
ATOM     24  C   UNL A   1      36.840  31.579  28.677  1.00  0.00     0.010 A 
ATOM     25  C   UNL A   1      35.848  29.389  28.962  1.00  0.00     0.010 A 
ATOM     26  C   UNL A   1      36.918  30.270  29.180  1.00  0.00    -0.014 A 
BRANCH  26  27
ATOM     27  C   UNL A   1      38.100  29.808  29.953  1.00  0.00     0.031 A 
ATOM     28  C   UNL A   1      38.357  30.338  31.337  1.00  0.00     0.074 A 
ATOM     29  C   UNL A   1      38.995  28.985  29.371  1.00  0.00     0.049 A 
ATOM     30  N   UNL A   1      39.364  30.101  32.136  1.00  0.00    -0.248 NA
ATOM     31  C   UNL A   1      37.368  31.283  31.884  1.00  0.00     0.031 C 
ATOM     32  C   UNL A   1      38.904  28.467  28.004  1.00  0.00     0.029 A 
ATOM     33  N   UNL A   1      40.172  28.462  29.844  1.00  0.00    -0.354 N 
ATOM     34  C   UNL A   1      39.154  30.892  33.260  1.00  0.00     0.074 A 
ATOM     35  C   UNL A   1      37.938  31.640  33.026  1.00  0.00     0.031 C 
ATOM     36  C   UNL A   1      39.975  27.698  27.751  1.00  0.00     0.029 A 
ATOM     37  C   UNL A   1      40.844  27.691  28.923  1.00  0.00     0.049 A 
ATOM     38  H   UNL A   1      40.505  28.625  30.756  1.00  0.00     0.167 HD
ATOM     39  C   UNL A   1      39.888  30.968  34.395  1.00  0.00     0.034 A 
ATOM     40  C   UNL A   1      42.027  27.051  29.012  1.00  0.00     0.034 A 
ATOM     41  C   UNL A   1      41.066  30.183  34.646  1.00  0.00     0.049 A 
ATOM     42  C   UNL A   1      42.797  27.112  30.304  1.00  0.00     0.074 A 
ATOM     43  C   UNL A   1      41.821  30.111  35.804  1.00  0.00     0.029 A 
ATOM     44  N   UNL A   1      41.665  29.338  33.725  1.00  0.00    -0.354 N 
ATOM     45  N   UNL A   1      42.490  27.731  31.418  1.00  0.00    -0.248 NA
ATOM     46  C   UNL A   1      44.057  26.357  30.364  1.00  0.00     0.031 C 
ATOM     47  C   UNL A   1      42.888  29.237  35.576  1.00  0.00     0.029 A 
ATOM     48  C   UNL A   1      42.785  28.747  34.284  1.00  0.00     0.049 A 
ATOM     49  H   UNL A   1      41.341  29.181  32.809  1.00  0.00     0.167 HD
ATOM     50  C   UNL A   1      43.497  27.410  32.323  1.00  0.00     0.074 A 
ATOM     51  C   UNL A   1      44.412  26.526  31.631  1.00  0.00     0.031 C 
ATOM     52  C   UNL A   1      43.657  27.822  33.604  1.00  0.00     0.034 A 
BRANCH  39  53
ATOM     53  C   UNL A   1      39.403  31.891  35.483  1.00  0.00     0.023 A 
ATOM     54  C   UNL A   1      38.519  31.400  36.465  1.00  0.00     0.012 A 
ATOM     55  C   UNL A   1      39.865  33.218  35.570  1.00  0.00     0.148 A 
ATOM     56  C   UNL A   1      38.073  32.226  37.496  1.00  0.00     0.002 A 
ATOM     57  C   UNL A   1      39.451  34.022  36.626  1.00  0.00     0.091 A 
ATOM     58  F   UNL A   1      40.688  33.674  34.614  1.00  0.00    -0.205 F 
ATOM     59  C   UNL A   1      38.547  33.531  37.584  1.00  0.00     0.022 A 
BRANCH  57  60
ATOM     60  S   UNL A   1      40.065  35.693  36.870  1.00  0.00     0.127 S 
ATOM     61  O   UNL A   1      39.394  36.076  38.111  1.00  0.00    -0.237 OA
ATOM     62  O   UNL A   1      41.507  35.476  37.000  1.00  0.00    -0.237 OA
ATOM     63  O   UNL A   1      39.670  36.441  35.685  1.00  0.00    -0.744 OA
ENDBRANCH  57  60
ENDBRANCH  39  53
BRANCH  40  64
ATOM     64  C   UNL A   1      42.520  26.233  27.868  1.00  0.00     0.023 A 
ATOM     65  C   UNL A   1      43.487  26.776  27.000  1.00  0.00     0.012 A 
ATOM     66  C   UNL A   1      42.063  24.919  27.651  1.00  0.00     0.148 A 
ATOM     67  C   UNL A   1      43.967  26.040  25.917  1.00  0.00     0.002 A 
ATOM     68  C   UNL A   1      42.587  24.170  26.602  1.00  0.00     0.091 A 
ATOM     69  F   UNL A   1      41.135  24.423  28.479  1.00  0.00    -0.205 F 
ATOM     70  C   UNL A   1      43.525  24.733  25.724  1.00  0.00     0.022 A 
BRANCH  68  71
ATOM     71  S   UNL A   1      42.173  22.438  26.356  1.00  0.00     0.127 S 
ATOM     72  O   UNL A   1      42.996  22.095  25.200  1.00  0.00    -0.237 OA
ATOM     73  O   UNL A   1      42.607  21.841  27.620  1.00  0.00    -0.237 OA
ATOM     74  O   UNL A   1      40.733  22.408  26.144  1.00  0.00    -0.744 OA
ENDBRANCH  68  71
ENDBRANCH  40  64
BRANCH  52  75
ATOM     75  C   UNL A   1      44.846  27.300  34.365  1.00  0.00     0.023 A 
ATOM     76  C   UNL A   1      46.055  28.024  34.358  1.00  0.00     0.012 A 
ATOM     77  C   UNL A   1      44.742  26.133  35.150  1.00  0.00     0.148 A 
ATOM     78  C   UNL A   1      47.151  27.579  35.097  1.00  0.00     0.002 A 
ATOM     79  C   UNL A   1      45.824  25.723  35.920  1.00  0.00     0.091 A 
ATOM     80  F   UNL A   1      43.590  25.448  35.127  1.00  0.00    -0.205 F 
ATOM     81  C   UNL A   1      47.032  26.438  35.887  1.00  0.00     0.022 A 
BRANCH  79  82
ATOM     82  S   UNL A   1      45.728  24.321  37.040  1.00  0.00     0.127 S 
ATOM     83  O   UNL A   1      44.633  24.718  37.921  1.00  0.00    -0.237 OA
ATOM     84  O   UNL A   1      45.413  23.218  36.132  1.00  0.00    -0.237 OA
ATOM     85  O   UNL A   1      47.037  24.224  37.672  1.00  0.00    -0.744 OA
ENDBRANCH  79  82
ENDBRANCH  52  75
ENDBRANCH  26  27
ENDBRANCH  18  21
ENDBRANCH  16  17
ENDBRANCH  15  16
ENDBRANCH   1  15
TORSDOF 17
ENDMDL
MODEL 3
REMARK VINA RESULT:      -9.6      1.926      2.268
REMARK SMILES C[C@@H](OCC(F)(F)F)C(=O)NCCCCNC(=O)c1ccc(-c2c3nc(c(-c4cccc(S(=O)(=O)[O-])c4F)c4ccc([nH]4)c(-c4cccc(S(=O)(=O)[O-])c4F)c4nc(c(-c5cccc(S(=O)(=O)[O-])c5F)c5ccc2[nH]5)C=C4)C=C3)cc1
REMARK SMILES IDX 13 1 12 2 11 3 9 4 10 5 2 7 1 8 3 9 4 10 5 11 6 12 7 13 8 14
REMARK SMILES IDX 14 15 15 16 16 17 17 18 18 20 19 21 20 22 81 23 21 24 80 25
REMARK SMILES IDX 22 26 23 27 24 28 74 29 25 30 79 31 73 32 75 33 26 34 78 35
REMARK SMILES IDX 72 36 71 37 27 39 59 40 39 41 58 42 40 43 43 44 57 45 76 46
REMARK SMILES IDX 41 47 42 48 56 50 77 51 44 52 28 53 29 54 37 55 30 56 32 57
REMARK SMILES IDX 38 58 31 59 33 60 34 61 35 62 36 63 60 64 61 65 69 66 62 67
REMARK SMILES IDX 64 68 70 69 63 70 65 71 66 72 67 73 68 74 45 75 46 76 54 77
REMARK SMILES IDX 47 78 49 79 55 80 48 81 50 82 51 83 52 84 53 85
REMARK H PARENT 11 6 16 19 75 38 43 49
REMARK Flexibility Score: inf
ROOT
ATOM      1  C   UNL A   1      34.230  36.062  28.524  1.00  0.00     0.023 C 
ENDROOT
BRANCH   1   2
ATOM      2  C   UNL A   1      33.077  36.198  29.516  1.00  0.00     0.116 C 
BRANCH   2   3
ATOM      3  N   UNL A   1      33.326  37.243  30.491  1.00  0.00    -0.354 N 
ATOM      4  C   UNL A   1      33.224  37.207  31.852  1.00  0.00     0.248 C 
ATOM      5  O   UNL A   1      33.475  38.236  32.483  1.00  0.00    -0.272 OA
ATOM      6  H   UNL A   1      33.611  38.107  30.114  1.00  0.00     0.163 HD
BRANCH   4   7
ATOM      7  C   UNL A   1      32.769  35.928  32.582  1.00  0.00     0.204 C 
ATOM      8  C   UNL A   1      31.248  35.811  32.547  1.00  0.00     0.049 C 
BRANCH   7   9
ATOM      9  O   UNL A   1      33.440  34.789  32.039  1.00  0.00    -0.359 OA
BRANCH   9  10
ATOM     10  C   UNL A   1      34.091  33.919  32.971  1.00  0.00     0.276 C 
BRANCH  10  11
ATOM     11  C   UNL A   1      35.277  34.490  33.747  1.00  0.00     0.411 C 
ATOM     12  F   UNL A   1      36.064  35.259  32.962  1.00  0.00    -0.168 F 
ATOM     13  F   UNL A   1      34.836  35.279  34.758  1.00  0.00    -0.168 F 
ATOM     14  F   UNL A   1      36.043  33.523  34.292  1.00  0.00    -0.168 F 
ENDBRANCH  10  11
ENDBRANCH   9  10
ENDBRANCH   7   9
ENDBRANCH   4   7
ENDBRANCH   2   3
ENDBRANCH   1   2
BRANCH   1  15
ATOM     15  C   UNL A   1      34.363  34.680  27.881  1.00  0.00     0.023 C 
BRANCH  15  16
ATOM     16  C   UNL A   1      33.724  33.533  28.658  1.00  0.00     0.116 C 
BRANCH  16  17
ATOM     17  N   UNL A   1      33.180  32.494  27.797  1.00  0.00    -0.352 N 
ATOM     18  C   UNL A   1      33.771  31.326  27.376  1.00  0.00     0.251 C 
ATOM     19  H   UNL A   1      32.263  32.648  27.470  1.00  0.00     0.163 HD
ATOM     20  O   UNL A   1      33.207  30.616  26.546  1.00  0.00    -0.269 OA
BRANCH  18  21
ATOM     21  C   UNL A   1      35.100  30.945  27.903  1.00  0.00     0.039 A 
ATOM     22  C   UNL A   1      36.148  31.865  27.819  1.00  0.00     0.014 A 
ATOM     23  C   UNL A   1      35.303  29.698  28.499  1.00  0.00     0.014 A 
ATOM     24  C   UNL A   1      37.383  31.559  28.396  1.00  0.00     0.010 A 
ATOM     25  C   UNL A   1      36.511  29.425  29.134  1.00  0.00     0.010 A 
ATOM     26  C   UNL A   1      37.564  30.351  29.089  1.00  0.00    -0.014 A 
BRANCH  26  27
ATOM     27  C   UNL A   1      38.837  30.045  29.791  1.00  0.00     0.031 A 
ATOM     28  C   UNL A   1      39.097  30.594  31.167  1.00  0.00     0.074 A 
ATOM     29  C   UNL A   1      39.800  29.352  29.149  1.00  0.00     0.049 A 
ATOM     30  N   UNL A   1      40.169  30.487  31.908  1.00  0.00    -0.248 NA
ATOM     31  C   UNL A   1      38.024  31.394  31.780  1.00  0.00     0.031 C 
ATOM     32  C   UNL A   1      39.703  28.837  27.782  1.00  0.00     0.029 A 
ATOM     33  N   UNL A   1      41.060  28.987  29.551  1.00  0.00    -0.354 N 
ATOM     34  C   UNL A   1      39.918  31.234  33.052  1.00  0.00     0.074 A 
ATOM     35  C   UNL A   1      38.602  31.816  32.895  1.00  0.00     0.031 C 
ATOM     36  C   UNL A   1      40.851  28.221  27.460  1.00  0.00     0.029 A 
ATOM     37  C   UNL A   1      41.777  28.320  28.584  1.00  0.00     0.049 A 
ATOM     38  H   UNL A   1      41.419  29.186  30.446  1.00  0.00     0.167 HD
ATOM     39  C   UNL A   1      40.697  31.399  34.148  1.00  0.00     0.034 A 
ATOM     40  C   UNL A   1      43.037  27.843  28.600  1.00  0.00     0.034 A 
ATOM     41  C   UNL A   1      41.981  30.776  34.323  1.00  0.00     0.049 A 
ATOM     42  C   UNL A   1      43.863  27.996  29.850  1.00  0.00     0.074 A 
ATOM     43  C   UNL A   1      42.802  30.796  35.438  1.00  0.00     0.029 A 
ATOM     44  N   UNL A   1      42.636  30.025  33.359  1.00  0.00    -0.354 N 
ATOM     45  N   UNL A   1      43.538  28.560  30.988  1.00  0.00    -0.248 NA
ATOM     46  C   UNL A   1      45.213  27.415  29.831  1.00  0.00     0.031 C 
ATOM     47  C   UNL A   1      43.961  30.074  35.140  1.00  0.00     0.029 A 
ATOM     48  C   UNL A   1      43.853  29.585  33.848  1.00  0.00     0.049 A 
ATOM     49  H   UNL A   1      42.285  29.834  32.459  1.00  0.00     0.167 HD
ATOM     50  C   UNL A   1      44.627  28.369  31.832  1.00  0.00     0.074 A 
ATOM     51  C   UNL A   1      45.611  27.620  31.080  1.00  0.00     0.031 C 
ATOM     52  C   UNL A   1      44.801  28.789  33.109  1.00  0.00     0.034 A 
BRANCH  39  53
ATOM     53  C   UNL A   1      40.155  32.240  35.273  1.00  0.00     0.023 A 
ATOM     54  C   UNL A   1      40.505  33.604  35.350  1.00  0.00     0.012 A 
ATOM     55  C   UNL A   1      39.257  31.704  36.216  1.00  0.00     0.148 A 
ATOM     56  C   UNL A   1      39.999  34.411  36.367  1.00  0.00     0.002 A 
ATOM     57  C   UNL A   1      38.720  32.526  37.200  1.00  0.00     0.091 A 
ATOM     58  F   UNL A   1      38.952  30.400  36.140  1.00  0.00    -0.205 F 
ATOM     59  C   UNL A   1      39.099  33.877  37.284  1.00  0.00     0.022 A 
BRANCH  57  60
ATOM     60  S   UNL A   1      37.495  31.950  38.380  1.00  0.00     0.127 S 
ATOM     61  O   UNL A   1      36.370  32.839  38.095  1.00  0.00    -0.237 OA
ATOM     62  O   UNL A   1      37.294  30.562  37.965  1.00  0.00    -0.237 OA
ATOM     63  O   UNL A   1      38.101  32.107  39.695  1.00  0.00    -0.744 OA
ENDBRANCH  57  60
ENDBRANCH  39  53
BRANCH  40  64
ATOM     64  C   UNL A   1      43.570  27.107  27.419  1.00  0.00     0.023 A 
ATOM     65  C   UNL A   1      44.337  27.802  26.464  1.00  0.00     0.012 A 
ATOM     66  C   UNL A   1      43.350  25.726  27.250  1.00  0.00     0.148 A 
ATOM     67  C   UNL A   1      44.848  27.144  25.345  1.00  0.00     0.002 A 
ATOM     68  C   UNL A   1      43.909  25.065  26.161  1.00  0.00     0.091 A 
ATOM     69  F   UNL A   1      42.609  25.084  28.162  1.00  0.00    -0.205 F 
ATOM     70  C   UNL A   1      44.643  25.775  25.198  1.00  0.00     0.022 A 
BRANCH  68  71
ATOM     71  S   UNL A   1      43.807  23.282  25.962  1.00  0.00     0.127 S 
ATOM     72  O   UNL A   1      44.092  23.123  24.538  1.00  0.00    -0.237 OA
ATOM     73  O   UNL A   1      44.865  22.816  26.858  1.00  0.00    -0.237 OA
ATOM     74  O   UNL A   1      42.462  22.919  26.386  1.00  0.00    -0.744 OA
ENDBRANCH  68  71
ENDBRANCH  40  64
BRANCH  52  75
ATOM     75  C   UNL A   1      46.089  28.424  33.797  1.00  0.00     0.023 A 
ATOM     76  C   UNL A   1      47.168  29.331  33.790  1.00  0.00     0.012 A 
ATOM     77  C   UNL A   1      46.203  27.217  34.516  1.00  0.00     0.148 A 
ATOM     78  C   UNL A   1      48.351  29.028  34.465  1.00  0.00     0.002 A 
ATOM     79  C   UNL A   1      47.368  26.945  35.224  1.00  0.00     0.091 A 
ATOM     80  F   UNL A   1      45.173  26.359  34.494  1.00  0.00    -0.205 F 
ATOM     81  C   UNL A   1      48.446  27.843  35.191  1.00  0.00     0.022 A 
BRANCH  79  82
ATOM     82  S   UNL A   1      47.542  25.491  36.264  1.00  0.00     0.127 S 
ATOM     83  O   UNL A   1      48.892  25.664  36.796  1.00  0.00    -0.237 OA
ATOM     84  O   UNL A   1      46.471  25.677  37.243  1.00  0.00    -0.237 OA
ATOM     85  O   UNL A   1      47.359  24.344  35.383  1.00  0.00    -0.744 OA
ENDBRANCH  79  82
ENDBRANCH  52  75
ENDBRANCH  26  27
ENDBRANCH  18  21
ENDBRANCH  16  17
ENDBRANCH  15  16
ENDBRANCH   1  15
TORSDOF 17
ENDMDL
