MODEL 1
REMARK VINA RESULT:     -10.6      0.000      0.000
REMARK SMILES CC(C)[C@@H](NC(=O)[C@@](C)([NH3+])C(F)(F)F)C(=O)NCCCCNC(=O)c1ccc(-c2c3nc(c(-c4cccc(S(=O)(=O)[O-])c4F)c4ccc([nH]4)c(-c4cccc(S(=O)(=O)[O-])c4F)c4nc(c(-c5cccc(S(=O)(=O)[O-])c5F)c5ccc2[nH]5)C=C4)C=C3)cc1
REMARK SMILES IDX 19 1 18 2 17 3 15 4 16 5 4 7 2 8 1 9 3 10 5 11 6 12 7 14
REMARK SMILES IDX 8 15 9 16 10 17 11 21 12 22 13 23 14 24 20 25 21 26 22 27
REMARK SMILES IDX 23 28 24 30 25 31 26 32 87 33 27 34 86 35 28 36 29 37 30 38
REMARK SMILES IDX 80 39 31 40 85 41 79 42 81 43 32 44 84 45 78 46 77 47 33 49
REMARK SMILES IDX 65 50 45 51 64 52 46 53 49 54 63 55 82 56 47 57 48 58 62 60
REMARK SMILES IDX 83 61 50 62 34 63 35 64 43 65 36 66 38 67 44 68 37 69 39 70
REMARK SMILES IDX 40 71 41 72 42 73 66 74 67 75 75 76 68 77 70 78 76 79 69 80
REMARK SMILES IDX 71 81 72 82 73 83 74 84 51 85 52 86 60 87 53 88 55 89 61 90
REMARK SMILES IDX 54 91 56 92 57 93 58 94 59 95
REMARK H PARENT 17 6 5 13 10 18 10 19 10 20 22 29 81 48 49 59
REMARK Flexibility Score: inf
ROOT
ATOM      1  C   UNL A   1      33.547  28.765  24.358  1.00  0.00     0.023 C 
ENDROOT
BRANCH   1   2
ATOM      2  C   UNL A   1      33.685  27.249  24.416  1.00  0.00     0.116 C 
BRANCH   2   3
ATOM      3  N   UNL A   1      32.995  26.591  23.319  1.00  0.00    -0.354 N 
ATOM      4  C   UNL A   1      32.189  25.489  23.347  1.00  0.00     0.242 C 
ATOM      5  O   UNL A   1      31.468  25.271  22.370  1.00  0.00    -0.273 OA
ATOM      6  H   UNL A   1      33.128  26.996  22.432  1.00  0.00     0.163 HD
BRANCH   4   7
ATOM      7  C   UNL A   1      32.187  24.523  24.542  1.00  0.00     0.174 C 
BRANCH   7   8
ATOM      8  C   UNL A   1      30.822  24.640  25.302  1.00  0.00     0.015 C 
ATOM      9  C   UNL A   1      30.619  23.560  26.369  1.00  0.00     0.010 C 
ATOM     10  C   UNL A   1      30.618  26.018  25.954  1.00  0.00     0.010 C 
ENDBRANCH   7   8
BRANCH   7  11
ATOM     11  N   UNL A   1      32.482  23.140  24.126  1.00  0.00    -0.338 N 
ATOM     12  C   UNL A   1      33.307  22.170  24.638  1.00  0.00     0.291 C 
ATOM     13  H   UNL A   1      31.991  22.856  23.321  1.00  0.00     0.164 HD
ATOM     14  O   UNL A   1      32.955  21.023  24.334  1.00  0.00    -0.267 OA
BRANCH  12  15
ATOM     15  C   UNL A   1      34.614  22.434  25.437  1.00  0.00     0.267 C 
ATOM     16  C   UNL A   1      34.409  23.455  26.565  1.00  0.00     0.100 C 
BRANCH  15  17
ATOM     17  N   UNL A   1      35.122  21.148  26.029  1.00  0.00    -0.337 N 
ATOM     18  H   UNL A   1      35.320  20.483  25.281  1.00  0.00     0.345 HD
ATOM     19  H   UNL A   1      34.415  20.758  26.652  1.00  0.00     0.345 HD
ATOM     20  H   UNL A   1      35.976  21.330  26.556  1.00  0.00     0.345 HD
ENDBRANCH  15  17
BRANCH  15  21
ATOM     21  C   UNL A   1      35.620  23.110  24.449  1.00  0.00     0.453 C 
ATOM     22  F   UNL A   1      36.914  22.939  24.797  1.00  0.00    -0.164 F 
ATOM     23  F   UNL A   1      35.461  22.691  23.172  1.00  0.00    -0.164 F 
ATOM     24  F   UNL A   1      35.401  24.457  24.434  1.00  0.00    -0.164 F 
ENDBRANCH  15  21
ENDBRANCH  12  15
ENDBRANCH   7  11
ENDBRANCH   4   7
ENDBRANCH   2   3
ENDBRANCH   1   2
BRANCH   1  25
ATOM     25  C   UNL A   1      32.407  29.331  25.206  1.00  0.00     0.023 C 
BRANCH  25  26
ATOM     26  C   UNL A   1      32.802  29.736  26.621  1.00  0.00     0.116 C 
BRANCH  26  27
ATOM     27  N   UNL A   1      32.745  31.175  26.825  1.00  0.00    -0.352 N 
ATOM     28  C   UNL A   1      33.615  31.980  27.529  1.00  0.00     0.251 C 
ATOM     29  H   UNL A   1      31.984  31.636  26.404  1.00  0.00     0.163 HD
ATOM     30  O   UNL A   1      33.335  33.145  27.760  1.00  0.00    -0.269 OA
BRANCH  28  31
ATOM     31  C   UNL A   1      34.880  31.395  28.021  1.00  0.00     0.039 A 
ATOM     32  C   UNL A   1      36.031  32.185  28.039  1.00  0.00     0.014 A 
ATOM     33  C   UNL A   1      34.905  30.087  28.509  1.00  0.00     0.014 A 
ATOM     34  C   UNL A   1      37.198  31.681  28.618  1.00  0.00     0.010 A 
ATOM     35  C   UNL A   1      36.045  29.618  29.153  1.00  0.00     0.010 A 
ATOM     36  C   UNL A   1      37.204  30.408  29.212  1.00  0.00    -0.014 A 
BRANCH  36  37
ATOM     37  C   UNL A   1      38.411  29.870  29.892  1.00  0.00     0.031 A 
ATOM     38  C   UNL A   1      38.806  30.410  31.240  1.00  0.00     0.074 A 
ATOM     39  C   UNL A   1      39.197  28.975  29.263  1.00  0.00     0.049 A 
ATOM     40  N   UNL A   1      39.877  30.158  31.948  1.00  0.00    -0.248 NA
ATOM     41  C   UNL A   1      37.892  31.384  31.862  1.00  0.00     0.031 C 
ATOM     42  C   UNL A   1      38.956  28.421  27.929  1.00  0.00     0.029 A 
ATOM     43  N   UNL A   1      40.380  28.394  29.651  1.00  0.00    -0.354 N 
ATOM     44  C   UNL A   1      39.783  30.965  33.076  1.00  0.00     0.074 A 
ATOM     45  C   UNL A   1      38.571  31.742  32.942  1.00  0.00     0.031 C 
ATOM     46  C   UNL A   1      39.956  27.582  27.612  1.00  0.00     0.029 A 
ATOM     47  C   UNL A   1      40.927  27.562  28.701  1.00  0.00     0.049 A 
ATOM     48  H   UNL A   1      40.797  28.558  30.528  1.00  0.00     0.167 HD
ATOM     49  C   UNL A   1      40.612  31.030  34.144  1.00  0.00     0.034 A 
ATOM     50  C   UNL A   1      42.085  26.872  28.705  1.00  0.00     0.034 A 
ATOM     51  C   UNL A   1      41.790  30.222  34.298  1.00  0.00     0.049 A 
ATOM     52  C   UNL A   1      42.974  26.944  29.918  1.00  0.00     0.074 A 
ATOM     53  C   UNL A   1      42.662  30.170  35.370  1.00  0.00     0.029 A 
ATOM     54  N   UNL A   1      42.259  29.322  33.354  1.00  0.00    -0.354 N 
ATOM     55  N   UNL A   1      42.799  27.613  31.032  1.00  0.00    -0.248 NA
ATOM     56  C   UNL A   1      44.204  26.137  29.892  1.00  0.00     0.031 C 
ATOM     57  C   UNL A   1      43.667  29.244  35.070  1.00  0.00     0.029 A 
ATOM     58  C   UNL A   1      43.406  28.703  33.820  1.00  0.00     0.049 A 
ATOM     59  H   UNL A   1      41.838  29.147  32.481  1.00  0.00     0.167 HD
ATOM     60  C   UNL A   1      43.867  27.269  31.855  1.00  0.00     0.074 A 
ATOM     61  C   UNL A   1      44.677  26.323  31.116  1.00  0.00     0.031 C 
ATOM     62  C   UNL A   1      44.155  27.706  33.105  1.00  0.00     0.034 A 
BRANCH  49  63
ATOM     63  C   UNL A   1      40.238  31.965  35.265  1.00  0.00     0.023 A 
ATOM     64  C   UNL A   1      40.872  33.219  35.358  1.00  0.00     0.012 A 
ATOM     65  C   UNL A   1      39.220  31.634  36.180  1.00  0.00     0.148 A 
ATOM     66  C   UNL A   1      40.525  34.119  36.366  1.00  0.00     0.002 A 
ATOM     67  C   UNL A   1      38.846  32.554  37.153  1.00  0.00     0.091 A 
ATOM     68  F   UNL A   1      38.640  30.429  36.085  1.00  0.00    -0.205 F 
ATOM     69  C   UNL A   1      39.505  33.790  37.255  1.00  0.00     0.022 A 
BRANCH  67  70
ATOM     70  S   UNL A   1      37.491  32.264  38.295  1.00  0.00     0.127 S 
ATOM     71  O   UNL A   1      37.366  30.808  38.240  1.00  0.00    -0.237 OA
ATOM     72  O   UNL A   1      38.031  32.783  39.551  1.00  0.00    -0.237 OA
ATOM     73  O   UNL A   1      36.354  33.007  37.768  1.00  0.00    -0.744 OA
ENDBRANCH  67  70
ENDBRANCH  49  63
BRANCH  50  74
ATOM     74  C   UNL A   1      42.444  25.995  27.553  1.00  0.00     0.023 A 
ATOM     75  C   UNL A   1      43.209  26.527  26.495  1.00  0.00     0.012 A 
ATOM     76  C   UNL A   1      42.038  24.649  27.492  1.00  0.00     0.148 A 
ATOM     77  C   UNL A   1      43.524  25.749  25.381  1.00  0.00     0.002 A 
ATOM     78  C   UNL A   1      42.403  23.863  26.406  1.00  0.00     0.091 A 
ATOM     79  F   UNL A   1      41.300  24.161  28.500  1.00  0.00    -0.205 F 
ATOM     80  C   UNL A   1      43.130  24.415  25.339  1.00  0.00     0.022 A 
BRANCH  78  81
ATOM     81  S   UNL A   1      42.047  22.103  26.331  1.00  0.00     0.127 S 
ATOM     82  O   UNL A   1      42.508  21.648  27.639  1.00  0.00    -0.237 OA
ATOM     83  O   UNL A   1      40.595  22.094  26.150  1.00  0.00    -0.237 OA
ATOM     84  O   UNL A   1      42.793  21.604  25.183  1.00  0.00    -0.744 OA
ENDBRANCH  78  81
ENDBRANCH  50  74
BRANCH  62  85
ATOM     85  C   UNL A   1      45.360  27.122  33.794  1.00  0.00     0.023 A 
ATOM     86  C   UNL A   1      46.605  27.774  33.712  1.00  0.00     0.012 A 
ATOM     87  C   UNL A   1      45.230  25.976  34.603  1.00  0.00     0.148 A 
ATOM     88  C   UNL A   1      47.710  27.279  34.403  1.00  0.00     0.002 A 
ATOM     89  C   UNL A   1      46.323  25.516  35.329  1.00  0.00     0.091 A 
ATOM     90  F   UNL A   1      44.040  25.360  34.653  1.00  0.00    -0.205 F 
ATOM     91  C   UNL A   1      47.565  26.160  35.221  1.00  0.00     0.022 A 
BRANCH  89  92
ATOM     92  S   UNL A   1      46.205  24.145  36.482  1.00  0.00     0.127 S 
ATOM     93  O   UNL A   1      45.161  24.612  37.395  1.00  0.00    -0.237 OA
ATOM     94  O   UNL A   1      45.803  23.040  35.612  1.00  0.00    -0.237 OA
ATOM     95  O   UNL A   1      47.528  23.999  37.072  1.00  0.00    -0.744 OA
ENDBRANCH  89  92
ENDBRANCH  62  85
ENDBRANCH  36  37
ENDBRANCH  28  31
ENDBRANCH  26  27
ENDBRANCH  25  26
ENDBRANCH   1  25
TORSDOF 19
ENDMDL
MODEL 2
REMARK VINA RESULT:     -10.6      1.668      2.354
REMARK SMILES CC(C)[C@@H](NC(=O)[C@@](C)([NH3+])C(F)(F)F)C(=O)NCCCCNC(=O)c1ccc(-c2c3nc(c(-c4cccc(S(=O)(=O)[O-])c4F)c4ccc([nH]4)c(-c4cccc(S(=O)(=O)[O-])c4F)c4nc(c(-c5cccc(S(=O)(=O)[O-])c5F)c5ccc2[nH]5)C=C4)C=C3)cc1
REMARK SMILES IDX 19 1 18 2 17 3 15 4 16 5 4 7 2 8 1 9 3 10 5 11 6 12 7 14
REMARK SMILES IDX 8 15 9 16 10 17 11 21 12 22 13 23 14 24 20 25 21 26 22 27
REMARK SMILES IDX 23 28 24 30 25 31 26 32 87 33 27 34 86 35 28 36 29 37 30 38
REMARK SMILES IDX 80 39 31 40 85 41 79 42 81 43 32 44 84 45 78 46 77 47 33 49
REMARK SMILES IDX 65 50 45 51 64 52 46 53 49 54 63 55 82 56 47 57 48 58 62 60
REMARK SMILES IDX 83 61 50 62 34 63 35 64 43 65 36 66 38 67 44 68 37 69 39 70
REMARK SMILES IDX 40 71 41 72 42 73 66 74 67 75 75 76 68 77 70 78 76 79 69 80
REMARK SMILES IDX 71 81 72 82 73 83 74 84 51 85 52 86 60 87 53 88 55 89 61 90
REMARK SMILES IDX 54 91 56 92 57 93 58 94 59 95
REMARK H PARENT 17 6 5 13 10 18 10 19 10 20 22 29 81 48 49 59
REMARK Flexibility Score: inf
ROOT
ATOM      1  C   UNL A   1      31.028  31.038  25.448  1.00  0.00     0.023 C 
ENDROOT
BRANCH   1   2
ATOM      2  C   UNL A   1      31.803  29.732  25.576  1.00  0.00     0.116 C 
BRANCH   2   3
ATOM      3  N   UNL A   1      32.746  29.542  24.488  1.00  0.00    -0.354 N 
ATOM      4  C   UNL A   1      32.671  28.690  23.424  1.00  0.00     0.242 C 
ATOM      5  O   UNL A   1      33.418  28.891  22.462  1.00  0.00    -0.273 OA
ATOM      6  H   UNL A   1      33.552  30.107  24.521  1.00  0.00     0.163 HD
BRANCH   4   7
ATOM      7  C   UNL A   1      31.708  27.492  23.418  1.00  0.00     0.174 C 
BRANCH   7   8
ATOM      8  C   UNL A   1      30.415  27.869  22.621  1.00  0.00     0.015 C 
ATOM      9  C   UNL A   1      29.117  27.516  23.353  1.00  0.00     0.010 C 
ATOM     10  C   UNL A   1      30.367  29.355  22.229  1.00  0.00     0.010 C 
ENDBRANCH   7   8
BRANCH   7  11
ATOM     11  N   UNL A   1      32.356  26.274  22.896  1.00  0.00    -0.338 N 
ATOM     12  C   UNL A   1      32.436  24.988  23.367  1.00  0.00     0.291 C 
ATOM     13  H   UNL A   1      32.825  26.411  22.041  1.00  0.00     0.164 HD
ATOM     14  O   UNL A   1      32.635  24.155  22.474  1.00  0.00    -0.267 OA
BRANCH  12  15
ATOM     15  C   UNL A   1      32.389  24.576  24.866  1.00  0.00     0.267 C 
ATOM     16  C   UNL A   1      31.225  25.242  25.614  1.00  0.00     0.100 C 
BRANCH  15  17
ATOM     17  N   UNL A   1      32.255  23.083  24.984  1.00  0.00    -0.337 N 
ATOM     18  H   UNL A   1      32.265  22.817  25.969  1.00  0.00     0.345 HD
ATOM     19  H   UNL A   1      33.033  22.632  24.502  1.00  0.00     0.345 HD
ATOM     20  H   UNL A   1      31.375  22.786  24.560  1.00  0.00     0.345 HD
ENDBRANCH  15  17
BRANCH  15  21
ATOM     21  C   UNL A   1      33.684  25.145  25.533  1.00  0.00     0.453 C 
ATOM     22  F   UNL A   1      34.165  24.365  26.524  1.00  0.00    -0.164 F 
ATOM     23  F   UNL A   1      34.678  25.366  24.640  1.00  0.00    -0.164 F 
ATOM     24  F   UNL A   1      33.407  26.356  26.096  1.00  0.00    -0.164 F 
ENDBRANCH  15  21
ENDBRANCH  12  15
ENDBRANCH   7  11
ENDBRANCH   4   7
ENDBRANCH   2   3
ENDBRANCH   1   2
BRANCH   1  25
ATOM     25  C   UNL A   1      31.157  31.973  26.651  1.00  0.00     0.023 C 
BRANCH  25  26
ATOM     26  C   UNL A   1      32.565  32.498  26.905  1.00  0.00     0.116 C 
BRANCH  26  27
ATOM     27  N   UNL A   1      32.566  33.837  27.474  1.00  0.00    -0.352 N 
ATOM     28  C   UNL A   1      33.388  34.356  28.452  1.00  0.00     0.251 C 
ATOM     29  H   UNL A   1      31.889  34.454  27.114  1.00  0.00     0.163 HD
ATOM     30  O   UNL A   1      33.149  35.443  28.951  1.00  0.00    -0.269 OA
BRANCH  28  31
ATOM     31  C   UNL A   1      34.548  33.558  28.899  1.00  0.00     0.039 A 
ATOM     32  C   UNL A   1      35.832  34.087  28.756  1.00  0.00     0.014 A 
ATOM     33  C   UNL A   1      34.352  32.315  29.505  1.00  0.00     0.014 A 
ATOM     34  C   UNL A   1      36.921  33.395  29.291  1.00  0.00     0.010 A 
ATOM     35  C   UNL A   1      35.428  31.668  30.102  1.00  0.00     0.010 A 
ATOM     36  C   UNL A   1      36.724  32.198  29.999  1.00  0.00    -0.014 A 
BRANCH  36  37
ATOM     37  C   UNL A   1      37.854  31.472  30.634  1.00  0.00     0.031 A 
ATOM     38  C   UNL A   1      38.233  31.785  32.056  1.00  0.00     0.074 A 
ATOM     39  C   UNL A   1      38.594  30.609  29.909  1.00  0.00     0.049 A 
ATOM     40  N   UNL A   1      39.249  31.349  32.755  1.00  0.00    -0.248 NA
ATOM     41  C   UNL A   1      37.372  32.736  32.781  1.00  0.00     0.031 C 
ATOM     42  C   UNL A   1      38.367  30.268  28.503  1.00  0.00     0.029 A 
ATOM     43  N   UNL A   1      39.710  29.883  30.248  1.00  0.00    -0.354 N 
ATOM     44  C   UNL A   1      39.170  31.996  33.982  1.00  0.00     0.074 A 
ATOM     45  C   UNL A   1      38.030  32.883  33.921  1.00  0.00     0.031 C 
ATOM     46  C   UNL A   1      39.311  29.400  28.102  1.00  0.00     0.029 A 
ATOM     47  C   UNL A   1      40.231  29.149  29.207  1.00  0.00     0.049 A 
ATOM     48  H   UNL A   1      40.101  29.889  31.151  1.00  0.00     0.167 HD
ATOM     49  C   UNL A   1      39.956  31.843  35.074  1.00  0.00     0.034 A 
ATOM     50  C   UNL A   1      41.329  28.370  29.149  1.00  0.00     0.034 A 
ATOM     51  C   UNL A   1      41.059  30.926  35.148  1.00  0.00     0.049 A 
ATOM     52  C   UNL A   1      42.169  28.198  30.389  1.00  0.00     0.074 A 
ATOM     53  C   UNL A   1      41.878  30.652  36.230  1.00  0.00     0.029 A 
ATOM     54  N   UNL A   1      41.496  30.129  34.102  1.00  0.00    -0.354 N 
ATOM     55  N   UNL A   1      41.999  28.719  31.579  1.00  0.00    -0.248 NA
ATOM     56  C   UNL A   1      43.331  27.303  30.286  1.00  0.00     0.031 C 
ATOM     57  C   UNL A   1      42.818  29.696  35.833  1.00  0.00     0.029 A 
ATOM     58  C   UNL A   1      42.569  29.358  34.512  1.00  0.00     0.049 A 
ATOM     59  H   UNL A   1      41.100  30.112  33.201  1.00  0.00     0.167 HD
ATOM     60  C   UNL A   1      43.000  28.176  32.379  1.00  0.00     0.074 A 
ATOM     61  C   UNL A   1      43.765  27.278  31.539  1.00  0.00     0.031 C 
ATOM     62  C   UNL A   1      43.268  28.410  33.686  1.00  0.00     0.034 A 
BRANCH  49  63
ATOM     63  C   UNL A   1      39.608  32.642  36.303  1.00  0.00     0.023 A 
ATOM     64  C   UNL A   1      40.197  33.907  36.494  1.00  0.00     0.012 A 
ATOM     65  C   UNL A   1      38.657  32.174  37.231  1.00  0.00     0.148 A 
ATOM     66  C   UNL A   1      39.872  34.683  37.606  1.00  0.00     0.002 A 
ATOM     67  C   UNL A   1      38.302  32.973  38.312  1.00  0.00     0.091 A 
ATOM     68  F   UNL A   1      38.121  30.960  37.042  1.00  0.00    -0.205 F 
ATOM     69  C   UNL A   1      38.917  34.221  38.507  1.00  0.00     0.022 A 
BRANCH  67  70
ATOM     70  S   UNL A   1      37.026  32.508  39.486  1.00  0.00     0.127 S 
ATOM     71  O   UNL A   1      37.187  33.531  40.518  1.00  0.00    -0.237 OA
ATOM     72  O   UNL A   1      35.809  32.636  38.683  1.00  0.00    -0.237 OA
ATOM     73  O   UNL A   1      37.339  31.148  39.902  1.00  0.00    -0.744 OA
ENDBRANCH  67  70
ENDBRANCH  49  63
BRANCH  50  74
ATOM     74  C   UNL A   1      41.667  27.634  27.897  1.00  0.00     0.023 A 
ATOM     75  C   UNL A   1      42.134  28.356  26.780  1.00  0.00     0.012 A 
ATOM     76  C   UNL A   1      41.532  26.237  27.800  1.00  0.00     0.148 A 
ATOM     77  C   UNL A   1      42.416  27.706  25.578  1.00  0.00     0.002 A 
ATOM     78  C   UNL A   1      41.869  25.588  26.617  1.00  0.00     0.091 A 
ATOM     79  F   UNL A   1      41.076  25.566  28.867  1.00  0.00    -0.205 F 
ATOM     80  C   UNL A   1      42.293  26.322  25.498  1.00  0.00     0.022 A 
BRANCH  78  81
ATOM     81  S   UNL A   1      41.862  23.798  26.469  1.00  0.00     0.127 S 
ATOM     82  O   UNL A   1      42.589  23.394  27.669  1.00  0.00    -0.237 OA
ATOM     83  O   UNL A   1      40.430  23.496  26.484  1.00  0.00    -0.237 OA
ATOM     84  O   UNL A   1      42.518  23.511  25.200  1.00  0.00    -0.744 OA
ENDBRANCH  78  81
ENDBRANCH  50  74
BRANCH  62  85
ATOM     85  C   UNL A   1      44.393  27.637  34.323  1.00  0.00     0.023 A 
ATOM     86  C   UNL A   1      45.696  28.171  34.339  1.00  0.00     0.012 A 
ATOM     87  C   UNL A   1      44.133  26.425  34.992  1.00  0.00     0.148 A 
ATOM     88  C   UNL A   1      46.729  27.496  34.986  1.00  0.00     0.002 A 
ATOM     89  C   UNL A   1      45.156  25.782  35.678  1.00  0.00     0.091 A 
ATOM     90  F   UNL A   1      42.889  25.925  34.950  1.00  0.00    -0.205 F 
ATOM     91  C   UNL A   1      46.457  26.310  35.666  1.00  0.00     0.022 A 
BRANCH  89  92
ATOM     92  S   UNL A   1      44.878  24.306  36.662  1.00  0.00     0.127 S 
ATOM     93  O   UNL A   1      44.090  24.835  37.775  1.00  0.00    -0.237 OA
ATOM     94  O   UNL A   1      44.131  23.453  35.738  1.00  0.00    -0.237 OA
ATOM     95  O   UNL A   1      46.197  23.803  37.017  1.00  0.00    -0.744 OA
ENDBRANCH  89  92
ENDBRANCH  62  85
ENDBRANCH  36  37
ENDBRANCH  28  31
ENDBRANCH  26  27
ENDBRANCH  25  26
ENDBRANCH   1  25
TORSDOF 19
ENDMDL
MODEL 3
REMARK VINA RESULT:     -10.5      1.392      7.864
REMARK SMILES CC(C)[C@@H](NC(=O)[C@@](C)([NH3+])C(F)(F)F)C(=O)NCCCCNC(=O)c1ccc(-c2c3nc(c(-c4cccc(S(=O)(=O)[O-])c4F)c4ccc([nH]4)c(-c4cccc(S(=O)(=O)[O-])c4F)c4nc(c(-c5cccc(S(=O)(=O)[O-])c5F)c5ccc2[nH]5)C=C4)C=C3)cc1
REMARK SMILES IDX 19 1 18 2 17 3 15 4 16 5 4 7 2 8 1 9 3 10 5 11 6 12 7 14
REMARK SMILES IDX 8 15 9 16 10 17 11 21 12 22 13 23 14 24 20 25 21 26 22 27
REMARK SMILES IDX 23 28 24 30 25 31 26 32 87 33 27 34 86 35 28 36 29 37 30 38
REMARK SMILES IDX 80 39 31 40 85 41 79 42 81 43 32 44 84 45 78 46 77 47 33 49
REMARK SMILES IDX 65 50 45 51 64 52 46 53 49 54 63 55 82 56 47 57 48 58 62 60
REMARK SMILES IDX 83 61 50 62 34 63 35 64 43 65 36 66 38 67 44 68 37 69 39 70
REMARK SMILES IDX 40 71 41 72 42 73 66 74 67 75 75 76 68 77 70 78 76 79 69 80
REMARK SMILES IDX 71 81 72 82 73 83 74 84 51 85 52 86 60 87 53 88 55 89 61 90
REMARK SMILES IDX 54 91 56 92 57 93 58 94 59 95
REMARK H PARENT 17 6 5 13 10 18 10 19 10 20 22 29 81 48 49 59
REMARK Flexibility Score: inf
ROOT
ATOM      1  C   UNL A   1      31.434  27.599  26.481  1.00  0.00     0.023 C 
ENDROOT
BRANCH   1   2
ATOM      2  C   UNL A   1      32.064  26.226  26.280  1.00  0.00     0.116 C 
BRANCH   2   3
ATOM      3  N   UNL A   1      31.239  25.157  26.817  1.00  0.00    -0.354 N 
ATOM      4  C   UNL A   1      31.447  23.808  26.780  1.00  0.00     0.242 C 
ATOM      5  O   UNL A   1      30.791  23.096  27.545  1.00  0.00    -0.273 OA
ATOM      6  H   UNL A   1      30.415  25.445  27.271  1.00  0.00     0.163 HD
BRANCH   4   7
ATOM      7  C   UNL A   1      32.446  23.174  25.799  1.00  0.00     0.174 C 
BRANCH   7   8
ATOM      8  C   UNL A   1      33.293  22.092  26.549  1.00  0.00     0.015 C 
ATOM      9  C   UNL A   1      33.865  21.011  25.625  1.00  0.00     0.010 C 
ATOM     10  C   UNL A   1      34.445  22.696  27.368  1.00  0.00     0.010 C 
ENDBRANCH   7   8
BRANCH   7  11
ATOM     11  N   UNL A   1      31.770  22.633  24.605  1.00  0.00    -0.338 N 
ATOM     12  C   UNL A   1      32.028  22.740  23.262  1.00  0.00     0.291 C 
ATOM     13  H   UNL A   1      30.978  22.088  24.813  1.00  0.00     0.164 HD
ATOM     14  O   UNL A   1      31.564  21.803  22.601  1.00  0.00    -0.267 OA
BRANCH  12  15
ATOM     15  C   UNL A   1      32.736  23.943  22.576  1.00  0.00     0.267 C 
ATOM     16  C   UNL A   1      33.979  24.404  23.353  1.00  0.00     0.100 C 
BRANCH  15  17
ATOM     17  N   UNL A   1      33.144  23.570  21.178  1.00  0.00    -0.337 N 
ATOM     18  H   UNL A   1      33.953  22.950  21.213  1.00  0.00     0.345 HD
ATOM     19  H   UNL A   1      33.385  24.414  20.657  1.00  0.00     0.345 HD
ATOM     20  H   UNL A   1      32.370  23.095  20.714  1.00  0.00     0.345 HD
ENDBRANCH  15  17
BRANCH  15  21
ATOM     21  C   UNL A   1      31.743  25.150  22.640  1.00  0.00     0.453 C 
ATOM     22  F   UNL A   1      31.395  25.625  21.425  1.00  0.00    -0.164 F 
ATOM     23  F   UNL A   1      30.612  24.861  23.326  1.00  0.00    -0.164 F 
ATOM     24  F   UNL A   1      32.332  26.185  23.304  1.00  0.00    -0.164 F 
ENDBRANCH  15  21
ENDBRANCH  12  15
ENDBRANCH   7  11
ENDBRANCH   4   7
ENDBRANCH   2   3
ENDBRANCH   1   2
BRANCH   1  25
ATOM     25  C   UNL A   1      31.993  28.692  25.569  1.00  0.00     0.023 C 
BRANCH  25  26
ATOM     26  C   UNL A   1      33.180  29.457  26.142  1.00  0.00     0.116 C 
BRANCH  26  27
ATOM     27  N   UNL A   1      32.841  30.827  26.496  1.00  0.00    -0.352 N 
ATOM     28  C   UNL A   1      33.503  31.685  27.348  1.00  0.00     0.251 C 
ATOM     29  H   UNL A   1      32.031  31.190  26.071  1.00  0.00     0.163 HD
ATOM     30  O   UNL A   1      32.996  32.743  27.682  1.00  0.00    -0.269 OA
BRANCH  28  31
ATOM     31  C   UNL A   1      34.827  31.284  27.869  1.00  0.00     0.039 A 
ATOM     32  C   UNL A   1      35.844  32.237  27.942  1.00  0.00     0.014 A 
ATOM     33  C   UNL A   1      35.035  29.983  28.330  1.00  0.00     0.014 A 
ATOM     34  C   UNL A   1      37.057  31.899  28.548  1.00  0.00     0.010 A 
ATOM     35  C   UNL A   1      36.212  29.674  29.001  1.00  0.00     0.010 A 
ATOM     36  C   UNL A   1      37.237  30.627  29.114  1.00  0.00    -0.014 A 
BRANCH  36  37
ATOM     37  C   UNL A   1      38.490  30.259  29.823  1.00  0.00     0.031 A 
ATOM     38  C   UNL A   1      39.419  29.244  29.212  1.00  0.00     0.074 A 
ATOM     39  C   UNL A   1      38.744  30.758  31.049  1.00  0.00     0.049 A 
ATOM     40  N   UNL A   1      40.499  28.705  29.715  1.00  0.00    -0.248 NA
ATOM     41  C   UNL A   1      39.073  28.749  27.868  1.00  0.00     0.031 C 
ATOM     42  C   UNL A   1      37.891  31.701  31.775  1.00  0.00     0.029 A 
ATOM     43  N   UNL A   1      39.782  30.518  31.916  1.00  0.00    -0.354 N 
ATOM     44  C   UNL A   1      40.939  27.786  28.771  1.00  0.00     0.074 A 
ATOM     45  C   UNL A   1      39.990  27.811  27.680  1.00  0.00     0.031 C 
ATOM     46  C   UNL A   1      38.439  31.959  32.974  1.00  0.00     0.029 A 
ATOM     47  C   UNL A   1      39.663  31.177  33.119  1.00  0.00     0.049 A 
ATOM     48  H   UNL A   1      40.539  29.929  31.698  1.00  0.00     0.167 HD
ATOM     49  C   UNL A   1      42.050  27.013  28.793  1.00  0.00     0.034 A 
ATOM     50  C   UNL A   1      40.446  31.145  34.215  1.00  0.00     0.034 A 
ATOM     51  C   UNL A   1      43.017  27.024  29.855  1.00  0.00     0.049 A 
ATOM     52  C   UNL A   1      41.690  30.295  34.199  1.00  0.00     0.074 A 
ATOM     53  C   UNL A   1      44.207  26.324  29.942  1.00  0.00     0.029 A 
ATOM     54  N   UNL A   1      42.909  27.778  31.014  1.00  0.00    -0.354 N 
ATOM     55  N   UNL A   1      42.157  29.532  33.241  1.00  0.00    -0.248 NA
ATOM     56  C   UNL A   1      42.535  30.329  35.403  1.00  0.00     0.031 C 
ATOM     57  C   UNL A   1      44.814  26.646  31.160  1.00  0.00     0.029 A 
ATOM     58  C   UNL A   1      44.013  27.564  31.820  1.00  0.00     0.049 A 
ATOM     59  H   UNL A   1      42.158  28.376  31.230  1.00  0.00     0.167 HD
ATOM     60  C   UNL A   1      43.372  29.038  33.704  1.00  0.00     0.074 A 
ATOM     61  C   UNL A   1      43.574  29.597  35.025  1.00  0.00     0.031 C 
ATOM     62  C   UNL A   1      44.236  28.190  33.096  1.00  0.00     0.034 A 
BRANCH  49  63
ATOM     63  C   UNL A   1      42.315  26.134  27.597  1.00  0.00     0.023 A 
ATOM     64  C   UNL A   1      43.045  26.651  26.509  1.00  0.00     0.012 A 
ATOM     65  C   UNL A   1      41.902  24.788  27.578  1.00  0.00     0.148 A 
ATOM     66  C   UNL A   1      43.332  25.852  25.402  1.00  0.00     0.002 A 
ATOM     67  C   UNL A   1      42.233  23.984  26.492  1.00  0.00     0.091 A 
ATOM     68  F   UNL A   1      41.193  24.320  28.615  1.00  0.00    -0.205 F 
ATOM     69  C   UNL A   1      42.936  24.518  25.399  1.00  0.00     0.022 A 
BRANCH  67  70
ATOM     70  S   UNL A   1      41.842  22.233  26.426  1.00  0.00     0.127 S 
ATOM     71  O   UNL A   1      42.544  21.820  25.212  1.00  0.00    -0.237 OA
ATOM     72  O   UNL A   1      42.432  21.740  27.670  1.00  0.00    -0.237 OA
ATOM     73  O   UNL A   1      40.389  22.147  26.365  1.00  0.00    -0.744 OA
ENDBRANCH  67  70
ENDBRANCH  49  63
BRANCH  50  74
ATOM     74  C   UNL A   1      40.122  31.992  35.398  1.00  0.00     0.023 A 
ATOM     75  C   UNL A   1      40.892  33.146  35.650  1.00  0.00     0.012 A 
ATOM     76  C   UNL A   1      39.068  31.670  36.273  1.00  0.00     0.148 A 
ATOM     77  C   UNL A   1      40.646  33.937  36.773  1.00  0.00     0.002 A 
ATOM     78  C   UNL A   1      38.791  32.493  37.358  1.00  0.00     0.091 A 
ATOM     79  F   UNL A   1      38.353  30.563  36.026  1.00  0.00    -0.205 F 
ATOM     80  C   UNL A   1      39.590  33.616  37.623  1.00  0.00     0.022 A 
BRANCH  78  81
ATOM     81  S   UNL A   1      37.373  32.226  38.429  1.00  0.00     0.127 S 
ATOM     82  O   UNL A   1      37.286  30.769  38.454  1.00  0.00    -0.237 OA
ATOM     83  O   UNL A   1      37.817  32.840  39.681  1.00  0.00    -0.237 OA
ATOM     84  O   UNL A   1      36.265  32.920  37.786  1.00  0.00    -0.744 OA
ENDBRANCH  78  81
ENDBRANCH  50  74
BRANCH  62  85
ATOM     85  C   UNL A   1      45.518  27.857  33.812  1.00  0.00     0.023 A 
ATOM     86  C   UNL A   1      46.643  28.693  33.670  1.00  0.00     0.012 A 
ATOM     87  C   UNL A   1      45.573  26.768  34.704  1.00  0.00     0.148 A 
ATOM     88  C   UNL A   1      47.813  28.432  34.382  1.00  0.00     0.002 A 
ATOM     89  C   UNL A   1      46.724  26.543  35.449  1.00  0.00     0.091 A 
ATOM     90  F   UNL A   1      44.497  25.975  34.812  1.00  0.00    -0.205 F 
ATOM     91  C   UNL A   1      47.848  27.368  35.281  1.00  0.00     0.022 A 
BRANCH  89  92
ATOM     92  S   UNL A   1      46.827  25.259  36.700  1.00  0.00     0.127 S 
ATOM     93  O   UNL A   1      48.191  25.437  37.198  1.00  0.00    -0.237 OA
ATOM     94  O   UNL A   1      45.778  25.656  37.639  1.00  0.00    -0.237 OA
ATOM     95  O   UNL A   1      46.575  24.002  36.009  1.00  0.00    -0.744 OA
ENDBRANCH  89  92
ENDBRANCH  62  85
ENDBRANCH  36  37
ENDBRANCH  28  31
ENDBRANCH  26  27
ENDBRANCH  25  26
ENDBRANCH   1  25
TORSDOF 19
ENDMDL
