MODEL 1
REMARK VINA RESULT:     -11.1      0.000      0.000
REMARK SMILES C=CCN(CC(=O)NCCCCNC(=O)c1ccc(-c2c3nc(c(-c4cccc(S(=O)(=O)[O-])c4F)c4ccc([nH]4)c(-c4cccc(S(=O)(=O)[O-])c4F)c4nc(c(-c5cccc(S(=O)(=O)[O-])c5F)c5ccc2[nH]5)C=C4)C=C3)cc1)c1ccc([N+](=O)[O-])cc1Br
REMARK SMILES IDX 10 1 9 2 8 3 6 4 7 5 5 7 4 8 3 9 2 10 1 11 79 12 80 13 87 14
REMARK SMILES IDX 81 15 86 16 88 17 82 18 83 19 84 20 85 21 11 22 12 23 13 24
REMARK SMILES IDX 14 25 15 27 16 28 17 29 78 30 18 31 77 32 19 33 20 34 21 35
REMARK SMILES IDX 71 36 22 37 76 38 70 39 72 40 23 41 75 42 69 43 68 44 24 46
REMARK SMILES IDX 56 47 36 48 55 49 37 50 40 51 54 52 73 53 38 54 39 55 53 57
REMARK SMILES IDX 74 58 41 59 25 60 26 61 34 62 27 63 29 64 35 65 28 66 30 67
REMARK SMILES IDX 31 68 32 69 33 70 57 71 58 72 66 73 59 74 61 75 67 76 60 77
REMARK SMILES IDX 62 78 63 79 64 80 65 81 42 82 43 83 51 84 44 85 46 86 52 87
REMARK SMILES IDX 45 88 47 89 48 90 49 91 50 92
REMARK H PARENT 8 6 13 26 72 45 40 56
REMARK Flexibility Score: inf
ROOT
ATOM      1  C   UNL A   1      31.573  27.637  26.300  1.00  0.00     0.023 C 
ENDROOT
BRANCH   1   2
ATOM      2  C   UNL A   1      30.761  26.412  25.877  1.00  0.00     0.116 C 
BRANCH   2   3
ATOM      3  N   UNL A   1      30.899  25.312  26.804  1.00  0.00    -0.355 N 
ATOM      4  C   UNL A   1      31.027  23.970  26.582  1.00  0.00     0.239 C 
ATOM      5  O   UNL A   1      31.181  23.257  27.580  1.00  0.00    -0.273 OA
ATOM      6  H   UNL A   1      30.903  25.573  27.752  1.00  0.00     0.163 HD
BRANCH   4   7
ATOM      7  C   UNL A   1      31.022  23.349  25.172  1.00  0.00     0.216 C 
BRANCH   7   8
ATOM      8  N   UNL A   1      32.335  23.000  24.571  1.00  0.00    -0.358 N 
BRANCH   8   9
ATOM      9  C   UNL A   1      33.046  24.039  23.824  1.00  0.00     0.144 C 
BRANCH   9  10
ATOM     10  C   UNL A   1      34.379  24.384  24.400  1.00  0.00    -0.014 C 
ATOM     11  C   UNL A   1      35.526  23.808  24.016  1.00  0.00     0.006 C 
ENDBRANCH   9  10
ENDBRANCH   8   9
BRANCH   8  12
ATOM     12  C   UNL A   1      32.682  21.659  24.384  1.00  0.00     0.052 A 
ATOM     13  C   UNL A   1      32.165  20.944  23.282  1.00  0.00     0.034 A 
ATOM     14  C   UNL A   1      33.550  20.937  25.236  1.00  0.00     0.048 A 
ATOM     15  C   UNL A   1      32.481  19.603  23.029  1.00  0.00     0.088 A 
ATOM     16  C   UNL A   1      33.934  19.615  24.956  1.00  0.00     0.103 A 
ATOM     17  Br  UNL A   1      34.139  21.581  26.930  1.00  0.00    -0.048 Br
ATOM     18  C   UNL A   1      33.386  18.951  23.860  1.00  0.00     0.270 A 
BRANCH  18  19
ATOM     19  N   UNL A   1      33.736  17.552  23.611  1.00  0.00     0.062 N 
ATOM     20  O   UNL A   1      33.132  16.960  22.707  1.00  0.00    -0.258 OA
ATOM     21  O   UNL A   1      34.605  17.043  24.333  1.00  0.00    -0.258 OA
ENDBRANCH  18  19
ENDBRANCH   8  12
ENDBRANCH   7   8
ENDBRANCH   4   7
ENDBRANCH   2   3
ENDBRANCH   1   2
BRANCH   1  22
ATOM     22  C   UNL A   1      31.750  28.707  25.219  1.00  0.00     0.023 C 
BRANCH  22  23
ATOM     23  C   UNL A   1      32.910  29.672  25.431  1.00  0.00     0.116 C 
BRANCH  23  24
ATOM     24  N   UNL A   1      32.503  30.951  25.993  1.00  0.00    -0.352 N 
ATOM     25  C   UNL A   1      33.085  31.673  27.013  1.00  0.00     0.251 C 
ATOM     26  H   UNL A   1      31.701  31.355  25.590  1.00  0.00     0.163 HD
ATOM     27  O   UNL A   1      32.545  32.685  27.428  1.00  0.00    -0.269 OA
BRANCH  25  28
ATOM     28  C   UNL A   1      34.347  31.190  27.620  1.00  0.00     0.039 A 
ATOM     29  C   UNL A   1      35.370  32.110  27.863  1.00  0.00     0.014 A 
ATOM     30  C   UNL A   1      34.513  29.848  27.970  1.00  0.00     0.014 A 
ATOM     31  C   UNL A   1      36.531  31.697  28.521  1.00  0.00     0.010 A 
ATOM     32  C   UNL A   1      35.639  29.454  28.689  1.00  0.00     0.010 A 
ATOM     33  C   UNL A   1      36.660  30.373  28.974  1.00  0.00    -0.014 A 
BRANCH  33  34
ATOM     34  C   UNL A   1      37.838  29.941  29.771  1.00  0.00     0.031 A 
ATOM     35  C   UNL A   1      38.071  30.496  31.151  1.00  0.00     0.074 A 
ATOM     36  C   UNL A   1      38.755  29.124  29.212  1.00  0.00     0.049 A 
ATOM     37  N   UNL A   1      39.071  30.279  31.967  1.00  0.00    -0.248 NA
ATOM     38  C   UNL A   1      37.069  31.440  31.674  1.00  0.00     0.031 C 
ATOM     39  C   UNL A   1      38.696  28.594  27.847  1.00  0.00     0.029 A 
ATOM     40  N   UNL A   1      39.934  28.625  29.709  1.00  0.00    -0.354 N 
ATOM     41  C   UNL A   1      38.844  31.088  33.073  1.00  0.00     0.074 A 
ATOM     42  C   UNL A   1      37.621  31.818  32.818  1.00  0.00     0.031 C 
ATOM     43  C   UNL A   1      39.791  27.853  27.614  1.00  0.00     0.029 A 
ATOM     44  C   UNL A   1      40.644  27.876  28.798  1.00  0.00     0.049 A 
ATOM     45  H   UNL A   1      40.243  28.787  30.629  1.00  0.00     0.167 HD
ATOM     46  C   UNL A   1      39.574  31.198  34.208  1.00  0.00     0.034 A 
ATOM     47  C   UNL A   1      41.852  27.286  28.897  1.00  0.00     0.034 A 
ATOM     48  C   UNL A   1      40.757  30.429  34.484  1.00  0.00     0.049 A 
ATOM     49  C   UNL A   1      42.605  27.371  30.197  1.00  0.00     0.074 A 
ATOM     50  C   UNL A   1      41.491  30.377  35.655  1.00  0.00     0.029 A 
ATOM     51  N   UNL A   1      41.387  29.591  33.579  1.00  0.00    -0.354 N 
ATOM     52  N   UNL A   1      42.270  27.986  31.306  1.00  0.00    -0.248 NA
ATOM     53  C   UNL A   1      43.883  26.648  30.276  1.00  0.00     0.031 C 
ATOM     54  C   UNL A   1      42.586  29.532  35.449  1.00  0.00     0.029 A 
ATOM     55  C   UNL A   1      42.513  29.032  34.159  1.00  0.00     0.049 A 
ATOM     56  H   UNL A   1      41.081  29.419  32.660  1.00  0.00     0.167 HD
ATOM     57  C   UNL A   1      43.275  27.696  32.221  1.00  0.00     0.074 A 
ATOM     58  C   UNL A   1      44.218  26.829  31.547  1.00  0.00     0.031 C 
ATOM     59  C   UNL A   1      43.414  28.124  33.500  1.00  0.00     0.034 A 
BRANCH  46  60
ATOM     60  C   UNL A   1      39.095  32.149  35.272  1.00  0.00     0.023 A 
ATOM     61  C   UNL A   1      38.171  31.706  36.240  1.00  0.00     0.012 A 
ATOM     62  C   UNL A   1      39.639  33.444  35.376  1.00  0.00     0.148 A 
ATOM     63  C   UNL A   1      37.778  32.545  37.282  1.00  0.00     0.002 A 
ATOM     64  C   UNL A   1      39.276  34.258  36.442  1.00  0.00     0.091 A 
ATOM     65  F   UNL A   1      40.501  33.851  34.435  1.00  0.00    -0.205 F 
ATOM     66  C   UNL A   1      38.340  33.814  37.390  1.00  0.00     0.022 A 
BRANCH  64  67
ATOM     67  S   UNL A   1      40.003  35.877  36.719  1.00  0.00     0.127 S 
ATOM     68  O   UNL A   1      41.420  35.544  36.850  1.00  0.00    -0.237 OA
ATOM     69  O   UNL A   1      39.654  36.584  35.487  1.00  0.00    -0.237 OA
ATOM     70  O   UNL A   1      39.375  36.402  37.922  1.00  0.00    -0.744 OA
ENDBRANCH  64  67
ENDBRANCH  46  60
BRANCH  47  71
ATOM     71  C   UNL A   1      42.411  26.524  27.744  1.00  0.00     0.023 A 
ATOM     72  C   UNL A   1      43.290  27.161  26.846  1.00  0.00     0.012 A 
ATOM     73  C   UNL A   1      42.080  25.171  27.535  1.00  0.00     0.148 A 
ATOM     74  C   UNL A   1      43.792  26.479  25.737  1.00  0.00     0.002 A 
ATOM     75  C   UNL A   1      42.632  24.481  26.463  1.00  0.00     0.091 A 
ATOM     76  F   UNL A   1      41.230  24.585  28.391  1.00  0.00    -0.205 F 
ATOM     77  C   UNL A   1      43.471  25.137  25.551  1.00  0.00     0.022 A 
BRANCH  75  78
ATOM     78  S   UNL A   1      42.379  22.717  26.233  1.00  0.00     0.127 S 
ATOM     79  O   UNL A   1      40.923  22.624  26.198  1.00  0.00    -0.237 OA
ATOM     80  O   UNL A   1      43.044  22.480  24.951  1.00  0.00    -0.237 OA
ATOM     81  O   UNL A   1      43.034  22.081  27.370  1.00  0.00    -0.744 OA
ENDBRANCH  75  78
ENDBRANCH  47  71
BRANCH  59  82
ATOM     82  C   UNL A   1      44.606  27.634  34.279  1.00  0.00     0.023 A 
ATOM     83  C   UNL A   1      45.791  28.395  34.304  1.00  0.00     0.012 A 
ATOM     84  C   UNL A   1      44.525  26.454  35.047  1.00  0.00     0.148 A 
ATOM     85  C   UNL A   1      46.889  27.974  35.053  1.00  0.00     0.002 A 
ATOM     86  C   UNL A   1      45.605  26.068  35.831  1.00  0.00     0.091 A 
ATOM     87  F   UNL A   1      43.395  25.734  34.996  1.00  0.00    -0.205 F 
ATOM     88  C   UNL A   1      46.791  26.819  35.826  1.00  0.00     0.022 A 
BRANCH  86  89
ATOM     89  S   UNL A   1      45.533  24.651  36.933  1.00  0.00     0.127 S 
ATOM     90  O   UNL A   1      46.951  24.376  37.157  1.00  0.00    -0.237 OA
ATOM     91  O   UNL A   1      44.826  25.196  38.093  1.00  0.00    -0.237 OA
ATOM     92  O   UNL A   1      44.801  23.618  36.212  1.00  0.00    -0.744 OA
ENDBRANCH  86  89
ENDBRANCH  59  82
ENDBRANCH  33  34
ENDBRANCH  25  28
ENDBRANCH  23  24
ENDBRANCH  22  23
ENDBRANCH   1  22
TORSDOF 19
ENDMDL
MODEL 2
REMARK VINA RESULT:     -11.1      5.352      8.174
REMARK SMILES C=CCN(CC(=O)NCCCCNC(=O)c1ccc(-c2c3nc(c(-c4cccc(S(=O)(=O)[O-])c4F)c4ccc([nH]4)c(-c4cccc(S(=O)(=O)[O-])c4F)c4nc(c(-c5cccc(S(=O)(=O)[O-])c5F)c5ccc2[nH]5)C=C4)C=C3)cc1)c1ccc([N+](=O)[O-])cc1Br
REMARK SMILES IDX 10 1 9 2 8 3 6 4 7 5 5 7 4 8 3 9 2 10 1 11 79 12 80 13 87 14
REMARK SMILES IDX 81 15 86 16 88 17 82 18 83 19 84 20 85 21 11 22 12 23 13 24
REMARK SMILES IDX 14 25 15 27 16 28 17 29 78 30 18 31 77 32 19 33 20 34 21 35
REMARK SMILES IDX 71 36 22 37 76 38 70 39 72 40 23 41 75 42 69 43 68 44 24 46
REMARK SMILES IDX 56 47 36 48 55 49 37 50 40 51 54 52 73 53 38 54 39 55 53 57
REMARK SMILES IDX 74 58 41 59 25 60 26 61 34 62 27 63 29 64 35 65 28 66 30 67
REMARK SMILES IDX 31 68 32 69 33 70 57 71 58 72 66 73 59 74 61 75 67 76 60 77
REMARK SMILES IDX 62 78 63 79 64 80 65 81 42 82 43 83 51 84 44 85 46 86 52 87
REMARK SMILES IDX 45 88 47 89 48 90 49 91 50 92
REMARK H PARENT 8 6 13 26 72 45 40 56
REMARK Flexibility Score: inf
ROOT
ATOM      1  C   UNL A   1      34.421  22.311  25.409  1.00  0.00     0.023 C 
ENDROOT
BRANCH   1   2
ATOM      2  C   UNL A   1      33.705  22.127  24.070  1.00  0.00     0.116 C 
BRANCH   2   3
ATOM      3  N   UNL A   1      34.004  23.188  23.135  1.00  0.00    -0.355 N 
ATOM      4  C   UNL A   1      33.292  24.303  22.794  1.00  0.00     0.239 C 
ATOM      5  O   UNL A   1      33.824  25.075  21.989  1.00  0.00    -0.273 OA
ATOM      6  H   UNL A   1      34.865  23.093  22.667  1.00  0.00     0.163 HD
BRANCH   4   7
ATOM      7  C   UNL A   1      31.910  24.630  23.392  1.00  0.00     0.216 C 
BRANCH   7   8
ATOM      8  N   UNL A   1      31.767  25.914  24.124  1.00  0.00    -0.358 N 
BRANCH   8   9
ATOM      9  C   UNL A   1      32.226  25.968  25.513  1.00  0.00     0.144 C 
BRANCH   9  10
ATOM     10  C   UNL A   1      33.567  26.604  25.674  1.00  0.00    -0.014 C 
ATOM     11  C   UNL A   1      33.761  27.791  26.266  1.00  0.00     0.006 C 
ENDBRANCH   9  10
ENDBRANCH   8   9
BRANCH   8  12
ATOM     12  C   UNL A   1      30.883  26.890  23.654  1.00  0.00     0.052 A 
ATOM     13  C   UNL A   1      29.489  26.689  23.760  1.00  0.00     0.034 A 
ATOM     14  C   UNL A   1      31.287  28.112  23.068  1.00  0.00     0.048 A 
ATOM     15  C   UNL A   1      28.548  27.630  23.321  1.00  0.00     0.088 A 
ATOM     16  C   UNL A   1      30.358  29.097  22.690  1.00  0.00     0.103 A 
ATOM     17  Br  UNL A   1      33.082  28.490  22.552  1.00  0.00    -0.048 Br
ATOM     18  C   UNL A   1      28.993  28.843  22.806  1.00  0.00     0.270 A 
BRANCH  18  19
ATOM     19  N   UNL A   1      28.028  29.843  22.348  1.00  0.00     0.062 N 
ATOM     20  O   UNL A   1      28.029  30.136  21.145  1.00  0.00    -0.258 OA
ATOM     21  O   UNL A   1      27.279  30.348  23.198  1.00  0.00    -0.258 OA
ENDBRANCH  18  19
ENDBRANCH   8  12
ENDBRANCH   7   8
ENDBRANCH   4   7
ENDBRANCH   2   3
ENDBRANCH   1   2
BRANCH   1  22
ATOM     22  C   UNL A   1      35.499  21.270  25.720  1.00  0.00     0.023 C 
BRANCH  22  23
ATOM     23  C   UNL A   1      36.854  21.509  25.064  1.00  0.00     0.116 C 
BRANCH  23  24
ATOM     24  N   UNL A   1      37.784  20.403  25.241  1.00  0.00    -0.352 N 
ATOM     25  C   UNL A   1      39.055  20.419  25.774  1.00  0.00     0.251 C 
ATOM     26  H   UNL A   1      37.460  19.524  24.939  1.00  0.00     0.163 HD
ATOM     27  O   UNL A   1      39.737  19.408  25.750  1.00  0.00    -0.269 OA
BRANCH  25  28
ATOM     28  C   UNL A   1      39.594  21.678  26.340  1.00  0.00     0.039 A 
ATOM     29  C   UNL A   1      40.666  21.607  27.231  1.00  0.00     0.014 A 
ATOM     30  C   UNL A   1      39.062  22.918  25.978  1.00  0.00     0.014 A 
ATOM     31  C   UNL A   1      41.253  22.785  27.703  1.00  0.00     0.010 A 
ATOM     32  C   UNL A   1      39.693  24.088  26.391  1.00  0.00     0.010 A 
ATOM     33  C   UNL A   1      40.795  24.036  27.258  1.00  0.00    -0.014 A 
BRANCH  33  34
ATOM     34  C   UNL A   1      41.474  25.295  27.663  1.00  0.00     0.031 A 
ATOM     35  C   UNL A   1      40.729  26.350  28.436  1.00  0.00     0.074 A 
ATOM     36  C   UNL A   1      42.736  25.532  27.246  1.00  0.00     0.049 A 
ATOM     37  N   UNL A   1      41.141  27.530  28.823  1.00  0.00    -0.248 NA
ATOM     38  C   UNL A   1      39.332  26.057  28.797  1.00  0.00     0.031 C 
ATOM     39  C   UNL A   1      43.534  24.633  26.408  1.00  0.00     0.029 A 
ATOM     40  N   UNL A   1      43.555  26.618  27.438  1.00  0.00    -0.354 N 
ATOM     41  C   UNL A   1      40.048  28.135  29.430  1.00  0.00     0.074 A 
ATOM     42  C   UNL A   1      38.946  27.201  29.344  1.00  0.00     0.031 C 
ATOM     43  C   UNL A   1      44.721  25.206  26.154  1.00  0.00     0.029 A 
ATOM     44  C   UNL A   1      44.762  26.522  26.783  1.00  0.00     0.049 A 
ATOM     45  H   UNL A   1      43.304  27.391  27.993  1.00  0.00     0.167 HD
ATOM     46  C   UNL A   1      39.973  29.349  30.026  1.00  0.00     0.034 A 
ATOM     47  C   UNL A   1      45.781  27.399  26.685  1.00  0.00     0.034 A 
ATOM     48  C   UNL A   1      41.084  30.251  30.163  1.00  0.00     0.049 A 
ATOM     49  C   UNL A   1      45.691  28.711  27.417  1.00  0.00     0.074 A 
ATOM     50  C   UNL A   1      41.137  31.444  30.860  1.00  0.00     0.029 A 
ATOM     51  N   UNL A   1      42.328  30.071  29.582  1.00  0.00    -0.354 N 
ATOM     52  N   UNL A   1      44.714  29.179  28.155  1.00  0.00    -0.248 NA
ATOM     53  C   UNL A   1      46.860  29.599  27.339  1.00  0.00     0.031 C 
ATOM     54  C   UNL A   1      42.406  32.003  30.675  1.00  0.00     0.029 A 
ATOM     55  C   UNL A   1      43.152  31.140  29.890  1.00  0.00     0.049 A 
ATOM     56  H   UNL A   1      42.588  29.297  29.032  1.00  0.00     0.167 HD
ATOM     57  C   UNL A   1      45.162  30.396  28.654  1.00  0.00     0.074 A 
ATOM     58  C   UNL A   1      46.509  30.582  28.158  1.00  0.00     0.031 C 
ATOM     59  C   UNL A   1      44.510  31.288  29.440  1.00  0.00     0.034 A 
BRANCH  46  60
ATOM     60  C   UNL A   1      38.657  29.765  30.627  1.00  0.00     0.023 A 
ATOM     61  C   UNL A   1      38.367  29.439  31.967  1.00  0.00     0.012 A 
ATOM     62  C   UNL A   1      37.756  30.567  29.899  1.00  0.00     0.148 A 
ATOM     63  C   UNL A   1      37.190  29.886  32.568  1.00  0.00     0.002 A 
ATOM     64  C   UNL A   1      36.608  31.046  30.519  1.00  0.00     0.091 A 
ATOM     65  F   UNL A   1      38.042  30.851  28.622  1.00  0.00    -0.205 F 
ATOM     66  C   UNL A   1      36.319  30.699  31.849  1.00  0.00     0.022 A 
BRANCH  64  67
ATOM     67  S   UNL A   1      35.463  32.167  29.707  1.00  0.00     0.127 S 
ATOM     68  O   UNL A   1      34.473  32.390  30.760  1.00  0.00    -0.237 OA
ATOM     69  O   UNL A   1      36.316  33.320  29.418  1.00  0.00    -0.237 OA
ATOM     70  O   UNL A   1      34.970  31.462  28.533  1.00  0.00    -0.744 OA
ENDBRANCH  64  67
ENDBRANCH  46  60
BRANCH  47  71
ATOM     71  C   UNL A   1      46.997  27.051  25.896  1.00  0.00     0.023 A 
ATOM     72  C   UNL A   1      48.008  26.265  26.483  1.00  0.00     0.012 A 
ATOM     73  C   UNL A   1      47.155  27.491  24.568  1.00  0.00     0.148 A 
ATOM     74  C   UNL A   1      49.174  25.963  25.778  1.00  0.00     0.002 A 
ATOM     75  C   UNL A   1      48.291  27.135  23.851  1.00  0.00     0.091 A 
ATOM     76  F   UNL A   1      46.189  28.251  24.030  1.00  0.00    -0.205 F 
ATOM     77  C   UNL A   1      49.311  26.388  24.460  1.00  0.00     0.022 A 
BRANCH  75  78
ATOM     78  S   UNL A   1      48.480  27.525  22.108  1.00  0.00     0.127 S 
ATOM     79  O   UNL A   1      47.206  28.172  21.805  1.00  0.00    -0.237 OA
ATOM     80  O   UNL A   1      49.639  28.419  22.121  1.00  0.00    -0.237 OA
ATOM     81  O   UNL A   1      48.721  26.248  21.449  1.00  0.00    -0.744 OA
ENDBRANCH  75  78
ENDBRANCH  47  71
BRANCH  59  82
ATOM     82  C   UNL A   1      45.251  32.534  29.851  1.00  0.00     0.023 A 
ATOM     83  C   UNL A   1      46.056  32.524  31.007  1.00  0.00     0.012 A 
ATOM     84  C   UNL A   1      45.206  33.692  29.049  1.00  0.00     0.148 A 
ATOM     85  C   UNL A   1      46.779  33.657  31.377  1.00  0.00     0.002 A 
ATOM     86  C   UNL A   1      45.969  34.800  29.397  1.00  0.00     0.091 A 
ATOM     87  F   UNL A   1      44.420  33.688  27.963  1.00  0.00    -0.205 F 
ATOM     88  C   UNL A   1      46.745  34.789  30.566  1.00  0.00     0.022 A 
BRANCH  86  89
ATOM     89  S   UNL A   1      46.064  36.264  28.359  1.00  0.00     0.127 S 
ATOM     90  O   UNL A   1      46.469  35.692  27.076  1.00  0.00    -0.237 OA
ATOM     91  O   UNL A   1      44.689  36.762  28.399  1.00  0.00    -0.237 OA
ATOM     92  O   UNL A   1      47.043  37.140  28.990  1.00  0.00    -0.744 OA
ENDBRANCH  86  89
ENDBRANCH  59  82
ENDBRANCH  33  34
ENDBRANCH  25  28
ENDBRANCH  23  24
ENDBRANCH  22  23
ENDBRANCH   1  22
TORSDOF 19
ENDMDL
MODEL 3
REMARK VINA RESULT:     -11.0      2.995      8.628
REMARK SMILES C=CCN(CC(=O)NCCCCNC(=O)c1ccc(-c2c3nc(c(-c4cccc(S(=O)(=O)[O-])c4F)c4ccc([nH]4)c(-c4cccc(S(=O)(=O)[O-])c4F)c4nc(c(-c5cccc(S(=O)(=O)[O-])c5F)c5ccc2[nH]5)C=C4)C=C3)cc1)c1ccc([N+](=O)[O-])cc1Br
REMARK SMILES IDX 10 1 9 2 8 3 6 4 7 5 5 7 4 8 3 9 2 10 1 11 79 12 80 13 87 14
REMARK SMILES IDX 81 15 86 16 88 17 82 18 83 19 84 20 85 21 11 22 12 23 13 24
REMARK SMILES IDX 14 25 15 27 16 28 17 29 78 30 18 31 77 32 19 33 20 34 21 35
REMARK SMILES IDX 71 36 22 37 76 38 70 39 72 40 23 41 75 42 69 43 68 44 24 46
REMARK SMILES IDX 56 47 36 48 55 49 37 50 40 51 54 52 73 53 38 54 39 55 53 57
REMARK SMILES IDX 74 58 41 59 25 60 26 61 34 62 27 63 29 64 35 65 28 66 30 67
REMARK SMILES IDX 31 68 32 69 33 70 57 71 58 72 66 73 59 74 61 75 67 76 60 77
REMARK SMILES IDX 62 78 63 79 64 80 65 81 42 82 43 83 51 84 44 85 46 86 52 87
REMARK SMILES IDX 45 88 47 89 48 90 49 91 50 92
REMARK H PARENT 8 6 13 26 72 45 40 56
REMARK Flexibility Score: inf
ROOT
ATOM      1  C   UNL A   1      31.270  31.054  25.800  1.00  0.00     0.023 C 
ENDROOT
BRANCH   1   2
ATOM      2  C   UNL A   1      32.259  29.900  25.967  1.00  0.00     0.116 C 
BRANCH   2   3
ATOM      3  N   UNL A   1      31.720  28.824  26.768  1.00  0.00    -0.355 N 
ATOM      4  C   UNL A   1      31.846  27.469  26.642  1.00  0.00     0.239 C 
ATOM      5  O   UNL A   1      31.308  26.780  27.516  1.00  0.00    -0.273 OA
ATOM      6  H   UNL A   1      31.172  29.115  27.531  1.00  0.00     0.163 HD
BRANCH   4   7
ATOM      7  C   UNL A   1      32.641  26.803  25.503  1.00  0.00     0.216 C 
BRANCH   7   8
ATOM      8  N   UNL A   1      31.888  26.392  24.291  1.00  0.00    -0.358 N 
BRANCH   8   9
ATOM      9  C   UNL A   1      32.410  25.273  23.504  1.00  0.00     0.144 C 
BRANCH   9  10
ATOM     10  C   UNL A   1      33.899  25.176  23.518  1.00  0.00    -0.014 C 
ATOM     11  C   UNL A   1      34.571  24.105  23.963  1.00  0.00     0.006 C 
ENDBRANCH   9  10
ENDBRANCH   8   9
BRANCH   8  12
ATOM     12  C   UNL A   1      30.968  27.269  23.712  1.00  0.00     0.052 A 
ATOM     13  C   UNL A   1      29.583  27.013  23.820  1.00  0.00     0.034 A 
ATOM     14  C   UNL A   1      31.324  28.444  23.008  1.00  0.00     0.048 A 
ATOM     15  C   UNL A   1      28.607  27.857  23.274  1.00  0.00     0.088 A 
ATOM     16  C   UNL A   1      30.357  29.338  22.517  1.00  0.00     0.103 A 
ATOM     17  Br  UNL A   1      33.109  28.853  22.478  1.00  0.00    -0.048 Br
ATOM     18  C   UNL A   1      29.003  29.031  22.642  1.00  0.00     0.270 A 
BRANCH  18  19
ATOM     19  N   UNL A   1      28.001  29.931  22.070  1.00  0.00     0.062 N 
ATOM     20  O   UNL A   1      27.166  30.426  22.838  1.00  0.00    -0.258 OA
ATOM     21  O   UNL A   1      28.041  30.128  20.847  1.00  0.00    -0.258 OA
ENDBRANCH  18  19
ENDBRANCH   8  12
ENDBRANCH   7   8
ENDBRANCH   4   7
ENDBRANCH   2   3
ENDBRANCH   1   2
BRANCH   1  22
ATOM     22  C   UNL A   1      31.351  32.142  26.874  1.00  0.00     0.023 C 
BRANCH  22  23
ATOM     23  C   UNL A   1      32.629  32.972  26.876  1.00  0.00     0.116 C 
BRANCH  23  24
ATOM     24  N   UNL A   1      32.510  34.213  27.626  1.00  0.00    -0.352 N 
ATOM     25  C   UNL A   1      33.263  34.655  28.693  1.00  0.00     0.251 C 
ATOM     26  H   UNL A   1      31.794  34.820  27.331  1.00  0.00     0.163 HD
ATOM     27  O   UNL A   1      32.955  35.684  29.271  1.00  0.00    -0.269 OA
BRANCH  25  28
ATOM     28  C   UNL A   1      34.421  33.852  29.150  1.00  0.00     0.039 A 
ATOM     29  C   UNL A   1      35.708  34.281  28.817  1.00  0.00     0.014 A 
ATOM     30  C   UNL A   1      34.243  32.700  29.920  1.00  0.00     0.014 A 
ATOM     31  C   UNL A   1      36.818  33.595  29.318  1.00  0.00     0.010 A 
ATOM     32  C   UNL A   1      35.348  32.062  30.477  1.00  0.00     0.010 A 
ATOM     33  C   UNL A   1      36.648  32.501  30.183  1.00  0.00    -0.014 A 
BRANCH  33  34
ATOM     34  C   UNL A   1      37.813  31.826  30.812  1.00  0.00     0.031 A 
ATOM     35  C   UNL A   1      38.568  30.756  30.069  1.00  0.00     0.074 A 
ATOM     36  C   UNL A   1      38.131  32.107  32.093  1.00  0.00     0.049 A 
ATOM     37  N   UNL A   1      39.570  30.022  30.479  1.00  0.00    -0.248 NA
ATOM     38  C   UNL A   1      38.123  30.448  28.700  1.00  0.00     0.031 C 
ATOM     39  C   UNL A   1      37.418  33.053  32.955  1.00  0.00     0.029 A 
ATOM     40  N   UNL A   1      39.113  31.596  32.906  1.00  0.00    -0.354 N 
ATOM     41  C   UNL A   1      39.846  29.139  29.442  1.00  0.00     0.074 A 
ATOM     42  C   UNL A   1      38.893  29.415  28.389  1.00  0.00     0.031 C 
ATOM     43  C   UNL A   1      37.979  33.049  34.174  1.00  0.00     0.029 A 
ATOM     44  C   UNL A   1      39.073  32.083  34.193  1.00  0.00     0.049 A 
ATOM     45  H   UNL A   1      39.784  30.945  32.598  1.00  0.00     0.167 HD
ATOM     46  C   UNL A   1      40.818  28.200  29.364  1.00  0.00     0.034 A 
ATOM     47  C   UNL A   1      39.820  31.776  35.273  1.00  0.00     0.034 A 
ATOM     48  C   UNL A   1      41.801  27.968  30.387  1.00  0.00     0.049 A 
ATOM     49  C   UNL A   1      40.937  30.778  35.131  1.00  0.00     0.074 A 
ATOM     50  C   UNL A   1      42.900  27.129  30.345  1.00  0.00     0.029 A 
ATOM     51  N   UNL A   1      41.798  28.562  31.638  1.00  0.00    -0.354 N 
ATOM     52  N   UNL A   1      41.305  30.096  34.073  1.00  0.00    -0.248 NA
ATOM     53  C   UNL A   1      41.769  30.534  36.318  1.00  0.00     0.031 C 
ATOM     54  C   UNL A   1      43.545  27.190  31.584  1.00  0.00     0.029 A 
ATOM     55  C   UNL A   1      42.866  28.094  32.385  1.00  0.00     0.049 A 
ATOM     56  H   UNL A   1      41.135  29.219  31.950  1.00  0.00     0.167 HD
ATOM     57  C   UNL A   1      42.427  29.372  34.457  1.00  0.00     0.074 A 
ATOM     58  C   UNL A   1      42.697  29.718  35.837  1.00  0.00     0.031 C 
ATOM     59  C   UNL A   1      43.160  28.488  33.737  1.00  0.00     0.034 A 
BRANCH  46  60
ATOM     60  C   UNL A   1      40.911  27.376  28.107  1.00  0.00     0.023 A 
ATOM     61  C   UNL A   1      41.593  27.887  26.986  1.00  0.00     0.012 A 
ATOM     62  C   UNL A   1      40.414  26.058  28.075  1.00  0.00     0.148 A 
ATOM     63  C   UNL A   1      41.762  27.108  25.841  1.00  0.00     0.002 A 
ATOM     64  C   UNL A   1      40.625  25.273  26.947  1.00  0.00     0.091 A 
ATOM     65  F   UNL A   1      39.752  25.598  29.145  1.00  0.00    -0.205 F 
ATOM     66  C   UNL A   1      41.289  25.799  25.827  1.00  0.00     0.022 A 
BRANCH  64  67
ATOM     67  S   UNL A   1      40.130  23.548  26.859  1.00  0.00     0.127 S 
ATOM     68  O   UNL A   1      38.714  23.666  26.515  1.00  0.00    -0.237 OA
ATOM     69  O   UNL A   1      40.979  23.040  25.782  1.00  0.00    -0.237 OA
ATOM     70  O   UNL A   1      40.404  22.981  28.172  1.00  0.00    -0.744 OA
ENDBRANCH  64  67
ENDBRANCH  46  60
BRANCH  47  71
ATOM     71  C   UNL A   1      39.567  32.453  36.576  1.00  0.00     0.023 A 
ATOM     72  C   UNL A   1      40.325  33.586  36.933  1.00  0.00     0.012 A 
ATOM     73  C   UNL A   1      38.580  31.982  37.463  1.00  0.00     0.148 A 
ATOM     74  C   UNL A   1      40.134  34.210  38.167  1.00  0.00     0.002 A 
ATOM     75  C   UNL A   1      38.353  32.645  38.663  1.00  0.00     0.091 A 
ATOM     76  F   UNL A   1      37.878  30.893  37.114  1.00  0.00    -0.205 F 
ATOM     77  C   UNL A   1      39.142  33.746  39.027  1.00  0.00     0.022 A 
BRANCH  75  78
ATOM     78  S   UNL A   1      37.004  32.196  39.760  1.00  0.00     0.127 S 
ATOM     79  O   UNL A   1      35.874  32.132  38.838  1.00  0.00    -0.237 OA
ATOM     80  O   UNL A   1      37.452  30.902  40.278  1.00  0.00    -0.237 OA
ATOM     81  O   UNL A   1      36.952  33.253  40.763  1.00  0.00    -0.744 OA
ENDBRANCH  75  78
ENDBRANCH  47  71
BRANCH  59  82
ATOM     82  C   UNL A   1      44.351  27.854  34.406  1.00  0.00     0.023 A 
ATOM     83  C   UNL A   1      45.611  28.482  34.343  1.00  0.00     0.012 A 
ATOM     84  C   UNL A   1      44.205  26.672  35.161  1.00  0.00     0.148 A 
ATOM     85  C   UNL A   1      46.713  27.928  34.992  1.00  0.00     0.002 A 
ATOM     86  C   UNL A   1      45.297  26.153  35.846  1.00  0.00     0.091 A 
ATOM     87  F   UNL A   1      43.003  26.079  35.194  1.00  0.00    -0.205 F 
ATOM     88  C   UNL A   1      46.553  26.772  35.753  1.00  0.00     0.022 A 
BRANCH  86  89
ATOM     89  S   UNL A   1      45.161  24.726  36.929  1.00  0.00     0.127 S 
ATOM     90  O   UNL A   1      46.533  24.590  37.415  1.00  0.00    -0.237 OA
ATOM     91  O   UNL A   1      44.201  25.189  37.933  1.00  0.00    -0.237 OA
ATOM     92  O   UNL A   1      44.680  23.633  36.094  1.00  0.00    -0.744 OA
ENDBRANCH  86  89
ENDBRANCH  59  82
ENDBRANCH  33  34
ENDBRANCH  25  28
ENDBRANCH  23  24
ENDBRANCH  22  23
ENDBRANCH   1  22
TORSDOF 19
ENDMDL
