MODEL 1
REMARK VINA RESULT:     -12.5      0.000      0.000
REMARK SMILES Cc1cc(C(=O)N2C[C@@H](C(=O)NCCCCNC(=O)c3ccc(-c4c5nc(c(-c6cccc(S(=O)(=O)[O-])c6F)c6ccc([nH]6)c(-c6cccc(S(=O)(=O)[O-])c6F)c6nc(c(-c7cccc(S(=O)(=O)[O-])c7F)c7ccc4[nH]7)C=C6)C=C5)cc3)[C@H](C3CC3)C2)sc1C
REMARK SMILES IDX 15 1 14 2 13 3 12 4 10 5 11 6 9 8 7 9 8 10 87 11 83 12 5 13
REMARK SMILES IDX 6 14 4 15 1 16 2 17 3 18 89 19 88 20 90 21 84 22 85 23 86 24
REMARK SMILES IDX 16 25 17 26 18 27 19 29 20 30 21 31 82 32 22 33 81 34 23 35
REMARK SMILES IDX 24 36 25 37 75 38 26 39 80 40 74 41 76 42 27 43 79 44 73 45
REMARK SMILES IDX 72 46 28 48 60 49 40 50 59 51 41 52 44 53 58 54 77 55 42 56
REMARK SMILES IDX 43 57 57 59 78 60 45 61 29 62 30 63 38 64 31 65 33 66 39 67
REMARK SMILES IDX 32 68 34 69 35 70 36 71 37 72 61 73 62 74 70 75 63 76 65 77
REMARK SMILES IDX 71 78 64 79 66 80 67 81 68 82 69 83 46 84 47 85 55 86 48 87
REMARK SMILES IDX 50 88 56 89 49 90 51 91 52 92 53 93 54 94
REMARK H PARENT 12 7 17 28 76 47 44 58
REMARK Flexibility Score: inf
ROOT
ATOM      1  C   UNL A   1      31.676  29.546  25.540  1.00  0.00     0.023 C 
ENDROOT
BRANCH   1   2
ATOM      2  C   UNL A   1      32.661  29.103  24.462  1.00  0.00     0.023 C 
BRANCH   2   3
ATOM      3  C   UNL A   1      32.094  28.937  23.057  1.00  0.00     0.116 C 
BRANCH   3   4
ATOM      4  N   UNL A   1      32.893  28.092  22.189  1.00  0.00    -0.356 N 
ATOM      5  C   UNL A   1      33.002  26.729  22.171  1.00  0.00     0.225 C 
ATOM      6  O   UNL A   1      33.606  26.204  21.234  1.00  0.00    -0.275 OA
ATOM      7  H   UNL A   1      33.433  28.567  21.517  1.00  0.00     0.163 HD
BRANCH   5   8
ATOM      8  C   UNL A   1      32.413  25.899  23.294  1.00  0.00     0.103 C 
ATOM      9  N   UNL A   1      31.990  23.730  23.993  1.00  0.00    -0.337 N 
ATOM     10  C   UNL A   1      32.953  24.473  23.203  1.00  0.00     0.133 C 
ATOM     11  C   UNL A   1      30.666  24.255  23.742  1.00  0.00     0.124 C 
ATOM     12  C   UNL A   1      30.883  25.683  23.179  1.00  0.00     0.026 C 
BRANCH   9  13
ATOM     13  C   UNL A   1      32.165  22.716  24.918  1.00  0.00     0.263 C 
ATOM     14  O   UNL A   1      32.025  22.975  26.118  1.00  0.00    -0.268 OA
BRANCH  13  15
ATOM     15  C   UNL A   1      32.603  21.387  24.498  1.00  0.00     0.093 A 
ATOM     16  C   UNL A   1      32.209  18.422  22.201  1.00  0.00     0.045 C 
ATOM     17  C   UNL A   1      32.605  19.353  23.298  1.00  0.00    -0.037 A 
ATOM     18  C   UNL A   1      32.196  20.728  23.351  1.00  0.00     0.029 A 
ATOM     19  C   UNL A   1      33.368  19.027  24.406  1.00  0.00     0.005 A 
ATOM     20  S   UNL A   1      33.471  20.322  25.514  1.00  0.00    -0.135 S 
ATOM     21  C   UNL A   1      34.018  17.725  24.742  1.00  0.00     0.056 C 
ENDBRANCH  13  15
ENDBRANCH   9  13
BRANCH  12  22
ATOM     22  C   UNL A   1      29.977  26.661  23.895  1.00  0.00    -0.005 C 
ATOM     23  C   UNL A   1      29.012  27.604  23.217  1.00  0.00     0.004 C 
ATOM     24  C   UNL A   1      28.493  26.428  23.999  1.00  0.00     0.004 C 
ENDBRANCH  12  22
ENDBRANCH   5   8
ENDBRANCH   3   4
ENDBRANCH   2   3
ENDBRANCH   1   2
BRANCH   1  25
ATOM     25  C   UNL A   1      32.281  30.020  26.858  1.00  0.00     0.116 C 
BRANCH  25  26
ATOM     26  N   UNL A   1      32.340  31.471  26.992  1.00  0.00    -0.352 N 
ATOM     27  C   UNL A   1      33.351  32.279  27.466  1.00  0.00     0.251 C 
ATOM     28  H   UNL A   1      31.531  31.948  26.697  1.00  0.00     0.163 HD
ATOM     29  O   UNL A   1      33.171  33.485  27.572  1.00  0.00    -0.269 OA
BRANCH  27  30
ATOM     30  C   UNL A   1      34.637  31.681  27.890  1.00  0.00     0.039 A 
ATOM     31  C   UNL A   1      35.720  32.529  28.143  1.00  0.00     0.014 A 
ATOM     32  C   UNL A   1      34.764  30.305  28.085  1.00  0.00     0.014 A 
ATOM     33  C   UNL A   1      36.889  32.009  28.704  1.00  0.00     0.010 A 
ATOM     34  C   UNL A   1      35.901  29.800  28.713  1.00  0.00     0.010 A 
ATOM     35  C   UNL A   1      36.964  30.650  29.052  1.00  0.00    -0.014 A 
BRANCH  35  36
ATOM     36  C   UNL A   1      38.102  30.119  29.850  1.00  0.00     0.031 A 
ATOM     37  C   UNL A   1      38.364  30.614  31.245  1.00  0.00     0.074 A 
ATOM     38  C   UNL A   1      38.975  29.273  29.264  1.00  0.00     0.049 A 
ATOM     39  N   UNL A   1      39.350  30.316  32.052  1.00  0.00    -0.248 NA
ATOM     40  C   UNL A   1      37.411  31.590  31.798  1.00  0.00     0.031 C 
ATOM     41  C   UNL A   1      38.887  28.789  27.883  1.00  0.00     0.029 A 
ATOM     42  N   UNL A   1      40.125  28.694  29.742  1.00  0.00    -0.354 N 
ATOM     43  C   UNL A   1      39.157  31.088  33.191  1.00  0.00     0.074 A 
ATOM     44  C   UNL A   1      37.974  31.890  32.960  1.00  0.00     0.031 C 
ATOM     45  C   UNL A   1      39.934  27.990  27.628  1.00  0.00     0.029 A 
ATOM     46  C   UNL A   1      40.785  27.925  28.812  1.00  0.00     0.049 A 
ATOM     47  H   UNL A   1      40.446  28.817  30.664  1.00  0.00     0.167 HD
ATOM     48  C   UNL A   1      39.879  31.106  34.337  1.00  0.00     0.034 A 
ATOM     49  C   UNL A   1      41.948  27.250  28.895  1.00  0.00     0.034 A 
ATOM     50  C   UNL A   1      41.027  30.275  34.583  1.00  0.00     0.049 A 
ATOM     51  C   UNL A   1      42.708  27.255  30.193  1.00  0.00     0.074 A 
ATOM     52  C   UNL A   1      41.760  30.145  35.749  1.00  0.00     0.029 A 
ATOM     53  N   UNL A   1      41.617  29.438  33.647  1.00  0.00    -0.354 N 
ATOM     54  N   UNL A   1      42.407  27.851  31.321  1.00  0.00    -0.248 NA
ATOM     55  C   UNL A   1      43.949  26.469  30.241  1.00  0.00     0.031 C 
ATOM     56  C   UNL A   1      42.803  29.243  35.514  1.00  0.00     0.029 A 
ATOM     57  C   UNL A   1      42.712  28.800  34.205  1.00  0.00     0.049 A 
ATOM     58  H   UNL A   1      41.303  29.317  32.722  1.00  0.00     0.167 HD
ATOM     59  C   UNL A   1      43.405  27.492  32.219  1.00  0.00     0.074 A 
ATOM     60  C   UNL A   1      44.305  26.604  31.511  1.00  0.00     0.031 C 
ATOM     61  C   UNL A   1      43.573  27.881  33.507  1.00  0.00     0.034 A 
BRANCH  48  62
ATOM     62  C   UNL A   1      39.409  32.009  35.446  1.00  0.00     0.023 A 
ATOM     63  C   UNL A   1      38.524  31.500  36.419  1.00  0.00     0.012 A 
ATOM     64  C   UNL A   1      39.889  33.327  35.568  1.00  0.00     0.148 A 
ATOM     65  C   UNL A   1      38.100  32.299  37.480  1.00  0.00     0.002 A 
ATOM     66  C   UNL A   1      39.493  34.104  36.651  1.00  0.00     0.091 A 
ATOM     67  F   UNL A   1      40.712  33.799  34.621  1.00  0.00    -0.205 F 
ATOM     68  C   UNL A   1      38.593  33.595  37.602  1.00  0.00     0.022 A 
BRANCH  66  69
ATOM     69  S   UNL A   1      40.127  35.760  36.938  1.00  0.00     0.127 S 
ATOM     70  O   UNL A   1      39.667  36.463  35.742  1.00  0.00    -0.237 OA
ATOM     71  O   UNL A   1      39.442  36.145  38.173  1.00  0.00    -0.237 OA
ATOM     72  O   UNL A   1      41.571  35.619  37.067  1.00  0.00    -0.744 OA
ENDBRANCH  66  69
ENDBRANCH  48  62
BRANCH  49  73
ATOM     73  C   UNL A   1      42.430  26.454  27.730  1.00  0.00     0.023 A 
ATOM     74  C   UNL A   1      43.329  27.042  26.819  1.00  0.00     0.012 A 
ATOM     75  C   UNL A   1      42.033  25.117  27.536  1.00  0.00     0.148 A 
ATOM     76  C   UNL A   1      43.802  26.323  25.720  1.00  0.00     0.002 A 
ATOM     77  C   UNL A   1      42.552  24.389  26.471  1.00  0.00     0.091 A 
ATOM     78  F   UNL A   1      41.164  24.578  28.404  1.00  0.00    -0.205 F 
ATOM     79  C   UNL A   1      43.422  24.994  25.553  1.00  0.00     0.022 A 
BRANCH  77  80
ATOM     80  S   UNL A   1      42.225  22.633  26.262  1.00  0.00     0.127 S 
ATOM     81  O   UNL A   1      40.766  22.605  26.206  1.00  0.00    -0.237 OA
ATOM     82  O   UNL A   1      42.896  22.347  24.993  1.00  0.00    -0.237 OA
ATOM     83  O   UNL A   1      42.833  21.986  27.416  1.00  0.00    -0.744 OA
ENDBRANCH  77  80
ENDBRANCH  49  73
BRANCH  61  84
ATOM     84  C   UNL A   1      44.768  27.339  34.248  1.00  0.00     0.023 A 
ATOM     85  C   UNL A   1      45.978  28.060  34.232  1.00  0.00     0.012 A 
ATOM     86  C   UNL A   1      44.673  26.161  35.013  1.00  0.00     0.148 A 
ATOM     87  C   UNL A   1      47.085  27.602  34.944  1.00  0.00     0.002 A 
ATOM     88  C   UNL A   1      45.768  25.733  35.757  1.00  0.00     0.091 A 
ATOM     89  F   UNL A   1      43.520  25.478  34.998  1.00  0.00    -0.205 F 
ATOM     90  C   UNL A   1      46.977  26.446  35.716  1.00  0.00     0.022 A 
BRANCH  88  91
ATOM     91  S   UNL A   1      45.692  24.307  36.847  1.00  0.00     0.127 S 
ATOM     92  O   UNL A   1      44.591  24.672  37.738  1.00  0.00    -0.237 OA
ATOM     93  O   UNL A   1      45.388  23.219  35.916  1.00  0.00    -0.237 OA
ATOM     94  O   UNL A   1      47.003  24.214  37.475  1.00  0.00    -0.744 OA
ENDBRANCH  88  91
ENDBRANCH  61  84
ENDBRANCH  35  36
ENDBRANCH  27  30
ENDBRANCH  25  26
ENDBRANCH   1  25
TORSDOF 17
ENDMDL
MODEL 2
REMARK VINA RESULT:     -12.4      4.808     10.281
REMARK SMILES Cc1cc(C(=O)N2C[C@@H](C(=O)NCCCCNC(=O)c3ccc(-c4c5nc(c(-c6cccc(S(=O)(=O)[O-])c6F)c6ccc([nH]6)c(-c6cccc(S(=O)(=O)[O-])c6F)c6nc(c(-c7cccc(S(=O)(=O)[O-])c7F)c7ccc4[nH]7)C=C6)C=C5)cc3)[C@H](C3CC3)C2)sc1C
REMARK SMILES IDX 15 1 14 2 13 3 12 4 10 5 11 6 9 8 7 9 8 10 87 11 83 12 5 13
REMARK SMILES IDX 6 14 4 15 1 16 2 17 3 18 89 19 88 20 90 21 84 22 85 23 86 24
REMARK SMILES IDX 16 25 17 26 18 27 19 29 20 30 21 31 82 32 22 33 81 34 23 35
REMARK SMILES IDX 24 36 25 37 75 38 26 39 80 40 74 41 76 42 27 43 79 44 73 45
REMARK SMILES IDX 72 46 28 48 60 49 40 50 59 51 41 52 44 53 58 54 77 55 42 56
REMARK SMILES IDX 43 57 57 59 78 60 45 61 29 62 30 63 38 64 31 65 33 66 39 67
REMARK SMILES IDX 32 68 34 69 35 70 36 71 37 72 61 73 62 74 70 75 63 76 65 77
REMARK SMILES IDX 71 78 64 79 66 80 67 81 68 82 69 83 46 84 47 85 55 86 48 87
REMARK SMILES IDX 50 88 56 89 49 90 51 91 52 92 53 93 54 94
REMARK H PARENT 12 7 17 28 76 47 44 58
REMARK Flexibility Score: inf
ROOT
ATOM      1  C   UNL A   1      35.738  21.127  24.716  1.00  0.00     0.023 C 
ENDROOT
BRANCH   1   2
ATOM      2  C   UNL A   1      34.753  21.162  25.882  1.00  0.00     0.023 C 
BRANCH   2   3
ATOM      3  C   UNL A   1      34.794  22.407  26.761  1.00  0.00     0.116 C 
BRANCH   3   4
ATOM      4  N   UNL A   1      33.527  22.734  27.389  1.00  0.00    -0.356 N 
ATOM      5  C   UNL A   1      32.439  23.372  26.860  1.00  0.00     0.225 C 
ATOM      6  O   UNL A   1      31.398  23.392  27.518  1.00  0.00    -0.275 OA
ATOM      7  H   UNL A   1      33.438  22.456  28.329  1.00  0.00     0.163 HD
BRANCH   5   8
ATOM      8  C   UNL A   1      32.533  24.054  25.510  1.00  0.00     0.103 C 
ATOM      9  N   UNL A   1      31.582  25.689  24.171  1.00  0.00    -0.337 N 
ATOM     10  C   UNL A   1      31.810  25.397  25.574  1.00  0.00     0.133 C 
ATOM     11  C   UNL A   1      31.240  24.464  23.481  1.00  0.00     0.124 C 
ATOM     12  C   UNL A   1      31.770  23.318  24.380  1.00  0.00     0.026 C 
BRANCH   9  13
ATOM     13  C   UNL A   1      31.701  26.870  23.459  1.00  0.00     0.263 C 
ATOM     14  O   UNL A   1      32.815  27.206  23.045  1.00  0.00    -0.268 OA
BRANCH  13  15
ATOM     15  C   UNL A   1      30.551  27.755  23.283  1.00  0.00     0.093 A 
ATOM     16  C   UNL A   1      26.817  28.272  23.373  1.00  0.00     0.045 C 
ATOM     17  C   UNL A   1      28.288  28.418  23.167  1.00  0.00    -0.037 A 
ATOM     18  C   UNL A   1      29.250  27.473  23.659  1.00  0.00     0.029 A 
ATOM     19  C   UNL A   1      28.914  29.433  22.465  1.00  0.00     0.005 A 
ATOM     20  S   UNL A   1      30.594  29.165  22.318  1.00  0.00    -0.135 S 
ATOM     21  C   UNL A   1      28.306  30.630  21.811  1.00  0.00     0.056 C 
ENDBRANCH  13  15
ENDBRANCH   9  13
BRANCH  12  22
ATOM     22  C   UNL A   1      32.542  22.322  23.541  1.00  0.00    -0.005 C 
ATOM     23  C   UNL A   1      31.932  21.401  22.512  1.00  0.00     0.004 C 
ATOM     24  C   UNL A   1      32.792  22.556  22.074  1.00  0.00     0.004 C 
ENDBRANCH  12  22
ENDBRANCH   5   8
ENDBRANCH   3   4
ENDBRANCH   2   3
ENDBRANCH   1   2
BRANCH   1  25
ATOM     25  C   UNL A   1      37.113  21.736  24.971  1.00  0.00     0.116 C 
BRANCH  25  26
ATOM     26  N   UNL A   1      38.133  20.759  25.334  1.00  0.00    -0.352 N 
ATOM     27  C   UNL A   1      39.305  20.920  26.041  1.00  0.00     0.251 C 
ATOM     28  H   UNL A   1      37.957  19.841  25.025  1.00  0.00     0.163 HD
ATOM     29  O   UNL A   1      40.074  19.978  26.172  1.00  0.00    -0.269 OA
BRANCH  27  30
ATOM     30  C   UNL A   1      39.654  22.245  26.602  1.00  0.00     0.039 A 
ATOM     31  C   UNL A   1      40.686  22.325  27.542  1.00  0.00     0.014 A 
ATOM     32  C   UNL A   1      39.007  23.405  26.171  1.00  0.00     0.014 A 
ATOM     33  C   UNL A   1      41.147  23.577  27.959  1.00  0.00     0.010 A 
ATOM     34  C   UNL A   1      39.515  24.651  26.529  1.00  0.00     0.010 A 
ATOM     35  C   UNL A   1      40.606  24.750  27.406  1.00  0.00    -0.014 A 
BRANCH  35  36
ATOM     36  C   UNL A   1      41.225  26.079  27.661  1.00  0.00     0.031 A 
ATOM     37  C   UNL A   1      42.636  26.369  27.233  1.00  0.00     0.074 A 
ATOM     38  C   UNL A   1      40.546  26.988  28.391  1.00  0.00     0.049 A 
ATOM     39  N   UNL A   1      43.354  27.442  27.439  1.00  0.00    -0.248 NA
ATOM     40  C   UNL A   1      43.343  25.306  26.499  1.00  0.00     0.031 C 
ATOM     41  C   UNL A   1      39.204  26.795  28.949  1.00  0.00     0.029 A 
ATOM     42  N   UNL A   1      40.902  28.244  28.820  1.00  0.00    -0.354 N 
ATOM     43  C   UNL A   1      44.604  27.176  26.893  1.00  0.00     0.074 A 
ATOM     44  C   UNL A   1      44.555  25.827  26.371  1.00  0.00     0.031 C 
ATOM     45  C   UNL A   1      38.852  27.889  29.642  1.00  0.00     0.029 A 
ATOM     46  C   UNL A   1      39.949  28.850  29.607  1.00  0.00     0.049 A 
ATOM     47  H   UNL A   1      41.757  28.670  28.586  1.00  0.00     0.167 HD
ATOM     48  C   UNL A   1      45.684  27.989  26.807  1.00  0.00     0.034 A 
ATOM     49  C   UNL A   1      39.957  30.041  30.237  1.00  0.00     0.034 A 
ATOM     50  C   UNL A   1      45.716  29.345  27.285  1.00  0.00     0.049 A 
ATOM     51  C   UNL A   1      41.154  30.940  30.090  1.00  0.00     0.074 A 
ATOM     52  C   UNL A   1      46.725  30.281  27.149  1.00  0.00     0.029 A 
ATOM     53  N   UNL A   1      44.697  29.959  28.000  1.00  0.00    -0.354 N 
ATOM     54  N   UNL A   1      42.258  30.737  29.413  1.00  0.00    -0.248 NA
ATOM     55  C   UNL A   1      41.094  32.245  30.765  1.00  0.00     0.031 C 
ATOM     56  C   UNL A   1      46.326  31.455  27.796  1.00  0.00     0.029 A 
ATOM     57  C   UNL A   1      45.061  31.256  28.323  1.00  0.00     0.049 A 
ATOM     58  H   UNL A   1      43.843  29.535  28.241  1.00  0.00     0.167 HD
ATOM     59  C   UNL A   1      43.012  31.896  29.559  1.00  0.00     0.074 A 
ATOM     60  C   UNL A   1      42.226  32.808  30.365  1.00  0.00     0.031 C 
ATOM     61  C   UNL A   1      44.252  32.172  29.084  1.00  0.00     0.034 A 
BRANCH  48  62
ATOM     62  C   UNL A   1      46.906  27.457  26.108  1.00  0.00     0.023 A 
ATOM     63  C   UNL A   1      47.070  27.699  24.728  1.00  0.00     0.012 A 
ATOM     64  C   UNL A   1      47.919  26.783  26.817  1.00  0.00     0.148 A 
ATOM     65  C   UNL A   1      48.209  27.253  24.059  1.00  0.00     0.002 A 
ATOM     66  C   UNL A   1      49.070  26.377  26.152  1.00  0.00     0.091 A 
ATOM     67  F   UNL A   1      47.734  26.543  28.124  1.00  0.00    -0.205 F 
ATOM     68  C   UNL A   1      49.213  26.603  24.772  1.00  0.00     0.022 A 
BRANCH  66  69
ATOM     69  S   UNL A   1      50.452  25.597  26.994  1.00  0.00     0.127 S 
ATOM     70  O   UNL A   1      51.363  25.332  25.881  1.00  0.00    -0.237 OA
ATOM     71  O   UNL A   1      50.894  26.652  27.906  1.00  0.00    -0.237 OA
ATOM     72  O   UNL A   1      49.905  24.418  27.652  1.00  0.00    -0.744 OA
ENDBRANCH  66  69
ENDBRANCH  48  62
BRANCH  49  73
ATOM     73  C   UNL A   1      38.761  30.481  31.010  1.00  0.00     0.023 A 
ATOM     74  C   UNL A   1      38.724  30.267  32.402  1.00  0.00     0.012 A 
ATOM     75  C   UNL A   1      37.680  31.134  30.387  1.00  0.00     0.148 A 
ATOM     76  C   UNL A   1      37.621  30.670  33.155  1.00  0.00     0.002 A 
ATOM     77  C   UNL A   1      36.610  31.583  31.152  1.00  0.00     0.091 A 
ATOM     78  F   UNL A   1      37.725  31.314  29.059  1.00  0.00    -0.205 F 
ATOM     79  C   UNL A   1      36.570  31.337  32.533  1.00  0.00     0.022 A 
BRANCH  77  80
ATOM     80  S   UNL A   1      35.281  32.573  30.453  1.00  0.00     0.127 S 
ATOM     81  O   UNL A   1      34.341  32.643  31.567  1.00  0.00    -0.237 OA
ATOM     82  O   UNL A   1      35.967  33.829  30.145  1.00  0.00    -0.237 OA
ATOM     83  O   UNL A   1      34.828  31.839  29.279  1.00  0.00    -0.744 OA
ENDBRANCH  77  80
ENDBRANCH  49  73
BRANCH  61  84
ATOM     84  C   UNL A   1      44.839  33.520  29.412  1.00  0.00     0.023 A 
ATOM     85  C   UNL A   1      45.603  33.678  30.585  1.00  0.00     0.012 A 
ATOM     86  C   UNL A   1      44.694  34.607  28.527  1.00  0.00     0.148 A 
ATOM     87  C   UNL A   1      46.191  34.905  30.888  1.00  0.00     0.002 A 
ATOM     88  C   UNL A   1      45.321  35.815  28.814  1.00  0.00     0.091 A 
ATOM     89  F   UNL A   1      43.947  34.443  27.427  1.00  0.00    -0.205 F 
ATOM     90  C   UNL A   1      46.061  35.969  29.997  1.00  0.00     0.022 A 
BRANCH  88  91
ATOM     91  S   UNL A   1      45.282  37.211  27.682  1.00  0.00     0.127 S 
ATOM     92  O   UNL A   1      45.901  36.642  26.486  1.00  0.00    -0.237 OA
ATOM     93  O   UNL A   1      43.847  37.473  27.561  1.00  0.00    -0.237 OA
ATOM     94  O   UNL A   1      46.036  38.274  28.334  1.00  0.00    -0.744 OA
ENDBRANCH  88  91
ENDBRANCH  61  84
ENDBRANCH  35  36
ENDBRANCH  27  30
ENDBRANCH  25  26
ENDBRANCH   1  25
TORSDOF 17
ENDMDL
MODEL 3
REMARK VINA RESULT:     -12.3      2.377      7.888
REMARK SMILES Cc1cc(C(=O)N2C[C@@H](C(=O)NCCCCNC(=O)c3ccc(-c4c5nc(c(-c6cccc(S(=O)(=O)[O-])c6F)c6ccc([nH]6)c(-c6cccc(S(=O)(=O)[O-])c6F)c6nc(c(-c7cccc(S(=O)(=O)[O-])c7F)c7ccc4[nH]7)C=C6)C=C5)cc3)[C@H](C3CC3)C2)sc1C
REMARK SMILES IDX 15 1 14 2 13 3 12 4 10 5 11 6 9 8 7 9 8 10 87 11 83 12 5 13
REMARK SMILES IDX 6 14 4 15 1 16 2 17 3 18 89 19 88 20 90 21 84 22 85 23 86 24
REMARK SMILES IDX 16 25 17 26 18 27 19 29 20 30 21 31 82 32 22 33 81 34 23 35
REMARK SMILES IDX 24 36 25 37 75 38 26 39 80 40 74 41 76 42 27 43 79 44 73 45
REMARK SMILES IDX 72 46 28 48 60 49 40 50 59 51 41 52 44 53 58 54 77 55 42 56
REMARK SMILES IDX 43 57 57 59 78 60 45 61 29 62 30 63 38 64 31 65 33 66 39 67
REMARK SMILES IDX 32 68 34 69 35 70 36 71 37 72 61 73 62 74 70 75 63 76 65 77
REMARK SMILES IDX 71 78 64 79 66 80 67 81 68 82 69 83 46 84 47 85 55 86 48 87
REMARK SMILES IDX 50 88 56 89 49 90 51 91 52 92 53 93 54 94
REMARK H PARENT 12 7 17 28 76 47 44 58
REMARK Flexibility Score: inf
ROOT
ATOM      1  C   UNL A   1      32.088  30.949  26.889  1.00  0.00     0.023 C 
ENDROOT
BRANCH   1   2
ATOM      2  C   UNL A   1      32.443  29.464  26.903  1.00  0.00     0.023 C 
BRANCH   2   3
ATOM      3  C   UNL A   1      33.891  29.113  26.577  1.00  0.00     0.116 C 
BRANCH   3   4
ATOM      4  N   UNL A   1      34.161  28.964  25.159  1.00  0.00    -0.356 N 
ATOM      5  C   UNL A   1      33.619  28.084  24.264  1.00  0.00     0.225 C 
ATOM      6  O   UNL A   1      33.864  28.244  23.068  1.00  0.00    -0.275 OA
ATOM      7  H   UNL A   1      34.831  29.583  24.790  1.00  0.00     0.163 HD
BRANCH   5   8
ATOM      8  C   UNL A   1      32.760  26.932  24.746  1.00  0.00     0.103 C 
ATOM      9  N   UNL A   1      32.529  24.627  24.705  1.00  0.00    -0.337 N 
ATOM     10  C   UNL A   1      33.569  25.639  24.677  1.00  0.00     0.133 C 
ATOM     11  C   UNL A   1      31.405  25.080  23.916  1.00  0.00     0.124 C 
ATOM     12  C   UNL A   1      31.553  26.620  23.825  1.00  0.00     0.026 C 
BRANCH   9  13
ATOM     13  C   UNL A   1      32.457  23.420  25.379  1.00  0.00     0.263 C 
ATOM     14  O   UNL A   1      31.649  23.304  26.306  1.00  0.00    -0.268 OA
BRANCH  13  15
ATOM     15  C   UNL A   1      33.382  22.332  25.068  1.00  0.00     0.093 A 
ATOM     16  C   UNL A   1      33.984  18.652  24.507  1.00  0.00     0.045 C 
ATOM     17  C   UNL A   1      34.135  20.120  24.725  1.00  0.00    -0.037 A 
ATOM     18  C   UNL A   1      33.025  21.029  24.768  1.00  0.00     0.029 A 
ATOM     19  C   UNL A   1      35.325  20.792  24.947  1.00  0.00     0.005 A 
ATOM     20  S   UNL A   1      35.070  22.440  25.310  1.00  0.00    -0.135 S 
ATOM     21  C   UNL A   1      36.716  20.248  24.961  1.00  0.00     0.056 C 
ENDBRANCH  13  15
ENDBRANCH   9  13
BRANCH  12  22
ATOM     22  C   UNL A   1      30.231  27.283  24.146  1.00  0.00    -0.005 C 
ATOM     23  C   UNL A   1      29.302  27.899  23.128  1.00  0.00     0.004 C 
ATOM     24  C   UNL A   1      28.919  26.620  23.822  1.00  0.00     0.004 C 
ENDBRANCH  12  22
ENDBRANCH   5   8
ENDBRANCH   3   4
ENDBRANCH   2   3
ENDBRANCH   1   2
BRANCH   1  25
ATOM     25  C   UNL A   1      33.162  31.906  27.398  1.00  0.00     0.116 C 
BRANCH  25  26
ATOM     26  N   UNL A   1      32.694  33.275  27.579  1.00  0.00    -0.352 N 
ATOM     27  C   UNL A   1      33.146  34.265  28.425  1.00  0.00     0.251 C 
ATOM     28  H   UNL A   1      31.936  33.534  27.006  1.00  0.00     0.163 HD
ATOM     29  O   UNL A   1      32.559  35.336  28.482  1.00  0.00    -0.269 OA
BRANCH  27  30
ATOM     30  C   UNL A   1      34.315  34.012  29.299  1.00  0.00     0.039 A 
ATOM     31  C   UNL A   1      34.112  33.353  30.516  1.00  0.00     0.014 A 
ATOM     32  C   UNL A   1      35.603  34.374  28.903  1.00  0.00     0.014 A 
ATOM     33  C   UNL A   1      35.214  32.954  31.277  1.00  0.00     0.010 A 
ATOM     34  C   UNL A   1      36.701  33.910  29.624  1.00  0.00     0.010 A 
ATOM     35  C   UNL A   1      36.518  33.174  30.805  1.00  0.00    -0.014 A 
BRANCH  35  36
ATOM     36  C   UNL A   1      37.696  32.565  31.480  1.00  0.00     0.031 A 
ATOM     37  C   UNL A   1      38.443  31.424  30.848  1.00  0.00     0.074 A 
ATOM     38  C   UNL A   1      38.018  32.969  32.726  1.00  0.00     0.049 A 
ATOM     39  N   UNL A   1      39.442  30.729  31.328  1.00  0.00    -0.248 NA
ATOM     40  C   UNL A   1      37.995  30.988  29.515  1.00  0.00     0.031 C 
ATOM     41  C   UNL A   1      37.313  34.003  33.490  1.00  0.00     0.029 A 
ATOM     42  N   UNL A   1      38.999  32.538  33.586  1.00  0.00    -0.354 N 
ATOM     43  C   UNL A   1      39.722  29.756  30.377  1.00  0.00     0.074 A 
ATOM     44  C   UNL A   1      38.767  29.931  29.303  1.00  0.00     0.031 C 
ATOM     45  C   UNL A   1      37.883  34.126  34.698  1.00  0.00     0.029 A 
ATOM     46  C   UNL A   1      38.973  33.162  34.812  1.00  0.00     0.049 A 
ATOM     47  H   UNL A   1      39.659  31.848  33.348  1.00  0.00     0.167 HD
ATOM     48  C   UNL A   1      40.701  28.820  30.382  1.00  0.00     0.034 A 
ATOM     49  C   UNL A   1      39.733  32.977  35.909  1.00  0.00     0.034 A 
ATOM     50  C   UNL A   1      41.678  28.676  31.428  1.00  0.00     0.049 A 
ATOM     51  C   UNL A   1      40.839  31.959  35.871  1.00  0.00     0.074 A 
ATOM     52  C   UNL A   1      42.771  27.830  31.473  1.00  0.00     0.029 A 
ATOM     53  N   UNL A   1      41.676  29.388  32.619  1.00  0.00    -0.354 N 
ATOM     54  N   UNL A   1      41.201  31.172  34.887  1.00  0.00    -0.248 NA
ATOM     55  C   UNL A   1      41.664  31.826  37.081  1.00  0.00     0.031 C 
ATOM     56  C   UNL A   1      43.421  28.016  32.698  1.00  0.00     0.029 A 
ATOM     57  C   UNL A   1      42.741  28.990  33.410  1.00  0.00     0.049 A 
ATOM     58  H   UNL A   1      41.015  30.074  32.864  1.00  0.00     0.167 HD
ATOM     59  C   UNL A   1      42.309  30.470  35.349  1.00  0.00     0.074 A 
ATOM     60  C   UNL A   1      42.576  30.946  36.691  1.00  0.00     0.031 C 
ATOM     61  C   UNL A   1      43.027  29.504  34.724  1.00  0.00     0.034 A 
BRANCH  48  62
ATOM     62  C   UNL A   1      40.811  27.917  29.183  1.00  0.00     0.023 A 
ATOM     63  C   UNL A   1      40.028  26.745  29.129  1.00  0.00     0.012 A 
ATOM     64  C   UNL A   1      41.626  28.255  28.085  1.00  0.00     0.148 A 
ATOM     65  C   UNL A   1      40.078  25.908  28.016  1.00  0.00     0.002 A 
ATOM     66  C   UNL A   1      41.640  27.436  26.961  1.00  0.00     0.091 A 
ATOM     67  F   UNL A   1      42.379  29.362  28.164  1.00  0.00    -0.205 F 
ATOM     68  C   UNL A   1      40.874  26.258  26.929  1.00  0.00     0.022 A 
BRANCH  66  69
ATOM     69  S   UNL A   1      42.575  27.838  25.481  1.00  0.00     0.127 S 
ATOM     70  O   UNL A   1      42.342  26.654  24.655  1.00  0.00    -0.237 OA
ATOM     71  O   UNL A   1      41.905  29.051  25.011  1.00  0.00    -0.237 OA
ATOM     72  O   UNL A   1      43.950  28.036  25.919  1.00  0.00    -0.744 OA
ENDBRANCH  66  69
ENDBRANCH  48  62
BRANCH  49  73
ATOM     73  C   UNL A   1      39.515  33.825  37.116  1.00  0.00     0.023 A 
ATOM     74  C   UNL A   1      39.950  35.165  37.102  1.00  0.00     0.012 A 
ATOM     75  C   UNL A   1      38.857  33.329  38.257  1.00  0.00     0.148 A 
ATOM     76  C   UNL A   1      39.758  35.987  38.213  1.00  0.00     0.002 A 
ATOM     77  C   UNL A   1      38.618  34.170  39.338  1.00  0.00     0.091 A 
ATOM     78  F   UNL A   1      38.464  32.047  38.257  1.00  0.00    -0.205 F 
ATOM     79  C   UNL A   1      39.083  35.493  39.325  1.00  0.00     0.022 A 
BRANCH  77  80
ATOM     80  S   UNL A   1      37.635  33.655  40.752  1.00  0.00     0.127 S 
ATOM     81  O   UNL A   1      38.539  32.725  41.423  1.00  0.00    -0.237 OA
ATOM     82  O   UNL A   1      37.423  34.923  41.454  1.00  0.00    -0.237 OA
ATOM     83  O   UNL A   1      36.423  33.075  40.191  1.00  0.00    -0.744 OA
ENDBRANCH  77  80
ENDBRANCH  49  73
BRANCH  61  84
ATOM     84  C   UNL A   1      44.183  28.899  35.478  1.00  0.00     0.023 A 
ATOM     85  C   UNL A   1      45.473  29.443  35.322  1.00  0.00     0.012 A 
ATOM     86  C   UNL A   1      43.981  27.843  36.388  1.00  0.00     0.148 A 
ATOM     87  C   UNL A   1      46.551  28.929  36.040  1.00  0.00     0.002 A 
ATOM     88  C   UNL A   1      45.053  27.364  37.134  1.00  0.00     0.091 A 
ATOM     89  F   UNL A   1      42.750  27.325  36.507  1.00  0.00    -0.205 F 
ATOM     90  C   UNL A   1      46.339  27.898  36.954  1.00  0.00     0.022 A 
BRANCH  88  91
ATOM     91  S   UNL A   1      44.857  26.101  38.397  1.00  0.00     0.127 S 
ATOM     92  O   UNL A   1      46.243  25.858  38.793  1.00  0.00    -0.237 OA
ATOM     93  O   UNL A   1      44.047  26.791  39.404  1.00  0.00    -0.237 OA
ATOM     94  O   UNL A   1      44.185  24.985  37.745  1.00  0.00    -0.744 OA
ENDBRANCH  88  91
ENDBRANCH  61  84
ENDBRANCH  35  36
ENDBRANCH  27  30
ENDBRANCH  25  26
ENDBRANCH   1  25
TORSDOF 17
ENDMDL
