MODEL 1
REMARK VINA RESULT:     -12.6      0.000      0.000
REMARK SMILES O=C(CCc1cc2n(n1)CC[N@@H+](Cc1ccc3[nH]ccc3c1)C2)NCCCCNC(=O)c1ccc(-c2c3nc(c(-c4cccc(S(=O)(=O)[O-])c4F)c4ccc([nH]4)c(-c4cccc(S(=O)(=O)[O-])c4F)c4nc(c(-c5cccc(S(=O)(=O)[O-])c5F)c5ccc2[nH]5)C=C4)C=C3)cc1
REMARK SMILES IDX 26 1 25 2 24 3 1 4 2 5 3 7 4 8 5 9 6 10 9 11 7 12 8 13 23 14
REMARK SMILES IDX 10 15 12 16 11 17 13 19 14 20 15 21 22 22 16 23 21 24 17 25
REMARK SMILES IDX 20 26 18 27 19 28 27 30 28 31 29 32 30 33 31 35 32 36 33 37
REMARK SMILES IDX 94 38 34 39 93 40 35 41 36 42 37 43 87 44 38 45 92 46 86 47
REMARK SMILES IDX 88 48 39 49 91 50 85 51 84 52 40 54 72 55 52 56 71 57 53 58
REMARK SMILES IDX 56 59 70 60 89 61 54 62 55 63 69 65 90 66 57 67 41 68 42 69
REMARK SMILES IDX 50 70 43 71 45 72 51 73 44 74 46 75 47 76 48 77 49 78 73 79
REMARK SMILES IDX 74 80 82 81 75 82 77 83 83 84 76 85 78 86 79 87 80 88 81 89
REMARK SMILES IDX 58 90 59 91 67 92 60 93 62 94 68 95 61 96 63 97 64 98 65 99
REMARK SMILES IDX 66 100
REMARK H PARENT 24 6 12 18 18 29 29 34 88 53 56 64
REMARK Flexibility Score: inf
ROOT
ATOM      1  C   UNL A   1      41.709  19.813  26.538  1.00  0.00     0.023 C 
ENDROOT
BRANCH   1   2
ATOM      2  C   UNL A   1      40.269  19.849  25.993  1.00  0.00     0.116 C 
BRANCH   2   3
ATOM      3  N   UNL A   1      39.525  21.093  26.093  1.00  0.00    -0.356 N 
ATOM      4  O   UNL A   1      37.804  20.361  24.759  1.00  0.00    -0.275 OA
ATOM      5  C   UNL A   1      38.281  21.218  25.506  1.00  0.00     0.220 C 
ATOM      6  H   UNL A   1      39.911  21.854  26.585  1.00  0.00     0.163 HD
BRANCH   5   7
ATOM      7  C   UNL A   1      37.537  22.518  25.754  1.00  0.00     0.106 C 
BRANCH   7   8
ATOM      8  C   UNL A   1      36.832  23.086  24.531  1.00  0.00     0.068 C 
BRANCH   8   9
ATOM      9  C   UNL A   1      35.429  23.484  24.811  1.00  0.00     0.063 A 
ATOM     10  C   UNL A   1      34.255  22.698  24.705  1.00  0.00     0.055 A 
ATOM     11  N   UNL A   1      35.154  24.735  25.198  1.00  0.00    -0.177 NA
ATOM     12  C   UNL A   1      33.242  23.531  25.115  1.00  0.00     0.093 A 
ATOM     13  N   UNL A   1      33.873  24.640  25.606  1.00  0.00    -0.258 N 
ATOM     14  C   UNL A   1      31.768  23.407  25.186  1.00  0.00     0.319 C 
ATOM     15  C   UNL A   1      33.208  25.757  26.238  1.00  0.00     0.206 C 
ATOM     16  N   UNL A   1      31.165  24.717  25.062  1.00  0.00    -0.325 N 
ATOM     17  C   UNL A   1      31.686  25.722  25.991  1.00  0.00     0.286 C 
ATOM     18  H   UNL A   1      30.227  24.682  25.461  1.00  0.00     0.348 HD
BRANCH  16  19
ATOM     19  C   UNL A   1      30.442  25.052  23.839  1.00  0.00     0.299 C 
BRANCH  19  20
ATOM     20  C   UNL A   1      30.303  26.530  23.486  1.00  0.00     0.007 A 
ATOM     21  C   UNL A   1      31.443  27.250  22.995  1.00  0.00     0.012 A 
ATOM     22  C   UNL A   1      29.025  27.094  23.519  1.00  0.00     0.020 A 
ATOM     23  C   UNL A   1      31.439  28.533  22.387  1.00  0.00     0.027 A 
ATOM     24  C   UNL A   1      28.769  28.315  22.945  1.00  0.00    -0.000 A 
ATOM     25  C   UNL A   1      30.237  29.226  22.476  1.00  0.00     0.045 A 
ATOM     26  C   UNL A   1      27.272  29.578  23.149  1.00  0.00     0.028 A 
ATOM     27  N   UNL A   1      29.771  31.039  22.391  1.00  0.00    -0.361 N 
ATOM     28  C   UNL A   1      27.932  31.231  22.797  1.00  0.00     0.083 A 
ATOM     29  H   UNL A   1      30.386  31.775  22.169  1.00  0.00     0.166 HD
ENDBRANCH  19  20
ENDBRANCH  16  19
ENDBRANCH   8   9
ENDBRANCH   7   8
ENDBRANCH   5   7
ENDBRANCH   2   3
ENDBRANCH   1   2
BRANCH   1  30
ATOM     30  C   UNL A   1      42.929  20.426  25.810  1.00  0.00     0.023 C 
BRANCH  30  31
ATOM     31  C   UNL A   1      43.050  22.067  25.480  1.00  0.00     0.116 C 
BRANCH  31  32
ATOM     32  N   UNL A   1      41.834  23.814  25.942  1.00  0.00    -0.352 N 
ATOM     33  C   UNL A   1      41.070  24.534  26.956  1.00  0.00     0.251 C 
ATOM     34  H   UNL A   1      41.774  24.344  25.114  1.00  0.00     0.163 HD
ATOM     35  O   UNL A   1      40.086  24.091  27.542  1.00  0.00    -0.269 OA
BRANCH  33  36
ATOM     36  C   UNL A   1      41.601  25.922  27.242  1.00  0.00     0.039 A 
ATOM     37  C   UNL A   1      41.162  27.023  26.502  1.00  0.00     0.014 A 
ATOM     38  C   UNL A   1      42.309  26.145  28.422  1.00  0.00     0.014 A 
ATOM     39  C   UNL A   1      41.344  28.315  27.018  1.00  0.00     0.010 A 
ATOM     40  C   UNL A   1      42.303  27.386  29.016  1.00  0.00     0.010 A 
ATOM     41  C   UNL A   1      41.837  28.494  28.329  1.00  0.00    -0.014 A 
BRANCH  41  42
ATOM     42  C   UNL A   1      41.608  29.753  29.077  1.00  0.00     0.031 A 
ATOM     43  C   UNL A   1      42.590  30.842  28.700  1.00  0.00     0.074 A 
ATOM     44  C   UNL A   1      40.500  29.989  29.852  1.00  0.00     0.049 A 
ATOM     45  N   UNL A   1      43.146  31.686  29.493  1.00  0.00    -0.248 NA
ATOM     46  C   UNL A   1      43.084  31.005  27.311  1.00  0.00     0.031 C 
ATOM     47  C   UNL A   1      39.343  29.089  30.049  1.00  0.00     0.029 A 
ATOM     48  N   UNL A   1      40.078  31.102  30.550  1.00  0.00    -0.354 N 
ATOM     49  C   UNL A   1      43.829  32.613  28.697  1.00  0.00     0.074 A 
ATOM     50  C   UNL A   1      43.748  32.160  27.348  1.00  0.00     0.031 C 
ATOM     51  C   UNL A   1      38.285  29.766  30.550  1.00  0.00     0.029 A 
ATOM     52  C   UNL A   1      38.716  31.097  30.918  1.00  0.00     0.049 A 
ATOM     53  H   UNL A   1      40.683  31.845  30.774  1.00  0.00     0.167 HD
ATOM     54  C   UNL A   1      44.247  33.777  29.255  1.00  0.00     0.034 A 
ATOM     55  C   UNL A   1      37.974  32.075  31.514  1.00  0.00     0.034 A 
ATOM     56  C   UNL A   1      44.424  33.559  30.667  1.00  0.00     0.049 A 
ATOM     57  C   UNL A   1      38.930  32.981  32.162  1.00  0.00     0.074 A 
ATOM     58  C   UNL A   1      45.305  32.836  31.441  1.00  0.00     0.029 A 
ATOM     59  N   UNL A   1      43.256  33.687  31.369  1.00  0.00    -0.354 N 
ATOM     60  N   UNL A   1      39.662  32.634  33.180  1.00  0.00    -0.248 NA
ATOM     61  C   UNL A   1      39.322  34.195  31.467  1.00  0.00     0.031 C 
ATOM     62  C   UNL A   1      44.545  32.368  32.553  1.00  0.00     0.029 A 
ATOM     63  C   UNL A   1      43.267  32.918  32.494  1.00  0.00     0.049 A 
ATOM     64  H   UNL A   1      42.504  34.261  31.094  1.00  0.00     0.167 HD
ATOM     65  C   UNL A   1      40.856  33.274  32.928  1.00  0.00     0.074 A 
ATOM     66  C   UNL A   1      40.534  34.355  32.001  1.00  0.00     0.031 C 
ATOM     67  C   UNL A   1      42.037  32.654  33.202  1.00  0.00     0.034 A 
BRANCH  54  68
ATOM     68  C   UNL A   1      43.857  35.149  28.726  1.00  0.00     0.023 A 
ATOM     69  C   UNL A   1      42.506  35.285  28.317  1.00  0.00     0.012 A 
ATOM     70  C   UNL A   1      44.756  36.161  28.309  1.00  0.00     0.148 A 
ATOM     71  C   UNL A   1      42.085  36.305  27.461  1.00  0.00     0.002 A 
ATOM     72  C   UNL A   1      44.317  37.208  27.495  1.00  0.00     0.091 A 
ATOM     73  F   UNL A   1      46.052  36.066  28.620  1.00  0.00    -0.205 F 
ATOM     74  C   UNL A   1      42.994  37.263  27.043  1.00  0.00     0.022 A 
BRANCH  72  75
ATOM     75  S   UNL A   1      45.402  38.527  26.929  1.00  0.00     0.127 S 
ATOM     76  O   UNL A   1      44.462  39.408  26.242  1.00  0.00    -0.237 OA
ATOM     77  O   UNL A   1      45.922  39.046  28.195  1.00  0.00    -0.237 OA
ATOM     78  O   UNL A   1      46.402  37.885  26.090  1.00  0.00    -0.744 OA
ENDBRANCH  72  75
ENDBRANCH  54  68
BRANCH  55  79
ATOM     79  C   UNL A   1      36.523  32.435  31.525  1.00  0.00     0.023 A 
ATOM     80  C   UNL A   1      35.863  32.708  32.751  1.00  0.00     0.012 A 
ATOM     81  C   UNL A   1      35.890  32.853  30.339  1.00  0.00     0.148 A 
ATOM     82  C   UNL A   1      34.655  33.425  32.794  1.00  0.00     0.002 A 
ATOM     83  C   UNL A   1      34.692  33.571  30.387  1.00  0.00     0.091 A 
ATOM     84  F   UNL A   1      36.515  32.630  29.176  1.00  0.00    -0.205 F 
ATOM     85  C   UNL A   1      34.079  33.873  31.612  1.00  0.00     0.022 A 
BRANCH  83  86
ATOM     86  S   UNL A   1      33.906  34.227  28.909  1.00  0.00     0.127 S 
ATOM     87  O   UNL A   1      32.714  34.871  29.461  1.00  0.00    -0.237 OA
ATOM     88  O   UNL A   1      34.923  35.149  28.412  1.00  0.00    -0.237 OA
ATOM     89  O   UNL A   1      33.631  33.070  28.068  1.00  0.00    -0.744 OA
ENDBRANCH  83  86
ENDBRANCH  55  79
BRANCH  67  90
ATOM     90  C   UNL A   1      42.051  31.575  34.240  1.00  0.00     0.023 A 
ATOM     91  C   UNL A   1      42.099  31.791  35.631  1.00  0.00     0.012 A 
ATOM     92  C   UNL A   1      41.895  30.269  33.753  1.00  0.00     0.148 A 
ATOM     93  C   UNL A   1      42.002  30.708  36.513  1.00  0.00     0.002 A 
ATOM     94  C   UNL A   1      41.739  29.210  34.627  1.00  0.00     0.091 A 
ATOM     95  F   UNL A   1      41.882  30.089  32.422  1.00  0.00    -0.205 F 
ATOM     96  C   UNL A   1      41.803  29.420  36.011  1.00  0.00     0.022 A 
BRANCH  94  97
ATOM     97  S   UNL A   1      41.358  27.573  34.011  1.00  0.00     0.127 S 
ATOM     98  O   UNL A   1      40.178  27.826  33.189  1.00  0.00    -0.237 OA
ATOM     99  O   UNL A   1      42.569  27.232  33.264  1.00  0.00    -0.237 OA
ATOM    100  O   UNL A   1      41.138  26.742  35.189  1.00  0.00    -0.744 OA
ENDBRANCH  94  97
ENDBRANCH  67  90
ENDBRANCH  41  42
ENDBRANCH  33  36
ENDBRANCH  31  32
ENDBRANCH  30  31
ENDBRANCH   1  30
TORSDOF 18
ENDMDL
MODEL 2
REMARK VINA RESULT:     -12.6      5.342     10.274
REMARK SMILES O=C(CCc1cc2n(n1)CC[N@@H+](Cc1ccc3[nH]ccc3c1)C2)NCCCCNC(=O)c1ccc(-c2c3nc(c(-c4cccc(S(=O)(=O)[O-])c4F)c4ccc([nH]4)c(-c4cccc(S(=O)(=O)[O-])c4F)c4nc(c(-c5cccc(S(=O)(=O)[O-])c5F)c5ccc2[nH]5)C=C4)C=C3)cc1
REMARK SMILES IDX 26 1 25 2 24 3 1 4 2 5 3 7 4 8 5 9 6 10 9 11 7 12 8 13 23 14
REMARK SMILES IDX 10 15 12 16 11 17 13 19 14 20 15 21 22 22 16 23 21 24 17 25
REMARK SMILES IDX 20 26 18 27 19 28 27 30 28 31 29 32 30 33 31 35 32 36 33 37
REMARK SMILES IDX 94 38 34 39 93 40 35 41 36 42 37 43 87 44 38 45 92 46 86 47
REMARK SMILES IDX 88 48 39 49 91 50 85 51 84 52 40 54 72 55 52 56 71 57 53 58
REMARK SMILES IDX 56 59 70 60 89 61 54 62 55 63 69 65 90 66 57 67 41 68 42 69
REMARK SMILES IDX 50 70 43 71 45 72 51 73 44 74 46 75 47 76 48 77 49 78 73 79
REMARK SMILES IDX 74 80 82 81 75 82 77 83 83 84 76 85 78 86 79 87 80 88 81 89
REMARK SMILES IDX 58 90 59 91 67 92 60 93 62 94 68 95 61 96 63 97 64 98 65 99
REMARK SMILES IDX 66 100
REMARK H PARENT 24 6 12 18 18 29 29 34 88 53 56 64
REMARK Flexibility Score: inf
ROOT
ATOM      1  C   UNL A   1      42.025  19.413  26.747  1.00  0.00     0.023 C 
ENDROOT
BRANCH   1   2
ATOM      2  C   UNL A   1      43.021  19.458  25.573  1.00  0.00     0.116 C 
BRANCH   2   3
ATOM      3  N   UNL A   1      44.267  20.182  25.754  1.00  0.00    -0.356 N 
ATOM      4  O   UNL A   1      43.513  22.072  24.689  1.00  0.00    -0.275 OA
ATOM      5  C   UNL A   1      44.383  21.497  25.345  1.00  0.00     0.220 C 
ATOM      6  H   UNL A   1      45.037  19.731  26.171  1.00  0.00     0.163 HD
BRANCH   5   7
ATOM      7  C   UNL A   1      45.688  22.200  25.670  1.00  0.00     0.106 C 
BRANCH   7   8
ATOM      8  C   UNL A   1      46.252  23.044  24.536  1.00  0.00     0.068 C 
BRANCH   8   9
ATOM      9  C   UNL A   1      46.626  24.412  24.972  1.00  0.00     0.063 A 
ATOM     10  C   UNL A   1      47.750  24.814  25.737  1.00  0.00     0.055 A 
ATOM     11  N   UNL A   1      45.843  25.451  24.661  1.00  0.00    -0.177 NA
ATOM     12  C   UNL A   1      47.640  26.181  25.822  1.00  0.00     0.093 A 
ATOM     13  N   UNL A   1      46.619  26.507  24.974  1.00  0.00    -0.258 N 
ATOM     14  C   UNL A   1      48.406  27.237  26.524  1.00  0.00     0.319 C 
ATOM     15  C   UNL A   1      46.202  27.857  24.663  1.00  0.00     0.206 C 
ATOM     16  N   UNL A   1      47.535  28.358  26.810  1.00  0.00    -0.325 N 
ATOM     17  C   UNL A   1      46.802  28.875  25.653  1.00  0.00     0.286 C 
ATOM     18  H   UNL A   1      48.110  29.189  26.950  1.00  0.00     0.348 HD
BRANCH  16  19
ATOM     19  C   UNL A   1      47.140  28.613  28.191  1.00  0.00     0.299 C 
BRANCH  19  20
ATOM     20  C   UNL A   1      46.342  27.528  28.908  1.00  0.00     0.007 A 
ATOM     21  C   UNL A   1      45.278  26.858  28.215  1.00  0.00     0.012 A 
ATOM     22  C   UNL A   1      46.774  27.125  30.174  1.00  0.00     0.020 A 
ATOM     23  C   UNL A   1      44.612  25.673  28.626  1.00  0.00     0.027 A 
ATOM     24  C   UNL A   1      46.302  25.975  30.757  1.00  0.00    -0.000 A 
ATOM     25  C   UNL A   1      44.889  25.258  29.923  1.00  0.00     0.045 A 
ATOM     26  C   UNL A   1      46.341  25.328  32.617  1.00  0.00     0.028 A 
ATOM     27  N   UNL A   1      43.982  24.190  31.168  1.00  0.00    -0.361 N 
ATOM     28  C   UNL A   1      44.906  24.237  32.820  1.00  0.00     0.083 A 
ATOM     29  H   UNL A   1      43.157  23.683  30.990  1.00  0.00     0.166 HD
ENDBRANCH  19  20
ENDBRANCH  16  19
ENDBRANCH   8   9
ENDBRANCH   7   8
ENDBRANCH   5   7
ENDBRANCH   2   3
ENDBRANCH   1   2
BRANCH   1  30
ATOM     30  C   UNL A   1      40.711  20.229  26.803  1.00  0.00     0.023 C 
BRANCH  30  31
ATOM     31  C   UNL A   1      40.571  21.759  26.128  1.00  0.00     0.116 C 
BRANCH  31  32
ATOM     32  N   UNL A   1      41.402  23.718  26.594  1.00  0.00    -0.352 N 
ATOM     33  C   UNL A   1      41.701  25.062  26.109  1.00  0.00     0.251 C 
ATOM     34  H   UNL A   1      41.702  23.682  27.531  1.00  0.00     0.163 HD
ATOM     35  O   UNL A   1      42.452  25.319  25.172  1.00  0.00    -0.269 OA
BRANCH  33  36
ATOM     36  C   UNL A   1      40.991  26.156  26.877  1.00  0.00     0.039 A 
ATOM     37  C   UNL A   1      40.478  25.916  28.154  1.00  0.00     0.014 A 
ATOM     38  C   UNL A   1      41.099  27.473  26.432  1.00  0.00     0.014 A 
ATOM     39  C   UNL A   1      40.190  27.003  28.994  1.00  0.00     0.010 A 
ATOM     40  C   UNL A   1      41.012  28.519  27.321  1.00  0.00     0.010 A 
ATOM     41  C   UNL A   1      40.547  28.313  28.608  1.00  0.00    -0.014 A 
BRANCH  41  42
ATOM     42  C   UNL A   1      40.706  29.398  29.606  1.00  0.00     0.031 A 
ATOM     43  C   UNL A   1      39.402  30.107  29.910  1.00  0.00     0.074 A 
ATOM     44  C   UNL A   1      41.846  29.594  30.344  1.00  0.00     0.049 A 
ATOM     45  N   UNL A   1      39.237  31.367  30.099  1.00  0.00    -0.248 NA
ATOM     46  C   UNL A   1      38.109  29.383  29.954  1.00  0.00     0.031 C 
ATOM     47  C   UNL A   1      43.074  28.769  30.323  1.00  0.00     0.029 A 
ATOM     48  N   UNL A   1      42.154  30.482  31.355  1.00  0.00    -0.354 N 
ATOM     49  C   UNL A   1      37.916  31.550  30.526  1.00  0.00     0.074 A 
ATOM     50  C   UNL A   1      37.259  30.289  30.437  1.00  0.00     0.031 C 
ATOM     51  C   UNL A   1      43.834  29.007  31.415  1.00  0.00     0.029 A 
ATOM     52  C   UNL A   1      43.286  30.142  32.126  1.00  0.00     0.049 A 
ATOM     53  H   UNL A   1      41.623  31.292  31.526  1.00  0.00     0.167 HD
ATOM     54  C   UNL A   1      37.565  32.735  31.084  1.00  0.00     0.034 A 
ATOM     55  C   UNL A   1      43.787  30.744  33.243  1.00  0.00     0.034 A 
ATOM     56  C   UNL A   1      38.457  33.749  30.584  1.00  0.00     0.049 A 
ATOM     57  C   UNL A   1      43.242  32.106  33.259  1.00  0.00     0.074 A 
ATOM     58  C   UNL A   1      38.664  34.351  29.363  1.00  0.00     0.029 A 
ATOM     59  N   UNL A   1      39.629  33.810  31.287  1.00  0.00    -0.354 N 
ATOM     60  N   UNL A   1      43.563  33.012  32.381  1.00  0.00    -0.248 NA
ATOM     61  C   UNL A   1      42.068  32.378  34.071  1.00  0.00     0.031 C 
ATOM     62  C   UNL A   1      40.066  34.598  29.288  1.00  0.00     0.029 A 
ATOM     63  C   UNL A   1      40.652  34.259  30.506  1.00  0.00     0.049 A 
ATOM     64  H   UNL A   1      39.722  33.559  32.234  1.00  0.00     0.167 HD
ATOM     65  C   UNL A   1      42.375  33.681  32.187  1.00  0.00     0.074 A 
ATOM     66  C   UNL A   1      41.566  33.396  33.369  1.00  0.00     0.031 C 
ATOM     67  C   UNL A   1      42.019  34.100  30.941  1.00  0.00     0.034 A 
BRANCH  54  68
ATOM     68  C   UNL A   1      36.950  32.861  32.470  1.00  0.00     0.023 A 
ATOM     69  C   UNL A   1      35.843  33.743  32.569  1.00  0.00     0.012 A 
ATOM     70  C   UNL A   1      37.556  32.458  33.684  1.00  0.00     0.148 A 
ATOM     71  C   UNL A   1      35.423  34.277  33.790  1.00  0.00     0.002 A 
ATOM     72  C   UNL A   1      37.098  32.955  34.907  1.00  0.00     0.091 A 
ATOM     73  F   UNL A   1      38.633  31.666  33.658  1.00  0.00    -0.205 F 
ATOM     74  C   UNL A   1      36.057  33.889  34.958  1.00  0.00     0.022 A 
BRANCH  72  75
ATOM     75  S   UNL A   1      37.818  32.486  36.487  1.00  0.00     0.127 S 
ATOM     76  O   UNL A   1      36.909  33.131  37.429  1.00  0.00    -0.237 OA
ATOM     77  O   UNL A   1      37.722  31.027  36.434  1.00  0.00    -0.237 OA
ATOM     78  O   UNL A   1      39.181  32.997  36.467  1.00  0.00    -0.744 OA
ENDBRANCH  72  75
ENDBRANCH  54  68
BRANCH  55  79
ATOM     79  C   UNL A   1      44.605  30.284  34.407  1.00  0.00     0.023 A 
ATOM     80  C   UNL A   1      45.479  31.185  35.069  1.00  0.00     0.012 A 
ATOM     81  C   UNL A   1      44.268  29.093  35.080  1.00  0.00     0.148 A 
ATOM     82  C   UNL A   1      45.945  30.939  36.371  1.00  0.00     0.002 A 
ATOM     83  C   UNL A   1      44.729  28.855  36.378  1.00  0.00     0.091 A 
ATOM     84  F   UNL A   1      43.420  28.247  34.483  1.00  0.00    -0.205 F 
ATOM     85  C   UNL A   1      45.554  29.781  37.033  1.00  0.00     0.022 A 
BRANCH  83  86
ATOM     86  S   UNL A   1      44.234  27.407  37.322  1.00  0.00     0.127 S 
ATOM     87  O   UNL A   1      44.712  27.743  38.664  1.00  0.00    -0.237 OA
ATOM     88  O   UNL A   1      42.782  27.431  37.168  1.00  0.00    -0.237 OA
ATOM     89  O   UNL A   1      44.920  26.283  36.701  1.00  0.00    -0.744 OA
ENDBRANCH  83  86
ENDBRANCH  55  79
BRANCH  67  90
ATOM     90  C   UNL A   1      43.101  34.330  29.933  1.00  0.00     0.023 A 
ATOM     91  C   UNL A   1      43.936  35.463  29.885  1.00  0.00     0.012 A 
ATOM     92  C   UNL A   1      43.339  33.265  29.051  1.00  0.00     0.148 A 
ATOM     93  C   UNL A   1      44.984  35.525  28.960  1.00  0.00     0.002 A 
ATOM     94  C   UNL A   1      44.412  33.304  28.180  1.00  0.00     0.091 A 
ATOM     95  F   UNL A   1      42.509  32.210  29.098  1.00  0.00    -0.205 F 
ATOM     96  C   UNL A   1      45.234  34.437  28.121  1.00  0.00     0.022 A 
BRANCH  94  97
ATOM     97  S   UNL A   1      44.825  31.874  27.186  1.00  0.00     0.127 S 
ATOM     98  O   UNL A   1      46.138  32.239  26.662  1.00  0.00    -0.237 OA
ATOM     99  O   UNL A   1      44.833  30.797  28.176  1.00  0.00    -0.237 OA
ATOM    100  O   UNL A   1      43.762  31.755  26.193  1.00  0.00    -0.744 OA
ENDBRANCH  94  97
ENDBRANCH  67  90
ENDBRANCH  41  42
ENDBRANCH  33  36
ENDBRANCH  31  32
ENDBRANCH  30  31
ENDBRANCH   1  30
TORSDOF 18
ENDMDL
MODEL 3
REMARK VINA RESULT:     -12.4      1.480      2.797
REMARK SMILES O=C(CCc1cc2n(n1)CC[N@@H+](Cc1ccc3[nH]ccc3c1)C2)NCCCCNC(=O)c1ccc(-c2c3nc(c(-c4cccc(S(=O)(=O)[O-])c4F)c4ccc([nH]4)c(-c4cccc(S(=O)(=O)[O-])c4F)c4nc(c(-c5cccc(S(=O)(=O)[O-])c5F)c5ccc2[nH]5)C=C4)C=C3)cc1
REMARK SMILES IDX 26 1 25 2 24 3 1 4 2 5 3 7 4 8 5 9 6 10 9 11 7 12 8 13 23 14
REMARK SMILES IDX 10 15 12 16 11 17 13 19 14 20 15 21 22 22 16 23 21 24 17 25
REMARK SMILES IDX 20 26 18 27 19 28 27 30 28 31 29 32 30 33 31 35 32 36 33 37
REMARK SMILES IDX 94 38 34 39 93 40 35 41 36 42 37 43 87 44 38 45 92 46 86 47
REMARK SMILES IDX 88 48 39 49 91 50 85 51 84 52 40 54 72 55 52 56 71 57 53 58
REMARK SMILES IDX 56 59 70 60 89 61 54 62 55 63 69 65 90 66 57 67 41 68 42 69
REMARK SMILES IDX 50 70 43 71 45 72 51 73 44 74 46 75 47 76 48 77 49 78 73 79
REMARK SMILES IDX 74 80 82 81 75 82 77 83 83 84 76 85 78 86 79 87 80 88 81 89
REMARK SMILES IDX 58 90 59 91 67 92 60 93 62 94 68 95 61 96 63 97 64 98 65 99
REMARK SMILES IDX 66 100
REMARK H PARENT 24 6 12 18 18 29 29 34 88 53 56 64
REMARK Flexibility Score: inf
ROOT
ATOM      1  C   UNL A   1      36.023  23.678  24.217  1.00  0.00     0.023 C 
ENDROOT
BRANCH   1   2
ATOM      2  C   UNL A   1      34.873  22.789  23.708  1.00  0.00     0.116 C 
BRANCH   2   3
ATOM      3  N   UNL A   1      33.513  23.287  23.824  1.00  0.00    -0.356 N 
ATOM      4  O   UNL A   1      33.538  24.310  21.768  1.00  0.00    -0.275 OA
ATOM      5  C   UNL A   1      32.920  23.966  22.777  1.00  0.00     0.220 C 
ATOM      6  H   UNL A   1      33.009  23.139  24.657  1.00  0.00     0.163 HD
BRANCH   5   7
ATOM      7  C   UNL A   1      31.464  24.355  22.954  1.00  0.00     0.106 C 
BRANCH   7   8
ATOM      8  C   UNL A   1      30.956  24.272  24.386  1.00  0.00     0.068 C 
BRANCH   8   9
ATOM      9  C   UNL A   1      31.392  25.422  25.216  1.00  0.00     0.063 A 
ATOM     10  C   UNL A   1      30.638  26.156  26.165  1.00  0.00     0.055 A 
ATOM     11  N   UNL A   1      32.635  25.899  25.096  1.00  0.00    -0.177 NA
ATOM     12  C   UNL A   1      31.521  27.080  26.670  1.00  0.00     0.093 A 
ATOM     13  N   UNL A   1      32.737  26.721  26.160  1.00  0.00    -0.258 N 
ATOM     14  C   UNL A   1      31.405  28.205  27.625  1.00  0.00     0.319 C 
ATOM     15  C   UNL A   1      33.993  27.355  26.494  1.00  0.00     0.206 C 
ATOM     16  N   UNL A   1      32.403  29.208  27.317  1.00  0.00    -0.325 N 
ATOM     17  C   UNL A   1      33.773  28.698  27.218  1.00  0.00     0.286 C 
ATOM     18  H   UNL A   1      32.563  29.774  28.150  1.00  0.00     0.348 HD
BRANCH  16  19
ATOM     19  C   UNL A   1      31.976  30.481  26.746  1.00  0.00     0.299 C 
BRANCH  19  20
ATOM     20  C   UNL A   1      31.320  30.450  25.369  1.00  0.00     0.007 A 
ATOM     21  C   UNL A   1      31.662  29.406  24.445  1.00  0.00     0.012 A 
ATOM     22  C   UNL A   1      30.297  31.366  25.110  1.00  0.00     0.020 A 
ATOM     23  C   UNL A   1      30.979  29.078  23.245  1.00  0.00     0.027 A 
ATOM     24  C   UNL A   1      29.468  31.221  24.025  1.00  0.00    -0.000 A 
ATOM     25  C   UNL A   1      30.019  29.997  22.840  1.00  0.00     0.045 A 
ATOM     26  C   UNL A   1      28.245  32.476  23.125  1.00  0.00     0.028 A 
ATOM     27  N   UNL A   1      29.230  30.414  21.192  1.00  0.00    -0.361 N 
ATOM     28  C   UNL A   1      28.128  31.940  21.395  1.00  0.00     0.083 A 
ATOM     29  H   UNL A   1      29.367  29.917  20.353  1.00  0.00     0.166 HD
ENDBRANCH  19  20
ENDBRANCH  16  19
ENDBRANCH   8   9
ENDBRANCH   7   8
ENDBRANCH   5   7
ENDBRANCH   2   3
ENDBRANCH   1   2
BRANCH   1  30
ATOM     30  C   UNL A   1      36.519  23.703  25.682  1.00  0.00     0.023 C 
BRANCH  30  31
ATOM     31  C   UNL A   1      38.052  23.182  26.123  1.00  0.00     0.116 C 
BRANCH  31  32
ATOM     32  N   UNL A   1      39.600  23.938  27.457  1.00  0.00    -0.352 N 
ATOM     33  C   UNL A   1      41.031  24.075  27.710  1.00  0.00     0.251 C 
ATOM     34  H   UNL A   1      39.137  24.373  28.209  1.00  0.00     0.163 HD
ATOM     35  O   UNL A   1      41.812  23.139  27.852  1.00  0.00    -0.269 OA
BRANCH  33  36
ATOM     36  C   UNL A   1      41.497  25.513  27.787  1.00  0.00     0.039 A 
ATOM     37  C   UNL A   1      40.838  26.519  27.077  1.00  0.00     0.014 A 
ATOM     38  C   UNL A   1      42.403  25.876  28.784  1.00  0.00     0.014 A 
ATOM     39  C   UNL A   1      41.016  27.858  27.456  1.00  0.00     0.010 A 
ATOM     40  C   UNL A   1      42.416  27.159  29.279  1.00  0.00     0.010 A 
ATOM     41  C   UNL A   1      41.740  28.175  28.626  1.00  0.00    -0.014 A 
BRANCH  41  42
ATOM     42  C   UNL A   1      41.564  29.475  29.317  1.00  0.00     0.031 A 
ATOM     43  C   UNL A   1      42.572  30.514  28.870  1.00  0.00     0.074 A 
ATOM     44  C   UNL A   1      40.479  29.782  30.099  1.00  0.00     0.049 A 
ATOM     45  N   UNL A   1      43.169  31.377  29.612  1.00  0.00    -0.248 NA
ATOM     46  C   UNL A   1      43.043  30.595  27.467  1.00  0.00     0.031 C 
ATOM     47  C   UNL A   1      39.300  28.930  30.360  1.00  0.00     0.029 A 
ATOM     48  N   UNL A   1      40.105  30.940  30.750  1.00  0.00    -0.354 N 
ATOM     49  C   UNL A   1      43.864  32.243  28.760  1.00  0.00     0.074 A 
ATOM     50  C   UNL A   1      43.743  31.729  27.436  1.00  0.00     0.031 C 
ATOM     51  C   UNL A   1      38.273  29.662  30.847  1.00  0.00     0.029 A 
ATOM     52  C   UNL A   1      38.751  30.995  31.143  1.00  0.00     0.049 A 
ATOM     53  H   UNL A   1      40.737  31.674  30.928  1.00  0.00     0.167 HD
ATOM     54  C   UNL A   1      44.328  33.418  29.253  1.00  0.00     0.034 A 
ATOM     55  C   UNL A   1      38.051  32.024  31.704  1.00  0.00     0.034 A 
ATOM     56  C   UNL A   1      44.526  33.262  30.671  1.00  0.00     0.049 A 
ATOM     57  C   UNL A   1      39.047  32.929  32.290  1.00  0.00     0.074 A 
ATOM     58  C   UNL A   1      45.399  32.550  31.464  1.00  0.00     0.029 A 
ATOM     59  N   UNL A   1      43.376  33.460  31.387  1.00  0.00    -0.354 N 
ATOM     60  N   UNL A   1      39.788  32.608  33.311  1.00  0.00    -0.248 NA
ATOM     61  C   UNL A   1      39.462  34.096  31.530  1.00  0.00     0.031 C 
ATOM     62  C   UNL A   1      44.647  32.159  32.610  1.00  0.00     0.029 A 
ATOM     63  C   UNL A   1      43.385  32.745  32.547  1.00  0.00     0.049 A 
ATOM     64  H   UNL A   1      42.637  34.043  31.098  1.00  0.00     0.167 HD
ATOM     65  C   UNL A   1      40.995  33.197  33.007  1.00  0.00     0.074 A 
ATOM     66  C   UNL A   1      40.688  34.243  32.035  1.00  0.00     0.031 C 
ATOM     67  C   UNL A   1      42.162  32.554  33.289  1.00  0.00     0.034 A 
BRANCH  54  68
ATOM     68  C   UNL A   1      43.970  34.775  28.666  1.00  0.00     0.023 A 
ATOM     69  C   UNL A   1      42.663  34.882  28.127  1.00  0.00     0.012 A 
ATOM     70  C   UNL A   1      44.889  35.795  28.321  1.00  0.00     0.148 A 
ATOM     71  C   UNL A   1      42.312  35.882  27.217  1.00  0.00     0.002 A 
ATOM     72  C   UNL A   1      44.516  36.823  27.451  1.00  0.00     0.091 A 
ATOM     73  F   UNL A   1      46.151  35.728  28.757  1.00  0.00    -0.205 F 
ATOM     74  C   UNL A   1      43.242  36.848  26.872  1.00  0.00     0.022 A 
BRANCH  72  75
ATOM     75  S   UNL A   1      45.629  38.151  26.970  1.00  0.00     0.127 S 
ATOM     76  O   UNL A   1      46.663  37.421  26.242  1.00  0.00    -0.237 OA
ATOM     77  O   UNL A   1      44.757  38.982  26.139  1.00  0.00    -0.237 OA
ATOM     78  O   UNL A   1      46.051  38.783  28.212  1.00  0.00    -0.744 OA
ENDBRANCH  72  75
ENDBRANCH  54  68
BRANCH  55  79
ATOM     79  C   UNL A   1      36.613  32.429  31.724  1.00  0.00     0.023 A 
ATOM     80  C   UNL A   1      35.982  32.772  32.948  1.00  0.00     0.012 A 
ATOM     81  C   UNL A   1      35.972  32.818  30.532  1.00  0.00     0.148 A 
ATOM     82  C   UNL A   1      34.798  33.528  32.981  1.00  0.00     0.002 A 
ATOM     83  C   UNL A   1      34.798  33.575  30.570  1.00  0.00     0.091 A 
ATOM     84  F   UNL A   1      36.569  32.529  29.369  1.00  0.00    -0.205 F 
ATOM     85  C   UNL A   1      34.216  33.945  31.791  1.00  0.00     0.022 A 
BRANCH  83  86
ATOM     86  S   UNL A   1      34.006  34.195  29.078  1.00  0.00     0.127 S 
ATOM     87  O   UNL A   1      33.816  32.966  28.306  1.00  0.00    -0.237 OA
ATOM     88  O   UNL A   1      32.777  34.777  29.611  1.00  0.00    -0.237 OA
ATOM     89  O   UNL A   1      34.954  35.134  28.495  1.00  0.00    -0.744 OA
ENDBRANCH  83  86
ENDBRANCH  55  79
BRANCH  67  90
ATOM     90  C   UNL A   1      42.163  31.526  34.377  1.00  0.00     0.023 A 
ATOM     91  C   UNL A   1      42.173  31.808  35.757  1.00  0.00     0.012 A 
ATOM     92  C   UNL A   1      42.037  30.196  33.949  1.00  0.00     0.148 A 
ATOM     93  C   UNL A   1      42.067  30.767  36.687  1.00  0.00     0.002 A 
ATOM     94  C   UNL A   1      41.872  29.178  34.869  1.00  0.00     0.091 A 
ATOM     95  F   UNL A   1      42.060  29.954  32.629  1.00  0.00    -0.205 F 
ATOM     96  C   UNL A   1      41.897  29.454  36.242  1.00  0.00     0.022 A 
BRANCH  94  97
ATOM     97  S   UNL A   1      41.528  27.508  34.322  1.00  0.00     0.127 S 
ATOM     98  O   UNL A   1      41.359  26.803  35.589  1.00  0.00    -0.237 OA
ATOM     99  O   UNL A   1      40.301  27.681  33.543  1.00  0.00    -0.237 OA
ATOM    100  O   UNL A   1      42.681  27.102  33.525  1.00  0.00    -0.744 OA
ENDBRANCH  94  97
ENDBRANCH  67  90
ENDBRANCH  41  42
ENDBRANCH  33  36
ENDBRANCH  31  32
ENDBRANCH  30  31
ENDBRANCH   1  30
TORSDOF 18
ENDMDL
