MODEL 1
REMARK VINA RESULT:     -12.3      0.000      0.000
REMARK SMILES CS(=O)(=O)c1ccc(/C=C(/C(=O)NCCCCNC(=O)c2ccc(-c3c4nc(c(-c5cccc(S(=O)(=O)[O-])c5F)c5ccc([nH]5)c(-c5cccc(S(=O)(=O)[O-])c5F)c5nc(c(-c6cccc(S(=O)(=O)[O-])c6F)c6ccc3[nH]6)C=C5)C=C4)cc2)c2cccc(Br)c2)cc1
REMARK SMILES IDX 16 1 15 2 14 3 13 4 11 5 12 6 10 8 9 9 8 10 5 11 6 12 92 13
REMARK SMILES IDX 7 14 91 15 2 16 1 17 3 18 4 19 84 20 85 21 90 22 86 23 88 24
REMARK SMILES IDX 87 25 89 26 17 27 18 28 19 29 20 31 21 32 22 33 83 34 23 35
REMARK SMILES IDX 82 36 24 37 25 38 26 39 76 40 27 41 81 42 75 43 77 44 28 45
REMARK SMILES IDX 80 46 74 47 73 48 29 50 61 51 41 52 60 53 42 54 45 55 59 56
REMARK SMILES IDX 78 57 43 58 44 59 58 61 79 62 46 63 30 64 31 65 39 66 32 67
REMARK SMILES IDX 34 68 40 69 33 70 35 71 36 72 37 73 38 74 62 75 63 76 71 77
REMARK SMILES IDX 64 78 66 79 72 80 65 81 67 82 68 83 69 84 70 85 47 86 48 87
REMARK SMILES IDX 56 88 49 89 51 90 57 91 50 92 52 93 53 94 54 95 55 96
REMARK H PARENT 13 7 18 30 77 49 45 60
REMARK Flexibility Score: inf
ROOT
ATOM      1  C   UNL A   1      36.158  23.193  24.642  1.00  0.00     0.023 C 
ENDROOT
BRANCH   1   2
ATOM      2  C   UNL A   1      35.160  24.356  24.738  1.00  0.00     0.023 C 
BRANCH   2   3
ATOM      3  C   UNL A   1      34.027  24.309  23.709  1.00  0.00     0.116 C 
BRANCH   3   4
ATOM      4  N   UNL A   1      32.826  23.755  24.301  1.00  0.00    -0.352 N 
ATOM      5  C   UNL A   1      31.636  24.281  24.692  1.00  0.00     0.251 C 
ATOM      6  O   UNL A   1      30.830  23.487  25.185  1.00  0.00    -0.269 OA
ATOM      7  H   UNL A   1      32.886  22.784  24.453  1.00  0.00     0.163 HD
BRANCH   5   8
ATOM      8  C   UNL A   1      31.236  25.727  24.479  1.00  0.00     0.047 C 
ATOM      9  C   UNL A   1      30.667  26.164  23.332  1.00  0.00     0.022 C 
BRANCH   9  10
ATOM     10  C   UNL A   1      30.133  27.502  22.993  1.00  0.00    -0.025 A 
ATOM     11  C   UNL A   1      29.006  30.028  22.518  1.00  0.00     0.067 A 
ATOM     12  C   UNL A   1      30.339  29.787  22.181  1.00  0.00     0.021 A 
ATOM     13  C   UNL A   1      28.210  29.005  23.033  1.00  0.00     0.021 A 
ATOM     14  C   UNL A   1      30.890  28.521  22.401  1.00  0.00     0.009 A 
ATOM     15  C   UNL A   1      28.778  27.751  23.272  1.00  0.00     0.009 A 
BRANCH  11  16
ATOM     16  S   UNL A   1      28.314  31.642  22.252  1.00  0.00     0.175 S 
ATOM     17  C   UNL A   1      27.839  31.610  20.543  1.00  0.00     0.163 C 
ATOM     18  O   UNL A   1      29.377  32.613  22.401  1.00  0.00    -0.224 OA
ATOM     19  O   UNL A   1      27.105  31.734  23.053  1.00  0.00    -0.224 OA
ENDBRANCH  11  16
ENDBRANCH   9  10
BRANCH   8  20
ATOM     20  C   UNL A   1      31.659  26.697  25.525  1.00  0.00    -0.012 A 
ATOM     21  C   UNL A   1      30.811  26.912  26.627  1.00  0.00     0.009 A 
ATOM     22  C   UNL A   1      32.905  27.335  25.495  1.00  0.00     0.024 A 
ATOM     23  C   UNL A   1      31.203  27.725  27.688  1.00  0.00     0.002 A 
ATOM     24  C   UNL A   1      33.300  28.131  26.572  1.00  0.00     0.018 A 
ATOM     25  C   UNL A   1      32.457  28.328  27.667  1.00  0.00     0.016 A 
ATOM     26  Br  UNL A   1      35.023  28.912  26.575  1.00  0.00    -0.051 Br
ENDBRANCH   8  20
ENDBRANCH   5   8
ENDBRANCH   3   4
ENDBRANCH   2   3
ENDBRANCH   1   2
BRANCH   1  27
ATOM     27  C   UNL A   1      36.403  22.426  25.942  1.00  0.00     0.116 C 
BRANCH  27  28
ATOM     28  N   UNL A   1      37.498  21.473  25.844  1.00  0.00    -0.352 N 
ATOM     29  C   UNL A   1      38.835  21.658  26.091  1.00  0.00     0.251 C 
ATOM     30  H   UNL A   1      37.243  20.565  25.559  1.00  0.00     0.163 HD
ATOM     31  O   UNL A   1      39.627  20.749  25.851  1.00  0.00    -0.269 OA
BRANCH  29  32
ATOM     32  C   UNL A   1      39.327  22.954  26.608  1.00  0.00     0.039 A 
ATOM     33  C   UNL A   1      40.303  22.943  27.608  1.00  0.00     0.014 A 
ATOM     34  C   UNL A   1      38.838  24.168  26.119  1.00  0.00     0.014 A 
ATOM     35  C   UNL A   1      40.834  24.149  28.073  1.00  0.00     0.010 A 
ATOM     36  C   UNL A   1      39.409  25.367  26.541  1.00  0.00     0.010 A 
ATOM     37  C   UNL A   1      40.415  25.370  27.520  1.00  0.00    -0.014 A 
BRANCH  37  38
ATOM     38  C   UNL A   1      41.056  26.646  27.924  1.00  0.00     0.031 A 
ATOM     39  C   UNL A   1      42.502  26.918  27.614  1.00  0.00     0.074 A 
ATOM     40  C   UNL A   1      40.346  27.534  28.648  1.00  0.00     0.049 A 
ATOM     41  N   UNL A   1      43.215  27.981  27.884  1.00  0.00    -0.248 NA
ATOM     42  C   UNL A   1      43.252  25.850  26.932  1.00  0.00     0.031 C 
ATOM     43  C   UNL A   1      38.967  27.343  29.101  1.00  0.00     0.029 A 
ATOM     44  N   UNL A   1      40.690  28.766  29.145  1.00  0.00    -0.354 N 
ATOM     45  C   UNL A   1      44.501  27.702  27.434  1.00  0.00     0.074 A 
ATOM     46  C   UNL A   1      44.477  26.357  26.903  1.00  0.00     0.031 C 
ATOM     47  C   UNL A   1      38.580  28.420  29.802  1.00  0.00     0.029 A 
ATOM     48  C   UNL A   1      39.684  29.373  29.859  1.00  0.00     0.049 A 
ATOM     49  H   UNL A   1      41.574  29.176  29.005  1.00  0.00     0.167 HD
ATOM     50  C   UNL A   1      45.591  28.506  27.434  1.00  0.00     0.034 A 
ATOM     51  C   UNL A   1      39.650  30.567  30.483  1.00  0.00     0.034 A 
ATOM     52  C   UNL A   1      45.599  29.859  27.921  1.00  0.00     0.049 A 
ATOM     53  C   UNL A   1      40.850  31.469  30.397  1.00  0.00     0.074 A 
ATOM     54  C   UNL A   1      46.626  30.786  27.877  1.00  0.00     0.029 A 
ATOM     55  N   UNL A   1      44.529  30.482  28.545  1.00  0.00    -0.354 N 
ATOM     56  N   UNL A   1      41.999  31.259  29.803  1.00  0.00    -0.248 NA
ATOM     57  C   UNL A   1      40.733  32.790  31.031  1.00  0.00     0.031 C 
ATOM     58  C   UNL A   1      46.179  31.966  28.484  1.00  0.00     0.029 A 
ATOM     59  C   UNL A   1      44.870  31.777  28.895  1.00  0.00     0.049 A 
ATOM     60  H   UNL A   1      43.654  30.063  28.716  1.00  0.00     0.167 HD
ATOM     61  C   UNL A   1      42.732  32.429  29.965  1.00  0.00     0.074 A 
ATOM     62  C   UNL A   1      41.883  33.355  30.687  1.00  0.00     0.031 C 
ATOM     63  C   UNL A   1      43.999  32.706  29.570  1.00  0.00     0.034 A 
BRANCH  50  64
ATOM     64  C   UNL A   1      46.855  27.964  26.818  1.00  0.00     0.023 A 
ATOM     65  C   UNL A   1      47.830  27.376  27.652  1.00  0.00     0.012 A 
ATOM     66  C   UNL A   1      47.058  27.980  25.425  1.00  0.00     0.148 A 
ATOM     67  C   UNL A   1      48.998  26.840  27.113  1.00  0.00     0.002 A 
ATOM     68  C   UNL A   1      48.209  27.408  24.891  1.00  0.00     0.091 A 
ATOM     69  F   UNL A   1      46.134  28.562  24.649  1.00  0.00    -0.205 F 
ATOM     70  C   UNL A   1      49.183  26.849  25.734  1.00  0.00     0.022 A 
BRANCH  68  71
ATOM     71  S   UNL A   1      48.505  27.303  23.122  1.00  0.00     0.127 S 
ATOM     72  O   UNL A   1      47.491  28.217  22.599  1.00  0.00    -0.237 OA
ATOM     73  O   UNL A   1      49.880  27.790  23.008  1.00  0.00    -0.237 OA
ATOM     74  O   UNL A   1      48.328  25.901  22.771  1.00  0.00    -0.744 OA
ENDBRANCH  68  71
ENDBRANCH  50  64
BRANCH  51  75
ATOM     75  C   UNL A   1      38.399  31.015  31.154  1.00  0.00     0.023 A 
ATOM     76  C   UNL A   1      38.268  30.847  32.547  1.00  0.00     0.012 A 
ATOM     77  C   UNL A   1      37.360  31.639  30.437  1.00  0.00     0.148 A 
ATOM     78  C   UNL A   1      37.113  31.266  33.208  1.00  0.00     0.002 A 
ATOM     79  C   UNL A   1      36.235  32.103  31.110  1.00  0.00     0.091 A 
ATOM     80  F   UNL A   1      37.496  31.776  29.110  1.00  0.00    -0.205 F 
ATOM     81  C   UNL A   1      36.103  31.903  32.493  1.00  0.00     0.022 A 
BRANCH  79  82
ATOM     82  S   UNL A   1      34.953  33.054  30.288  1.00  0.00     0.127 S 
ATOM     83  O   UNL A   1      35.724  34.137  29.685  1.00  0.00    -0.237 OA
ATOM     84  O   UNL A   1      34.411  32.081  29.339  1.00  0.00    -0.237 OA
ATOM     85  O   UNL A   1      34.023  33.441  31.340  1.00  0.00    -0.744 OA
ENDBRANCH  79  82
ENDBRANCH  51  75
BRANCH  63  86
ATOM     86  C   UNL A   1      44.544  34.071  29.899  1.00  0.00     0.023 A 
ATOM     87  C   UNL A   1      45.300  34.253  31.074  1.00  0.00     0.012 A 
ATOM     88  C   UNL A   1      44.353  35.159  29.026  1.00  0.00     0.148 A 
ATOM     89  C   UNL A   1      45.824  35.504  31.394  1.00  0.00     0.002 A 
ATOM     90  C   UNL A   1      44.916  36.394  29.329  1.00  0.00     0.091 A 
ATOM     91  F   UNL A   1      43.610  34.977  27.923  1.00  0.00    -0.205 F 
ATOM     92  C   UNL A   1      45.643  36.571  30.517  1.00  0.00     0.022 A 
BRANCH  90  93
ATOM     93  S   UNL A   1      44.801  37.791  28.206  1.00  0.00     0.127 S 
ATOM     94  O   UNL A   1      45.624  37.343  27.084  1.00  0.00    -0.237 OA
ATOM     95  O   UNL A   1      43.366  37.854  27.923  1.00  0.00    -0.237 OA
ATOM     96  O   UNL A   1      45.313  38.934  28.951  1.00  0.00    -0.744 OA
ENDBRANCH  90  93
ENDBRANCH  63  86
ENDBRANCH  37  38
ENDBRANCH  29  32
ENDBRANCH  27  28
ENDBRANCH   1  27
TORSDOF 17
ENDMDL
MODEL 2
REMARK VINA RESULT:     -12.3      5.386     10.076
REMARK SMILES CS(=O)(=O)c1ccc(/C=C(/C(=O)NCCCCNC(=O)c2ccc(-c3c4nc(c(-c5cccc(S(=O)(=O)[O-])c5F)c5ccc([nH]5)c(-c5cccc(S(=O)(=O)[O-])c5F)c5nc(c(-c6cccc(S(=O)(=O)[O-])c6F)c6ccc3[nH]6)C=C5)C=C4)cc2)c2cccc(Br)c2)cc1
REMARK SMILES IDX 16 1 15 2 14 3 13 4 11 5 12 6 10 8 9 9 8 10 5 11 6 12 92 13
REMARK SMILES IDX 7 14 91 15 2 16 1 17 3 18 4 19 84 20 85 21 90 22 86 23 88 24
REMARK SMILES IDX 87 25 89 26 17 27 18 28 19 29 20 31 21 32 22 33 83 34 23 35
REMARK SMILES IDX 82 36 24 37 25 38 26 39 76 40 27 41 81 42 75 43 77 44 28 45
REMARK SMILES IDX 80 46 74 47 73 48 29 50 61 51 41 52 60 53 42 54 45 55 59 56
REMARK SMILES IDX 78 57 43 58 44 59 58 61 79 62 46 63 30 64 31 65 39 66 32 67
REMARK SMILES IDX 34 68 40 69 33 70 35 71 36 72 37 73 38 74 62 75 63 76 71 77
REMARK SMILES IDX 64 78 66 79 72 80 65 81 67 82 68 83 69 84 70 85 47 86 48 87
REMARK SMILES IDX 56 88 49 89 51 90 57 91 50 92 52 93 53 94 54 95 55 96
REMARK H PARENT 13 7 18 30 77 49 45 60
REMARK Flexibility Score: inf
ROOT
ATOM      1  C   UNL A   1      32.191  28.642  26.548  1.00  0.00     0.023 C 
ENDROOT
BRANCH   1   2
ATOM      2  C   UNL A   1      32.441  28.665  25.033  1.00  0.00     0.023 C 
BRANCH   2   3
ATOM      3  C   UNL A   1      33.803  28.113  24.604  1.00  0.00     0.116 C 
BRANCH   3   4
ATOM      4  N   UNL A   1      33.800  27.800  23.189  1.00  0.00    -0.352 N 
ATOM      5  C   UNL A   1      33.602  26.662  22.473  1.00  0.00     0.251 C 
ATOM      6  O   UNL A   1      33.694  26.772  21.247  1.00  0.00    -0.269 OA
ATOM      7  H   UNL A   1      33.980  28.585  22.622  1.00  0.00     0.163 HD
BRANCH   5   8
ATOM      8  C   UNL A   1      33.206  25.333  23.083  1.00  0.00     0.047 C 
ATOM      9  C   UNL A   1      33.779  24.164  22.716  1.00  0.00     0.022 C 
BRANCH   9  10
ATOM     10  C   UNL A   1      33.585  22.803  23.266  1.00  0.00    -0.025 A 
ATOM     11  C   UNL A   1      33.152  20.166  24.123  1.00  0.00     0.067 A 
ATOM     12  C   UNL A   1      34.221  20.899  24.642  1.00  0.00     0.021 A 
ATOM     13  C   UNL A   1      32.259  20.753  23.227  1.00  0.00     0.021 A 
ATOM     14  C   UNL A   1      34.420  22.220  24.226  1.00  0.00     0.009 A 
ATOM     15  C   UNL A   1      32.483  22.065  22.799  1.00  0.00     0.009 A 
BRANCH  11  16
ATOM     16  S   UNL A   1      32.912  18.484  24.641  1.00  0.00     0.175 S 
ATOM     17  C   UNL A   1      34.532  17.774  24.499  1.00  0.00     0.163 C 
ATOM     18  O   UNL A   1      32.055  17.836  23.670  1.00  0.00    -0.224 OA
ATOM     19  O   UNL A   1      32.555  18.510  26.049  1.00  0.00    -0.224 OA
ENDBRANCH  11  16
ENDBRANCH   9  10
BRANCH   8  20
ATOM     20  C   UNL A   1      32.022  25.339  23.984  1.00  0.00    -0.012 A 
ATOM     21  C   UNL A   1      32.193  24.941  25.322  1.00  0.00     0.009 A 
ATOM     22  C   UNL A   1      30.769  25.808  23.571  1.00  0.00     0.024 A 
ATOM     23  C   UNL A   1      31.146  25.030  26.238  1.00  0.00     0.002 A 
ATOM     24  C   UNL A   1      29.731  25.915  24.500  1.00  0.00     0.018 A 
ATOM     25  C   UNL A   1      29.913  25.529  25.829  1.00  0.00     0.016 A 
ATOM     26  Br  UNL A   1      28.068  26.640  23.965  1.00  0.00    -0.051 Br
ENDBRANCH   8  20
ENDBRANCH   5   8
ENDBRANCH   3   4
ENDBRANCH   2   3
ENDBRANCH   1   2
BRANCH   1  27
ATOM     27  C   UNL A   1      33.388  29.022  27.419  1.00  0.00     0.116 C 
BRANCH  27  28
ATOM     28  N   UNL A   1      33.477  30.451  27.676  1.00  0.00    -0.352 N 
ATOM     29  C   UNL A   1      34.496  31.168  28.252  1.00  0.00     0.251 C 
ATOM     30  H   UNL A   1      32.694  30.980  27.398  1.00  0.00     0.163 HD
ATOM     31  O   UNL A   1      34.341  32.365  28.478  1.00  0.00    -0.269 OA
BRANCH  29  32
ATOM     32  C   UNL A   1      35.759  30.498  28.631  1.00  0.00     0.039 A 
ATOM     33  C   UNL A   1      36.857  30.617  27.776  1.00  0.00     0.014 A 
ATOM     34  C   UNL A   1      35.867  29.761  29.813  1.00  0.00     0.014 A 
ATOM     35  C   UNL A   1      38.082  30.049  28.136  1.00  0.00     0.010 A 
ATOM     36  C   UNL A   1      37.104  29.245  30.199  1.00  0.00     0.010 A 
ATOM     37  C   UNL A   1      38.224  29.387  29.367  1.00  0.00    -0.014 A 
BRANCH  37  38
ATOM     38  C   UNL A   1      39.548  28.883  29.809  1.00  0.00     0.031 A 
ATOM     39  C   UNL A   1      40.317  29.579  30.898  1.00  0.00     0.074 A 
ATOM     40  C   UNL A   1      40.096  27.833  29.165  1.00  0.00     0.049 A 
ATOM     41  N   UNL A   1      41.479  29.268  31.413  1.00  0.00    -0.248 NA
ATOM     42  C   UNL A   1      39.715  30.795  31.469  1.00  0.00     0.031 C 
ATOM     43  C   UNL A   1      39.498  27.136  28.025  1.00  0.00     0.029 A 
ATOM     44  N   UNL A   1      41.287  27.181  29.364  1.00  0.00    -0.354 N 
ATOM     45  C   UNL A   1      41.762  30.259  32.344  1.00  0.00     0.074 A 
ATOM     46  C   UNL A   1      40.664  31.201  32.301  1.00  0.00     0.031 C 
ATOM     47  C   UNL A   1      40.319  26.150  27.632  1.00  0.00     0.029 A 
ATOM     48  C   UNL A   1      41.506  26.151  28.480  1.00  0.00     0.049 A 
ATOM     49  H   UNL A   1      41.925  27.428  30.073  1.00  0.00     0.167 HD
ATOM     50  C   UNL A   1      42.822  30.359  33.181  1.00  0.00     0.034 A 
ATOM     51  C   UNL A   1      42.542  25.296  28.371  1.00  0.00     0.034 A 
ATOM     52  C   UNL A   1      43.888  29.395  33.253  1.00  0.00     0.049 A 
ATOM     53  C   UNL A   1      43.668  25.382  29.365  1.00  0.00     0.074 A 
ATOM     54  C   UNL A   1      44.957  29.356  34.132  1.00  0.00     0.029 A 
ATOM     55  N   UNL A   1      44.026  28.302  32.411  1.00  0.00    -0.354 N 
ATOM     56  N   UNL A   1      43.825  26.219  30.361  1.00  0.00    -0.248 NA
ATOM     57  C   UNL A   1      44.735  24.379  29.246  1.00  0.00     0.031 C 
ATOM     58  C   UNL A   1      45.745  28.242  33.815  1.00  0.00     0.029 A 
ATOM     59  C   UNL A   1      45.161  27.584  32.746  1.00  0.00     0.049 A 
ATOM     60  H   UNL A   1      43.407  28.071  31.681  1.00  0.00     0.167 HD
ATOM     61  C   UNL A   1      44.992  25.827  31.006  1.00  0.00     0.074 A 
ATOM     62  C   UNL A   1      45.484  24.659  30.304  1.00  0.00     0.031 C 
ATOM     63  C   UNL A   1      45.613  26.394  32.070  1.00  0.00     0.034 A 
BRANCH  50  64
ATOM     64  C   UNL A   1      42.843  31.517  34.144  1.00  0.00     0.023 A 
ATOM     65  C   UNL A   1      43.484  32.715  33.765  1.00  0.00     0.012 A 
ATOM     66  C   UNL A   1      42.188  31.448  35.389  1.00  0.00     0.148 A 
ATOM     67  C   UNL A   1      43.499  33.816  34.620  1.00  0.00     0.002 A 
ATOM     68  C   UNL A   1      42.175  32.564  36.221  1.00  0.00     0.091 A 
ATOM     69  F   UNL A   1      41.605  30.296  35.743  1.00  0.00    -0.205 F 
ATOM     70  C   UNL A   1      42.838  33.743  35.843  1.00  0.00     0.022 A 
BRANCH  68  71
ATOM     71  S   UNL A   1      41.287  32.594  37.782  1.00  0.00     0.127 S 
ATOM     72  O   UNL A   1      41.340  34.015  38.124  1.00  0.00    -0.237 OA
ATOM     73  O   UNL A   1      39.961  32.111  37.395  1.00  0.00    -0.237 OA
ATOM     74  O   UNL A   1      42.018  31.706  38.674  1.00  0.00    -0.744 OA
ENDBRANCH  68  71
ENDBRANCH  50  64
BRANCH  51  75
ATOM     75  C   UNL A   1      42.509  24.223  27.339  1.00  0.00     0.023 A 
ATOM     76  C   UNL A   1      43.113  24.453  26.087  1.00  0.00     0.012 A 
ATOM     77  C   UNL A   1      41.924  22.968  27.599  1.00  0.00     0.148 A 
ATOM     78  C   UNL A   1      43.109  23.465  25.103  1.00  0.00     0.002 A 
ATOM     79  C   UNL A   1      41.971  21.969  26.633  1.00  0.00     0.091 A 
ATOM     80  F   UNL A   1      41.341  22.773  28.791  1.00  0.00    -0.205 F 
ATOM     81  C   UNL A   1      42.549  22.221  25.379  1.00  0.00     0.022 A 
BRANCH  79  82
ATOM     82  S   UNL A   1      41.397  20.299  26.957  1.00  0.00     0.127 S 
ATOM     83  O   UNL A   1      40.832  20.431  28.297  1.00  0.00    -0.237 OA
ATOM     84  O   UNL A   1      40.414  20.101  25.890  1.00  0.00    -0.237 OA
ATOM     85  O   UNL A   1      42.578  19.455  26.842  1.00  0.00    -0.744 OA
ENDBRANCH  79  82
ENDBRANCH  51  75
BRANCH  63  86
ATOM     86  C   UNL A   1      46.888  25.752  32.551  1.00  0.00     0.023 A 
ATOM     87  C   UNL A   1      48.117  26.133  31.976  1.00  0.00     0.012 A 
ATOM     88  C   UNL A   1      46.878  24.814  33.601  1.00  0.00     0.148 A 
ATOM     89  C   UNL A   1      49.311  25.562  32.412  1.00  0.00     0.002 A 
ATOM     90  C   UNL A   1      48.077  24.281  34.061  1.00  0.00     0.091 A 
ATOM     91  F   UNL A   1      45.698  24.443  34.122  1.00  0.00    -0.205 F 
ATOM     92  C   UNL A   1      49.293  24.645  33.461  1.00  0.00     0.022 A 
BRANCH  90  93
ATOM     93  S   UNL A   1      48.142  23.164  35.466  1.00  0.00     0.127 S 
ATOM     94  O   UNL A   1      47.538  23.973  36.522  1.00  0.00    -0.237 OA
ATOM     95  O   UNL A   1      47.322  22.038  35.015  1.00  0.00    -0.237 OA
ATOM     96  O   UNL A   1      49.553  22.841  35.643  1.00  0.00    -0.744 OA
ENDBRANCH  90  93
ENDBRANCH  63  86
ENDBRANCH  37  38
ENDBRANCH  29  32
ENDBRANCH  27  28
ENDBRANCH   1  27
TORSDOF 17
ENDMDL
MODEL 3
REMARK VINA RESULT:     -12.1      5.647     10.536
REMARK SMILES CS(=O)(=O)c1ccc(/C=C(/C(=O)NCCCCNC(=O)c2ccc(-c3c4nc(c(-c5cccc(S(=O)(=O)[O-])c5F)c5ccc([nH]5)c(-c5cccc(S(=O)(=O)[O-])c5F)c5nc(c(-c6cccc(S(=O)(=O)[O-])c6F)c6ccc3[nH]6)C=C5)C=C4)cc2)c2cccc(Br)c2)cc1
REMARK SMILES IDX 16 1 15 2 14 3 13 4 11 5 12 6 10 8 9 9 8 10 5 11 6 12 92 13
REMARK SMILES IDX 7 14 91 15 2 16 1 17 3 18 4 19 84 20 85 21 90 22 86 23 88 24
REMARK SMILES IDX 87 25 89 26 17 27 18 28 19 29 20 31 21 32 22 33 83 34 23 35
REMARK SMILES IDX 82 36 24 37 25 38 26 39 76 40 27 41 81 42 75 43 77 44 28 45
REMARK SMILES IDX 80 46 74 47 73 48 29 50 61 51 41 52 60 53 42 54 45 55 59 56
REMARK SMILES IDX 78 57 43 58 44 59 58 61 79 62 46 63 30 64 31 65 39 66 32 67
REMARK SMILES IDX 34 68 40 69 33 70 35 71 36 72 37 73 38 74 62 75 63 76 71 77
REMARK SMILES IDX 64 78 66 79 72 80 65 81 67 82 68 83 69 84 70 85 47 86 48 87
REMARK SMILES IDX 56 88 49 89 51 90 57 91 50 92 52 93 53 94 54 95 55 96
REMARK H PARENT 13 7 18 30 77 49 45 60
REMARK Flexibility Score: inf
ROOT
ATOM      1  C   UNL A   1      32.820  28.628  24.103  1.00  0.00     0.023 C 
ENDROOT
BRANCH   1   2
ATOM      2  C   UNL A   1      33.551  27.709  23.112  1.00  0.00     0.023 C 
BRANCH   2   3
ATOM      3  C   UNL A   1      33.381  26.213  23.387  1.00  0.00     0.116 C 
BRANCH   3   4
ATOM      4  N   UNL A   1      32.850  25.999  24.719  1.00  0.00    -0.352 N 
ATOM      5  C   UNL A   1      32.706  24.907  25.514  1.00  0.00     0.251 C 
ATOM      6  O   UNL A   1      32.182  25.105  26.613  1.00  0.00    -0.269 OA
ATOM      7  H   UNL A   1      32.523  26.827  25.139  1.00  0.00     0.163 HD
BRANCH   5   8
ATOM      8  C   UNL A   1      33.217  23.525  25.160  1.00  0.00     0.047 C 
ATOM      9  C   UNL A   1      32.442  22.419  25.242  1.00  0.00     0.022 C 
BRANCH   9  10
ATOM     10  C   UNL A   1      32.744  21.023  24.851  1.00  0.00    -0.025 A 
ATOM     11  C   UNL A   1      33.322  18.331  24.310  1.00  0.00     0.067 A 
ATOM     12  C   UNL A   1      32.475  19.045  23.460  1.00  0.00     0.021 A 
ATOM     13  C   UNL A   1      33.934  18.962  25.392  1.00  0.00     0.021 A 
ATOM     14  C   UNL A   1      32.206  20.392  23.723  1.00  0.00     0.009 A 
ATOM     15  C   UNL A   1      33.638  20.301  25.661  1.00  0.00     0.009 A 
BRANCH  11  16
ATOM     16  S   UNL A   1      33.647  16.617  23.981  1.00  0.00     0.175 S 
ATOM     17  C   UNL A   1      35.054  16.261  25.002  1.00  0.00     0.163 C 
ATOM     18  O   UNL A   1      34.058  16.498  22.598  1.00  0.00    -0.224 OA
ATOM     19  O   UNL A   1      32.519  15.854  24.490  1.00  0.00    -0.224 OA
ENDBRANCH  11  16
ENDBRANCH   9  10
BRANCH   8  20
ATOM     20  C   UNL A   1      34.675  23.403  24.887  1.00  0.00    -0.012 A 
ATOM     21  C   UNL A   1      35.088  22.997  23.605  1.00  0.00     0.009 A 
ATOM     22  C   UNL A   1      35.646  23.759  25.831  1.00  0.00     0.024 A 
ATOM     23  C   UNL A   1      36.437  22.969  23.260  1.00  0.00     0.002 A 
ATOM     24  C   UNL A   1      36.995  23.750  25.470  1.00  0.00     0.018 A 
ATOM     25  C   UNL A   1      37.395  23.358  24.192  1.00  0.00     0.016 A 
ATOM     26  Br  UNL A   1      38.299  24.326  26.714  1.00  0.00    -0.051 Br
ENDBRANCH   8  20
ENDBRANCH   5   8
ENDBRANCH   3   4
ENDBRANCH   2   3
ENDBRANCH   1   2
BRANCH   1  27
ATOM     27  C   UNL A   1      33.668  29.158  25.258  1.00  0.00     0.116 C 
BRANCH  27  28
ATOM     28  N   UNL A   1      33.118  30.361  25.865  1.00  0.00    -0.352 N 
ATOM     29  C   UNL A   1      33.563  31.065  26.956  1.00  0.00     0.251 C 
ATOM     30  H   UNL A   1      32.310  30.721  25.431  1.00  0.00     0.163 HD
ATOM     31  O   UNL A   1      32.898  32.006  27.381  1.00  0.00    -0.269 OA
BRANCH  29  32
ATOM     32  C   UNL A   1      34.815  30.672  27.638  1.00  0.00     0.039 A 
ATOM     33  C   UNL A   1      35.799  31.646  27.833  1.00  0.00     0.014 A 
ATOM     34  C   UNL A   1      35.025  29.364  28.082  1.00  0.00     0.014 A 
ATOM     35  C   UNL A   1      36.966  31.323  28.530  1.00  0.00     0.010 A 
ATOM     36  C   UNL A   1      36.163  29.058  28.827  1.00  0.00     0.010 A 
ATOM     37  C   UNL A   1      37.143  30.034  29.061  1.00  0.00    -0.014 A 
BRANCH  37  38
ATOM     38  C   UNL A   1      38.325  29.717  29.902  1.00  0.00     0.031 A 
ATOM     39  C   UNL A   1      38.499  30.339  31.259  1.00  0.00     0.074 A 
ATOM     40  C   UNL A   1      39.287  28.918  29.400  1.00  0.00     0.049 A 
ATOM     41  N   UNL A   1      39.463  30.163  32.126  1.00  0.00    -0.248 NA
ATOM     42  C   UNL A   1      37.472  31.300  31.691  1.00  0.00     0.031 C 
ATOM     43  C   UNL A   1      39.285  28.334  28.057  1.00  0.00     0.029 A 
ATOM     44  N   UNL A   1      40.463  28.474  29.951  1.00  0.00    -0.354 N 
ATOM     45  C   UNL A   1      39.177  31.010  33.191  1.00  0.00     0.074 A 
ATOM     46  C   UNL A   1      37.966  31.723  32.847  1.00  0.00     0.031 C 
ATOM     47  C   UNL A   1      40.399  27.605  27.892  1.00  0.00     0.029 A 
ATOM     48  C   UNL A   1      41.201  27.676  29.109  1.00  0.00     0.049 A 
ATOM     49  H   UNL A   1      40.751  28.706  30.864  1.00  0.00     0.167 HD
ATOM     50  C   UNL A   1      39.843  31.155  34.361  1.00  0.00     0.034 A 
ATOM     51  C   UNL A   1      42.386  27.063  29.298  1.00  0.00     0.034 A 
ATOM     52  C   UNL A   1      41.022  30.410  34.719  1.00  0.00     0.049 A 
ATOM     53  C   UNL A   1      43.062  27.180  30.636  1.00  0.00     0.074 A 
ATOM     54  C   UNL A   1      41.714  30.415  35.917  1.00  0.00     0.029 A 
ATOM     55  N   UNL A   1      41.686  29.529  33.880  1.00  0.00    -0.354 N 
ATOM     56  N   UNL A   1      42.677  27.841  31.700  1.00  0.00    -0.248 NA
ATOM     57  C   UNL A   1      44.314  26.430  30.814  1.00  0.00     0.031 C 
ATOM     58  C   UNL A   1      42.803  29.542  35.799  1.00  0.00     0.029 A 
ATOM     59  C   UNL A   1      42.781  28.986  34.531  1.00  0.00     0.049 A 
ATOM     60  H   UNL A   1      41.418  29.319  32.955  1.00  0.00     0.167 HD
ATOM     61  C   UNL A   1      43.621  27.565  32.682  1.00  0.00     0.074 A 
ATOM     62  C   UNL A   1      44.580  26.652  32.094  1.00  0.00     0.031 C 
ATOM     63  C   UNL A   1      43.700  28.041  33.949  1.00  0.00     0.034 A 
BRANCH  50  64
ATOM     64  C   UNL A   1      39.269  32.108  35.377  1.00  0.00     0.023 A 
ATOM     65  C   UNL A   1      38.197  31.683  36.190  1.00  0.00     0.012 A 
ATOM     66  C   UNL A   1      39.816  33.391  35.571  1.00  0.00     0.148 A 
ATOM     67  C   UNL A   1      37.659  32.529  37.159  1.00  0.00     0.002 A 
ATOM     68  C   UNL A   1      39.299  34.216  36.565  1.00  0.00     0.091 A 
ATOM     69  F   UNL A   1      40.818  33.788  34.774  1.00  0.00    -0.205 F 
ATOM     70  C   UNL A   1      38.216  33.790  37.352  1.00  0.00     0.022 A 
BRANCH  68  71
ATOM     71  S   UNL A   1      39.995  35.829  36.942  1.00  0.00     0.127 S 
ATOM     72  O   UNL A   1      41.411  35.507  37.113  1.00  0.00    -0.237 OA
ATOM     73  O   UNL A   1      39.686  36.591  35.731  1.00  0.00    -0.237 OA
ATOM     74  O   UNL A   1      39.307  36.290  38.139  1.00  0.00    -0.744 OA
ENDBRANCH  68  71
ENDBRANCH  50  64
BRANCH  51  75
ATOM     75  C   UNL A   1      42.952  26.202  28.223  1.00  0.00     0.023 A 
ATOM     76  C   UNL A   1      44.014  26.692  27.438  1.00  0.00     0.012 A 
ATOM     77  C   UNL A   1      42.479  24.895  27.999  1.00  0.00     0.148 A 
ATOM     78  C   UNL A   1      44.576  25.907  26.430  1.00  0.00     0.002 A 
ATOM     79  C   UNL A   1      43.079  24.098  27.030  1.00  0.00     0.091 A 
ATOM     80  F   UNL A   1      41.458  24.451  28.746  1.00  0.00    -0.205 F 
ATOM     81  C   UNL A   1      44.116  24.608  26.233  1.00  0.00     0.022 A 
BRANCH  79  82
ATOM     82  S   UNL A   1      42.640  22.371  26.806  1.00  0.00     0.127 S 
ATOM     83  O   UNL A   1      43.734  21.890  25.968  1.00  0.00    -0.237 OA
ATOM     84  O   UNL A   1      42.651  21.872  28.182  1.00  0.00    -0.237 OA
ATOM     85  O   UNL A   1      41.320  22.384  26.189  1.00  0.00    -0.744 OA
ENDBRANCH  79  82
ENDBRANCH  51  75
BRANCH  63  86
ATOM     86  C   UNL A   1      44.856  27.573  34.794  1.00  0.00     0.023 A 
ATOM     87  C   UNL A   1      46.055  28.314  34.802  1.00  0.00     0.012 A 
ATOM     88  C   UNL A   1      44.743  26.434  35.614  1.00  0.00     0.148 A 
ATOM     89  C   UNL A   1      47.135  27.908  35.584  1.00  0.00     0.002 A 
ATOM     90  C   UNL A   1      45.809  26.060  36.425  1.00  0.00     0.091 A 
ATOM     91  F   UNL A   1      43.605  25.725  35.577  1.00  0.00    -0.205 F 
ATOM     92  C   UNL A   1      47.009  26.789  36.403  1.00  0.00     0.022 A 
BRANCH  90  93
ATOM     93  S   UNL A   1      45.691  24.683  37.573  1.00  0.00     0.127 S 
ATOM     94  O   UNL A   1      45.486  23.555  36.668  1.00  0.00    -0.237 OA
ATOM     95  O   UNL A   1      46.997  24.707  38.233  1.00  0.00    -0.237 OA
ATOM     96  O   UNL A   1      44.572  25.002  38.452  1.00  0.00    -0.744 OA
ENDBRANCH  90  93
ENDBRANCH  63  86
ENDBRANCH  37  38
ENDBRANCH  29  32
ENDBRANCH  27  28
ENDBRANCH   1  27
TORSDOF 17
ENDMDL
