MODEL 1
REMARK VINA RESULT:     -12.1      0.000      0.000
REMARK SMILES COc1cc([C@H]2CC(c3ccc(S(C)(=O)=O)cc3)=NN2c2ccc(C(=O)NCCCCNC(=O)c3ccc(-c4c5nc(c(-c6cccc(S(=O)(=O)[O-])c6F)c6ccc([nH]6)c(-c6cccc(S(=O)(=O)[O-])c6F)c6nc(c(-c7cccc(S(=O)(=O)[O-])c7F)c7ccc4[nH]7)C=C6)C=C5)cc3)cc2)cc(OC)c1OC
REMARK SMILES IDX 29 1 28 2 27 3 25 4 26 5 24 7 21 8 22 9 99 10 23 11 98 12
REMARK SMILES IDX 20 13 6 14 7 15 8 16 19 17 5 18 3 19 4 20 104 21 101 22
REMARK SMILES IDX 100 23 2 24 1 25 105 26 106 27 102 28 103 29 9 30 10 31
REMARK SMILES IDX 18 32 11 33 17 34 12 35 13 36 14 37 15 38 16 39 30 40 31 41
REMARK SMILES IDX 32 42 33 43 34 45 35 46 36 47 97 48 37 49 96 50 38 51 39 52
REMARK SMILES IDX 40 53 90 54 41 55 95 56 89 57 91 58 42 59 94 60 88 61 87 62
REMARK SMILES IDX 43 64 75 65 55 66 74 67 56 68 59 69 73 70 92 71 57 72 58 73
REMARK SMILES IDX 72 75 93 76 60 77 44 78 45 79 53 80 46 81 48 82 54 83 47 84
REMARK SMILES IDX 49 85 50 86 51 87 52 88 76 89 77 90 85 91 78 92 80 93 86 94
REMARK SMILES IDX 79 95 81 96 82 97 83 98 84 99 61 100 62 101 70 102 63 103
REMARK SMILES IDX 65 104 71 105 64 106 66 107 67 108 68 109 69 110
REMARK H PARENT 27 6 32 44 91 63 59 74
REMARK Flexibility Score: inf
ROOT
ATOM      1  C   UNL A   1      32.840  33.507  27.594  1.00  0.00     0.023 C 
ENDROOT
BRANCH   1   2
ATOM      2  C   UNL A   1      32.824  32.004  27.301  1.00  0.00     0.116 C 
BRANCH   2   3
ATOM      3  N   UNL A   1      33.988  31.366  27.879  1.00  0.00    -0.352 N 
ATOM      4  C   UNL A   1      34.400  30.059  27.902  1.00  0.00     0.251 C 
ATOM      5  O   UNL A   1      35.461  29.808  28.476  1.00  0.00    -0.269 OA
ATOM      6  H   UNL A   1      34.598  31.986  28.340  1.00  0.00     0.163 HD
BRANCH   4   7
ATOM      7  C   UNL A   1      33.660  28.947  27.238  1.00  0.00     0.039 A 
ATOM      8  C   UNL A   1      32.406  26.833  25.826  1.00  0.00     0.060 A 
ATOM      9  C   UNL A   1      33.725  27.204  25.544  1.00  0.00     0.029 A 
ATOM     10  C   UNL A   1      31.741  27.499  26.854  1.00  0.00     0.029 A 
ATOM     11  C   UNL A   1      34.338  28.259  26.223  1.00  0.00     0.016 A 
ATOM     12  C   UNL A   1      32.374  28.517  27.575  1.00  0.00     0.016 A 
BRANCH   8  13
ATOM     13  N   UNL A   1      31.817  25.802  25.118  1.00  0.00    -0.257 N 
ATOM     14  C   UNL A   1      30.397  25.730  24.764  1.00  0.00     0.144 C 
ATOM     15  C   UNL A   1      30.290  24.319  24.152  1.00  0.00     0.091 C 
ATOM     16  C   UNL A   1      31.635  23.769  24.545  1.00  0.00     0.071 C 
ATOM     17  N   UNL A   1      32.466  24.613  25.062  1.00  0.00    -0.176 NA
BRANCH  14  18
ATOM     18  C   UNL A   1      30.018  26.866  23.827  1.00  0.00    -0.015 A 
ATOM     19  C   UNL A   1      28.357  28.408  22.905  1.00  0.00     0.164 A 
ATOM     20  C   UNL A   1      28.687  27.278  23.679  1.00  0.00     0.056 A 
ATOM     21  C   UNL A   1      29.352  29.180  22.277  1.00  0.00     0.203 A 
ATOM     22  C   UNL A   1      30.691  28.760  22.415  1.00  0.00     0.164 A 
ATOM     23  C   UNL A   1      31.002  27.618  23.172  1.00  0.00     0.056 A 
BRANCH  19  24
ATOM     24  O   UNL A   1      27.037  28.786  22.902  1.00  0.00    -0.493 OA
ATOM     25  C   UNL A   1      26.228  27.903  23.678  1.00  0.00     0.278 C 
ENDBRANCH  19  24
BRANCH  21  26
ATOM     26  O   UNL A   1      29.154  30.311  21.533  1.00  0.00    -0.490 OA
ATOM     27  C   UNL A   1      28.937  31.570  22.142  1.00  0.00     0.278 C 
ENDBRANCH  21  26
BRANCH  22  28
ATOM     28  O   UNL A   1      31.823  29.326  21.878  1.00  0.00    -0.493 OA
ATOM     29  C   UNL A   1      33.083  29.008  22.449  1.00  0.00     0.278 C 
ENDBRANCH  22  28
ENDBRANCH  14  18
BRANCH  16  30
ATOM     30  C   UNL A   1      31.982  22.353  24.381  1.00  0.00    -0.002 A 
ATOM     31  C   UNL A   1      32.202  21.585  25.531  1.00  0.00     0.011 A 
ATOM     32  C   UNL A   1      32.165  21.809  23.109  1.00  0.00     0.011 A 
ATOM     33  C   UNL A   1      32.589  20.251  25.410  1.00  0.00     0.021 A 
ATOM     34  C   UNL A   1      32.578  20.480  22.985  1.00  0.00     0.021 A 
ATOM     35  C   UNL A   1      32.789  19.709  24.136  1.00  0.00     0.067 A 
BRANCH  35  36
ATOM     36  S   UNL A   1      33.295  18.011  23.986  1.00  0.00     0.175 S 
ATOM     37  C   UNL A   1      32.511  17.190  25.349  1.00  0.00     0.163 C 
ATOM     38  O   UNL A   1      32.709  17.509  22.752  1.00  0.00    -0.224 OA
ATOM     39  O   UNL A   1      34.724  17.955  24.204  1.00  0.00    -0.224 OA
ENDBRANCH  35  36
ENDBRANCH  16  30
ENDBRANCH   8  13
ENDBRANCH   4   7
ENDBRANCH   2   3
ENDBRANCH   1   2
BRANCH   1  40
ATOM     40  C   UNL A   1      33.775  33.915  28.735  1.00  0.00     0.023 C 
BRANCH  40  41
ATOM     41  C   UNL A   1      33.690  35.384  29.134  1.00  0.00     0.116 C 
BRANCH  41  42
ATOM     42  N   UNL A   1      32.850  35.608  30.300  1.00  0.00    -0.352 N 
ATOM     43  C   UNL A   1      33.053  35.203  31.595  1.00  0.00     0.251 C 
ATOM     44  H   UNL A   1      32.024  36.119  30.137  1.00  0.00     0.163 HD
ATOM     45  O   UNL A   1      32.174  35.384  32.433  1.00  0.00    -0.269 OA
BRANCH  43  46
ATOM     46  C   UNL A   1      34.310  34.520  31.967  1.00  0.00     0.039 A 
ATOM     47  C   UNL A   1      34.265  33.156  32.266  1.00  0.00     0.014 A 
ATOM     48  C   UNL A   1      35.521  35.213  32.033  1.00  0.00     0.014 A 
ATOM     49  C   UNL A   1      35.440  32.482  32.600  1.00  0.00     0.010 A 
ATOM     50  C   UNL A   1      36.703  34.525  32.296  1.00  0.00     0.010 A 
ATOM     51  C   UNL A   1      36.672  33.158  32.604  1.00  0.00    -0.014 A 
BRANCH  51  52
ATOM     52  C   UNL A   1      37.927  32.446  32.954  1.00  0.00     0.031 A 
ATOM     53  C   UNL A   1      38.633  32.745  34.249  1.00  0.00     0.074 A 
ATOM     54  C   UNL A   1      38.465  31.578  32.075  1.00  0.00     0.049 A 
ATOM     55  N   UNL A   1      39.726  32.214  34.731  1.00  0.00    -0.248 NA
ATOM     56  C   UNL A   1      38.056  33.798  35.104  1.00  0.00     0.031 C 
ATOM     57  C   UNL A   1      37.937  31.283  30.740  1.00  0.00     0.029 A 
ATOM     58  N   UNL A   1      39.592  30.799  32.163  1.00  0.00    -0.354 N 
ATOM     59  C   UNL A   1      39.991  32.893  35.915  1.00  0.00     0.074 A 
ATOM     60  C   UNL A   1      38.960  33.894  36.068  1.00  0.00     0.031 C 
ATOM     61  C   UNL A   1      38.738  30.390  30.136  1.00  0.00     0.029 A 
ATOM     62  C   UNL A   1      39.839  30.053  31.033  1.00  0.00     0.049 A 
ATOM     63  H   UNL A   1      40.170  30.777  32.959  1.00  0.00     0.167 HD
ATOM     64  C   UNL A   1      40.984  32.680  36.810  1.00  0.00     0.034 A 
ATOM     65  C   UNL A   1      40.835  29.189  30.758  1.00  0.00     0.034 A 
ATOM     66  C   UNL A   1      41.962  31.634  36.692  1.00  0.00     0.049 A 
ATOM     67  C   UNL A   1      41.859  28.895  31.823  1.00  0.00     0.074 A 
ATOM     68  C   UNL A   1      42.927  31.251  37.607  1.00  0.00     0.029 A 
ATOM     69  N   UNL A   1      42.101  30.804  35.592  1.00  0.00    -0.354 N 
ATOM     70  N   UNL A   1      41.965  29.398  33.030  1.00  0.00    -0.248 NA
ATOM     71  C   UNL A   1      42.870  27.874  31.509  1.00  0.00     0.031 C 
ATOM     72  C   UNL A   1      43.662  30.199  37.053  1.00  0.00     0.029 A 
ATOM     73  C   UNL A   1      43.141  29.914  35.800  1.00  0.00     0.049 A 
ATOM     74  H   UNL A   1      41.544  30.841  34.781  1.00  0.00     0.167 HD
ATOM     75  C   UNL A   1      43.028  28.732  33.628  1.00  0.00     0.074 A 
ATOM     76  C   UNL A   1      43.512  27.766  32.663  1.00  0.00     0.031 C 
ATOM     77  C   UNL A   1      43.570  28.916  34.857  1.00  0.00     0.034 A 
BRANCH  64  78
ATOM     78  C   UNL A   1      41.028  33.548  38.040  1.00  0.00     0.023 A 
ATOM     79  C   UNL A   1      40.373  33.123  39.213  1.00  0.00     0.012 A 
ATOM     80  C   UNL A   1      41.789  34.733  38.061  1.00  0.00     0.148 A 
ATOM     81  C   UNL A   1      40.457  33.874  40.385  1.00  0.00     0.002 A 
ATOM     82  C   UNL A   1      41.903  35.454  39.244  1.00  0.00     0.091 A 
ATOM     83  F   UNL A   1      42.388  35.128  36.929  1.00  0.00    -0.205 F 
ATOM     84  C   UNL A   1      41.230  35.032  40.404  1.00  0.00     0.022 A 
BRANCH  82  85
ATOM     85  S   UNL A   1      42.936  36.915  39.398  1.00  0.00     0.127 S 
ATOM     86  O   UNL A   1      42.343  37.574  40.561  1.00  0.00    -0.237 OA
ATOM     87  O   UNL A   1      44.257  36.333  39.635  1.00  0.00    -0.237 OA
ATOM     88  O   UNL A   1      42.804  37.638  38.141  1.00  0.00    -0.744 OA
ENDBRANCH  82  85
ENDBRANCH  64  78
BRANCH  65  89
ATOM     89  C   UNL A   1      40.872  28.477  29.451  1.00  0.00     0.023 A 
ATOM     90  C   UNL A   1      39.922  27.471  29.182  1.00  0.00     0.012 A 
ATOM     91  C   UNL A   1      41.836  28.786  28.473  1.00  0.00     0.148 A 
ATOM     92  C   UNL A   1      39.961  26.756  27.985  1.00  0.00     0.002 A 
ATOM     93  C   UNL A   1      41.835  28.107  27.258  1.00  0.00     0.091 A 
ATOM     94  F   UNL A   1      42.743  29.736  28.748  1.00  0.00    -0.205 F 
ATOM     95  C   UNL A   1      40.911  27.079  27.020  1.00  0.00     0.022 A 
BRANCH  93  96
ATOM     96  S   UNL A   1      42.941  28.562  25.919  1.00  0.00     0.127 S 
ATOM     97  O   UNL A   1      42.199  28.103  24.748  1.00  0.00    -0.237 OA
ATOM     98  O   UNL A   1      43.022  30.017  26.065  1.00  0.00    -0.237 OA
ATOM     99  O   UNL A   1      44.189  27.868  26.203  1.00  0.00    -0.744 OA
ENDBRANCH  93  96
ENDBRANCH  65  89
BRANCH  77 100
ATOM    100  C   UNL A   1      44.729  28.036  35.246  1.00  0.00     0.023 A 
ATOM    101  C   UNL A   1      46.046  28.518  35.114  1.00  0.00     0.012 A 
ATOM    102  C   UNL A   1      44.512  26.760  35.799  1.00  0.00     0.148 A 
ATOM    103  C   UNL A   1      47.131  27.728  35.488  1.00  0.00     0.002 A 
ATOM    104  C   UNL A   1      45.596  25.996  36.215  1.00  0.00     0.091 A 
ATOM    105  F   UNL A   1      43.253  26.307  35.899  1.00  0.00    -0.205 F 
ATOM    106  C   UNL A   1      46.907  26.471  36.048  1.00  0.00     0.022 A 
BRANCH 104 107
ATOM    107  S   UNL A   1      45.382  24.413  37.036  1.00  0.00     0.127 S 
ATOM    108  O   UNL A   1      46.716  23.827  36.910  1.00  0.00    -0.237 OA
ATOM    109  O   UNL A   1      45.018  24.808  38.398  1.00  0.00    -0.237 OA
ATOM    110  O   UNL A   1      44.320  23.733  36.307  1.00  0.00    -0.744 OA
ENDBRANCH 104 107
ENDBRANCH  77 100
ENDBRANCH  51  52
ENDBRANCH  43  46
ENDBRANCH  41  42
ENDBRANCH  40  41
ENDBRANCH   1  40
TORSDOF 21
ENDMDL
MODEL 2
REMARK VINA RESULT:     -12.0      1.845      2.232
REMARK SMILES COc1cc([C@H]2CC(c3ccc(S(C)(=O)=O)cc3)=NN2c2ccc(C(=O)NCCCCNC(=O)c3ccc(-c4c5nc(c(-c6cccc(S(=O)(=O)[O-])c6F)c6ccc([nH]6)c(-c6cccc(S(=O)(=O)[O-])c6F)c6nc(c(-c7cccc(S(=O)(=O)[O-])c7F)c7ccc4[nH]7)C=C6)C=C5)cc3)cc2)cc(OC)c1OC
REMARK SMILES IDX 29 1 28 2 27 3 25 4 26 5 24 7 21 8 22 9 99 10 23 11 98 12
REMARK SMILES IDX 20 13 6 14 7 15 8 16 19 17 5 18 3 19 4 20 104 21 101 22
REMARK SMILES IDX 100 23 2 24 1 25 105 26 106 27 102 28 103 29 9 30 10 31
REMARK SMILES IDX 18 32 11 33 17 34 12 35 13 36 14 37 15 38 16 39 30 40 31 41
REMARK SMILES IDX 32 42 33 43 34 45 35 46 36 47 97 48 37 49 96 50 38 51 39 52
REMARK SMILES IDX 40 53 90 54 41 55 95 56 89 57 91 58 42 59 94 60 88 61 87 62
REMARK SMILES IDX 43 64 75 65 55 66 74 67 56 68 59 69 73 70 92 71 57 72 58 73
REMARK SMILES IDX 72 75 93 76 60 77 44 78 45 79 53 80 46 81 48 82 54 83 47 84
REMARK SMILES IDX 49 85 50 86 51 87 52 88 76 89 77 90 85 91 78 92 80 93 86 94
REMARK SMILES IDX 79 95 81 96 82 97 83 98 84 99 61 100 62 101 70 102 63 103
REMARK SMILES IDX 65 104 71 105 64 106 66 107 67 108 68 109 69 110
REMARK H PARENT 27 6 32 44 91 63 59 74
REMARK Flexibility Score: inf
ROOT
ATOM      1  C   UNL A   1      32.692  33.445  27.769  1.00  0.00     0.023 C 
ENDROOT
BRANCH   1   2
ATOM      2  C   UNL A   1      32.868  32.017  27.245  1.00  0.00     0.116 C 
BRANCH   2   3
ATOM      3  N   UNL A   1      34.018  31.392  27.863  1.00  0.00    -0.352 N 
ATOM      4  C   UNL A   1      34.428  30.085  27.926  1.00  0.00     0.251 C 
ATOM      5  O   UNL A   1      35.476  29.847  28.528  1.00  0.00    -0.269 OA
ATOM      6  H   UNL A   1      34.619  32.022  28.324  1.00  0.00     0.163 HD
BRANCH   4   7
ATOM      7  C   UNL A   1      33.702  28.958  27.270  1.00  0.00     0.039 A 
ATOM      8  C   UNL A   1      32.476  26.816  25.877  1.00  0.00     0.060 A 
ATOM      9  C   UNL A   1      33.795  27.192  25.601  1.00  0.00     0.029 A 
ATOM     10  C   UNL A   1      31.797  27.492  26.889  1.00  0.00     0.029 A 
ATOM     11  C   UNL A   1      34.394  28.261  26.272  1.00  0.00     0.016 A 
ATOM     12  C   UNL A   1      32.416  28.525  27.601  1.00  0.00     0.016 A 
BRANCH   8  13
ATOM     13  N   UNL A   1      31.900  25.771  25.178  1.00  0.00    -0.257 N 
ATOM     14  C   UNL A   1      30.484  25.683  24.813  1.00  0.00     0.144 C 
ATOM     15  C   UNL A   1      30.393  24.264  24.220  1.00  0.00     0.091 C 
ATOM     16  C   UNL A   1      31.739  23.729  24.632  1.00  0.00     0.071 C 
ATOM     17  N   UNL A   1      32.560  24.587  25.144  1.00  0.00    -0.176 NA
BRANCH  14  18
ATOM     18  C   UNL A   1      30.105  26.804  23.858  1.00  0.00    -0.015 A 
ATOM     19  C   UNL A   1      28.444  28.334  22.916  1.00  0.00     0.164 A 
ATOM     20  C   UNL A   1      28.774  27.216  23.708  1.00  0.00     0.056 A 
ATOM     21  C   UNL A   1      29.439  29.092  22.270  1.00  0.00     0.203 A 
ATOM     22  C   UNL A   1      30.777  28.670  22.409  1.00  0.00     0.164 A 
ATOM     23  C   UNL A   1      31.088  27.541  23.186  1.00  0.00     0.056 A 
BRANCH  19  24
ATOM     24  O   UNL A   1      27.125  28.715  22.911  1.00  0.00    -0.493 OA
ATOM     25  C   UNL A   1      26.329  27.890  23.760  1.00  0.00     0.278 C 
ENDBRANCH  19  24
BRANCH  21  26
ATOM     26  O   UNL A   1      29.241  30.210  21.507  1.00  0.00    -0.490 OA
ATOM     27  C   UNL A   1      28.857  31.444  22.085  1.00  0.00     0.278 C 
ENDBRANCH  21  26
BRANCH  22  28
ATOM     28  O   UNL A   1      31.908  29.223  21.858  1.00  0.00    -0.493 OA
ATOM     29  C   UNL A   1      33.149  29.050  22.525  1.00  0.00     0.278 C 
ENDBRANCH  22  28
ENDBRANCH  14  18
BRANCH  16  30
ATOM     30  C   UNL A   1      32.098  22.314  24.490  1.00  0.00    -0.002 A 
ATOM     31  C   UNL A   1      32.115  21.758  23.205  1.00  0.00     0.011 A 
ATOM     32  C   UNL A   1      32.339  21.526  25.616  1.00  0.00     0.011 A 
ATOM     33  C   UNL A   1      32.397  20.402  23.040  1.00  0.00     0.021 A 
ATOM     34  C   UNL A   1      32.597  20.162  25.455  1.00  0.00     0.021 A 
ATOM     35  C   UNL A   1      32.623  19.608  24.168  1.00  0.00     0.067 A 
BRANCH  35  36
ATOM     36  S   UNL A   1      32.970  17.877  23.954  1.00  0.00     0.175 S 
ATOM     37  C   UNL A   1      34.711  17.730  24.254  1.00  0.00     0.163 C 
ATOM     38  O   UNL A   1      32.262  17.176  25.016  1.00  0.00    -0.224 OA
ATOM     39  O   UNL A   1      32.735  17.548  22.565  1.00  0.00    -0.224 OA
ENDBRANCH  35  36
ENDBRANCH  16  30
ENDBRANCH   8  13
ENDBRANCH   4   7
ENDBRANCH   2   3
ENDBRANCH   1   2
BRANCH   1  40
ATOM     40  C   UNL A   1      33.819  33.920  28.690  1.00  0.00     0.023 C 
BRANCH  40  41
ATOM     41  C   UNL A   1      33.658  35.343  29.213  1.00  0.00     0.116 C 
BRANCH  41  42
ATOM     42  N   UNL A   1      32.732  35.435  30.331  1.00  0.00    -0.352 N 
ATOM     43  C   UNL A   1      32.895  34.993  31.619  1.00  0.00     0.251 C 
ATOM     44  H   UNL A   1      31.873  35.875  30.136  1.00  0.00     0.163 HD
ATOM     45  O   UNL A   1      31.955  35.054  32.406  1.00  0.00    -0.269 OA
BRANCH  43  46
ATOM     46  C   UNL A   1      34.187  34.412  32.043  1.00  0.00     0.039 A 
ATOM     47  C   UNL A   1      35.273  35.268  32.233  1.00  0.00     0.014 A 
ATOM     48  C   UNL A   1      34.335  33.036  32.239  1.00  0.00     0.014 A 
ATOM     49  C   UNL A   1      36.499  34.749  32.652  1.00  0.00     0.010 A 
ATOM     50  C   UNL A   1      35.537  32.529  32.725  1.00  0.00     0.010 A 
ATOM     51  C   UNL A   1      36.638  33.376  32.916  1.00  0.00    -0.014 A 
BRANCH  51  52
ATOM     52  C   UNL A   1      37.936  32.817  33.366  1.00  0.00     0.031 A 
ATOM     53  C   UNL A   1      38.465  33.137  34.740  1.00  0.00     0.074 A 
ATOM     54  C   UNL A   1      38.672  32.075  32.515  1.00  0.00     0.049 A 
ATOM     55  N   UNL A   1      39.567  32.728  35.312  1.00  0.00    -0.248 NA
ATOM     56  C   UNL A   1      37.669  34.058  35.570  1.00  0.00     0.031 C 
ATOM     57  C   UNL A   1      38.322  31.785  31.122  1.00  0.00     0.029 A 
ATOM     58  N   UNL A   1      39.879  31.447  32.691  1.00  0.00    -0.354 N 
ATOM     59  C   UNL A   1      39.619  33.372  36.544  1.00  0.00     0.074 A 
ATOM     60  C   UNL A   1      38.452  34.220  36.627  1.00  0.00     0.031 C 
ATOM     61  C   UNL A   1      39.293  31.038  30.571  1.00  0.00     0.029 A 
ATOM     62  C   UNL A   1      40.335  30.801  31.564  1.00  0.00     0.049 A 
ATOM     63  H   UNL A   1      40.373  31.458  33.541  1.00  0.00     0.167 HD
ATOM     64  C   UNL A   1      40.539  33.243  37.529  1.00  0.00     0.034 A 
ATOM     65  C   UNL A   1      41.462  30.090  31.361  1.00  0.00     0.034 A 
ATOM     66  C   UNL A   1      41.657  32.342  37.472  1.00  0.00     0.049 A 
ATOM     67  C   UNL A   1      42.406  29.876  32.515  1.00  0.00     0.074 A 
ATOM     68  C   UNL A   1      42.570  32.041  38.467  1.00  0.00     0.029 A 
ATOM     69  N   UNL A   1      42.015  31.597  36.361  1.00  0.00    -0.354 N 
ATOM     70  N   UNL A   1      42.323  30.324  33.745  1.00  0.00    -0.248 NA
ATOM     71  C   UNL A   1      43.572  29.014  32.268  1.00  0.00     0.031 C 
ATOM     72  C   UNL A   1      43.491  31.125  37.952  1.00  0.00     0.029 A 
ATOM     73  C   UNL A   1      43.140  30.841  36.642  1.00  0.00     0.049 A 
ATOM     74  H   UNL A   1      41.540  31.604  35.498  1.00  0.00     0.167 HD
ATOM     75  C   UNL A   1      43.403  29.772  34.424  1.00  0.00     0.074 A 
ATOM     76  C   UNL A   1      44.106  28.930  33.478  1.00  0.00     0.031 C 
ATOM     77  C   UNL A   1      43.791  29.960  35.709  1.00  0.00     0.034 A 
BRANCH  64  78
ATOM     78  C   UNL A   1      40.344  34.044  38.789  1.00  0.00     0.023 A 
ATOM     79  C   UNL A   1      41.050  35.251  38.960  1.00  0.00     0.012 A 
ATOM     80  C   UNL A   1      39.400  33.650  39.757  1.00  0.00     0.148 A 
ATOM     81  C   UNL A   1      40.836  36.046  40.086  1.00  0.00     0.002 A 
ATOM     82  C   UNL A   1      39.161  34.467  40.856  1.00  0.00     0.091 A 
ATOM     83  F   UNL A   1      38.753  32.489  39.584  1.00  0.00    -0.205 F 
ATOM     84  C   UNL A   1      39.885  35.660  41.026  1.00  0.00     0.022 A 
BRANCH  82  85
ATOM     85  S   UNL A   1      37.903  34.105  42.085  1.00  0.00     0.127 S 
ATOM     86  O   UNL A   1      38.570  33.089  42.899  1.00  0.00    -0.237 OA
ATOM     87  O   UNL A   1      37.735  35.400  42.743  1.00  0.00    -0.237 OA
ATOM     88  O   UNL A   1      36.738  33.640  41.345  1.00  0.00    -0.744 OA
ENDBRANCH  82  85
ENDBRANCH  64  78
BRANCH  65  89
ATOM     89  C   UNL A   1      41.723  29.459  30.037  1.00  0.00     0.023 A 
ATOM     90  C   UNL A   1      42.512  30.140  29.088  1.00  0.00     0.012 A 
ATOM     91  C   UNL A   1      41.200  28.194  29.711  1.00  0.00     0.148 A 
ATOM     92  C   UNL A   1      42.735  29.593  27.824  1.00  0.00     0.002 A 
ATOM     93  C   UNL A   1      41.473  27.629  28.469  1.00  0.00     0.091 A 
ATOM     94  F   UNL A   1      40.440  27.564  30.619  1.00  0.00    -0.205 F 
ATOM     95  C   UNL A   1      42.224  28.335  27.517  1.00  0.00     0.022 A 
BRANCH  93  96
ATOM     96  S   UNL A   1      40.962  25.958  28.056  1.00  0.00     0.127 S 
ATOM     97  O   UNL A   1      40.932  26.006  26.597  1.00  0.00    -0.237 OA
ATOM     98  O   UNL A   1      42.045  25.154  28.625  1.00  0.00    -0.237 OA
ATOM     99  O   UNL A   1      39.678  25.777  28.720  1.00  0.00    -0.744 OA
ENDBRANCH  93  96
ENDBRANCH  65  89
BRANCH  77 100
ATOM    100  C   UNL A   1      45.015  29.220  36.183  1.00  0.00     0.023 A 
ATOM    101  C   UNL A   1      46.279  29.834  36.095  1.00  0.00     0.012 A 
ATOM    102  C   UNL A   1      44.904  27.945  36.769  1.00  0.00     0.148 A 
ATOM    103  C   UNL A   1      47.421  29.175  36.546  1.00  0.00     0.002 A 
ATOM    104  C   UNL A   1      46.040  27.313  37.262  1.00  0.00     0.091 A 
ATOM    105  F   UNL A   1      43.696  27.365  36.827  1.00  0.00    -0.205 F 
ATOM    106  C   UNL A   1      47.301  27.919  37.140  1.00  0.00     0.022 A 
BRANCH 104 107
ATOM    107  S   UNL A   1      45.952  25.742  38.129  1.00  0.00     0.127 S 
ATOM    108  O   UNL A   1      47.305  25.621  38.669  1.00  0.00    -0.237 OA
ATOM    109  O   UNL A   1      44.915  25.989  39.132  1.00  0.00    -0.237 OA
ATOM    110  O   UNL A   1      45.583  24.758  37.119  1.00  0.00    -0.744 OA
ENDBRANCH 104 107
ENDBRANCH  77 100
ENDBRANCH  51  52
ENDBRANCH  43  46
ENDBRANCH  41  42
ENDBRANCH  40  41
ENDBRANCH   1  40
TORSDOF 21
ENDMDL
MODEL 3
REMARK VINA RESULT:     -11.3      4.954     10.766
REMARK SMILES COc1cc([C@H]2CC(c3ccc(S(C)(=O)=O)cc3)=NN2c2ccc(C(=O)NCCCCNC(=O)c3ccc(-c4c5nc(c(-c6cccc(S(=O)(=O)[O-])c6F)c6ccc([nH]6)c(-c6cccc(S(=O)(=O)[O-])c6F)c6nc(c(-c7cccc(S(=O)(=O)[O-])c7F)c7ccc4[nH]7)C=C6)C=C5)cc3)cc2)cc(OC)c1OC
REMARK SMILES IDX 29 1 28 2 27 3 25 4 26 5 24 7 21 8 22 9 99 10 23 11 98 12
REMARK SMILES IDX 20 13 6 14 7 15 8 16 19 17 5 18 3 19 4 20 104 21 101 22
REMARK SMILES IDX 100 23 2 24 1 25 105 26 106 27 102 28 103 29 9 30 10 31
REMARK SMILES IDX 18 32 11 33 17 34 12 35 13 36 14 37 15 38 16 39 30 40 31 41
REMARK SMILES IDX 32 42 33 43 34 45 35 46 36 47 97 48 37 49 96 50 38 51 39 52
REMARK SMILES IDX 40 53 90 54 41 55 95 56 89 57 91 58 42 59 94 60 88 61 87 62
REMARK SMILES IDX 43 64 75 65 55 66 74 67 56 68 59 69 73 70 92 71 57 72 58 73
REMARK SMILES IDX 72 75 93 76 60 77 44 78 45 79 53 80 46 81 48 82 54 83 47 84
REMARK SMILES IDX 49 85 50 86 51 87 52 88 76 89 77 90 85 91 78 92 80 93 86 94
REMARK SMILES IDX 79 95 81 96 82 97 83 98 84 99 61 100 62 101 70 102 63 103
REMARK SMILES IDX 65 104 71 105 64 106 66 107 67 108 68 109 69 110
REMARK H PARENT 27 6 32 44 91 63 59 74
REMARK Flexibility Score: inf
ROOT
ATOM      1  C   UNL A   1      35.970  32.763  30.259  1.00  0.00     0.023 C 
ENDROOT
BRANCH   1   2
ATOM      2  C   UNL A   1      36.516  34.183  30.433  1.00  0.00     0.116 C 
BRANCH   2   3
ATOM      3  N   UNL A   1      35.845  34.849  31.529  1.00  0.00    -0.352 N 
ATOM      4  C   UNL A   1      36.079  34.852  32.881  1.00  0.00     0.251 C 
ATOM      5  O   UNL A   1      35.332  35.534  33.584  1.00  0.00    -0.269 OA
ATOM      6  H   UNL A   1      35.080  35.404  31.255  1.00  0.00     0.163 HD
BRANCH   4   7
ATOM      7  C   UNL A   1      37.206  34.119  33.527  1.00  0.00     0.039 A 
ATOM      8  C   UNL A   1      39.202  32.619  34.868  1.00  0.00     0.060 A 
ATOM      9  C   UNL A   1      37.857  32.240  34.927  1.00  0.00     0.029 A 
ATOM     10  C   UNL A   1      39.541  33.726  34.092  1.00  0.00     0.029 A 
ATOM     11  C   UNL A   1      36.869  32.990  34.284  1.00  0.00     0.016 A 
ATOM     12  C   UNL A   1      38.559  34.444  33.401  1.00  0.00     0.016 A 
BRANCH   8  13
ATOM     13  N   UNL A   1      40.155  31.873  35.537  1.00  0.00    -0.257 N 
ATOM     14  C   UNL A   1      41.249  32.429  36.337  1.00  0.00     0.144 C 
ATOM     15  C   UNL A   1      42.066  31.169  36.683  1.00  0.00     0.091 C 
ATOM     16  C   UNL A   1      41.408  30.178  35.761  1.00  0.00     0.071 C 
ATOM     17  N   UNL A   1      40.344  30.587  35.151  1.00  0.00    -0.176 NA
BRANCH  14  18
ATOM     18  C   UNL A   1      40.705  33.191  37.535  1.00  0.00    -0.015 A 
ATOM     19  C   UNL A   1      39.091  33.431  39.358  1.00  0.00     0.164 A 
ATOM     20  C   UNL A   1      39.523  32.796  38.176  1.00  0.00     0.056 A 
ATOM     21  C   UNL A   1      39.842  34.463  39.951  1.00  0.00     0.203 A 
ATOM     22  C   UNL A   1      41.024  34.869  39.300  1.00  0.00     0.164 A 
ATOM     23  C   UNL A   1      41.432  34.241  38.111  1.00  0.00     0.056 A 
BRANCH  19  24
ATOM     24  O   UNL A   1      37.974  32.907  39.962  1.00  0.00    -0.493 OA
ATOM     25  C   UNL A   1      37.108  32.274  39.022  1.00  0.00     0.278 C 
ENDBRANCH  19  24
BRANCH  21  26
ATOM     26  O   UNL A   1      39.539  35.124  41.110  1.00  0.00    -0.490 OA
ATOM     27  C   UNL A   1      40.304  34.946  42.287  1.00  0.00     0.278 C 
ENDBRANCH  21  26
BRANCH  22  28
ATOM     28  O   UNL A   1      41.901  35.863  39.666  1.00  0.00    -0.493 OA
ATOM     29  C   UNL A   1      41.734  37.160  39.113  1.00  0.00     0.278 C 
ENDBRANCH  22  28
ENDBRANCH  14  18
BRANCH  16  30
ATOM     30  C   UNL A   1      41.951  28.833  35.538  1.00  0.00    -0.002 A 
ATOM     31  C   UNL A   1      42.808  28.634  34.449  1.00  0.00     0.011 A 
ATOM     32  C   UNL A   1      41.557  27.765  36.346  1.00  0.00     0.011 A 
ATOM     33  C   UNL A   1      43.297  27.357  34.176  1.00  0.00     0.021 A 
ATOM     34  C   UNL A   1      42.024  26.480  36.058  1.00  0.00     0.021 A 
ATOM     35  C   UNL A   1      42.890  26.283  34.974  1.00  0.00     0.067 A 
BRANCH  35  36
ATOM     36  S   UNL A   1      43.504  24.654  34.614  1.00  0.00     0.175 S 
ATOM     37  C   UNL A   1      44.758  24.369  35.835  1.00  0.00     0.163 C 
ATOM     38  O   UNL A   1      42.407  23.731  34.862  1.00  0.00    -0.224 OA
ATOM     39  O   UNL A   1      44.154  24.702  33.322  1.00  0.00    -0.224 OA
ENDBRANCH  35  36
ENDBRANCH  16  30
ENDBRANCH   8  13
ENDBRANCH   4   7
ENDBRANCH   2   3
ENDBRANCH   1   2
BRANCH   1  40
ATOM     40  C   UNL A   1      34.527  32.703  29.750  1.00  0.00     0.023 C 
BRANCH  40  41
ATOM     41  C   UNL A   1      34.391  32.502  28.245  1.00  0.00     0.116 C 
BRANCH  41  42
ATOM     42  N   UNL A   1      33.749  31.244  27.895  1.00  0.00    -0.352 N 
ATOM     43  C   UNL A   1      34.303  29.991  27.815  1.00  0.00     0.251 C 
ATOM     44  H   UNL A   1      32.787  31.300  27.689  1.00  0.00     0.163 HD
ATOM     45  O   UNL A   1      33.630  29.056  27.390  1.00  0.00    -0.269 OA
BRANCH  43  46
ATOM     46  C   UNL A   1      35.713  29.781  28.205  1.00  0.00     0.039 A 
ATOM     47  C   UNL A   1      35.988  29.346  29.503  1.00  0.00     0.014 A 
ATOM     48  C   UNL A   1      36.758  30.020  27.308  1.00  0.00     0.014 A 
ATOM     49  C   UNL A   1      37.309  29.120  29.892  1.00  0.00     0.010 A 
ATOM     50  C   UNL A   1      38.069  29.725  27.675  1.00  0.00     0.010 A 
ATOM     51  C   UNL A   1      38.360  29.294  28.976  1.00  0.00    -0.014 A 
BRANCH  51  52
ATOM     52  C   UNL A   1      39.767  29.050  29.380  1.00  0.00     0.031 A 
ATOM     53  C   UNL A   1      40.552  30.126  30.085  1.00  0.00     0.074 A 
ATOM     54  C   UNL A   1      40.360  27.884  29.056  1.00  0.00     0.049 A 
ATOM     55  N   UNL A   1      41.781  30.090  30.527  1.00  0.00    -0.248 NA
ATOM     56  C   UNL A   1      39.881  31.421  30.294  1.00  0.00     0.031 C 
ATOM     57  C   UNL A   1      39.743  26.806  28.279  1.00  0.00     0.029 A 
ATOM     58  N   UNL A   1      41.624  27.420  29.319  1.00  0.00    -0.354 N 
ATOM     59  C   UNL A   1      42.045  31.362  31.025  1.00  0.00     0.074 A 
ATOM     60  C   UNL A   1      40.858  32.156  30.806  1.00  0.00     0.031 C 
ATOM     61  C   UNL A   1      40.630  25.808  28.129  1.00  0.00     0.029 A 
ATOM     62  C   UNL A   1      41.878  26.175  28.790  1.00  0.00     0.049 A 
ATOM     63  H   UNL A   1      42.288  27.930  29.837  1.00  0.00     0.167 HD
ATOM     64  C   UNL A   1      43.163  31.816  31.638  1.00  0.00     0.034 A 
ATOM     65  C   UNL A   1      42.988  25.414  28.842  1.00  0.00     0.034 A 
ATOM     66  C   UNL A   1      44.313  31.002  31.921  1.00  0.00     0.049 A 
ATOM     67  C   UNL A   1      44.174  25.908  29.629  1.00  0.00     0.074 A 
ATOM     68  C   UNL A   1      45.441  31.331  32.652  1.00  0.00     0.029 A 
ATOM     69  N   UNL A   1      44.482  29.697  31.487  1.00  0.00    -0.354 N 
ATOM     70  N   UNL A   1      44.322  27.037  30.279  1.00  0.00    -0.248 NA
ATOM     71  C   UNL A   1      45.326  25.000  29.736  1.00  0.00     0.031 C 
ATOM     72  C   UNL A   1      46.301  30.229  32.646  1.00  0.00     0.029 A 
ATOM     73  C   UNL A   1      45.699  29.208  31.928  1.00  0.00     0.049 A 
ATOM     74  H   UNL A   1      43.833  29.193  30.945  1.00  0.00     0.167 HD
ATOM     75  C   UNL A   1      45.565  26.961  30.897  1.00  0.00     0.074 A 
ATOM     76  C   UNL A   1      46.114  25.661  30.572  1.00  0.00     0.031 C 
ATOM     77  C   UNL A   1      46.205  27.890  31.649  1.00  0.00     0.034 A 
BRANCH  64  78
ATOM     78  C   UNL A   1      43.179  33.245  32.112  1.00  0.00     0.023 A 
ATOM     79  C   UNL A   1      42.916  33.529  33.467  1.00  0.00     0.012 A 
ATOM     80  C   UNL A   1      43.544  34.292  31.243  1.00  0.00     0.148 A 
ATOM     81  C   UNL A   1      42.993  34.836  33.947  1.00  0.00     0.002 A 
ATOM     82  C   UNL A   1      43.659  35.586  31.737  1.00  0.00     0.091 A 
ATOM     83  F   UNL A   1      43.772  34.002  29.955  1.00  0.00    -0.205 F 
ATOM     84  C   UNL A   1      43.376  35.861  33.086  1.00  0.00     0.022 A 
BRANCH  82  85
ATOM     85  S   UNL A   1      44.221  36.965  30.734  1.00  0.00     0.127 S 
ATOM     86  O   UNL A   1      43.212  36.990  29.675  1.00  0.00    -0.237 OA
ATOM     87  O   UNL A   1      44.144  38.081  31.676  1.00  0.00    -0.237 OA
ATOM     88  O   UNL A   1      45.568  36.626  30.299  1.00  0.00    -0.744 OA
ENDBRANCH  82  85
ENDBRANCH  64  78
BRANCH  65  89
ATOM     89  C   UNL A   1      43.009  24.070  28.199  1.00  0.00     0.023 A 
ATOM     90  C   UNL A   1      42.223  23.032  28.738  1.00  0.00     0.012 A 
ATOM     91  C   UNL A   1      43.797  23.813  27.062  1.00  0.00     0.148 A 
ATOM     92  C   UNL A   1      42.258  21.752  28.185  1.00  0.00     0.002 A 
ATOM     93  C   UNL A   1      43.784  22.549  26.481  1.00  0.00     0.091 A 
ATOM     94  F   UNL A   1      44.550  24.807  26.568  1.00  0.00    -0.205 F 
ATOM     95  C   UNL A   1      43.031  21.512  27.051  1.00  0.00     0.022 A 
BRANCH  93  96
ATOM     96  S   UNL A   1      44.647  22.204  24.944  1.00  0.00     0.127 S 
ATOM     97  O   UNL A   1      44.338  23.392  24.153  1.00  0.00    -0.237 OA
ATOM     98  O   UNL A   1      46.039  22.104  25.388  1.00  0.00    -0.237 OA
ATOM     99  O   UNL A   1      44.087  20.948  24.466  1.00  0.00    -0.744 OA
ENDBRANCH  93  96
ENDBRANCH  65  89
BRANCH  77 100
ATOM    100  C   UNL A   1      47.558  27.527  32.202  1.00  0.00     0.023 A 
ATOM    101  C   UNL A   1      48.718  27.836  31.465  1.00  0.00     0.012 A 
ATOM    102  C   UNL A   1      47.683  26.936  33.474  1.00  0.00     0.148 A 
ATOM    103  C   UNL A   1      49.980  27.528  31.968  1.00  0.00     0.002 A 
ATOM    104  C   UNL A   1      48.947  26.676  33.990  1.00  0.00     0.091 A 
ATOM    105  F   UNL A   1      46.568  26.629  34.154  1.00  0.00    -0.205 F 
ATOM    106  C   UNL A   1      50.096  26.957  33.235  1.00  0.00     0.022 A 
BRANCH 104 107
ATOM    107  S   UNL A   1      49.179  26.036  35.653  1.00  0.00     0.127 S 
ATOM    108  O   UNL A   1      48.557  27.080  36.466  1.00  0.00    -0.237 OA
ATOM    109  O   UNL A   1      48.441  24.773  35.614  1.00  0.00    -0.237 OA
ATOM    110  O   UNL A   1      50.619  25.881  35.816  1.00  0.00    -0.744 OA
ENDBRANCH 104 107
ENDBRANCH  77 100
ENDBRANCH  51  52
ENDBRANCH  43  46
ENDBRANCH  41  42
ENDBRANCH  40  41
ENDBRANCH   1  40
TORSDOF 21
ENDMDL
