MODEL 1
REMARK VINA RESULT:      -9.6      0.000      0.000
REMARK SMILES CCCC[C@H](C(=O)NCCCCNC(=O)c1ccc(-c2c3nc(c(-c4cccc(S(=O)(=O)[O-])c4F)c4ccc([nH]4)c(-c4cccc(S(=O)(=O)[O-])c4F)c4nc(c(-c5cccc(S(=O)(=O)[O-])c5F)c5ccc2[nH]5)C=C4)C=C3)cc1)[C@H](C)O
REMARK SMILES IDX 10 1 9 2 8 3 6 4 7 5 5 7 4 8 3 9 2 10 1 11 79 12 80 13 81 14
REMARK SMILES IDX 11 16 12 17 13 18 14 19 15 21 16 22 17 23 78 24 18 25 77 26
REMARK SMILES IDX 19 27 20 28 21 29 71 30 22 31 76 32 70 33 72 34 23 35 75 36
REMARK SMILES IDX 69 37 68 38 24 40 56 41 36 42 55 43 37 44 40 45 54 46 73 47
REMARK SMILES IDX 38 48 39 49 53 51 74 52 41 53 25 54 26 55 34 56 27 57 29 58
REMARK SMILES IDX 35 59 28 60 30 61 31 62 32 63 33 64 57 65 58 66 66 67 59 68
REMARK SMILES IDX 61 69 67 70 60 71 62 72 63 73 64 74 65 75 42 76 43 77 51 78
REMARK SMILES IDX 44 79 46 80 52 81 45 82 47 83 48 84 49 85 50 86
REMARK H PARENT 8 6 81 15 13 20 72 39 40 50
REMARK Flexibility Score: inf
ROOT
ATOM      1  C   UNL A   1      31.606  30.155  26.345  1.00  0.00     0.023 C 
ENDROOT
BRANCH   1   2
ATOM      2  C   UNL A   1      31.561  29.673  24.900  1.00  0.00     0.116 C 
BRANCH   2   3
ATOM      3  N   UNL A   1      32.868  29.480  24.303  1.00  0.00    -0.356 N 
ATOM      4  C   UNL A   1      33.442  28.415  23.678  1.00  0.00     0.225 C 
ATOM      5  O   UNL A   1      34.415  28.697  22.968  1.00  0.00    -0.275 OA
ATOM      6  H   UNL A   1      33.452  30.270  24.360  1.00  0.00     0.163 HD
BRANCH   4   7
ATOM      7  C   UNL A   1      33.022  26.934  23.884  1.00  0.00     0.107 C 
BRANCH   7   8
ATOM      8  C   UNL A   1      33.316  26.029  22.666  1.00  0.00     0.016 C 
BRANCH   8   9
ATOM      9  C   UNL A   1      32.494  24.770  22.364  1.00  0.00     0.001 C 
BRANCH   9  10
ATOM     10  C   UNL A   1      33.201  23.412  22.305  1.00  0.00    -0.003 C 
ATOM     11  C   UNL A   1      34.433  23.263  23.181  1.00  0.00     0.004 C 
ENDBRANCH   9  10
ENDBRANCH   8   9
ENDBRANCH   7   8
BRANCH   7  12
ATOM     12  C   UNL A   1      33.647  26.389  25.197  1.00  0.00     0.123 C 
ATOM     13  C   UNL A   1      32.797  25.377  25.965  1.00  0.00     0.039 C 
BRANCH  12  14
ATOM     14  O   UNL A   1      34.035  27.453  26.064  1.00  0.00    -0.393 OA
ATOM     15  H   UNL A   1      33.961  28.297  25.593  1.00  0.00     0.210 HD
ENDBRANCH  12  14
ENDBRANCH   7  12
ENDBRANCH   4   7
ENDBRANCH   2   3
ENDBRANCH   1   2
BRANCH   1  16
ATOM     16  C   UNL A   1      31.241  31.617  26.581  1.00  0.00     0.023 C 
BRANCH  16  17
ATOM     17  C   UNL A   1      32.380  32.627  26.469  1.00  0.00     0.116 C 
BRANCH  17  18
ATOM     18  N   UNL A   1      32.187  33.836  27.260  1.00  0.00    -0.352 N 
ATOM     19  C   UNL A   1      32.946  34.328  28.297  1.00  0.00     0.251 C 
ATOM     20  H   UNL A   1      31.402  34.379  27.017  1.00  0.00     0.163 HD
ATOM     21  O   UNL A   1      32.595  35.346  28.888  1.00  0.00    -0.269 OA
BRANCH  19  22
ATOM     22  C   UNL A   1      34.159  33.601  28.725  1.00  0.00     0.039 A 
ATOM     23  C   UNL A   1      35.393  34.254  28.665  1.00  0.00     0.014 A 
ATOM     24  C   UNL A   1      34.072  32.304  29.235  1.00  0.00     0.014 A 
ATOM     25  C   UNL A   1      36.526  33.640  29.206  1.00  0.00     0.010 A 
ATOM     26  C   UNL A   1      35.183  31.726  29.839  1.00  0.00     0.010 A 
ATOM     27  C   UNL A   1      36.420  32.391  29.842  1.00  0.00    -0.014 A 
BRANCH  27  28
ATOM     28  C   UNL A   1      37.575  31.779  30.547  1.00  0.00     0.031 A 
ATOM     29  C   UNL A   1      38.400  30.718  29.872  1.00  0.00     0.074 A 
ATOM     30  C   UNL A   1      37.813  32.101  31.835  1.00  0.00     0.049 A 
ATOM     31  N   UNL A   1      39.394  30.018  30.353  1.00  0.00    -0.248 NA
ATOM     32  C   UNL A   1      38.043  30.377  28.485  1.00  0.00     0.031 C 
ATOM     33  C   UNL A   1      37.027  33.047  32.632  1.00  0.00     0.029 A 
ATOM     34  N   UNL A   1      38.766  31.644  32.712  1.00  0.00    -0.354 N 
ATOM     35  C   UNL A   1      39.755  29.130  29.348  1.00  0.00     0.074 A 
ATOM     36  C   UNL A   1      38.852  29.356  28.240  1.00  0.00     0.031 C 
ATOM     37  C   UNL A   1      37.531  33.103  33.875  1.00  0.00     0.029 A 
ATOM     38  C   UNL A   1      38.658  32.180  33.975  1.00  0.00     0.049 A 
ATOM     39  H   UNL A   1      39.461  30.994  32.461  1.00  0.00     0.167 HD
ATOM     40  C   UNL A   1      40.767  28.230  29.333  1.00  0.00     0.034 A 
ATOM     41  C   UNL A   1      39.383  31.954  35.087  1.00  0.00     0.034 A 
ATOM     42  C   UNL A   1      41.700  28.048  30.411  1.00  0.00     0.049 A 
ATOM     43  C   UNL A   1      40.541  30.994  35.023  1.00  0.00     0.074 A 
ATOM     44  C   UNL A   1      42.819  27.235  30.452  1.00  0.00     0.029 A 
ATOM     45  N   UNL A   1      41.624  28.688  31.638  1.00  0.00    -0.354 N 
ATOM     46  N   UNL A   1      40.973  30.291  34.005  1.00  0.00    -0.248 NA
ATOM     47  C   UNL A   1      41.335  30.825  36.249  1.00  0.00     0.031 C 
ATOM     48  C   UNL A   1      43.415  27.377  31.710  1.00  0.00     0.029 A 
ATOM     49  C   UNL A   1      42.672  28.287  32.447  1.00  0.00     0.049 A 
ATOM     50  H   UNL A   1      40.926  29.333  31.896  1.00  0.00     0.167 HD
ATOM     51  C   UNL A   1      42.105  29.622  34.455  1.00  0.00     0.074 A 
ATOM     52  C   UNL A   1      42.306  30.022  35.833  1.00  0.00     0.031 C 
ATOM     53  C   UNL A   1      42.895  28.740  33.795  1.00  0.00     0.034 A 
BRANCH  40  54
ATOM     54  C   UNL A   1      40.963  27.422  28.077  1.00  0.00     0.023 A 
ATOM     55  C   UNL A   1      41.530  28.040  26.942  1.00  0.00     0.012 A 
ATOM     56  C   UNL A   1      40.645  26.052  28.031  1.00  0.00     0.148 A 
ATOM     57  C   UNL A   1      41.747  27.316  25.772  1.00  0.00     0.002 A 
ATOM     58  C   UNL A   1      40.903  25.326  26.874  1.00  0.00     0.091 A 
ATOM     59  F   UNL A   1      40.086  25.488  29.111  1.00  0.00    -0.205 F 
ATOM     60  C   UNL A   1      41.443  25.957  25.741  1.00  0.00     0.022 A 
BRANCH  58  61
ATOM     61  S   UNL A   1      40.614  23.556  26.757  1.00  0.00     0.127 S 
ATOM     62  O   UNL A   1      41.553  23.173  25.703  1.00  0.00    -0.237 OA
ATOM     63  O   UNL A   1      40.981  23.095  28.097  1.00  0.00    -0.237 OA
ATOM     64  O   UNL A   1      39.204  23.402  26.429  1.00  0.00    -0.744 OA
ENDBRANCH  58  61
ENDBRANCH  40  54
BRANCH  41  65
ATOM     65  C   UNL A   1      39.089  32.713  36.337  1.00  0.00     0.023 A 
ATOM     66  C   UNL A   1      39.631  34.003  36.500  1.00  0.00     0.012 A 
ATOM     67  C   UNL A   1      38.261  32.184  37.346  1.00  0.00     0.148 A 
ATOM     68  C   UNL A   1      39.380  34.741  37.657  1.00  0.00     0.002 A 
ATOM     69  C   UNL A   1      37.972  32.946  38.473  1.00  0.00     0.091 A 
ATOM     70  F   UNL A   1      37.767  30.949  37.181  1.00  0.00    -0.205 F 
ATOM     71  C   UNL A   1      38.543  34.217  38.638  1.00  0.00     0.022 A 
BRANCH  69  72
ATOM     72  S   UNL A   1      36.800  32.401  39.721  1.00  0.00     0.127 S 
ATOM     73  O   UNL A   1      36.840  33.506  40.674  1.00  0.00    -0.237 OA
ATOM     74  O   UNL A   1      35.560  32.295  38.951  1.00  0.00    -0.237 OA
ATOM     75  O   UNL A   1      37.313  31.124  40.203  1.00  0.00    -0.744 OA
ENDBRANCH  69  72
ENDBRANCH  41  65
BRANCH  53  76
ATOM     76  C   UNL A   1      44.071  28.163  34.538  1.00  0.00     0.023 A 
ATOM     77  C   UNL A   1      45.283  28.878  34.582  1.00  0.00     0.012 A 
ATOM     78  C   UNL A   1      43.950  26.959  35.259  1.00  0.00     0.148 A 
ATOM     79  C   UNL A   1      46.367  28.390  35.310  1.00  0.00     0.002 A 
ATOM     80  C   UNL A   1      45.021  26.501  36.018  1.00  0.00     0.091 A 
ATOM     81  F   UNL A   1      42.794  26.282  35.187  1.00  0.00    -0.205 F 
ATOM     82  C   UNL A   1      46.233  27.209  36.037  1.00  0.00     0.022 A 
BRANCH  80  83
ATOM     83  S   UNL A   1      44.903  25.040  37.058  1.00  0.00     0.127 S 
ATOM     84  O   UNL A   1      46.306  24.792  37.384  1.00  0.00    -0.237 OA
ATOM     85  O   UNL A   1      44.093  25.519  38.178  1.00  0.00    -0.237 OA
ATOM     86  O   UNL A   1      44.258  24.021  36.241  1.00  0.00    -0.744 OA
ENDBRANCH  80  83
ENDBRANCH  53  76
ENDBRANCH  27  28
ENDBRANCH  19  22
ENDBRANCH  17  18
ENDBRANCH  16  17
ENDBRANCH   1  16
TORSDOF 19
ENDMDL
MODEL 2
REMARK VINA RESULT:      -9.3      2.318      8.297
REMARK SMILES CCCC[C@H](C(=O)NCCCCNC(=O)c1ccc(-c2c3nc(c(-c4cccc(S(=O)(=O)[O-])c4F)c4ccc([nH]4)c(-c4cccc(S(=O)(=O)[O-])c4F)c4nc(c(-c5cccc(S(=O)(=O)[O-])c5F)c5ccc2[nH]5)C=C4)C=C3)cc1)[C@H](C)O
REMARK SMILES IDX 10 1 9 2 8 3 6 4 7 5 5 7 4 8 3 9 2 10 1 11 79 12 80 13 81 14
REMARK SMILES IDX 11 16 12 17 13 18 14 19 15 21 16 22 17 23 78 24 18 25 77 26
REMARK SMILES IDX 19 27 20 28 21 29 71 30 22 31 76 32 70 33 72 34 23 35 75 36
REMARK SMILES IDX 69 37 68 38 24 40 56 41 36 42 55 43 37 44 40 45 54 46 73 47
REMARK SMILES IDX 38 48 39 49 53 51 74 52 41 53 25 54 26 55 34 56 27 57 29 58
REMARK SMILES IDX 35 59 28 60 30 61 31 62 32 63 33 64 57 65 58 66 66 67 59 68
REMARK SMILES IDX 61 69 67 70 60 71 62 72 63 73 64 74 65 75 42 76 43 77 51 78
REMARK SMILES IDX 44 79 46 80 52 81 45 82 47 83 48 84 49 85 50 86
REMARK H PARENT 8 6 81 15 13 20 72 39 40 50
REMARK Flexibility Score: inf
ROOT
ATOM      1  C   UNL A   1      33.055  27.766  24.947  1.00  0.00     0.023 C 
ENDROOT
BRANCH   1   2
ATOM      2  C   UNL A   1      32.868  26.743  26.061  1.00  0.00     0.116 C 
BRANCH   2   3
ATOM      3  N   UNL A   1      31.482  26.430  26.346  1.00  0.00    -0.356 N 
ATOM      4  C   UNL A   1      30.520  25.790  25.625  1.00  0.00     0.225 C 
ATOM      5  O   UNL A   1      29.569  25.368  26.296  1.00  0.00    -0.275 OA
ATOM      6  H   UNL A   1      31.177  26.739  27.230  1.00  0.00     0.163 HD
BRANCH   4   7
ATOM      7  C   UNL A   1      30.509  25.662  24.078  1.00  0.00     0.107 C 
BRANCH   7   8
ATOM      8  C   UNL A   1      30.610  24.204  23.574  1.00  0.00     0.016 C 
BRANCH   8   9
ATOM      9  C   UNL A   1      31.244  23.089  24.415  1.00  0.00     0.001 C 
BRANCH   9  10
ATOM     10  C   UNL A   1      32.771  23.002  24.512  1.00  0.00    -0.003 C 
ATOM     11  C   UNL A   1      33.348  21.614  24.730  1.00  0.00     0.004 C 
ENDBRANCH   9  10
ENDBRANCH   8   9
ENDBRANCH   7   8
BRANCH   7  12
ATOM     12  C   UNL A   1      29.277  26.409  23.498  1.00  0.00     0.123 C 
ATOM     13  C   UNL A   1      29.367  27.935  23.499  1.00  0.00     0.039 C 
BRANCH  12  14
ATOM     14  O   UNL A   1      28.072  25.994  24.141  1.00  0.00    -0.393 OA
ATOM     15  H   UNL A   1      27.330  26.086  23.524  1.00  0.00     0.210 HD
ENDBRANCH  12  14
ENDBRANCH   7  12
ENDBRANCH   4   7
ENDBRANCH   2   3
ENDBRANCH   1   2
BRANCH   1  16
ATOM     16  C   UNL A   1      33.263  29.212  25.387  1.00  0.00     0.023 C 
BRANCH  16  17
ATOM     17  C   UNL A   1      32.510  29.655  26.639  1.00  0.00     0.116 C 
BRANCH  17  18
ATOM     18  N   UNL A   1      32.468  31.099  26.832  1.00  0.00    -0.352 N 
ATOM     19  C   UNL A   1      33.406  31.927  27.406  1.00  0.00     0.251 C 
ATOM     20  H   UNL A   1      31.654  31.546  26.505  1.00  0.00     0.163 HD
ATOM     21  O   UNL A   1      33.172  33.126  27.534  1.00  0.00    -0.269 OA
BRANCH  19  22
ATOM     22  C   UNL A   1      34.674  31.359  27.909  1.00  0.00     0.039 A 
ATOM     23  C   UNL A   1      35.787  32.196  28.030  1.00  0.00     0.014 A 
ATOM     24  C   UNL A   1      34.748  30.024  28.312  1.00  0.00     0.014 A 
ATOM     25  C   UNL A   1      36.947  31.717  28.644  1.00  0.00     0.010 A 
ATOM     26  C   UNL A   1      35.876  29.572  28.989  1.00  0.00     0.010 A 
ATOM     27  C   UNL A   1      36.984  30.415  29.173  1.00  0.00    -0.014 A 
BRANCH  27  28
ATOM     28  C   UNL A   1      38.150  29.928  29.953  1.00  0.00     0.031 A 
ATOM     29  C   UNL A   1      38.410  30.455  31.337  1.00  0.00     0.074 A 
ATOM     30  C   UNL A   1      39.035  29.092  29.371  1.00  0.00     0.049 A 
ATOM     31  N   UNL A   1      39.413  30.206  32.137  1.00  0.00    -0.248 NA
ATOM     32  C   UNL A   1      37.430  31.409  31.883  1.00  0.00     0.031 C 
ATOM     33  C   UNL A   1      38.945  28.582  28.001  1.00  0.00     0.029 A 
ATOM     34  N   UNL A   1      40.203  28.550  29.849  1.00  0.00    -0.354 N 
ATOM     35  C   UNL A   1      39.210  30.999  33.260  1.00  0.00     0.074 A 
ATOM     36  C   UNL A   1      38.003  31.763  33.024  1.00  0.00     0.031 C 
ATOM     37  C   UNL A   1      40.008  27.800  27.751  1.00  0.00     0.029 A 
ATOM     38  C   UNL A   1      40.867  27.772  28.929  1.00  0.00     0.049 A 
ATOM     39  H   UNL A   1      40.533  28.703  30.764  1.00  0.00     0.167 HD
ATOM     40  C   UNL A   1      39.940  31.063  34.398  1.00  0.00     0.034 A 
ATOM     41  C   UNL A   1      42.038  27.111  29.024  1.00  0.00     0.034 A 
ATOM     42  C   UNL A   1      41.104  30.260  34.655  1.00  0.00     0.049 A 
ATOM     43  C   UNL A   1      42.796  27.150  30.324  1.00  0.00     0.074 A 
ATOM     44  C   UNL A   1      41.853  30.178  35.815  1.00  0.00     0.029 A 
ATOM     45  N   UNL A   1      41.689  29.401  33.738  1.00  0.00    -0.354 N 
ATOM     46  N   UNL A   1      42.493  27.771  31.437  1.00  0.00    -0.248 NA
ATOM     47  C   UNL A   1      44.039  26.367  30.394  1.00  0.00     0.031 C 
ATOM     48  C   UNL A   1      42.899  29.274  35.596  1.00  0.00     0.029 A 
ATOM     49  C   UNL A   1      42.793  28.786  34.303  1.00  0.00     0.049 A 
ATOM     50  H   UNL A   1      41.367  29.250  32.820  1.00  0.00     0.167 HD
ATOM     51  C   UNL A   1      43.485  27.430  32.349  1.00  0.00     0.074 A 
ATOM     52  C   UNL A   1      44.388  26.528  31.664  1.00  0.00     0.031 C 
ATOM     53  C   UNL A   1      43.647  27.843  33.629  1.00  0.00     0.034 A 
BRANCH  40  54
ATOM     54  C   UNL A   1      39.455  31.984  35.487  1.00  0.00     0.023 A 
ATOM     55  C   UNL A   1      38.564  31.488  36.462  1.00  0.00     0.012 A 
ATOM     56  C   UNL A   1      39.918  33.310  35.584  1.00  0.00     0.148 A 
ATOM     57  C   UNL A   1      38.115  32.307  37.495  1.00  0.00     0.002 A 
ATOM     58  C   UNL A   1      39.498  34.108  36.642  1.00  0.00     0.091 A 
ATOM     59  F   UNL A   1      40.747  33.769  34.637  1.00  0.00    -0.205 F 
ATOM     60  C   UNL A   1      38.589  33.613  37.591  1.00  0.00     0.022 A 
BRANCH  58  61
ATOM     61  S   UNL A   1      40.108  35.779  36.895  1.00  0.00     0.127 S 
ATOM     62  O   UNL A   1      41.551  35.557  36.981  1.00  0.00    -0.237 OA
ATOM     63  O   UNL A   1      39.666  36.457  35.675  1.00  0.00    -0.237 OA
ATOM     64  O   UNL A   1      39.472  36.255  38.116  1.00  0.00    -0.744 OA
ENDBRANCH  58  61
ENDBRANCH  40  54
BRANCH  41  65
ATOM     65  C   UNL A   1      42.523  26.285  27.882  1.00  0.00     0.023 A 
ATOM     66  C   UNL A   1      43.481  26.827  27.002  1.00  0.00     0.012 A 
ATOM     67  C   UNL A   1      42.069  24.968  27.675  1.00  0.00     0.148 A 
ATOM     68  C   UNL A   1      43.955  26.085  25.920  1.00  0.00     0.002 A 
ATOM     69  C   UNL A   1      42.585  24.215  26.625  1.00  0.00     0.091 A 
ATOM     70  F   UNL A   1      41.146  24.474  28.512  1.00  0.00    -0.205 F 
ATOM     71  C   UNL A   1      43.515  24.777  25.737  1.00  0.00     0.022 A 
BRANCH  69  72
ATOM     72  S   UNL A   1      42.172  22.481  26.398  1.00  0.00     0.127 S 
ATOM     73  O   UNL A   1      42.983  22.129  25.236  1.00  0.00    -0.237 OA
ATOM     74  O   UNL A   1      42.616  21.893  27.662  1.00  0.00    -0.237 OA
ATOM     75  O   UNL A   1      40.728  22.450  26.201  1.00  0.00    -0.744 OA
ENDBRANCH  69  72
ENDBRANCH  41  65
BRANCH  53  76
ATOM     76  C   UNL A   1      44.828  27.304  34.393  1.00  0.00     0.023 A 
ATOM     77  C   UNL A   1      46.045  28.013  34.379  1.00  0.00     0.012 A 
ATOM     78  C   UNL A   1      44.709  26.147  35.186  1.00  0.00     0.148 A 
ATOM     79  C   UNL A   1      47.135  27.563  35.123  1.00  0.00     0.002 A 
ATOM     80  C   UNL A   1      45.785  25.729  35.960  1.00  0.00     0.091 A 
ATOM     81  F   UNL A   1      43.548  25.475  35.169  1.00  0.00    -0.205 F 
ATOM     82  C   UNL A   1      47.001  26.429  35.922  1.00  0.00     0.022 A 
BRANCH  80  83
ATOM     83  S   UNL A   1      45.671  24.335  37.088  1.00  0.00     0.127 S 
ATOM     84  O   UNL A   1      46.989  24.353  37.719  1.00  0.00    -0.237 OA
ATOM     85  O   UNL A   1      44.570  24.733  37.966  1.00  0.00    -0.237 OA
ATOM     86  O   UNL A   1      45.388  23.173  36.257  1.00  0.00    -0.744 OA
ENDBRANCH  80  83
ENDBRANCH  53  76
ENDBRANCH  27  28
ENDBRANCH  19  22
ENDBRANCH  17  18
ENDBRANCH  16  17
ENDBRANCH   1  16
TORSDOF 19
ENDMDL
MODEL 3
REMARK VINA RESULT:      -9.2      1.943      8.251
REMARK SMILES CCCC[C@H](C(=O)NCCCCNC(=O)c1ccc(-c2c3nc(c(-c4cccc(S(=O)(=O)[O-])c4F)c4ccc([nH]4)c(-c4cccc(S(=O)(=O)[O-])c4F)c4nc(c(-c5cccc(S(=O)(=O)[O-])c5F)c5ccc2[nH]5)C=C4)C=C3)cc1)[C@H](C)O
REMARK SMILES IDX 10 1 9 2 8 3 6 4 7 5 5 7 4 8 3 9 2 10 1 11 79 12 80 13 81 14
REMARK SMILES IDX 11 16 12 17 13 18 14 19 15 21 16 22 17 23 78 24 18 25 77 26
REMARK SMILES IDX 19 27 20 28 21 29 71 30 22 31 76 32 70 33 72 34 23 35 75 36
REMARK SMILES IDX 69 37 68 38 24 40 56 41 36 42 55 43 37 44 40 45 54 46 73 47
REMARK SMILES IDX 38 48 39 49 53 51 74 52 41 53 25 54 26 55 34 56 27 57 29 58
REMARK SMILES IDX 35 59 28 60 30 61 31 62 32 63 33 64 57 65 58 66 66 67 59 68
REMARK SMILES IDX 61 69 67 70 60 71 62 72 63 73 64 74 65 75 42 76 43 77 51 78
REMARK SMILES IDX 44 79 46 80 52 81 45 82 47 83 48 84 49 85 50 86
REMARK H PARENT 8 6 81 15 13 20 72 39 40 50
REMARK Flexibility Score: inf
ROOT
ATOM      1  C   UNL A   1      32.485  29.017  23.428  1.00  0.00     0.023 C 
ENDROOT
BRANCH   1   2
ATOM      2  C   UNL A   1      33.860  28.465  23.069  1.00  0.00     0.116 C 
BRANCH   2   3
ATOM      3  N   UNL A   1      33.835  27.447  22.037  1.00  0.00    -0.356 N 
ATOM      4  C   UNL A   1      33.192  26.251  21.946  1.00  0.00     0.225 C 
ATOM      5  O   UNL A   1      33.091  25.807  20.795  1.00  0.00    -0.275 OA
ATOM      6  H   UNL A   1      34.389  27.662  21.253  1.00  0.00     0.163 HD
BRANCH   4   7
ATOM      7  C   UNL A   1      32.698  25.414  23.157  1.00  0.00     0.107 C 
BRANCH   7   8
ATOM      8  C   UNL A   1      31.169  25.474  23.373  1.00  0.00     0.016 C 
BRANCH   8   9
ATOM      9  C   UNL A   1      30.546  25.662  24.763  1.00  0.00     0.001 C 
BRANCH   9  10
ATOM     10  C   UNL A   1      30.550  24.487  25.747  1.00  0.00    -0.003 C 
ATOM     11  C   UNL A   1      31.800  24.332  26.596  1.00  0.00     0.004 C 
ENDBRANCH   9  10
ENDBRANCH   8   9
ENDBRANCH   7   8
BRANCH   7  12
ATOM     12  C   UNL A   1      33.227  23.958  23.039  1.00  0.00     0.123 C 
ATOM     13  C   UNL A   1      34.736  23.785  23.205  1.00  0.00     0.039 C 
BRANCH  12  14
ATOM     14  O   UNL A   1      32.800  23.352  21.819  1.00  0.00    -0.393 OA
ATOM     15  H   UNL A   1      33.341  22.566  21.643  1.00  0.00     0.210 HD
ENDBRANCH  12  14
ENDBRANCH   7  12
ENDBRANCH   4   7
ENDBRANCH   2   3
ENDBRANCH   1   2
BRANCH   1  16
ATOM     16  C   UNL A   1      32.121  29.008  24.909  1.00  0.00     0.023 C 
BRANCH  16  17
ATOM     17  C   UNL A   1      33.199  29.492  25.876  1.00  0.00     0.116 C 
BRANCH  17  18
ATOM     18  N   UNL A   1      32.920  30.786  26.485  1.00  0.00    -0.352 N 
ATOM     19  C   UNL A   1      33.688  31.519  27.361  1.00  0.00     0.251 C 
ATOM     20  H   UNL A   1      32.060  31.194  26.234  1.00  0.00     0.163 HD
ATOM     21  O   UNL A   1      33.262  32.576  27.818  1.00  0.00    -0.269 OA
BRANCH  19  22
ATOM     22  C   UNL A   1      35.007  31.005  27.784  1.00  0.00     0.039 A 
ATOM     23  C   UNL A   1      36.061  31.908  27.953  1.00  0.00     0.014 A 
ATOM     24  C   UNL A   1      35.189  29.649  28.066  1.00  0.00     0.014 A 
ATOM     25  C   UNL A   1      37.269  31.465  28.497  1.00  0.00     0.010 A 
ATOM     26  C   UNL A   1      36.366  29.225  28.676  1.00  0.00     0.010 A 
ATOM     27  C   UNL A   1      37.415  30.130  28.908  1.00  0.00    -0.014 A 
BRANCH  27  28
ATOM     28  C   UNL A   1      38.634  29.664  29.616  1.00  0.00     0.031 A 
ATOM     29  C   UNL A   1      39.055  30.310  30.908  1.00  0.00     0.074 A 
ATOM     30  C   UNL A   1      39.423  28.735  29.039  1.00  0.00     0.049 A 
ATOM     31  N   UNL A   1      40.124  30.092  31.627  1.00  0.00    -0.248 NA
ATOM     32  C   UNL A   1      38.173  31.359  31.446  1.00  0.00     0.031 C 
ATOM     33  C   UNL A   1      39.175  28.099  27.742  1.00  0.00     0.029 A 
ATOM     34  N   UNL A   1      40.612  28.185  29.453  1.00  0.00    -0.354 N 
ATOM     35  C   UNL A   1      40.067  30.999  32.678  1.00  0.00     0.074 A 
ATOM     36  C   UNL A   1      38.872  31.794  32.484  1.00  0.00     0.031 C 
ATOM     37  C   UNL A   1      40.176  27.246  27.470  1.00  0.00     0.029 A 
ATOM     38  C   UNL A   1      41.149  27.291  28.556  1.00  0.00     0.049 A 
ATOM     39  H   UNL A   1      41.039  28.411  30.311  1.00  0.00     0.167 HD
ATOM     40  C   UNL A   1      40.911  31.138  33.727  1.00  0.00     0.034 A 
ATOM     41  C   UNL A   1      42.297  26.586  28.603  1.00  0.00     0.034 A 
ATOM     42  C   UNL A   1      42.063  30.309  33.949  1.00  0.00     0.049 A 
ATOM     43  C   UNL A   1      43.185  26.715  29.812  1.00  0.00     0.074 A 
ATOM     44  C   UNL A   1      42.923  30.304  35.033  1.00  0.00     0.029 A 
ATOM     45  N   UNL A   1      42.519  29.338  33.072  1.00  0.00    -0.354 N 
ATOM     46  N   UNL A   1      43.020  27.455  30.881  1.00  0.00    -0.248 NA
ATOM     47  C   UNL A   1      44.398  25.883  29.839  1.00  0.00     0.031 C 
ATOM     48  C   UNL A   1      43.906  29.333  34.806  1.00  0.00     0.029 A 
ATOM     49  C   UNL A   1      43.650  28.728  33.586  1.00  0.00     0.049 A 
ATOM     50  H   UNL A   1      42.099  29.114  32.210  1.00  0.00     0.167 HD
ATOM     51  C   UNL A   1      44.087  27.157  31.721  1.00  0.00     0.074 A 
ATOM     52  C   UNL A   1      44.880  26.150  31.046  1.00  0.00     0.031 C 
ATOM     53  C   UNL A   1      44.394  27.684  32.931  1.00  0.00     0.034 A 
BRANCH  40  54
ATOM     54  C   UNL A   1      40.575  32.183  34.759  1.00  0.00     0.023 A 
ATOM     55  C   UNL A   1      41.263  33.415  34.741  1.00  0.00     0.012 A 
ATOM     56  C   UNL A   1      39.552  31.976  35.703  1.00  0.00     0.148 A 
ATOM     57  C   UNL A   1      40.960  34.411  35.667  1.00  0.00     0.002 A 
ATOM     58  C   UNL A   1      39.227  32.990  36.597  1.00  0.00     0.091 A 
ATOM     59  F   UNL A   1      38.926  30.791  35.720  1.00  0.00    -0.205 F 
ATOM     60  C   UNL A   1      39.937  34.203  36.588  1.00  0.00     0.022 A 
BRANCH  58  61
ATOM     61  S   UNL A   1      37.877  32.849  37.773  1.00  0.00     0.127 S 
ATOM     62  O   UNL A   1      36.714  32.822  36.887  1.00  0.00    -0.237 OA
ATOM     63  O   UNL A   1      38.172  31.574  38.430  1.00  0.00    -0.237 OA
ATOM     64  O   UNL A   1      37.979  34.014  38.641  1.00  0.00    -0.744 OA
ENDBRANCH  58  61
ENDBRANCH  40  54
BRANCH  41  65
ATOM     65  C   UNL A   1      42.631  25.631  27.508  1.00  0.00     0.023 A 
ATOM     66  C   UNL A   1      43.512  26.039  26.487  1.00  0.00     0.012 A 
ATOM     67  C   UNL A   1      42.111  24.323  27.483  1.00  0.00     0.148 A 
ATOM     68  C   UNL A   1      43.844  25.174  25.445  1.00  0.00     0.002 A 
ATOM     69  C   UNL A   1      42.488  23.447  26.470  1.00  0.00     0.091 A 
ATOM     70  F   UNL A   1      41.262  23.956  28.454  1.00  0.00    -0.205 F 
ATOM     71  C   UNL A   1      43.341  23.875  25.441  1.00  0.00     0.022 A 
BRANCH  69  72
ATOM     72  S   UNL A   1      41.992  21.720  26.463  1.00  0.00     0.127 S 
ATOM     73  O   UNL A   1      40.588  21.813  26.073  1.00  0.00    -0.237 OA
ATOM     74  O   UNL A   1      42.878  21.151  25.447  1.00  0.00    -0.237 OA
ATOM     75  O   UNL A   1      42.248  21.238  27.814  1.00  0.00    -0.744 OA
ENDBRANCH  69  72
ENDBRANCH  41  65
BRANCH  53  76
ATOM     76  C   UNL A   1      45.625  27.166  33.626  1.00  0.00     0.023 A 
ATOM     77  C   UNL A   1      46.859  27.816  33.430  1.00  0.00     0.012 A 
ATOM     78  C   UNL A   1      45.545  26.091  34.533  1.00  0.00     0.148 A 
ATOM     79  C   UNL A   1      48.000  27.388  34.106  1.00  0.00     0.002 A 
ATOM     80  C   UNL A   1      46.677  25.699  35.238  1.00  0.00     0.091 A 
ATOM     81  F   UNL A   1      44.365  25.472  34.691  1.00  0.00    -0.205 F 
ATOM     82  C   UNL A   1      47.907  26.339  35.018  1.00  0.00     0.022 A 
BRANCH  80  83
ATOM     83  S   UNL A   1      46.626  24.419  36.498  1.00  0.00     0.127 S 
ATOM     84  O   UNL A   1      46.182  23.259  35.727  1.00  0.00    -0.237 OA
ATOM     85  O   UNL A   1      48.020  24.360  36.940  1.00  0.00    -0.237 OA
ATOM     86  O   UNL A   1      45.694  24.895  37.511  1.00  0.00    -0.744 OA
ENDBRANCH  80  83
ENDBRANCH  53  76
ENDBRANCH  27  28
ENDBRANCH  19  22
ENDBRANCH  17  18
ENDBRANCH  16  17
ENDBRANCH   1  16
TORSDOF 19
ENDMDL
