MODEL 1
REMARK VINA RESULT:     -13.8      0.000      0.000
REMARK SMILES O=C(NCCCCNC(=O)c1ccc(-c2c3nc(c(-c4cccc(S(=O)(=O)[O-])c4F)c4ccc([nH]4)c(-c4cccc(S(=O)(=O)[O-])c4F)c4nc(c(-c5cccc(S(=O)(=O)[O-])c5F)c5ccc2[nH]5)C=C4)C=C3)cc1)C1=Cc2cc(Cl)cc(-c3ccc(Cl)cc3)c2O[C@@H]1C(F)(F)F
REMARK SMILES IDX 6 1 5 2 4 3 3 4 1 5 2 6 74 8 75 9 91 10 76 11 90 12 77 13
REMARK SMILES IDX 89 14 78 15 81 16 79 17 80 18 92 19 93 20 94 21 95 22 82 23
REMARK SMILES IDX 83 24 88 25 84 26 87 27 85 28 86 29 7 30 8 31 9 32 10 34
REMARK SMILES IDX 11 35 12 36 73 37 13 38 72 39 14 40 15 41 16 42 66 43 17 44
REMARK SMILES IDX 71 45 65 46 67 47 18 48 70 49 64 50 63 51 19 53 51 54 31 55
REMARK SMILES IDX 50 56 32 57 35 58 49 59 68 60 33 61 34 62 48 64 69 65 36 66
REMARK SMILES IDX 20 67 21 68 29 69 22 70 24 71 30 72 23 73 25 74 26 75 27 76
REMARK SMILES IDX 28 77 52 78 53 79 61 80 54 81 56 82 62 83 55 84 57 85 58 86
REMARK SMILES IDX 59 87 60 88 37 89 38 90 46 91 39 92 41 93 47 94 40 95 42 96
REMARK SMILES IDX 43 97 44 98 45 99
REMARK H PARENT 3 7 8 33 67 52 35 63
REMARK Flexibility Score: inf
ROOT
ATOM      1  C   UNL A   1      31.605  29.041  26.487  1.00  0.00     0.023 C 
ENDROOT
BRANCH   1   2
ATOM      2  C   UNL A   1      32.142  27.628  26.709  1.00  0.00     0.023 C 
BRANCH   2   3
ATOM      3  C   UNL A   1      31.264  26.469  26.244  1.00  0.00     0.116 C 
BRANCH   3   4
ATOM      4  N   UNL A   1      31.512  25.180  26.870  1.00  0.00    -0.352 N 
ATOM      5  O   UNL A   1      32.469  23.173  27.199  1.00  0.00    -0.270 OA
ATOM      6  C   UNL A   1      32.309  24.146  26.460  1.00  0.00     0.251 C 
ATOM      7  H   UNL A   1      31.033  25.029  27.717  1.00  0.00     0.163 HD
BRANCH   6   8
ATOM      8  C   UNL A   1      33.068  24.160  25.169  1.00  0.00     0.067 C 
ATOM      9  C   UNL A   1      34.387  24.407  25.094  1.00  0.00     0.025 C 
ATOM     10  C   UNL A   1      32.478  23.209  24.147  1.00  0.00     0.314 C 
ATOM     11  C   UNL A   1      35.149  23.142  24.903  1.00  0.00     0.019 A 
ATOM     12  O   UNL A   1      33.149  21.921  24.221  1.00  0.00    -0.475 OA
ATOM     13  C   UNL A   1      36.493  23.127  25.291  1.00  0.00     0.032 A 
ATOM     14  C   UNL A   1      34.470  21.939  24.615  1.00  0.00     0.135 A 
ATOM     15  C   UNL A   1      37.129  21.908  25.484  1.00  0.00     0.042 A 
ATOM     16  C   UNL A   1      35.101  20.705  24.849  1.00  0.00     0.026 A 
ATOM     17  Cl  UNL A   1      38.733  21.881  26.103  1.00  0.00    -0.084 Cl
ATOM     18  C   UNL A   1      36.441  20.712  25.284  1.00  0.00     0.033 A 
BRANCH  10  19
ATOM     19  C   UNL A   1      32.487  23.783  22.718  1.00  0.00     0.429 C 
ATOM     20  F   UNL A   1      33.412  24.761  22.575  1.00  0.00    -0.167 F 
ATOM     21  F   UNL A   1      32.780  22.830  21.799  1.00  0.00    -0.167 F 
ATOM     22  F   UNL A   1      31.292  24.314  22.359  1.00  0.00    -0.167 F 
ENDBRANCH  10  19
BRANCH  16  23
ATOM     23  C   UNL A   1      34.377  19.425  24.841  1.00  0.00    -0.015 A 
ATOM     24  C   UNL A   1      33.162  19.300  25.539  1.00  0.00     0.010 A 
ATOM     25  C   UNL A   1      34.928  18.282  24.248  1.00  0.00     0.010 A 
ATOM     26  C   UNL A   1      32.547  18.056  25.698  1.00  0.00     0.021 A 
ATOM     27  C   UNL A   1      34.306  17.038  24.393  1.00  0.00     0.021 A 
ATOM     28  C   UNL A   1      33.130  16.927  25.134  1.00  0.00     0.041 A 
ATOM     29  Cl  UNL A   1      32.410  15.385  25.369  1.00  0.00    -0.084 Cl
ENDBRANCH  16  23
ENDBRANCH   6   8
ENDBRANCH   3   4
ENDBRANCH   2   3
ENDBRANCH   1   2
BRANCH   1  30
ATOM     30  C   UNL A   1      32.604  30.138  26.116  1.00  0.00     0.116 C 
BRANCH  30  31
ATOM     31  N   UNL A   1      32.435  31.418  26.791  1.00  0.00    -0.352 N 
ATOM     32  C   UNL A   1      33.379  32.145  27.498  1.00  0.00     0.251 C 
ATOM     33  H   UNL A   1      31.536  31.818  26.738  1.00  0.00     0.163 HD
ATOM     34  O   UNL A   1      33.095  33.231  27.984  1.00  0.00    -0.269 OA
BRANCH  32  35
ATOM     35  C   UNL A   1      34.723  31.558  27.723  1.00  0.00     0.039 A 
ATOM     36  C   UNL A   1      35.800  32.425  27.930  1.00  0.00     0.014 A 
ATOM     37  C   UNL A   1      34.891  30.178  27.858  1.00  0.00     0.014 A 
ATOM     38  C   UNL A   1      37.007  31.916  28.418  1.00  0.00     0.010 A 
ATOM     39  C   UNL A   1      36.074  29.682  28.405  1.00  0.00     0.010 A 
ATOM     40  C   UNL A   1      37.126  30.553  28.737  1.00  0.00    -0.014 A 
BRANCH  40  41
ATOM     41  C   UNL A   1      38.268  30.061  29.555  1.00  0.00     0.031 A 
ATOM     42  C   UNL A   1      38.466  30.496  30.977  1.00  0.00     0.074 A 
ATOM     43  C   UNL A   1      39.210  29.297  28.959  1.00  0.00     0.049 A 
ATOM     44  N   UNL A   1      39.418  30.163  31.812  1.00  0.00    -0.248 NA
ATOM     45  C   UNL A   1      37.488  31.445  31.529  1.00  0.00     0.031 C 
ATOM     46  C   UNL A   1      39.205  28.900  27.548  1.00  0.00     0.029 A 
ATOM     47  N   UNL A   1      40.369  28.748  29.450  1.00  0.00    -0.354 N 
ATOM     48  C   UNL A   1      39.171  30.874  32.978  1.00  0.00     0.074 A 
ATOM     49  C   UNL A   1      37.994  31.683  32.732  1.00  0.00     0.031 C 
ATOM     50  C   UNL A   1      40.304  28.177  27.289  1.00  0.00     0.029 A 
ATOM     51  C   UNL A   1      41.105  28.072  28.504  1.00  0.00     0.049 A 
ATOM     52  H   UNL A   1      40.648  28.831  30.391  1.00  0.00     0.167 HD
ATOM     53  C   UNL A   1      39.840  30.835  34.156  1.00  0.00     0.034 A 
ATOM     54  C   UNL A   1      42.291  27.439  28.595  1.00  0.00     0.034 A 
ATOM     55  C   UNL A   1      40.987  30.004  34.412  1.00  0.00     0.049 A 
ATOM     56  C   UNL A   1      42.986  27.363  29.927  1.00  0.00     0.074 A 
ATOM     57  C   UNL A   1      41.654  29.806  35.608  1.00  0.00     0.029 A 
ATOM     58  N   UNL A   1      41.651  29.251  33.457  1.00  0.00    -0.354 N 
ATOM     59  N   UNL A   1      42.612  27.865  31.077  1.00  0.00    -0.248 NA
ATOM     60  C   UNL A   1      44.245  26.605  29.981  1.00  0.00     0.031 C 
ATOM     61  C   UNL A   1      42.733  28.946  35.373  1.00  0.00     0.029 A 
ATOM     62  C   UNL A   1      42.732  28.600  34.031  1.00  0.00     0.049 A 
ATOM     63  H   UNL A   1      41.393  29.187  32.509  1.00  0.00     0.167 HD
ATOM     64  C   UNL A   1      43.573  27.466  31.998  1.00  0.00     0.074 A 
ATOM     65  C   UNL A   1      44.534  26.657  31.276  1.00  0.00     0.031 C 
ATOM     66  C   UNL A   1      43.660  27.760  33.318  1.00  0.00     0.034 A 
BRANCH  53  67
ATOM     67  C   UNL A   1      39.301  31.666  35.289  1.00  0.00     0.023 A 
ATOM     68  C   UNL A   1      38.371  31.090  36.179  1.00  0.00     0.012 A 
ATOM     69  C   UNL A   1      39.749  32.981  35.513  1.00  0.00     0.148 A 
ATOM     70  C   UNL A   1      37.870  31.821  37.256  1.00  0.00     0.002 A 
ATOM     71  C   UNL A   1      39.274  33.691  36.612  1.00  0.00     0.091 A 
ATOM     72  F   UNL A   1      40.616  33.520  34.645  1.00  0.00    -0.205 F 
ATOM     73  C   UNL A   1      38.328  33.116  37.477  1.00  0.00     0.022 A 
BRANCH  71  74
ATOM     74  S   UNL A   1      39.864  35.339  37.018  1.00  0.00     0.127 S 
ATOM     75  O   UNL A   1      39.167  35.600  38.276  1.00  0.00    -0.237 OA
ATOM     76  O   UNL A   1      41.306  35.130  37.154  1.00  0.00    -0.237 OA
ATOM     77  O   UNL A   1      39.481  36.183  35.896  1.00  0.00    -0.744 OA
ENDBRANCH  71  74
ENDBRANCH  53  67
BRANCH  54  78
ATOM     78  C   UNL A   1      42.857  26.762  27.393  1.00  0.00     0.023 A 
ATOM     79  C   UNL A   1      43.701  27.483  26.527  1.00  0.00     0.012 A 
ATOM     80  C   UNL A   1      42.614  25.398  27.139  1.00  0.00     0.148 A 
ATOM     81  C   UNL A   1      44.275  26.864  25.416  1.00  0.00     0.002 A 
ATOM     82  C   UNL A   1      43.233  24.773  26.063  1.00  0.00     0.091 A 
ATOM     83  F   UNL A   1      41.795  24.733  27.967  1.00  0.00    -0.205 F 
ATOM     84  C   UNL A   1      44.052  25.508  25.191  1.00  0.00     0.022 A 
BRANCH  82  85
ATOM     85  S   UNL A   1      43.116  23.002  25.789  1.00  0.00     0.127 S 
ATOM     86  O   UNL A   1      43.587  22.879  24.414  1.00  0.00    -0.237 OA
ATOM     87  O   UNL A   1      44.030  22.475  26.805  1.00  0.00    -0.237 OA
ATOM     88  O   UNL A   1      41.717  22.665  26.018  1.00  0.00    -0.744 OA
ENDBRANCH  82  85
ENDBRANCH  54  78
BRANCH  66  89
ATOM     89  C   UNL A   1      44.834  27.207  34.084  1.00  0.00     0.023 A 
ATOM     90  C   UNL A   1      46.018  27.965  34.176  1.00  0.00     0.012 A 
ATOM     91  C   UNL A   1      44.741  25.983  34.775  1.00  0.00     0.148 A 
ATOM     92  C   UNL A   1      47.100  27.503  34.926  1.00  0.00     0.002 A 
ATOM     93  C   UNL A   1      45.808  25.550  35.555  1.00  0.00     0.091 A 
ATOM     94  F   UNL A   1      43.614  25.266  34.658  1.00  0.00    -0.205 F 
ATOM     95  C   UNL A   1      46.990  26.304  35.624  1.00  0.00     0.022 A 
BRANCH  93  96
ATOM     96  S   UNL A   1      45.724  24.060  36.557  1.00  0.00     0.127 S 
ATOM     97  O   UNL A   1      47.048  24.043  37.177  1.00  0.00    -0.237 OA
ATOM     98  O   UNL A   1      44.626  24.363  37.476  1.00  0.00    -0.237 OA
ATOM     99  O   UNL A   1      45.451  22.970  35.631  1.00  0.00    -0.744 OA
ENDBRANCH  93  96
ENDBRANCH  66  89
ENDBRANCH  40  41
ENDBRANCH  32  35
ENDBRANCH  30  31
ENDBRANCH   1  30
TORSDOF 16
ENDMDL
MODEL 2
REMARK VINA RESULT:     -13.6      2.630      3.249
REMARK SMILES O=C(NCCCCNC(=O)c1ccc(-c2c3nc(c(-c4cccc(S(=O)(=O)[O-])c4F)c4ccc([nH]4)c(-c4cccc(S(=O)(=O)[O-])c4F)c4nc(c(-c5cccc(S(=O)(=O)[O-])c5F)c5ccc2[nH]5)C=C4)C=C3)cc1)C1=Cc2cc(Cl)cc(-c3ccc(Cl)cc3)c2O[C@@H]1C(F)(F)F
REMARK SMILES IDX 6 1 5 2 4 3 3 4 1 5 2 6 74 8 75 9 91 10 76 11 90 12 77 13
REMARK SMILES IDX 89 14 78 15 81 16 79 17 80 18 92 19 93 20 94 21 95 22 82 23
REMARK SMILES IDX 83 24 88 25 84 26 87 27 85 28 86 29 7 30 8 31 9 32 10 34
REMARK SMILES IDX 11 35 12 36 73 37 13 38 72 39 14 40 15 41 16 42 66 43 17 44
REMARK SMILES IDX 71 45 65 46 67 47 18 48 70 49 64 50 63 51 19 53 51 54 31 55
REMARK SMILES IDX 50 56 32 57 35 58 49 59 68 60 33 61 34 62 48 64 69 65 36 66
REMARK SMILES IDX 20 67 21 68 29 69 22 70 24 71 30 72 23 73 25 74 26 75 27 76
REMARK SMILES IDX 28 77 52 78 53 79 61 80 54 81 56 82 62 83 55 84 57 85 58 86
REMARK SMILES IDX 59 87 60 88 37 89 38 90 46 91 39 92 41 93 47 94 40 95 42 96
REMARK SMILES IDX 43 97 44 98 45 99
REMARK H PARENT 3 7 8 33 67 52 35 63
REMARK Flexibility Score: inf
ROOT
ATOM      1  C   UNL A   1      33.024  28.618  27.440  1.00  0.00     0.023 C 
ENDROOT
BRANCH   1   2
ATOM      2  C   UNL A   1      31.557  28.219  27.291  1.00  0.00     0.023 C 
BRANCH   2   3
ATOM      3  C   UNL A   1      31.237  27.101  26.303  1.00  0.00     0.116 C 
BRANCH   3   4
ATOM      4  N   UNL A   1      31.345  25.742  26.809  1.00  0.00    -0.352 N 
ATOM      5  O   UNL A   1      32.130  23.643  26.991  1.00  0.00    -0.270 OA
ATOM      6  C   UNL A   1      32.093  24.693  26.347  1.00  0.00     0.251 C 
ATOM      7  H   UNL A   1      30.798  25.548  27.604  1.00  0.00     0.163 HD
BRANCH   6   8
ATOM      8  C   UNL A   1      32.941  24.772  25.115  1.00  0.00     0.067 C 
ATOM      9  C   UNL A   1      34.224  25.173  25.131  1.00  0.00     0.025 C 
ATOM     10  C   UNL A   1      32.547  23.739  24.080  1.00  0.00     0.314 C 
ATOM     11  C   UNL A   1      35.142  24.005  25.031  1.00  0.00     0.019 A 
ATOM     12  O   UNL A   1      33.357  22.541  24.239  1.00  0.00    -0.475 OA
ATOM     13  C   UNL A   1      36.445  24.157  25.518  1.00  0.00     0.032 A 
ATOM     14  C   UNL A   1      34.632  22.724  24.729  1.00  0.00     0.135 A 
ATOM     15  C   UNL A   1      37.203  23.026  25.791  1.00  0.00     0.042 A 
ATOM     16  C   UNL A   1      35.384  21.579  25.043  1.00  0.00     0.026 A 
ATOM     17  Cl  UNL A   1      38.747  23.203  26.527  1.00  0.00    -0.084 Cl
ATOM     18  C   UNL A   1      36.677  21.753  25.575  1.00  0.00     0.033 A 
BRANCH  10  19
ATOM     19  C   UNL A   1      32.598  24.282  22.640  1.00  0.00     0.429 C 
ATOM     20  F   UNL A   1      33.514  25.270  22.507  1.00  0.00    -0.167 F 
ATOM     21  F   UNL A   1      32.935  23.314  21.753  1.00  0.00    -0.167 F 
ATOM     22  F   UNL A   1      31.408  24.788  22.229  1.00  0.00    -0.167 F 
ENDBRANCH  10  19
BRANCH  16  23
ATOM     23  C   UNL A   1      34.819  20.222  25.018  1.00  0.00    -0.015 A 
ATOM     24  C   UNL A   1      35.632  19.127  24.672  1.00  0.00     0.010 A 
ATOM     25  C   UNL A   1      33.450  20.000  25.216  1.00  0.00     0.010 A 
ATOM     26  C   UNL A   1      35.085  17.859  24.465  1.00  0.00     0.021 A 
ATOM     27  C   UNL A   1      32.902  18.728  25.026  1.00  0.00     0.021 A 
ATOM     28  C   UNL A   1      33.718  17.668  24.631  1.00  0.00     0.041 A 
ATOM     29  Cl  UNL A   1      33.027  16.124  24.327  1.00  0.00    -0.084 Cl
ENDBRANCH  16  23
ENDBRANCH   6   8
ENDBRANCH   3   4
ENDBRANCH   2   3
ENDBRANCH   1   2
BRANCH   1  30
ATOM     30  C   UNL A   1      33.521  29.834  26.656  1.00  0.00     0.116 C 
BRANCH  30  31
ATOM     31  N   UNL A   1      33.706  31.061  27.420  1.00  0.00    -0.352 N 
ATOM     32  C   UNL A   1      34.790  31.429  28.199  1.00  0.00     0.251 C 
ATOM     33  H   UNL A   1      32.967  31.711  27.376  1.00  0.00     0.163 HD
ATOM     34  O   UNL A   1      34.817  32.517  28.758  1.00  0.00    -0.269 OA
BRANCH  32  35
ATOM     35  C   UNL A   1      35.892  30.458  28.410  1.00  0.00     0.039 A 
ATOM     36  C   UNL A   1      36.947  30.441  27.493  1.00  0.00     0.014 A 
ATOM     37  C   UNL A   1      35.946  29.673  29.564  1.00  0.00     0.014 A 
ATOM     38  C   UNL A   1      38.120  29.749  27.808  1.00  0.00     0.010 A 
ATOM     39  C   UNL A   1      37.140  29.036  29.905  1.00  0.00     0.010 A 
ATOM     40  C   UNL A   1      38.255  29.111  29.052  1.00  0.00    -0.014 A 
BRANCH  40  41
ATOM     41  C   UNL A   1      39.590  28.662  29.535  1.00  0.00     0.031 A 
ATOM     42  C   UNL A   1      40.332  29.404  30.608  1.00  0.00     0.074 A 
ATOM     43  C   UNL A   1      40.194  27.631  28.905  1.00  0.00     0.049 A 
ATOM     44  N   UNL A   1      41.507  29.143  31.123  1.00  0.00    -0.248 NA
ATOM     45  C   UNL A   1      39.690  30.607  31.156  1.00  0.00     0.031 C 
ATOM     46  C   UNL A   1      39.637  26.896  27.765  1.00  0.00     0.029 A 
ATOM     47  N   UNL A   1      41.419  27.043  29.107  1.00  0.00    -0.354 N 
ATOM     48  C   UNL A   1      41.757  30.156  32.039  1.00  0.00     0.074 A 
ATOM     49  C   UNL A   1      40.623  31.057  31.985  1.00  0.00     0.031 C 
ATOM     50  C   UNL A   1      40.514  25.963  27.370  1.00  0.00     0.029 A 
ATOM     51  C   UNL A   1      41.705  26.039  28.209  1.00  0.00     0.049 A 
ATOM     52  H   UNL A   1      42.034  27.314  29.826  1.00  0.00     0.167 HD
ATOM     53  C   UNL A   1      42.815  30.307  32.871  1.00  0.00     0.034 A 
ATOM     54  C   UNL A   1      42.800  25.266  28.070  1.00  0.00     0.034 A 
ATOM     55  C   UNL A   1      43.924  29.393  32.951  1.00  0.00     0.049 A 
ATOM     56  C   UNL A   1      43.938  25.418  29.041  1.00  0.00     0.074 A 
ATOM     57  C   UNL A   1      44.979  29.397  33.847  1.00  0.00     0.029 A 
ATOM     58  N   UNL A   1      44.137  28.326  32.093  1.00  0.00    -0.354 N 
ATOM     59  N   UNL A   1      44.052  26.247  30.049  1.00  0.00    -0.248 NA
ATOM     60  C   UNL A   1      45.079  24.504  28.882  1.00  0.00     0.031 C 
ATOM     61  C   UNL A   1      45.839  28.343  33.520  1.00  0.00     0.029 A 
ATOM     62  C   UNL A   1      45.314  27.675  32.426  1.00  0.00     0.049 A 
ATOM     63  H   UNL A   1      43.538  28.068  31.355  1.00  0.00     0.167 HD
ATOM     64  C   UNL A   1      45.264  25.943  30.658  1.00  0.00     0.074 A 
ATOM     65  C   UNL A   1      45.835  24.833  29.922  1.00  0.00     0.031 C 
ATOM     66  C   UNL A   1      45.857  26.543  31.719  1.00  0.00     0.034 A 
BRANCH  53  67
ATOM     67  C   UNL A   1      42.790  31.474  33.823  1.00  0.00     0.023 A 
ATOM     68  C   UNL A   1      43.263  32.727  33.383  1.00  0.00     0.012 A 
ATOM     69  C   UNL A   1      42.250  31.353  35.117  1.00  0.00     0.148 A 
ATOM     70  C   UNL A   1      43.231  33.835  34.228  1.00  0.00     0.002 A 
ATOM     71  C   UNL A   1      42.185  32.473  35.941  1.00  0.00     0.091 A 
ATOM     72  F   UNL A   1      41.824  30.150  35.526  1.00  0.00    -0.205 F 
ATOM     73  C   UNL A   1      42.684  33.711  35.502  1.00  0.00     0.022 A 
BRANCH  71  74
ATOM     74  S   UNL A   1      41.430  32.424  37.570  1.00  0.00     0.127 S 
ATOM     75  O   UNL A   1      40.069  31.994  37.251  1.00  0.00    -0.237 OA
ATOM     76  O   UNL A   1      42.239  31.419  38.260  1.00  0.00    -0.237 OA
ATOM     77  O   UNL A   1      41.558  33.772  38.106  1.00  0.00    -0.744 OA
ENDBRANCH  71  74
ENDBRANCH  53  67
BRANCH  54  78
ATOM     78  C   UNL A   1      42.833  24.226  27.003  1.00  0.00     0.023 A 
ATOM     79  C   UNL A   1      43.523  24.487  25.804  1.00  0.00     0.012 A 
ATOM     80  C   UNL A   1      42.240  22.963  27.195  1.00  0.00     0.148 A 
ATOM     81  C   UNL A   1      43.603  23.516  24.804  1.00  0.00     0.002 A 
ATOM     82  C   UNL A   1      42.371  21.981  26.219  1.00  0.00     0.091 A 
ATOM     83  F   UNL A   1      41.574  22.739  28.337  1.00  0.00    -0.205 F 
ATOM     84  C   UNL A   1      43.039  22.261  25.016  1.00  0.00     0.022 A 
BRANCH  82  85
ATOM     85  S   UNL A   1      41.802  20.296  26.474  1.00  0.00     0.127 S 
ATOM     86  O   UNL A   1      42.411  19.600  25.346  1.00  0.00    -0.237 OA
ATOM     87  O   UNL A   1      42.377  19.975  27.782  1.00  0.00    -0.237 OA
ATOM     88  O   UNL A   1      40.347  20.373  26.468  1.00  0.00    -0.744 OA
ENDBRANCH  82  85
ENDBRANCH  54  78
BRANCH  66  89
ATOM     89  C   UNL A   1      47.198  26.018  32.162  1.00  0.00     0.023 A 
ATOM     90  C   UNL A   1      47.268  25.140  33.261  1.00  0.00     0.012 A 
ATOM     91  C   UNL A   1      48.372  26.327  31.447  1.00  0.00     0.148 A 
ATOM     92  C   UNL A   1      48.490  24.595  33.657  1.00  0.00     0.002 A 
ATOM     93  C   UNL A   1      49.579  25.747  31.821  1.00  0.00     0.091 A 
ATOM     94  F   UNL A   1      48.288  27.181  30.416  1.00  0.00    -0.205 F 
ATOM     95  C   UNL A   1      49.641  24.887  32.931  1.00  0.00     0.022 A 
BRANCH  93  96
ATOM     96  S   UNL A   1      51.097  25.998  30.893  1.00  0.00     0.127 S 
ATOM     97  O   UNL A   1      52.046  25.177  31.643  1.00  0.00    -0.237 OA
ATOM     98  O   UNL A   1      50.747  25.472  29.572  1.00  0.00    -0.237 OA
ATOM     99  O   UNL A   1      51.350  27.433  30.921  1.00  0.00    -0.744 OA
ENDBRANCH  93  96
ENDBRANCH  66  89
ENDBRANCH  40  41
ENDBRANCH  32  35
ENDBRANCH  30  31
ENDBRANCH   1  30
TORSDOF 16
ENDMDL
MODEL 3
REMARK VINA RESULT:     -13.5      4.909     10.357
REMARK SMILES O=C(NCCCCNC(=O)c1ccc(-c2c3nc(c(-c4cccc(S(=O)(=O)[O-])c4F)c4ccc([nH]4)c(-c4cccc(S(=O)(=O)[O-])c4F)c4nc(c(-c5cccc(S(=O)(=O)[O-])c5F)c5ccc2[nH]5)C=C4)C=C3)cc1)C1=Cc2cc(Cl)cc(-c3ccc(Cl)cc3)c2O[C@@H]1C(F)(F)F
REMARK SMILES IDX 6 1 5 2 4 3 3 4 1 5 2 6 74 8 75 9 91 10 76 11 90 12 77 13
REMARK SMILES IDX 89 14 78 15 81 16 79 17 80 18 92 19 93 20 94 21 95 22 82 23
REMARK SMILES IDX 83 24 88 25 84 26 87 27 85 28 86 29 7 30 8 31 9 32 10 34
REMARK SMILES IDX 11 35 12 36 73 37 13 38 72 39 14 40 15 41 16 42 66 43 17 44
REMARK SMILES IDX 71 45 65 46 67 47 18 48 70 49 64 50 63 51 19 53 51 54 31 55
REMARK SMILES IDX 50 56 32 57 35 58 49 59 68 60 33 61 34 62 48 64 69 65 36 66
REMARK SMILES IDX 20 67 21 68 29 69 22 70 24 71 30 72 23 73 25 74 26 75 27 76
REMARK SMILES IDX 28 77 52 78 53 79 61 80 54 81 56 82 62 83 55 84 57 85 58 86
REMARK SMILES IDX 59 87 60 88 37 89 38 90 46 91 39 92 41 93 47 94 40 95 42 96
REMARK SMILES IDX 43 97 44 98 45 99
REMARK H PARENT 3 7 8 33 67 52 35 63
REMARK Flexibility Score: inf
ROOT
ATOM      1  C   UNL A   1      35.734  21.984  24.359  1.00  0.00     0.023 C 
ENDROOT
BRANCH   1   2
ATOM      2  C   UNL A   1      34.249  21.656  24.506  1.00  0.00     0.023 C 
BRANCH   2   3
ATOM      3  C   UNL A   1      33.308  22.195  23.432  1.00  0.00     0.116 C 
BRANCH   3   4
ATOM      4  N   UNL A   1      33.637  23.499  22.880  1.00  0.00    -0.352 N 
ATOM      5  O   UNL A   1      33.959  25.724  22.839  1.00  0.00    -0.270 OA
ATOM      6  C   UNL A   1      33.514  24.743  23.438  1.00  0.00     0.251 C 
ATOM      7  H   UNL A   1      34.006  23.484  21.967  1.00  0.00     0.163 HD
BRANCH   6   8
ATOM      8  C   UNL A   1      32.918  24.976  24.792  1.00  0.00     0.067 C 
ATOM      9  C   UNL A   1      33.583  25.578  25.794  1.00  0.00     0.025 C 
ATOM     10  C   UNL A   1      31.418  25.179  24.731  1.00  0.00     0.314 C 
ATOM     11  C   UNL A   1      33.135  26.990  25.949  1.00  0.00     0.019 A 
ATOM     12  O   UNL A   1      31.111  26.598  24.643  1.00  0.00    -0.475 OA
ATOM     13  C   UNL A   1      34.014  27.888  26.563  1.00  0.00     0.032 A 
ATOM     14  C   UNL A   1      32.002  27.457  25.251  1.00  0.00     0.135 A 
ATOM     15  C   UNL A   1      33.815  29.252  26.399  1.00  0.00     0.042 A 
ATOM     16  C   UNL A   1      31.822  28.837  25.051  1.00  0.00     0.026 A 
ATOM     17  Cl  UNL A   1      34.973  30.356  27.027  1.00  0.00    -0.084 Cl
ATOM     18  C   UNL A   1      32.745  29.724  25.640  1.00  0.00     0.033 A 
BRANCH  10  19
ATOM     19  C   UNL A   1      30.673  24.499  25.894  1.00  0.00     0.429 C 
ATOM     20  F   UNL A   1      29.557  25.180  26.244  1.00  0.00    -0.167 F 
ATOM     21  F   UNL A   1      30.279  23.243  25.569  1.00  0.00    -0.167 F 
ATOM     22  F   UNL A   1      31.435  24.389  27.011  1.00  0.00    -0.167 F 
ENDBRANCH  10  19
BRANCH  16  23
ATOM     23  C   UNL A   1      30.833  29.384  24.110  1.00  0.00    -0.015 A 
ATOM     24  C   UNL A   1      30.818  28.949  22.773  1.00  0.00     0.010 A 
ATOM     25  C   UNL A   1      29.971  30.424  24.484  1.00  0.00     0.010 A 
ATOM     26  C   UNL A   1      30.015  29.576  21.819  1.00  0.00     0.021 A 
ATOM     27  C   UNL A   1      29.154  31.043  23.534  1.00  0.00     0.021 A 
ATOM     28  C   UNL A   1      29.195  30.632  22.202  1.00  0.00     0.041 A 
ATOM     29  Cl  UNL A   1      28.242  31.445  21.026  1.00  0.00    -0.084 Cl
ENDBRANCH  16  23
ENDBRANCH   6   8
ENDBRANCH   3   4
ENDBRANCH   2   3
ENDBRANCH   1   2
BRANCH   1  30
ATOM     30  C   UNL A   1      36.630  21.820  25.588  1.00  0.00     0.116 C 
BRANCH  30  31
ATOM     31  N   UNL A   1      37.820  20.997  25.413  1.00  0.00    -0.352 N 
ATOM     32  C   UNL A   1      39.091  21.212  25.920  1.00  0.00     0.251 C 
ATOM     33  H   UNL A   1      37.706  20.186  24.866  1.00  0.00     0.163 HD
ATOM     34  O   UNL A   1      39.989  20.407  25.715  1.00  0.00    -0.269 OA
BRANCH  32  35
ATOM     35  C   UNL A   1      39.373  22.468  26.657  1.00  0.00     0.039 A 
ATOM     36  C   UNL A   1      40.452  22.490  27.545  1.00  0.00     0.014 A 
ATOM     37  C   UNL A   1      38.666  23.640  26.375  1.00  0.00     0.014 A 
ATOM     38  C   UNL A   1      40.914  23.715  28.035  1.00  0.00     0.010 A 
ATOM     39  C   UNL A   1      39.168  24.865  26.815  1.00  0.00     0.010 A 
ATOM     40  C   UNL A   1      40.326  24.917  27.608  1.00  0.00    -0.014 A 
BRANCH  40  41
ATOM     41  C   UNL A   1      41.003  26.221  27.851  1.00  0.00     0.031 A 
ATOM     42  C   UNL A   1      42.405  26.482  27.386  1.00  0.00     0.074 A 
ATOM     43  C   UNL A   1      40.375  27.144  28.612  1.00  0.00     0.049 A 
ATOM     44  N   UNL A   1      43.131  27.562  27.534  1.00  0.00    -0.248 NA
ATOM     45  C   UNL A   1      43.094  25.386  26.689  1.00  0.00     0.031 C 
ATOM     46  C   UNL A   1      39.057  26.973  29.231  1.00  0.00     0.029 A 
ATOM     47  N   UNL A   1      40.771  28.393  29.025  1.00  0.00    -0.354 N 
ATOM     48  C   UNL A   1      44.366  27.272  26.970  1.00  0.00     0.074 A 
ATOM     49  C   UNL A   1      44.303  25.902  26.506  1.00  0.00     0.031 C 
ATOM     50  C   UNL A   1      38.757  28.069  29.942  1.00  0.00     0.029 A 
ATOM     51  C   UNL A   1      39.864  29.016  29.852  1.00  0.00     0.049 A 
ATOM     52  H   UNL A   1      41.624  28.804  28.755  1.00  0.00     0.167 HD
ATOM     53  C   UNL A   1      45.444  28.081  26.823  1.00  0.00     0.034 A 
ATOM     54  C   UNL A   1      39.910  30.212  30.471  1.00  0.00     0.034 A 
ATOM     55  C   UNL A   1      45.495  29.454  27.253  1.00  0.00     0.049 A 
ATOM     56  C   UNL A   1      41.094  31.113  30.248  1.00  0.00     0.074 A 
ATOM     57  C   UNL A   1      46.495  30.386  27.037  1.00  0.00     0.029 A 
ATOM     58  N   UNL A   1      44.517  30.089  28.002  1.00  0.00    -0.354 N 
ATOM     59  N   UNL A   1      42.162  30.898  29.520  1.00  0.00    -0.248 NA
ATOM     60  C   UNL A   1      41.061  32.432  30.896  1.00  0.00     0.031 C 
ATOM     61  C   UNL A   1      46.130  31.579  27.671  1.00  0.00     0.029 A 
ATOM     62  C   UNL A   1      44.897  31.393  28.273  1.00  0.00     0.049 A 
ATOM     63  H   UNL A   1      43.674  29.673  28.298  1.00  0.00     0.167 HD
ATOM     64  C   UNL A   1      42.919  32.061  29.604  1.00  0.00     0.074 A 
ATOM     65  C   UNL A   1      42.174  32.988  30.432  1.00  0.00     0.031 C 
ATOM     66  C   UNL A   1      44.131  32.327  29.059  1.00  0.00     0.034 A 
BRANCH  53  67
ATOM     67  C   UNL A   1      46.639  27.521  26.100  1.00  0.00     0.023 A 
ATOM     68  C   UNL A   1      46.747  27.709  24.707  1.00  0.00     0.012 A 
ATOM     69  C   UNL A   1      47.676  26.869  26.792  1.00  0.00     0.148 A 
ATOM     70  C   UNL A   1      47.853  27.227  24.008  1.00  0.00     0.002 A 
ATOM     71  C   UNL A   1      48.795  26.424  26.094  1.00  0.00     0.091 A 
ATOM     72  F   UNL A   1      47.547  26.679  28.113  1.00  0.00    -0.205 F 
ATOM     73  C   UNL A   1      48.880  26.594  24.702  1.00  0.00     0.022 A 
BRANCH  71  74
ATOM     74  S   UNL A   1      50.201  25.665  26.915  1.00  0.00     0.127 S 
ATOM     75  O   UNL A   1      51.135  25.495  25.804  1.00  0.00    -0.237 OA
ATOM     76  O   UNL A   1      50.588  26.690  27.885  1.00  0.00    -0.237 OA
ATOM     77  O   UNL A   1      49.694  24.436  27.509  1.00  0.00    -0.744 OA
ENDBRANCH  71  74
ENDBRANCH  53  67
BRANCH  54  78
ATOM     78  C   UNL A   1      38.757  30.651  31.308  1.00  0.00     0.023 A 
ATOM     79  C   UNL A   1      38.800  30.456  32.701  1.00  0.00     0.012 A 
ATOM     80  C   UNL A   1      37.651  31.313  30.739  1.00  0.00     0.148 A 
ATOM     81  C   UNL A   1      37.751  30.892  33.513  1.00  0.00     0.002 A 
ATOM     82  C   UNL A   1      36.637  31.795  31.559  1.00  0.00     0.091 A 
ATOM     83  F   UNL A   1      37.622  31.475  29.409  1.00  0.00    -0.205 F 
ATOM     84  C   UNL A   1      36.677  31.572  32.944  1.00  0.00     0.022 A 
BRANCH  82  85
ATOM     85  S   UNL A   1      35.295  32.807  30.924  1.00  0.00     0.127 S 
ATOM     86  O   UNL A   1      35.990  34.039  30.568  1.00  0.00    -0.237 OA
ATOM     87  O   UNL A   1      34.824  32.012  29.789  1.00  0.00    -0.237 OA
ATOM     88  O   UNL A   1      34.335  32.907  32.017  1.00  0.00    -0.744 OA
ENDBRANCH  82  85
ENDBRANCH  54  78
BRANCH  66  89
ATOM     89  C   UNL A   1      44.742  33.677  29.333  1.00  0.00     0.023 A 
ATOM     90  C   UNL A   1      45.494  33.871  30.508  1.00  0.00     0.012 A 
ATOM     91  C   UNL A   1      44.639  34.725  28.397  1.00  0.00     0.148 A 
ATOM     92  C   UNL A   1      46.118  35.093  30.758  1.00  0.00     0.002 A 
ATOM     93  C   UNL A   1      45.299  35.927  28.633  1.00  0.00     0.091 A 
ATOM     94  F   UNL A   1      43.902  34.529  27.294  1.00  0.00    -0.205 F 
ATOM     95  C   UNL A   1      46.031  36.115  29.817  1.00  0.00     0.022 A 
BRANCH  93  96
ATOM     96  S   UNL A   1      45.313  37.268  27.437  1.00  0.00     0.127 S 
ATOM     97  O   UNL A   1      43.887  37.450  27.175  1.00  0.00    -0.237 OA
ATOM     98  O   UNL A   1      45.937  38.355  28.194  1.00  0.00    -0.237 OA
ATOM     99  O   UNL A   1      46.102  36.790  26.309  1.00  0.00    -0.744 OA
ENDBRANCH  93  96
ENDBRANCH  66  89
ENDBRANCH  40  41
ENDBRANCH  32  35
ENDBRANCH  30  31
ENDBRANCH   1  30
TORSDOF 16
ENDMDL
