MODEL 1
REMARK VINA RESULT:     -11.5      0.000      0.000
REMARK SMILES C[C@@H](C(=O)NCCCCNC(=O)c1ccc(-c2c3nc(c(-c4cccc(S(=O)(=O)[O-])c4F)c4ccc([nH]4)c(-c4cccc(S(=O)(=O)[O-])c4F)c4nc(c(-c5cccc(S(=O)(=O)[O-])c5F)c5ccc2[nH]5)C=C4)C=C3)cc1)[C@@H](C)C(=O)c1ccc(Br)cc1
REMARK SMILES IDX 7 1 6 2 5 3 3 4 4 5 2 7 1 8 76 9 77 10 78 11 79 12 80 13
REMARK SMILES IDX 81 14 86 15 82 16 85 17 83 18 84 19 8 20 9 21 10 22 11 23
REMARK SMILES IDX 12 25 13 26 14 27 75 28 15 29 74 30 16 31 17 32 18 33 68 34
REMARK SMILES IDX 19 35 73 36 67 37 69 38 20 39 72 40 66 41 65 42 21 44 53 45
REMARK SMILES IDX 33 46 52 47 34 48 37 49 51 50 70 51 35 52 36 53 50 55 71 56
REMARK SMILES IDX 38 57 22 58 23 59 31 60 24 61 26 62 32 63 25 64 27 65 28 66
REMARK SMILES IDX 29 67 30 68 54 69 55 70 63 71 56 72 58 73 64 74 57 75 59 76
REMARK SMILES IDX 60 77 61 78 62 79 39 80 40 81 48 82 41 83 43 84 49 85 42 86
REMARK SMILES IDX 44 87 45 88 46 89 47 90
REMARK H PARENT 5 6 10 24 69 43 37 54
REMARK Flexibility Score: inf
ROOT
ATOM      1  C   UNL A   1      31.889  28.997  23.890  1.00  0.00     0.023 C 
ENDROOT
BRANCH   1   2
ATOM      2  C   UNL A   1      31.090  27.923  23.151  1.00  0.00     0.116 C 
BRANCH   2   3
ATOM      3  N   UNL A   1      31.856  27.353  22.061  1.00  0.00    -0.356 N 
ATOM      4  C   UNL A   1      32.689  26.276  22.043  1.00  0.00     0.223 C 
ATOM      5  O   UNL A   1      33.339  26.070  21.020  1.00  0.00    -0.275 OA
ATOM      6  H   UNL A   1      31.758  27.815  21.198  1.00  0.00     0.163 HD
BRANCH   4   7
ATOM      7  C   UNL A   1      32.780  25.363  23.265  1.00  0.00     0.086 C 
ATOM      8  C   UNL A   1      33.980  25.786  24.124  1.00  0.00     0.019 C 
BRANCH   7   9
ATOM      9  C   UNL A   1      32.888  23.879  22.846  1.00  0.00     0.070 C 
ATOM     10  C   UNL A   1      34.311  23.328  22.977  1.00  0.00     0.017 C 
BRANCH   9  11
ATOM     11  C   UNL A   1      31.924  22.874  23.500  1.00  0.00     0.166 C 
ATOM     12  O   UNL A   1      30.783  23.225  23.810  1.00  0.00    -0.294 OA
BRANCH  11  13
ATOM     13  C   UNL A   1      32.219  21.409  23.553  1.00  0.00     0.018 A 
ATOM     14  C   UNL A   1      32.685  20.901  24.777  1.00  0.00     0.013 A 
ATOM     15  C   UNL A   1      32.088  20.538  22.467  1.00  0.00     0.013 A 
ATOM     16  C   UNL A   1      32.978  19.543  24.925  1.00  0.00     0.016 A 
ATOM     17  C   UNL A   1      32.376  19.175  22.616  1.00  0.00     0.016 A 
ATOM     18  C   UNL A   1      32.812  18.683  23.844  1.00  0.00     0.018 A 
ATOM     19  Br  UNL A   1      33.196  16.843  24.038  1.00  0.00    -0.051 Br
ENDBRANCH  11  13
ENDBRANCH   9  11
ENDBRANCH   7   9
ENDBRANCH   4   7
ENDBRANCH   2   3
ENDBRANCH   1   2
BRANCH   1  20
ATOM     20  C   UNL A   1      32.072  28.742  25.387  1.00  0.00     0.023 C 
BRANCH  20  21
ATOM     21  C   UNL A   1      33.252  29.461  26.025  1.00  0.00     0.116 C 
BRANCH  21  22
ATOM     22  N   UNL A   1      32.942  30.835  26.388  1.00  0.00    -0.352 N 
ATOM     23  C   UNL A   1      33.558  31.650  27.303  1.00  0.00     0.251 C 
ATOM     24  H   UNL A   1      32.180  31.237  25.910  1.00  0.00     0.163 HD
ATOM     25  O   UNL A   1      33.053  32.737  27.582  1.00  0.00    -0.269 OA
BRANCH  23  26
ATOM     26  C   UNL A   1      34.810  31.218  27.961  1.00  0.00     0.039 A 
ATOM     27  C   UNL A   1      34.895  29.915  28.457  1.00  0.00     0.014 A 
ATOM     28  C   UNL A   1      35.890  32.094  28.108  1.00  0.00     0.014 A 
ATOM     29  C   UNL A   1      36.072  29.482  29.070  1.00  0.00     0.010 A 
ATOM     30  C   UNL A   1      37.091  31.633  28.636  1.00  0.00     0.010 A 
ATOM     31  C   UNL A   1      37.187  30.332  29.151  1.00  0.00    -0.014 A 
BRANCH  31  32
ATOM     32  C   UNL A   1      38.444  29.885  29.805  1.00  0.00     0.031 A 
ATOM     33  C   UNL A   1      38.821  30.416  31.164  1.00  0.00     0.074 A 
ATOM     34  C   UNL A   1      39.272  29.042  29.157  1.00  0.00     0.049 A 
ATOM     35  N   UNL A   1      39.867  30.135  31.897  1.00  0.00    -0.248 NA
ATOM     36  C   UNL A   1      37.923  31.416  31.767  1.00  0.00     0.031 C 
ATOM     37  C   UNL A   1      39.060  28.519  27.806  1.00  0.00     0.029 A 
ATOM     38  N   UNL A   1      40.464  28.485  29.545  1.00  0.00    -0.354 N 
ATOM     39  C   UNL A   1      39.772  30.946  33.023  1.00  0.00     0.074 A 
ATOM     40  C   UNL A   1      38.590  31.761  32.857  1.00  0.00     0.031 C 
ATOM     41  C   UNL A   1      40.077  27.702  27.486  1.00  0.00     0.029 A 
ATOM     42  C   UNL A   1      41.024  27.662  28.595  1.00  0.00     0.049 A 
ATOM     43  H   UNL A   1      40.881  28.659  30.420  1.00  0.00     0.167 HD
ATOM     44  C   UNL A   1      40.579  30.990  34.109  1.00  0.00     0.034 A 
ATOM     45  C   UNL A   1      42.168  26.951  28.620  1.00  0.00     0.034 A 
ATOM     46  C   UNL A   1      41.728  30.147  34.290  1.00  0.00     0.049 A 
ATOM     47  C   UNL A   1      43.020  26.980  29.862  1.00  0.00     0.074 A 
ATOM     48  C   UNL A   1      42.554  30.043  35.395  1.00  0.00     0.029 A 
ATOM     49  N   UNL A   1      42.222  29.269  33.337  1.00  0.00    -0.354 N 
ATOM     50  N   UNL A   1      42.823  27.628  30.984  1.00  0.00    -0.248 NA
ATOM     51  C   UNL A   1      44.229  26.144  29.855  1.00  0.00     0.031 C 
ATOM     52  C   UNL A   1      43.570  29.129  35.096  1.00  0.00     0.029 A 
ATOM     53  C   UNL A   1      43.349  28.629  33.823  1.00  0.00     0.049 A 
ATOM     54  H   UNL A   1      41.829  29.123  32.447  1.00  0.00     0.167 HD
ATOM     55  C   UNL A   1      43.855  27.243  31.832  1.00  0.00     0.074 A 
ATOM     56  C   UNL A   1      44.663  26.291  31.098  1.00  0.00     0.031 C 
ATOM     57  C   UNL A   1      44.114  27.645  33.102  1.00  0.00     0.034 A 
BRANCH  44  58
ATOM     58  C   UNL A   1      40.223  31.960  35.208  1.00  0.00     0.023 A 
ATOM     59  C   UNL A   1      40.912  33.187  35.314  1.00  0.00     0.012 A 
ATOM     60  C   UNL A   1      39.174  31.680  36.105  1.00  0.00     0.148 A 
ATOM     61  C   UNL A   1      40.591  34.099  36.319  1.00  0.00     0.002 A 
ATOM     62  C   UNL A   1      38.825  32.616  37.071  1.00  0.00     0.091 A 
ATOM     63  F   UNL A   1      38.543  30.501  36.004  1.00  0.00    -0.205 F 
ATOM     64  C   UNL A   1      39.542  33.819  37.189  1.00  0.00     0.022 A 
BRANCH  62  65
ATOM     65  S   UNL A   1      37.434  32.388  38.184  1.00  0.00     0.127 S 
ATOM     66  O   UNL A   1      37.350  30.930  38.256  1.00  0.00    -0.237 OA
ATOM     67  O   UNL A   1      37.913  33.031  39.408  1.00  0.00    -0.237 OA
ATOM     68  O   UNL A   1      36.301  33.049  37.553  1.00  0.00    -0.744 OA
ENDBRANCH  62  65
ENDBRANCH  44  58
BRANCH  45  69
ATOM     69  C   UNL A   1      42.537  26.085  27.464  1.00  0.00     0.023 A 
ATOM     70  C   UNL A   1      43.331  26.619  26.428  1.00  0.00     0.012 A 
ATOM     71  C   UNL A   1      42.122  24.743  27.389  1.00  0.00     0.148 A 
ATOM     72  C   UNL A   1      43.670  25.842  25.320  1.00  0.00     0.002 A 
ATOM     73  C   UNL A   1      42.511  23.958  26.309  1.00  0.00     0.091 A 
ATOM     74  F   UNL A   1      41.364  24.257  28.381  1.00  0.00    -0.205 F 
ATOM     75  C   UNL A   1      43.268  24.511  25.264  1.00  0.00     0.022 A 
BRANCH  73  76
ATOM     76  S   UNL A   1      42.149  22.202  26.212  1.00  0.00     0.127 S 
ATOM     77  O   UNL A   1      42.904  21.806  25.027  1.00  0.00    -0.237 OA
ATOM     78  O   UNL A   1      42.691  21.714  27.481  1.00  0.00    -0.237 OA
ATOM     79  O   UNL A   1      40.700  22.104  26.101  1.00  0.00    -0.744 OA
ENDBRANCH  73  76
ENDBRANCH  45  69
BRANCH  57  80
ATOM     80  C   UNL A   1      45.289  27.016  33.807  1.00  0.00     0.023 A 
ATOM     81  C   UNL A   1      46.569  27.599  33.716  1.00  0.00     0.012 A 
ATOM     82  C   UNL A   1      45.106  25.874  34.611  1.00  0.00     0.148 A 
ATOM     83  C   UNL A   1      47.656  27.028  34.377  1.00  0.00     0.002 A 
ATOM     84  C   UNL A   1      46.182  25.343  35.312  1.00  0.00     0.091 A 
ATOM     85  F   UNL A   1      43.885  25.322  34.672  1.00  0.00    -0.205 F 
ATOM     86  C   UNL A   1      47.461  25.909  35.183  1.00  0.00     0.022 A 
BRANCH  84  87
ATOM     87  S   UNL A   1      45.999  23.970  36.454  1.00  0.00     0.127 S 
ATOM     88  O   UNL A   1      45.755  22.854  35.541  1.00  0.00    -0.237 OA
ATOM     89  O   UNL A   1      47.303  23.941  37.118  1.00  0.00    -0.237 OA
ATOM     90  O   UNL A   1      44.888  24.320  37.328  1.00  0.00    -0.744 OA
ENDBRANCH  84  87
ENDBRANCH  57  80
ENDBRANCH  31  32
ENDBRANCH  23  26
ENDBRANCH  21  22
ENDBRANCH  20  21
ENDBRANCH   1  20
TORSDOF 17
ENDMDL
MODEL 2
REMARK VINA RESULT:     -11.5      5.201     10.055
REMARK SMILES C[C@@H](C(=O)NCCCCNC(=O)c1ccc(-c2c3nc(c(-c4cccc(S(=O)(=O)[O-])c4F)c4ccc([nH]4)c(-c4cccc(S(=O)(=O)[O-])c4F)c4nc(c(-c5cccc(S(=O)(=O)[O-])c5F)c5ccc2[nH]5)C=C4)C=C3)cc1)[C@@H](C)C(=O)c1ccc(Br)cc1
REMARK SMILES IDX 7 1 6 2 5 3 3 4 4 5 2 7 1 8 76 9 77 10 78 11 79 12 80 13
REMARK SMILES IDX 81 14 86 15 82 16 85 17 83 18 84 19 8 20 9 21 10 22 11 23
REMARK SMILES IDX 12 25 13 26 14 27 75 28 15 29 74 30 16 31 17 32 18 33 68 34
REMARK SMILES IDX 19 35 73 36 67 37 69 38 20 39 72 40 66 41 65 42 21 44 53 45
REMARK SMILES IDX 33 46 52 47 34 48 37 49 51 50 70 51 35 52 36 53 50 55 71 56
REMARK SMILES IDX 38 57 22 58 23 59 31 60 24 61 26 62 32 63 25 64 27 65 28 66
REMARK SMILES IDX 29 67 30 68 54 69 55 70 63 71 56 72 58 73 64 74 57 75 59 76
REMARK SMILES IDX 60 77 61 78 62 79 39 80 40 81 48 82 41 83 43 84 49 85 42 86
REMARK SMILES IDX 44 87 45 88 46 89 47 90
REMARK H PARENT 5 6 10 24 69 43 37 54
REMARK Flexibility Score: inf
ROOT
ATOM      1  C   UNL A   1      34.601  22.381  27.377  1.00  0.00     0.023 C 
ENDROOT
BRANCH   1   2
ATOM      2  C   UNL A   1      33.073  22.366  27.414  1.00  0.00     0.116 C 
BRANCH   2   3
ATOM      3  N   UNL A   1      32.526  23.677  27.125  1.00  0.00    -0.356 N 
ATOM      4  C   UNL A   1      32.494  24.376  25.958  1.00  0.00     0.223 C 
ATOM      5  O   UNL A   1      32.094  25.538  25.997  1.00  0.00    -0.275 OA
ATOM      6  H   UNL A   1      32.112  24.132  27.894  1.00  0.00     0.163 HD
BRANCH   4   7
ATOM      7  C   UNL A   1      32.932  23.707  24.656  1.00  0.00     0.086 C 
ATOM      8  C   UNL A   1      33.432  24.779  23.680  1.00  0.00     0.019 C 
BRANCH   7   9
ATOM      9  C   UNL A   1      31.779  22.882  24.038  1.00  0.00     0.070 C 
ATOM     10  C   UNL A   1      30.691  23.760  23.413  1.00  0.00     0.017 C 
BRANCH   9  11
ATOM     11  C   UNL A   1      32.143  21.779  23.029  1.00  0.00     0.166 C 
ATOM     12  O   UNL A   1      32.486  22.080  21.883  1.00  0.00    -0.294 OA
BRANCH  11  13
ATOM     13  C   UNL A   1      32.342  20.357  23.444  1.00  0.00     0.018 A 
ATOM     14  C   UNL A   1      32.458  20.110  24.822  1.00  0.00     0.013 A 
ATOM     15  C   UNL A   1      32.447  19.283  22.555  1.00  0.00     0.013 A 
ATOM     16  C   UNL A   1      32.637  18.811  25.305  1.00  0.00     0.016 A 
ATOM     17  C   UNL A   1      32.619  17.979  23.038  1.00  0.00     0.016 A 
ATOM     18  C   UNL A   1      32.707  17.749  24.409  1.00  0.00     0.018 A 
ATOM     19  Br  UNL A   1      32.937  15.988  25.054  1.00  0.00    -0.051 Br
ENDBRANCH  11  13
ENDBRANCH   9  11
ENDBRANCH   7   9
ENDBRANCH   4   7
ENDBRANCH   2   3
ENDBRANCH   1   2
BRANCH   1  20
ATOM     20  C   UNL A   1      35.221  21.662  26.177  1.00  0.00     0.023 C 
BRANCH  20  21
ATOM     21  C   UNL A   1      36.611  22.140  25.785  1.00  0.00     0.116 C 
BRANCH  21  22
ATOM     22  N   UNL A   1      37.613  21.090  25.882  1.00  0.00    -0.352 N 
ATOM     23  C   UNL A   1      38.955  21.195  26.147  1.00  0.00     0.251 C 
ATOM     24  H   UNL A   1      37.282  20.174  25.736  1.00  0.00     0.163 HD
ATOM     25  O   UNL A   1      39.673  20.202  26.035  1.00  0.00    -0.269 OA
BRANCH  23  26
ATOM     26  C   UNL A   1      39.537  22.495  26.545  1.00  0.00     0.039 A 
ATOM     27  C   UNL A   1      40.553  22.512  27.504  1.00  0.00     0.014 A 
ATOM     28  C   UNL A   1      39.075  23.694  25.994  1.00  0.00     0.014 A 
ATOM     29  C   UNL A   1      41.125  23.728  27.885  1.00  0.00     0.010 A 
ATOM     30  C   UNL A   1      39.708  24.892  26.307  1.00  0.00     0.010 A 
ATOM     31  C   UNL A   1      40.720  24.928  27.278  1.00  0.00    -0.014 A 
BRANCH  31  32
ATOM     32  C   UNL A   1      41.318  26.227  27.677  1.00  0.00     0.031 A 
ATOM     33  C   UNL A   1      42.731  26.566  27.274  1.00  0.00     0.074 A 
ATOM     34  C   UNL A   1      40.613  27.082  28.444  1.00  0.00     0.049 A 
ATOM     35  N   UNL A   1      43.418  27.652  27.517  1.00  0.00    -0.248 NA
ATOM     36  C   UNL A   1      43.479  25.541  26.527  1.00  0.00     0.031 C 
ATOM     37  C   UNL A   1      39.267  26.836  28.966  1.00  0.00     0.029 A 
ATOM     38  N   UNL A   1      40.935  28.324  28.928  1.00  0.00    -0.354 N 
ATOM     39  C   UNL A   1      44.685  27.426  26.989  1.00  0.00     0.074 A 
ATOM     40  C   UNL A   1      44.685  26.085  26.451  1.00  0.00     0.031 C 
ATOM     41  C   UNL A   1      38.870  27.903  29.679  1.00  0.00     0.029 A 
ATOM     42  C   UNL A   1      39.940  28.896  29.688  1.00  0.00     0.049 A 
ATOM     43  H   UNL A   1      41.797  28.765  28.749  1.00  0.00     0.167 HD
ATOM     44  C   UNL A   1      45.744  28.267  26.932  1.00  0.00     0.034 A 
ATOM     45  C   UNL A   1      39.895  30.088  30.314  1.00  0.00     0.034 A 
ATOM     46  C   UNL A   1      45.726  29.615  27.428  1.00  0.00     0.049 A 
ATOM     47  C   UNL A   1      41.069  31.023  30.191  1.00  0.00     0.074 A 
ATOM     48  C   UNL A   1      46.712  30.581  27.333  1.00  0.00     0.029 A 
ATOM     49  N   UNL A   1      44.673  30.187  28.127  1.00  0.00    -0.354 N 
ATOM     50  N   UNL A   1      42.195  30.854  29.543  1.00  0.00    -0.248 NA
ATOM     51  C   UNL A   1      40.944  32.331  30.849  1.00  0.00     0.031 C 
ATOM     52  C   UNL A   1      46.269  31.725  28.004  1.00  0.00     0.029 A 
ATOM     53  C   UNL A   1      44.989  31.487  28.479  1.00  0.00     0.049 A 
ATOM     54  H   UNL A   1      43.827  29.733  28.340  1.00  0.00     0.167 HD
ATOM     55  C   UNL A   1      42.894  32.049  29.676  1.00  0.00     0.074 A 
ATOM     56  C   UNL A   1      42.052  32.939  30.450  1.00  0.00     0.031 C 
ATOM     57  C   UNL A   1      44.122  32.379  29.204  1.00  0.00     0.034 A 
BRANCH  44  58
ATOM     58  C   UNL A   1      47.004  27.764  26.273  1.00  0.00     0.023 A 
ATOM     59  C   UNL A   1      47.965  27.064  27.033  1.00  0.00     0.012 A 
ATOM     60  C   UNL A   1      47.215  27.940  24.891  1.00  0.00     0.148 A 
ATOM     61  C   UNL A   1      49.132  26.585  26.439  1.00  0.00     0.002 A 
ATOM     62  C   UNL A   1      48.356  27.414  24.296  1.00  0.00     0.091 A 
ATOM     63  F   UNL A   1      46.303  28.625  24.187  1.00  0.00    -0.205 F 
ATOM     64  C   UNL A   1      49.322  26.750  25.070  1.00  0.00     0.022 A 
BRANCH  62  65
ATOM     65  S   UNL A   1      48.652  27.499  22.527  1.00  0.00     0.127 S 
ATOM     66  O   UNL A   1      48.638  26.084  22.158  1.00  0.00    -0.237 OA
ATOM     67  O   UNL A   1      47.493  28.261  22.059  1.00  0.00    -0.237 OA
ATOM     68  O   UNL A   1      49.931  28.175  22.365  1.00  0.00    -0.744 OA
ENDBRANCH  62  65
ENDBRANCH  44  58
BRANCH  45  69
ATOM     69  C   UNL A   1      38.665  30.502  31.048  1.00  0.00     0.023 A 
ATOM     70  C   UNL A   1      38.544  30.198  32.419  1.00  0.00     0.012 A 
ATOM     71  C   UNL A   1      37.627  31.201  30.405  1.00  0.00     0.148 A 
ATOM     72  C   UNL A   1      37.394  30.549  33.127  1.00  0.00     0.002 A 
ATOM     73  C   UNL A   1      36.508  31.597  31.129  1.00  0.00     0.091 A 
ATOM     74  F   UNL A   1      37.759  31.474  29.100  1.00  0.00    -0.205 F 
ATOM     75  C   UNL A   1      36.380  31.254  32.485  1.00  0.00     0.022 A 
BRANCH  73  76
ATOM     76  S   UNL A   1      35.211  32.617  30.421  1.00  0.00     0.127 S 
ATOM     77  O   UNL A   1      34.763  31.796  29.300  1.00  0.00    -0.237 OA
ATOM     78  O   UNL A   1      34.264  32.713  31.533  1.00  0.00    -0.237 OA
ATOM     79  O   UNL A   1      35.850  33.877  30.067  1.00  0.00    -0.744 OA
ENDBRANCH  73  76
ENDBRANCH  45  69
BRANCH  57  80
ATOM     80  C   UNL A   1      44.615  33.781  29.460  1.00  0.00     0.023 A 
ATOM     81  C   UNL A   1      45.312  34.084  30.646  1.00  0.00     0.012 A 
ATOM     82  C   UNL A   1      44.434  34.785  28.489  1.00  0.00     0.148 A 
ATOM     83  C   UNL A   1      45.780  35.376  30.882  1.00  0.00     0.002 A 
ATOM     84  C   UNL A   1      44.953  36.056  28.705  1.00  0.00     0.091 A 
ATOM     85  F   UNL A   1      43.753  34.484  27.373  1.00  0.00    -0.205 F 
ATOM     86  C   UNL A   1      45.612  36.357  29.908  1.00  0.00     0.022 A 
BRANCH  84  87
ATOM     87  S   UNL A   1      44.874  37.349  27.461  1.00  0.00     0.127 S 
ATOM     88  O   UNL A   1      45.851  36.878  26.480  1.00  0.00    -0.237 OA
ATOM     89  O   UNL A   1      43.481  37.271  27.020  1.00  0.00    -0.237 OA
ATOM     90  O   UNL A   1      45.220  38.586  28.146  1.00  0.00    -0.744 OA
ENDBRANCH  84  87
ENDBRANCH  57  80
ENDBRANCH  31  32
ENDBRANCH  23  26
ENDBRANCH  21  22
ENDBRANCH  20  21
ENDBRANCH   1  20
TORSDOF 17
ENDMDL
MODEL 3
REMARK VINA RESULT:     -11.5      2.621      3.793
REMARK SMILES C[C@@H](C(=O)NCCCCNC(=O)c1ccc(-c2c3nc(c(-c4cccc(S(=O)(=O)[O-])c4F)c4ccc([nH]4)c(-c4cccc(S(=O)(=O)[O-])c4F)c4nc(c(-c5cccc(S(=O)(=O)[O-])c5F)c5ccc2[nH]5)C=C4)C=C3)cc1)[C@@H](C)C(=O)c1ccc(Br)cc1
REMARK SMILES IDX 7 1 6 2 5 3 3 4 4 5 2 7 1 8 76 9 77 10 78 11 79 12 80 13
REMARK SMILES IDX 81 14 86 15 82 16 85 17 83 18 84 19 8 20 9 21 10 22 11 23
REMARK SMILES IDX 12 25 13 26 14 27 75 28 15 29 74 30 16 31 17 32 18 33 68 34
REMARK SMILES IDX 19 35 73 36 67 37 69 38 20 39 72 40 66 41 65 42 21 44 53 45
REMARK SMILES IDX 33 46 52 47 34 48 37 49 51 50 70 51 35 52 36 53 50 55 71 56
REMARK SMILES IDX 38 57 22 58 23 59 31 60 24 61 26 62 32 63 25 64 27 65 28 66
REMARK SMILES IDX 29 67 30 68 54 69 55 70 63 71 56 72 58 73 64 74 57 75 59 76
REMARK SMILES IDX 60 77 61 78 62 79 39 80 40 81 48 82 41 83 43 84 49 85 42 86
REMARK SMILES IDX 44 87 45 88 46 89 47 90
REMARK H PARENT 5 6 10 24 69 43 37 54
REMARK Flexibility Score: inf
ROOT
ATOM      1  C   UNL A   1      31.641  26.705  26.552  1.00  0.00     0.023 C 
ENDROOT
BRANCH   1   2
ATOM      2  C   UNL A   1      31.934  25.351  25.905  1.00  0.00     0.116 C 
BRANCH   2   3
ATOM      3  N   UNL A   1      33.339  25.217  25.575  1.00  0.00    -0.356 N 
ATOM      4  C   UNL A   1      33.935  24.824  24.416  1.00  0.00     0.223 C 
ATOM      5  O   UNL A   1      35.152  24.657  24.425  1.00  0.00    -0.275 OA
ATOM      6  H   UNL A   1      33.959  25.447  26.304  1.00  0.00     0.163 HD
BRANCH   4   7
ATOM      7  C   UNL A   1      33.093  24.623  23.157  1.00  0.00     0.086 C 
ATOM      8  C   UNL A   1      33.396  23.242  22.562  1.00  0.00     0.019 C 
BRANCH   7   9
ATOM      9  C   UNL A   1      33.353  25.746  22.126  1.00  0.00     0.070 C 
ATOM     10  C   UNL A   1      32.661  25.490  20.784  1.00  0.00     0.017 C 
BRANCH   9  11
ATOM     11  C   UNL A   1      33.056  27.195  22.549  1.00  0.00     0.166 C 
ATOM     12  O   UNL A   1      33.966  28.028  22.576  1.00  0.00    -0.294 OA
BRANCH  11  13
ATOM     13  C   UNL A   1      31.660  27.712  22.692  1.00  0.00     0.018 A 
ATOM     14  C   UNL A   1      31.450  29.063  22.372  1.00  0.00     0.013 A 
ATOM     15  C   UNL A   1      30.580  26.949  23.144  1.00  0.00     0.013 A 
ATOM     16  C   UNL A   1      30.177  29.632  22.465  1.00  0.00     0.016 A 
ATOM     17  C   UNL A   1      29.302  27.516  23.232  1.00  0.00     0.016 A 
ATOM     18  C   UNL A   1      29.105  28.851  22.887  1.00  0.00     0.018 A 
ATOM     19  Br  UNL A   1      27.378  29.609  23.005  1.00  0.00    -0.051 Br
ENDBRANCH  11  13
ENDBRANCH   9  11
ENDBRANCH   7   9
ENDBRANCH   4   7
ENDBRANCH   2   3
ENDBRANCH   1   2
BRANCH   1  20
ATOM     20  C   UNL A   1      32.634  27.813  26.195  1.00  0.00     0.023 C 
BRANCH  20  21
ATOM     21  C   UNL A   1      33.400  28.397  27.373  1.00  0.00     0.116 C 
BRANCH  21  22
ATOM     22  N   UNL A   1      33.389  29.851  27.385  1.00  0.00    -0.352 N 
ATOM     23  C   UNL A   1      34.340  30.721  27.853  1.00  0.00     0.251 C 
ATOM     24  H   UNL A   1      32.584  30.271  27.003  1.00  0.00     0.163 HD
ATOM     25  O   UNL A   1      34.081  31.923  27.917  1.00  0.00    -0.269 OA
BRANCH  23  26
ATOM     26  C   UNL A   1      35.658  30.218  28.297  1.00  0.00     0.039 A 
ATOM     27  C   UNL A   1      36.734  30.276  27.407  1.00  0.00     0.014 A 
ATOM     28  C   UNL A   1      35.833  29.674  29.572  1.00  0.00     0.014 A 
ATOM     29  C   UNL A   1      37.990  29.819  27.810  1.00  0.00     0.010 A 
ATOM     30  C   UNL A   1      37.103  29.304  30.002  1.00  0.00     0.010 A 
ATOM     31  C   UNL A   1      38.190  29.343  29.117  1.00  0.00    -0.014 A 
BRANCH  31  32
ATOM     32  C   UNL A   1      39.520  28.850  29.555  1.00  0.00     0.031 A 
ATOM     33  C   UNL A   1      40.255  29.544  30.674  1.00  0.00     0.074 A 
ATOM     34  C   UNL A   1      40.094  27.810  28.917  1.00  0.00     0.049 A 
ATOM     35  N   UNL A   1      41.415  29.253  31.203  1.00  0.00    -0.248 NA
ATOM     36  C   UNL A   1      39.618  30.738  31.255  1.00  0.00     0.031 C 
ATOM     37  C   UNL A   1      39.522  27.104  27.769  1.00  0.00     0.029 A 
ATOM     38  N   UNL A   1      41.289  27.175  29.136  1.00  0.00    -0.354 N 
ATOM     39  C   UNL A   1      41.662  30.245  32.146  1.00  0.00     0.074 A 
ATOM     40  C   UNL A   1      40.553  31.169  32.089  1.00  0.00     0.031 C 
ATOM     41  C   UNL A   1      40.356  26.119  27.398  1.00  0.00     0.029 A 
ATOM     42  C   UNL A   1      41.532  26.140  28.262  1.00  0.00     0.049 A 
ATOM     43  H   UNL A   1      41.915  27.434  29.850  1.00  0.00     0.167 HD
ATOM     44  C   UNL A   1      42.704  30.362  33.003  1.00  0.00     0.034 A 
ATOM     45  C   UNL A   1      42.581  25.299  28.173  1.00  0.00     0.034 A 
ATOM     46  C   UNL A   1      43.783  29.417  33.088  1.00  0.00     0.049 A 
ATOM     47  C   UNL A   1      43.702  25.422  29.172  1.00  0.00     0.074 A 
ATOM     48  C   UNL A   1      44.836  29.390  33.986  1.00  0.00     0.029 A 
ATOM     49  N   UNL A   1      43.958  28.337  32.236  1.00  0.00    -0.354 N 
ATOM     50  N   UNL A   1      43.835  26.266  30.165  1.00  0.00    -0.248 NA
ATOM     51  C   UNL A   1      44.796  24.446  29.062  1.00  0.00     0.031 C 
ATOM     52  C   UNL A   1      45.666  28.315  33.655  1.00  0.00     0.029 A 
ATOM     53  C   UNL A   1      45.106  27.645  32.578  1.00  0.00     0.049 A 
ATOM     54  H   UNL A   1      43.354  28.099  31.496  1.00  0.00     0.167 HD
ATOM     55  C   UNL A   1      45.000  25.895  30.827  1.00  0.00     0.074 A 
ATOM     56  C   UNL A   1      45.524  24.738  30.130  1.00  0.00     0.031 C 
ATOM     57  C   UNL A   1      45.588  26.464  31.909  1.00  0.00     0.034 A 
BRANCH  44  58
ATOM     58  C   UNL A   1      42.707  31.538  33.947  1.00  0.00     0.023 A 
ATOM     59  C   UNL A   1      43.204  32.786  33.516  1.00  0.00     0.012 A 
ATOM     60  C   UNL A   1      42.171  31.422  35.245  1.00  0.00     0.148 A 
ATOM     61  C   UNL A   1      43.208  33.886  34.373  1.00  0.00     0.002 A 
ATOM     62  C   UNL A   1      42.130  32.535  36.075  1.00  0.00     0.091 A 
ATOM     63  F   UNL A   1      41.722  30.224  35.647  1.00  0.00    -0.205 F 
ATOM     64  C   UNL A   1      42.661  33.764  35.647  1.00  0.00     0.022 A 
BRANCH  62  65
ATOM     65  S   UNL A   1      41.369  32.503  37.701  1.00  0.00     0.127 S 
ATOM     66  O   UNL A   1      41.450  33.910  38.093  1.00  0.00    -0.237 OA
ATOM     67  O   UNL A   1      40.016  32.033  37.397  1.00  0.00    -0.237 OA
ATOM     68  O   UNL A   1      42.166  31.585  38.501  1.00  0.00    -0.744 OA
ENDBRANCH  62  65
ENDBRANCH  44  58
BRANCH  45  69
ATOM     69  C   UNL A   1      42.588  24.214  27.151  1.00  0.00     0.023 A 
ATOM     70  C   UNL A   1      43.446  24.319  26.038  1.00  0.00     0.012 A 
ATOM     71  C   UNL A   1      41.765  23.080  27.279  1.00  0.00     0.148 A 
ATOM     72  C   UNL A   1      43.455  23.333  25.050  1.00  0.00     0.002 A 
ATOM     73  C   UNL A   1      41.820  22.074  26.321  1.00  0.00     0.091 A 
ATOM     74  F   UNL A   1      40.952  23.002  28.342  1.00  0.00    -0.205 F 
ATOM     75  C   UNL A   1      42.649  22.208  25.195  1.00  0.00     0.022 A 
BRANCH  73  76
ATOM     76  S   UNL A   1      40.915  20.532  26.486  1.00  0.00     0.127 S 
ATOM     77  O   UNL A   1      41.692  19.636  25.636  1.00  0.00    -0.237 OA
ATOM     78  O   UNL A   1      41.026  20.272  27.922  1.00  0.00    -0.237 OA
ATOM     79  O   UNL A   1      39.561  20.819  26.031  1.00  0.00    -0.744 OA
ENDBRANCH  73  76
ENDBRANCH  45  69
BRANCH  57  80
ATOM     80  C   UNL A   1      46.835  25.812  32.450  1.00  0.00     0.023 A 
ATOM     81  C   UNL A   1      48.105  26.219  31.995  1.00  0.00     0.012 A 
ATOM     82  C   UNL A   1      46.744  24.832  33.458  1.00  0.00     0.148 A 
ATOM     83  C   UNL A   1      49.262  25.628  32.501  1.00  0.00     0.002 A 
ATOM     84  C   UNL A   1      47.904  24.288  33.998  1.00  0.00     0.091 A 
ATOM     85  F   UNL A   1      45.528  24.443  33.867  1.00  0.00    -0.205 F 
ATOM     86  C   UNL A   1      49.162  24.673  33.509  1.00  0.00     0.022 A 
BRANCH  84  87
ATOM     87  S   UNL A   1      47.870  23.130  35.371  1.00  0.00     0.127 S 
ATOM     88  O   UNL A   1      47.067  22.039  34.821  1.00  0.00    -0.237 OA
ATOM     89  O   UNL A   1      49.288  22.815  35.547  1.00  0.00    -0.237 OA
ATOM     90  O   UNL A   1      47.271  23.850  36.487  1.00  0.00    -0.744 OA
ENDBRANCH  84  87
ENDBRANCH  57  80
ENDBRANCH  31  32
ENDBRANCH  23  26
ENDBRANCH  21  22
ENDBRANCH  20  21
ENDBRANCH   1  20
TORSDOF 17
ENDMDL
