MODEL 1
REMARK VINA RESULT:     -11.1      0.000      0.000
REMARK SMILES Cc1ccccc1-n1c(S[C@@H](C)C(=O)NCCCCNC(=O)c2ccc(-c3c4nc(c(-c5cccc(S(=O)(=O)[O-])c5F)c5ccc([nH]5)c(-c5cccc(S(=O)(=O)[O-])c5F)c5nc(c(-c6cccc(S(=O)(=O)[O-])c6F)c6ccc3[nH]6)C=C5)C=C4)cc2)nc2sc3c(c2c1=O)C[C@@H](C(C)C)OC3
REMARK SMILES IDX 17 1 16 2 15 3 13 4 14 5 11 7 12 8 10 9 9 10 8 11 92 12
REMARK SMILES IDX 86 13 91 14 93 15 87 16 90 17 88 18 89 19 94 20 100 21 95 22
REMARK SMILES IDX 99 23 7 24 1 25 2 26 3 27 4 28 6 29 5 30 96 31 97 32 98 33
REMARK SMILES IDX 18 34 19 35 20 36 21 37 22 39 23 40 24 41 85 42 25 43 84 44
REMARK SMILES IDX 26 45 27 46 28 47 78 48 29 49 83 50 77 51 79 52 30 53 82 54
REMARK SMILES IDX 76 55 75 56 31 58 63 59 43 60 62 61 44 62 47 63 61 64 80 65
REMARK SMILES IDX 45 66 46 67 60 69 81 70 48 71 32 72 33 73 41 74 34 75 36 76
REMARK SMILES IDX 42 77 35 78 37 79 38 80 39 81 40 82 64 83 65 84 73 85 66 86
REMARK SMILES IDX 68 87 74 88 67 89 69 90 70 91 71 92 72 93 49 94 50 95 58 96
REMARK SMILES IDX 51 97 53 98 59 99 52 100 54 101 55 102 56 103 57 104
REMARK H PARENT 15 6 20 38 79 57 47 68
REMARK Flexibility Score: inf
ROOT
ATOM      1  C   UNL A   1      37.159  30.814  33.166  1.00  0.00     0.023 C 
ENDROOT
BRANCH   1   2
ATOM      2  C   UNL A   1      38.545  30.163  33.253  1.00  0.00     0.116 C 
BRANCH   2   3
ATOM      3  N   UNL A   1      39.461  30.454  34.331  1.00  0.00    -0.355 N 
ATOM      4  C   UNL A   1      40.263  31.521  34.620  1.00  0.00     0.233 C 
ATOM      5  O   UNL A   1      40.768  31.426  35.758  1.00  0.00    -0.274 OA
ATOM      6  H   UNL A   1      39.518  29.732  34.999  1.00  0.00     0.163 HD
BRANCH   4   7
ATOM      7  C   UNL A   1      40.775  32.706  33.756  1.00  0.00     0.140 C 
ATOM      8  C   UNL A   1      42.223  33.137  34.120  1.00  0.00     0.030 C 
BRANCH   7   9
ATOM      9  S   UNL A   1      40.015  34.235  33.240  1.00  0.00    -0.074 SA
BRANCH   9  10
ATOM     10  C   UNL A   1      38.810  34.019  32.027  1.00  0.00     0.177 A 
ATOM     11  N   UNL A   1      39.097  33.688  30.699  1.00  0.00    -0.255 N 
ATOM     12  C   UNL A   1      38.051  33.669  29.736  1.00  0.00     0.267 A 
ATOM     13  N   UNL A   1      37.621  34.160  32.525  1.00  0.00    -0.212 NA
ATOM     14  C   UNL A   1      36.721  34.020  30.276  1.00  0.00     0.081 A 
ATOM     15  O   UNL A   1      38.193  33.386  28.551  1.00  0.00    -0.268 OA
ATOM     16  C   UNL A   1      36.612  34.156  31.640  1.00  0.00     0.132 A 
ATOM     17  C   UNL A   1      35.465  34.358  29.654  1.00  0.00    -0.014 A 
ATOM     18  S   UNL A   1      35.023  34.443  32.177  1.00  0.00    -0.117 S 
ATOM     19  C   UNL A   1      34.460  34.557  30.585  1.00  0.00     0.037 A 
ATOM     20  C   UNL A   1      35.116  34.552  28.214  1.00  0.00     0.070 C 
ATOM     21  C   UNL A   1      33.017  34.814  30.287  1.00  0.00     0.207 C 
ATOM     22  C   UNL A   1      33.622  34.214  27.991  1.00  0.00     0.125 C 
ATOM     23  O   UNL A   1      32.808  35.020  28.879  1.00  0.00    -0.372 OA
BRANCH  11  24
ATOM     24  C   UNL A   1      40.457  33.499  30.273  1.00  0.00     0.054 A 
ATOM     25  C   UNL A   1      40.337  30.963  30.457  1.00  0.00     0.046 C 
ATOM     26  C   UNL A   1      41.083  32.243  30.252  1.00  0.00    -0.027 A 
ATOM     27  C   UNL A   1      42.483  32.166  30.040  1.00  0.00     0.005 A 
ATOM     28  C   UNL A   1      43.259  33.311  29.880  1.00  0.00     0.000 A 
ATOM     29  C   UNL A   1      41.254  34.621  30.037  1.00  0.00     0.027 A 
ATOM     30  C   UNL A   1      42.640  34.543  29.893  1.00  0.00     0.002 A 
ENDBRANCH  11  24
BRANCH  22  31
ATOM     31  C   UNL A   1      33.277  32.704  28.108  1.00  0.00     0.012 C 
ATOM     32  C   UNL A   1      32.047  32.352  27.264  1.00  0.00     0.010 C 
ATOM     33  C   UNL A   1      34.454  31.817  27.700  1.00  0.00     0.010 C 
ENDBRANCH  22  31
ENDBRANCH   9  10
ENDBRANCH   7   9
ENDBRANCH   4   7
ENDBRANCH   2   3
ENDBRANCH   1   2
BRANCH   1  34
ATOM     34  C   UNL A   1      36.138  30.642  31.996  1.00  0.00     0.023 C 
BRANCH  34  35
ATOM     35  C   UNL A   1      36.389  30.344  30.488  1.00  0.00     0.116 C 
BRANCH  35  36
ATOM     36  N   UNL A   1      37.087  29.154  29.949  1.00  0.00    -0.352 N 
ATOM     37  C   UNL A   1      37.465  29.021  28.588  1.00  0.00     0.251 C 
ATOM     38  H   UNL A   1      37.298  28.417  30.567  1.00  0.00     0.163 HD
ATOM     39  O   UNL A   1      36.656  29.206  27.677  1.00  0.00    -0.269 OA
BRANCH  37  40
ATOM     40  C   UNL A   1      38.929  28.624  28.233  1.00  0.00     0.039 A 
ATOM     41  C   UNL A   1      39.730  29.325  27.317  1.00  0.00     0.014 A 
ATOM     42  C   UNL A   1      39.614  27.653  28.958  1.00  0.00     0.014 A 
ATOM     43  C   UNL A   1      41.153  29.082  27.210  1.00  0.00     0.010 A 
ATOM     44  C   UNL A   1      41.025  27.431  28.886  1.00  0.00     0.010 A 
ATOM     45  C   UNL A   1      41.851  28.151  28.032  1.00  0.00    -0.014 A 
BRANCH  45  46
ATOM     46  C   UNL A   1      43.372  28.313  28.283  1.00  0.00     0.031 A 
ATOM     47  C   UNL A   1      43.531  27.868  29.768  1.00  0.00     0.074 A 
ATOM     48  C   UNL A   1      44.578  28.017  27.629  1.00  0.00     0.049 A 
ATOM     49  N   UNL A   1      43.662  26.617  30.065  1.00  0.00    -0.248 NA
ATOM     50  C   UNL A   1      43.285  28.668  30.980  1.00  0.00     0.031 C 
ATOM     51  C   UNL A   1      45.746  28.903  27.861  1.00  0.00     0.029 A 
ATOM     52  N   UNL A   1      45.148  27.089  26.678  1.00  0.00    -0.354 N 
ATOM     53  C   UNL A   1      43.844  26.484  31.451  1.00  0.00     0.074 A 
ATOM     54  C   UNL A   1      43.427  27.761  31.978  1.00  0.00     0.031 C 
ATOM     55  C   UNL A   1      46.868  28.441  27.263  1.00  0.00     0.029 A 
ATOM     56  C   UNL A   1      46.619  27.163  26.597  1.00  0.00     0.049 A 
ATOM     57  H   UNL A   1      44.607  26.469  26.138  1.00  0.00     0.167 HD
ATOM     58  C   UNL A   1      44.564  25.409  31.925  1.00  0.00     0.034 A 
ATOM     59  C   UNL A   1      47.637  26.234  26.299  1.00  0.00     0.034 A 
ATOM     60  C   UNL A   1      45.255  24.917  30.778  1.00  0.00     0.049 A 
ATOM     61  C   UNL A   1      47.165  24.863  25.909  1.00  0.00     0.074 A 
ATOM     62  C   UNL A   1      46.320  25.565  30.232  1.00  0.00     0.029 A 
ATOM     63  N   UNL A   1      44.810  23.913  29.953  1.00  0.00    -0.354 N 
ATOM     64  N   UNL A   1      47.181  23.878  26.758  1.00  0.00    -0.248 NA
ATOM     65  C   UNL A   1      46.519  24.459  24.656  1.00  0.00     0.031 C 
ATOM     66  C   UNL A   1      46.221  25.162  28.931  1.00  0.00     0.029 A 
ATOM     67  C   UNL A   1      45.359  24.109  28.699  1.00  0.00     0.049 A 
ATOM     68  H   UNL A   1      44.205  23.181  30.210  1.00  0.00     0.167 HD
ATOM     69  C   UNL A   1      45.976  23.289  26.524  1.00  0.00     0.074 A 
ATOM     70  C   UNL A   1      45.920  23.327  25.077  1.00  0.00     0.031 C 
ATOM     71  C   UNL A   1      44.962  23.429  27.449  1.00  0.00     0.034 A 
BRANCH  58  72
ATOM     72  C   UNL A   1      45.184  24.878  33.211  1.00  0.00     0.023 A 
ATOM     73  C   UNL A   1      46.133  25.758  33.852  1.00  0.00     0.012 A 
ATOM     74  C   UNL A   1      45.096  23.591  33.743  1.00  0.00     0.148 A 
ATOM     75  C   UNL A   1      46.986  25.400  34.882  1.00  0.00     0.002 A 
ATOM     76  C   UNL A   1      45.951  23.229  34.809  1.00  0.00     0.091 A 
ATOM     77  F   UNL A   1      44.231  22.725  33.201  1.00  0.00    -0.205 F 
ATOM     78  C   UNL A   1      46.902  24.119  35.355  1.00  0.00     0.022 A 
BRANCH  76  79
ATOM     79  S   UNL A   1      45.943  21.615  35.592  1.00  0.00     0.127 S 
ATOM     80  O   UNL A   1      47.325  21.169  35.414  1.00  0.00    -0.237 OA
ATOM     81  O   UNL A   1      45.590  21.943  36.976  1.00  0.00    -0.237 OA
ATOM     82  O   UNL A   1      44.938  20.830  34.889  1.00  0.00    -0.744 OA
ENDBRANCH  76  79
ENDBRANCH  58  72
BRANCH  59  83
ATOM     83  C   UNL A   1      49.074  26.157  26.979  1.00  0.00     0.023 A 
ATOM     84  C   UNL A   1      49.269  26.549  28.309  1.00  0.00     0.012 A 
ATOM     85  C   UNL A   1      50.304  25.895  26.249  1.00  0.00     0.148 A 
ATOM     86  C   UNL A   1      50.576  26.645  28.863  1.00  0.00     0.002 A 
ATOM     87  C   UNL A   1      51.581  25.948  26.803  1.00  0.00     0.091 A 
ATOM     88  F   UNL A   1      50.297  25.659  24.946  1.00  0.00    -0.205 F 
ATOM     89  C   UNL A   1      51.722  26.336  28.123  1.00  0.00     0.022 A 
BRANCH  87  90
ATOM     90  S   UNL A   1      53.090  25.589  25.850  1.00  0.00     0.127 S 
ATOM     91  O   UNL A   1      54.136  25.800  26.854  1.00  0.00    -0.237 OA
ATOM     92  O   UNL A   1      52.876  24.188  25.488  1.00  0.00    -0.237 OA
ATOM     93  O   UNL A   1      53.138  26.518  24.731  1.00  0.00    -0.744 OA
ENDBRANCH  87  90
ENDBRANCH  59  83
BRANCH  71  94
ATOM     94  C   UNL A   1      43.506  23.340  27.054  1.00  0.00     0.023 A 
ATOM     95  C   UNL A   1      42.609  24.431  27.146  1.00  0.00     0.012 A 
ATOM     96  C   UNL A   1      42.944  22.100  26.724  1.00  0.00     0.148 A 
ATOM     97  C   UNL A   1      41.238  24.294  26.947  1.00  0.00     0.002 A 
ATOM     98  C   UNL A   1      41.575  21.939  26.619  1.00  0.00     0.091 A 
ATOM     99  F   UNL A   1      43.722  21.043  26.479  1.00  0.00    -0.205 F 
ATOM    100  C   UNL A   1      40.715  23.030  26.746  1.00  0.00     0.022 A 
BRANCH  98 101
ATOM    101  S   UNL A   1      40.975  20.263  26.421  1.00  0.00     0.127 S 
ATOM    102  O   UNL A   1      41.841  19.748  25.355  1.00  0.00    -0.237 OA
ATOM    103  O   UNL A   1      41.236  19.668  27.737  1.00  0.00    -0.237 OA
ATOM    104  O   UNL A   1      39.605  20.414  26.023  1.00  0.00    -0.744 OA
ENDBRANCH  98 101
ENDBRANCH  71  94
ENDBRANCH  45  46
ENDBRANCH  37  40
ENDBRANCH  35  36
ENDBRANCH  34  35
ENDBRANCH   1  34
TORSDOF 18
ENDMDL
MODEL 2
REMARK VINA RESULT:     -10.4      1.577      2.751
REMARK SMILES Cc1ccccc1-n1c(S[C@@H](C)C(=O)NCCCCNC(=O)c2ccc(-c3c4nc(c(-c5cccc(S(=O)(=O)[O-])c5F)c5ccc([nH]5)c(-c5cccc(S(=O)(=O)[O-])c5F)c5nc(c(-c6cccc(S(=O)(=O)[O-])c6F)c6ccc3[nH]6)C=C5)C=C4)cc2)nc2sc3c(c2c1=O)C[C@@H](C(C)C)OC3
REMARK SMILES IDX 17 1 16 2 15 3 13 4 14 5 11 7 12 8 10 9 9 10 8 11 92 12
REMARK SMILES IDX 86 13 91 14 93 15 87 16 90 17 88 18 89 19 94 20 100 21 95 22
REMARK SMILES IDX 99 23 7 24 1 25 2 26 3 27 4 28 6 29 5 30 96 31 97 32 98 33
REMARK SMILES IDX 18 34 19 35 20 36 21 37 22 39 23 40 24 41 85 42 25 43 84 44
REMARK SMILES IDX 26 45 27 46 28 47 78 48 29 49 83 50 77 51 79 52 30 53 82 54
REMARK SMILES IDX 76 55 75 56 31 58 63 59 43 60 62 61 44 62 47 63 61 64 80 65
REMARK SMILES IDX 45 66 46 67 60 69 81 70 48 71 32 72 33 73 41 74 34 75 36 76
REMARK SMILES IDX 42 77 35 78 37 79 38 80 39 81 40 82 64 83 65 84 73 85 66 86
REMARK SMILES IDX 68 87 74 88 67 89 69 90 70 91 71 92 72 93 49 94 50 95 58 96
REMARK SMILES IDX 51 97 53 98 59 99 52 100 54 101 55 102 56 103 57 104
REMARK H PARENT 15 6 20 38 79 57 47 68
REMARK Flexibility Score: inf
ROOT
ATOM      1  C   UNL A   1      37.787  30.479  33.374  1.00  0.00     0.023 C 
ENDROOT
BRANCH   1   2
ATOM      2  C   UNL A   1      39.102  29.701  33.251  1.00  0.00     0.116 C 
BRANCH   2   3
ATOM      3  N   UNL A   1      40.036  29.599  34.348  1.00  0.00    -0.355 N 
ATOM      4  C   UNL A   1      41.143  30.315  34.708  1.00  0.00     0.233 C 
ATOM      5  O   UNL A   1      41.559  29.986  35.838  1.00  0.00    -0.274 OA
ATOM      6  H   UNL A   1      39.833  28.860  34.966  1.00  0.00     0.163 HD
BRANCH   4   7
ATOM      7  C   UNL A   1      42.041  31.312  33.926  1.00  0.00     0.140 C 
ATOM      8  C   UNL A   1      43.553  31.130  34.233  1.00  0.00     0.030 C 
BRANCH   7   9
ATOM      9  S   UNL A   1      41.901  33.062  33.605  1.00  0.00    -0.074 SA
BRANCH   9  10
ATOM     10  C   UNL A   1      40.270  33.619  33.579  1.00  0.00     0.177 A 
ATOM     11  N   UNL A   1      39.594  34.092  34.708  1.00  0.00    -0.255 N 
ATOM     12  C   UNL A   1      38.208  34.397  34.622  1.00  0.00     0.267 A 
ATOM     13  N   UNL A   1      39.787  33.580  32.376  1.00  0.00    -0.212 NA
ATOM     14  C   UNL A   1      37.617  34.167  33.287  1.00  0.00     0.081 A 
ATOM     15  O   UNL A   1      37.524  34.823  35.547  1.00  0.00    -0.268 OA
ATOM     16  C   UNL A   1      38.479  33.855  32.263  1.00  0.00     0.132 A 
ATOM     17  C   UNL A   1      36.257  34.104  32.812  1.00  0.00    -0.014 A 
ATOM     18  S   UNL A   1      37.722  33.725  30.743  1.00  0.00    -0.117 S 
ATOM     19  C   UNL A   1      36.192  33.921  31.441  1.00  0.00     0.037 A 
ATOM     20  C   UNL A   1      34.964  34.169  33.558  1.00  0.00     0.070 C 
ATOM     21  C   UNL A   1      34.951  33.918  30.607  1.00  0.00     0.207 C 
ATOM     22  C   UNL A   1      33.861  34.747  32.637  1.00  0.00     0.125 C 
ATOM     23  O   UNL A   1      33.773  33.947  31.432  1.00  0.00    -0.372 OA
BRANCH  11  24
ATOM     24  C   UNL A   1      40.254  34.142  35.984  1.00  0.00     0.054 A 
ATOM     25  C   UNL A   1      41.317  36.410  35.530  1.00  0.00     0.046 C 
ATOM     26  C   UNL A   1      41.142  35.168  36.344  1.00  0.00    -0.027 A 
ATOM     27  C   UNL A   1      41.924  35.032  37.519  1.00  0.00     0.005 A 
ATOM     28  C   UNL A   1      41.852  33.889  38.313  1.00  0.00     0.000 A 
ATOM     29  C   UNL A   1      40.155  33.044  36.841  1.00  0.00     0.027 A 
ATOM     30  C   UNL A   1      40.973  32.887  37.961  1.00  0.00     0.002 A 
ENDBRANCH  11  24
BRANCH  22  31
ATOM     31  C   UNL A   1      34.014  36.258  32.314  1.00  0.00     0.012 C 
ATOM     32  C   UNL A   1      33.073  36.678  31.180  1.00  0.00     0.010 C 
ATOM     33  C   UNL A   1      33.763  37.132  33.544  1.00  0.00     0.010 C 
ENDBRANCH  22  31
ENDBRANCH   9  10
ENDBRANCH   7   9
ENDBRANCH   4   7
ENDBRANCH   2   3
ENDBRANCH   1   2
BRANCH   1  34
ATOM     34  C   UNL A   1      36.601  30.440  32.357  1.00  0.00     0.023 C 
BRANCH  34  35
ATOM     35  C   UNL A   1      36.603  30.119  30.833  1.00  0.00     0.116 C 
BRANCH  35  36
ATOM     36  N   UNL A   1      37.313  28.989  30.191  1.00  0.00    -0.352 N 
ATOM     37  C   UNL A   1      37.581  28.925  28.799  1.00  0.00     0.251 C 
ATOM     38  H   UNL A   1      37.614  28.244  30.759  1.00  0.00     0.163 HD
ATOM     39  O   UNL A   1      36.689  29.097  27.966  1.00  0.00    -0.269 OA
BRANCH  37  40
ATOM     40  C   UNL A   1      39.027  28.622  28.308  1.00  0.00     0.039 A 
ATOM     41  C   UNL A   1      39.797  29.512  27.541  1.00  0.00     0.014 A 
ATOM     42  C   UNL A   1      39.734  27.516  28.771  1.00  0.00     0.014 A 
ATOM     43  C   UNL A   1      41.214  29.303  27.327  1.00  0.00     0.010 A 
ATOM     44  C   UNL A   1      41.141  27.319  28.597  1.00  0.00     0.010 A 
ATOM     45  C   UNL A   1      41.937  28.215  27.894  1.00  0.00    -0.014 A 
BRANCH  45  46
ATOM     46  C   UNL A   1      43.467  28.321  28.115  1.00  0.00     0.031 A 
ATOM     47  C   UNL A   1      43.633  27.915  29.610  1.00  0.00     0.074 A 
ATOM     48  C   UNL A   1      44.650  27.956  27.451  1.00  0.00     0.049 A 
ATOM     49  N   UNL A   1      43.719  26.668  29.943  1.00  0.00    -0.248 NA
ATOM     50  C   UNL A   1      43.441  28.759  30.801  1.00  0.00     0.031 C 
ATOM     51  C   UNL A   1      45.856  28.800  27.638  1.00  0.00     0.029 A 
ATOM     52  N   UNL A   1      45.165  26.978  26.520  1.00  0.00    -0.354 N 
ATOM     53  C   UNL A   1      43.919  26.570  31.329  1.00  0.00     0.074 A 
ATOM     54  C   UNL A   1      43.564  27.878  31.824  1.00  0.00     0.031 C 
ATOM     55  C   UNL A   1      46.948  28.274  27.036  1.00  0.00     0.029 A 
ATOM     56  C   UNL A   1      46.636  26.989  26.413  1.00  0.00     0.049 A 
ATOM     57  H   UNL A   1      44.590  26.364  26.008  1.00  0.00     0.167 HD
ATOM     58  C   UNL A   1      44.603  25.480  31.824  1.00  0.00     0.034 A 
ATOM     59  C   UNL A   1      47.610  26.010  26.128  1.00  0.00     0.034 A 
ATOM     60  C   UNL A   1      45.253  24.927  30.682  1.00  0.00     0.049 A 
ATOM     61  C   UNL A   1      47.076  24.649  25.787  1.00  0.00     0.074 A 
ATOM     62  C   UNL A   1      46.334  25.514  30.100  1.00  0.00     0.029 A 
ATOM     63  N   UNL A   1      44.755  23.918  29.896  1.00  0.00    -0.354 N 
ATOM     64  N   UNL A   1      47.067  23.689  26.666  1.00  0.00    -0.248 NA
ATOM     65  C   UNL A   1      46.393  24.234  24.558  1.00  0.00     0.031 C 
ATOM     66  C   UNL A   1      46.197  25.076  28.813  1.00  0.00     0.029 A 
ATOM     67  C   UNL A   1      45.289  24.054  28.628  1.00  0.00     0.049 A 
ATOM     68  H   UNL A   1      44.125  23.219  30.185  1.00  0.00     0.167 HD
ATOM     69  C   UNL A   1      45.835  23.144  26.469  1.00  0.00     0.074 A 
ATOM     70  C   UNL A   1      45.756  23.140  25.023  1.00  0.00     0.031 C 
ATOM     71  C   UNL A   1      44.843  23.353  27.405  1.00  0.00     0.034 A 
BRANCH  58  72
ATOM     72  C   UNL A   1      45.222  24.964  33.116  1.00  0.00     0.023 A 
ATOM     73  C   UNL A   1      45.990  25.929  33.867  1.00  0.00     0.012 A 
ATOM     74  C   UNL A   1      45.301  23.646  33.568  1.00  0.00     0.148 A 
ATOM     75  C   UNL A   1      46.829  25.635  34.929  1.00  0.00     0.002 A 
ATOM     76  C   UNL A   1      46.140  23.344  34.665  1.00  0.00     0.091 A 
ATOM     77  F   UNL A   1      44.608  22.699  32.922  1.00  0.00    -0.205 F 
ATOM     78  C   UNL A   1      46.913  24.326  35.322  1.00  0.00     0.022 A 
BRANCH  76  79
ATOM     79  S   UNL A   1      46.332  21.698  35.353  1.00  0.00     0.127 S 
ATOM     80  O   UNL A   1      47.256  21.067  34.412  1.00  0.00    -0.237 OA
ATOM     81  O   UNL A   1      46.911  21.979  36.670  1.00  0.00    -0.237 OA
ATOM     82  O   UNL A   1      44.996  21.121  35.400  1.00  0.00    -0.744 OA
ENDBRANCH  76  79
ENDBRANCH  58  72
BRANCH  59  83
ATOM     83  C   UNL A   1      49.054  25.894  26.787  1.00  0.00     0.023 A 
ATOM     84  C   UNL A   1      49.236  26.046  28.167  1.00  0.00     0.012 A 
ATOM     85  C   UNL A   1      50.292  25.844  26.025  1.00  0.00     0.148 A 
ATOM     86  C   UNL A   1      50.539  26.115  28.734  1.00  0.00     0.002 A 
ATOM     87  C   UNL A   1      51.567  25.870  26.584  1.00  0.00     0.091 A 
ATOM     88  F   UNL A   1      50.289  25.852  24.702  1.00  0.00    -0.205 F 
ATOM     89  C   UNL A   1      51.696  26.016  27.953  1.00  0.00     0.022 A 
BRANCH  87  90
ATOM     90  S   UNL A   1      53.088  25.783  25.587  1.00  0.00     0.127 S 
ATOM     91  O   UNL A   1      54.110  26.168  26.564  1.00  0.00    -0.237 OA
ATOM     92  O   UNL A   1      53.110  24.368  25.217  1.00  0.00    -0.237 OA
ATOM     93  O   UNL A   1      52.942  26.712  24.476  1.00  0.00    -0.744 OA
ENDBRANCH  87  90
ENDBRANCH  59  83
BRANCH  71  94
ATOM     94  C   UNL A   1      43.379  23.313  27.037  1.00  0.00     0.023 A 
ATOM     95  C   UNL A   1      42.524  24.436  27.129  1.00  0.00     0.012 A 
ATOM     96  C   UNL A   1      42.766  22.089  26.734  1.00  0.00     0.148 A 
ATOM     97  C   UNL A   1      41.146  24.347  26.955  1.00  0.00     0.002 A 
ATOM     98  C   UNL A   1      41.391  21.978  26.655  1.00  0.00     0.091 A 
ATOM     99  F   UNL A   1      43.501  21.001  26.491  1.00  0.00    -0.205 F 
ATOM    100  C   UNL A   1      40.573  23.101  26.780  1.00  0.00     0.022 A 
BRANCH  98 101
ATOM    101  S   UNL A   1      40.726  20.322  26.490  1.00  0.00     0.127 S 
ATOM    102  O   UNL A   1      41.579  19.749  25.443  1.00  0.00    -0.237 OA
ATOM    103  O   UNL A   1      40.955  19.748  27.822  1.00  0.00    -0.237 OA
ATOM    104  O   UNL A   1      39.366  20.517  26.079  1.00  0.00    -0.744 OA
ENDBRANCH  98 101
ENDBRANCH  71  94
ENDBRANCH  45  46
ENDBRANCH  37  40
ENDBRANCH  35  36
ENDBRANCH  34  35
ENDBRANCH   1  34
TORSDOF 18
ENDMDL
MODEL 3
REMARK VINA RESULT:      -9.9      4.094     13.259
REMARK SMILES Cc1ccccc1-n1c(S[C@@H](C)C(=O)NCCCCNC(=O)c2ccc(-c3c4nc(c(-c5cccc(S(=O)(=O)[O-])c5F)c5ccc([nH]5)c(-c5cccc(S(=O)(=O)[O-])c5F)c5nc(c(-c6cccc(S(=O)(=O)[O-])c6F)c6ccc3[nH]6)C=C5)C=C4)cc2)nc2sc3c(c2c1=O)C[C@@H](C(C)C)OC3
REMARK SMILES IDX 17 1 16 2 15 3 13 4 14 5 11 7 12 8 10 9 9 10 8 11 92 12
REMARK SMILES IDX 86 13 91 14 93 15 87 16 90 17 88 18 89 19 94 20 100 21 95 22
REMARK SMILES IDX 99 23 7 24 1 25 2 26 3 27 4 28 6 29 5 30 96 31 97 32 98 33
REMARK SMILES IDX 18 34 19 35 20 36 21 37 22 39 23 40 24 41 85 42 25 43 84 44
REMARK SMILES IDX 26 45 27 46 28 47 78 48 29 49 83 50 77 51 79 52 30 53 82 54
REMARK SMILES IDX 76 55 75 56 31 58 63 59 43 60 62 61 44 62 47 63 61 64 80 65
REMARK SMILES IDX 45 66 46 67 60 69 81 70 48 71 32 72 33 73 41 74 34 75 36 76
REMARK SMILES IDX 42 77 35 78 37 79 38 80 39 81 40 82 64 83 65 84 73 85 66 86
REMARK SMILES IDX 68 87 74 88 67 89 69 90 70 91 71 92 72 93 49 94 50 95 58 96
REMARK SMILES IDX 51 97 53 98 59 99 52 100 54 101 55 102 56 103 57 104
REMARK H PARENT 15 6 20 38 79 57 47 68
REMARK Flexibility Score: inf
ROOT
ATOM      1  C   UNL A   1      43.563  23.608  29.940  1.00  0.00     0.023 C 
ENDROOT
BRANCH   1   2
ATOM      2  C   UNL A   1      43.940  23.377  28.473  1.00  0.00     0.116 C 
BRANCH   2   3
ATOM      3  N   UNL A   1      43.269  22.393  27.655  1.00  0.00    -0.355 N 
ATOM      4  C   UNL A   1      43.033  22.291  26.313  1.00  0.00     0.233 C 
ATOM      5  O   UNL A   1      42.558  21.176  26.011  1.00  0.00    -0.274 OA
ATOM      6  H   UNL A   1      42.906  21.638  28.173  1.00  0.00     0.163 HD
BRANCH   4   7
ATOM      7  C   UNL A   1      43.091  23.330  25.160  1.00  0.00     0.140 C 
ATOM      8  C   UNL A   1      44.313  23.123  24.223  1.00  0.00     0.030 C 
BRANCH   7   9
ATOM      9  S   UNL A   1      42.843  25.096  25.119  1.00  0.00    -0.074 SA
BRANCH   9  10
ATOM     10  C   UNL A   1      43.904  25.956  26.170  1.00  0.00     0.177 A 
ATOM     11  N   UNL A   1      43.464  26.800  27.196  1.00  0.00    -0.255 N 
ATOM     12  C   UNL A   1      44.408  27.577  27.921  1.00  0.00     0.267 A 
ATOM     13  N   UNL A   1      45.142  25.677  25.907  1.00  0.00    -0.212 NA
ATOM     14  C   UNL A   1      45.808  27.396  27.485  1.00  0.00     0.081 A 
ATOM     15  O   UNL A   1      44.130  28.341  28.840  1.00  0.00    -0.268 OA
ATOM     16  C   UNL A   1      46.058  26.401  26.570  1.00  0.00     0.132 A 
ATOM     17  C   UNL A   1      47.022  28.127  27.749  1.00  0.00    -0.014 A 
ATOM     18  S   UNL A   1      47.710  26.190  26.218  1.00  0.00    -0.117 S 
ATOM     19  C   UNL A   1      48.126  27.536  27.157  1.00  0.00     0.037 A 
ATOM     20  C   UNL A   1      47.247  29.396  28.507  1.00  0.00     0.070 C 
ATOM     21  C   UNL A   1      49.550  27.965  27.313  1.00  0.00     0.207 C 
ATOM     22  C   UNL A   1      48.680  29.404  29.094  1.00  0.00     0.125 C 
ATOM     23  O   UNL A   1      49.640  29.212  28.025  1.00  0.00    -0.372 OA
BRANCH  11  24
ATOM     24  C   UNL A   1      42.059  26.988  27.432  1.00  0.00     0.054 A 
ATOM     25  C   UNL A   1      41.894  28.982  25.858  1.00  0.00     0.046 C 
ATOM     26  C   UNL A   1      41.332  28.063  26.895  1.00  0.00    -0.027 A 
ATOM     27  C   UNL A   1      40.013  28.309  27.352  1.00  0.00     0.005 A 
ATOM     28  C   UNL A   1      39.428  27.525  28.344  1.00  0.00     0.000 A 
ATOM     29  C   UNL A   1      41.415  26.180  28.371  1.00  0.00     0.027 A 
ATOM     30  C   UNL A   1      40.141  26.465  28.863  1.00  0.00     0.002 A 
ENDBRANCH  11  24
BRANCH  22  31
ATOM     31  C   UNL A   1      48.907  28.400  30.257  1.00  0.00     0.012 C 
ATOM     32  C   UNL A   1      50.254  28.648  30.944  1.00  0.00     0.010 C 
ATOM     33  C   UNL A   1      47.781  28.460  31.291  1.00  0.00     0.010 C 
ENDBRANCH  22  31
ENDBRANCH   9  10
ENDBRANCH   7   9
ENDBRANCH   4   7
ENDBRANCH   2   3
ENDBRANCH   1   2
BRANCH   1  34
ATOM     34  C   UNL A   1      44.255  22.952  31.179  1.00  0.00     0.023 C 
BRANCH  34  35
ATOM     35  C   UNL A   1      44.167  23.329  32.687  1.00  0.00     0.116 C 
BRANCH  35  36
ATOM     36  N   UNL A   1      44.339  24.690  33.247  1.00  0.00    -0.352 N 
ATOM     37  C   UNL A   1      44.675  25.821  32.459  1.00  0.00     0.251 C 
ATOM     38  H   UNL A   1      44.214  24.815  34.216  1.00  0.00     0.163 HD
ATOM     39  O   UNL A   1      45.635  25.803  31.687  1.00  0.00    -0.269 OA
BRANCH  37  40
ATOM     40  C   UNL A   1      43.823  27.119  32.578  1.00  0.00     0.039 A 
ATOM     41  C   UNL A   1      42.790  27.461  31.689  1.00  0.00     0.014 A 
ATOM     42  C   UNL A   1      43.897  27.937  33.701  1.00  0.00     0.014 A 
ATOM     43  C   UNL A   1      41.861  28.533  31.979  1.00  0.00     0.010 A 
ATOM     44  C   UNL A   1      42.962  28.974  34.015  1.00  0.00     0.010 A 
ATOM     45  C   UNL A   1      41.897  29.294  33.183  1.00  0.00    -0.014 A 
BRANCH  45  46
ATOM     46  C   UNL A   1      40.620  30.005  33.699  1.00  0.00     0.031 A 
ATOM     47  C   UNL A   1      41.178  30.992  34.768  1.00  0.00     0.074 A 
ATOM     48  C   UNL A   1      39.456  30.583  33.168  1.00  0.00     0.049 A 
ATOM     49  N   UNL A   1      41.626  32.152  34.416  1.00  0.00    -0.248 NA
ATOM     50  C   UNL A   1      41.533  30.700  36.167  1.00  0.00     0.031 C 
ATOM     51  C   UNL A   1      38.213  30.545  33.977  1.00  0.00     0.029 A 
ATOM     52  N   UNL A   1      38.962  31.233  31.975  1.00  0.00    -0.354 N 
ATOM     53  C   UNL A   1      42.015  32.868  35.560  1.00  0.00     0.074 A 
ATOM     54  C   UNL A   1      42.098  31.858  36.588  1.00  0.00     0.031 C 
ATOM     55  C   UNL A   1      37.201  31.232  33.398  1.00  0.00     0.029 A 
ATOM     56  C   UNL A   1      37.641  31.864  32.156  1.00  0.00     0.049 A 
ATOM     57  H   UNL A   1      39.459  31.253  31.125  1.00  0.00     0.167 HD
ATOM     58  C   UNL A   1      41.956  34.245  35.533  1.00  0.00     0.034 A 
ATOM     59  C   UNL A   1      36.997  32.981  31.586  1.00  0.00     0.034 A 
ATOM     60  C   UNL A   1      41.130  34.538  34.408  1.00  0.00     0.049 A 
ATOM     61  C   UNL A   1      37.761  33.682  30.499  1.00  0.00     0.074 A 
ATOM     62  C   UNL A   1      39.782  34.343  34.420  1.00  0.00     0.029 A 
ATOM     63  N   UNL A   1      41.580  34.799  33.138  1.00  0.00    -0.354 N 
ATOM     64  N   UNL A   1      38.410  34.785  30.735  1.00  0.00    -0.248 NA
ATOM     65  C   UNL A   1      38.014  33.212  29.134  1.00  0.00     0.031 C 
ATOM     66  C   UNL A   1      39.548  34.122  33.093  1.00  0.00     0.029 A 
ATOM     67  C   UNL A   1      40.588  34.441  32.244  1.00  0.00     0.049 A 
ATOM     68  H   UNL A   1      42.459  35.176  32.904  1.00  0.00     0.167 HD
ATOM     69  C   UNL A   1      39.576  34.570  30.066  1.00  0.00     0.074 A 
ATOM     70  C   UNL A   1      39.091  33.969  28.841  1.00  0.00     0.031 C 
ATOM     71  C   UNL A   1      40.729  34.311  30.779  1.00  0.00     0.034 A 
BRANCH  58  72
ATOM     72  C   UNL A   1      42.077  35.449  36.457  1.00  0.00     0.023 A 
ATOM     73  C   UNL A   1      43.355  36.122  36.436  1.00  0.00     0.012 A 
ATOM     74  C   UNL A   1      41.189  35.869  37.447  1.00  0.00     0.148 A 
ATOM     75  C   UNL A   1      43.773  37.076  37.349  1.00  0.00     0.002 A 
ATOM     76  C   UNL A   1      41.604  36.858  38.369  1.00  0.00     0.091 A 
ATOM     77  F   UNL A   1      39.982  35.293  37.520  1.00  0.00    -0.205 F 
ATOM     78  C   UNL A   1      42.891  37.437  38.332  1.00  0.00     0.022 A 
BRANCH  76  79
ATOM     79  S   UNL A   1      40.566  37.495  39.686  1.00  0.00     0.127 S 
ATOM     80  O   UNL A   1      40.657  36.443  40.698  1.00  0.00    -0.237 OA
ATOM     81  O   UNL A   1      41.252  38.738  40.048  1.00  0.00    -0.237 OA
ATOM     82  O   UNL A   1      39.246  37.689  39.103  1.00  0.00    -0.744 OA
ENDBRANCH  76  79
ENDBRANCH  58  72
BRANCH  59  83
ATOM     83  C   UNL A   1      36.033  34.001  32.337  1.00  0.00     0.023 A 
ATOM     84  C   UNL A   1      36.059  34.132  33.730  1.00  0.00     0.012 A 
ATOM     85  C   UNL A   1      34.930  34.699  31.694  1.00  0.00     0.148 A 
ATOM     86  C   UNL A   1      35.085  34.910  34.414  1.00  0.00     0.002 A 
ATOM     87  C   UNL A   1      34.002  35.495  32.359  1.00  0.00     0.091 A 
ATOM     88  F   UNL A   1      34.681  34.554  30.402  1.00  0.00    -0.205 F 
ATOM     89  C   UNL A   1      34.071  35.597  33.737  1.00  0.00     0.022 A 
BRANCH  87  90
ATOM     90  S   UNL A   1      32.650  36.366  31.504  1.00  0.00     0.127 S 
ATOM     91  O   UNL A   1      31.846  35.250  30.999  1.00  0.00    -0.237 OA
ATOM     92  O   UNL A   1      32.036  37.100  32.610  1.00  0.00    -0.237 OA
ATOM     93  O   UNL A   1      33.245  37.194  30.466  1.00  0.00    -0.744 OA
ENDBRANCH  87  90
ENDBRANCH  59  83
BRANCH  71  94
ATOM     94  C   UNL A   1      41.871  33.520  30.186  1.00  0.00     0.023 A 
ATOM     95  C   UNL A   1      42.053  32.135  30.408  1.00  0.00     0.012 A 
ATOM     96  C   UNL A   1      42.903  34.182  29.509  1.00  0.00     0.148 A 
ATOM     97  C   UNL A   1      43.198  31.454  30.003  1.00  0.00     0.002 A 
ATOM     98  C   UNL A   1      44.082  33.533  29.190  1.00  0.00     0.091 A 
ATOM     99  F   UNL A   1      42.765  35.455  29.131  1.00  0.00    -0.205 F 
ATOM    100  C   UNL A   1      44.241  32.171  29.449  1.00  0.00     0.022 A 
BRANCH  98 101
ATOM    101  S   UNL A   1      45.406  34.545  28.533  1.00  0.00     0.127 S 
ATOM    102  O   UNL A   1      45.152  35.840  29.174  1.00  0.00    -0.237 OA
ATOM    103  O   UNL A   1      46.609  33.864  29.028  1.00  0.00    -0.237 OA
ATOM    104  O   UNL A   1      45.187  34.554  27.116  1.00  0.00    -0.744 OA
ENDBRANCH  98 101
ENDBRANCH  71  94
ENDBRANCH  45  46
ENDBRANCH  37  40
ENDBRANCH  35  36
ENDBRANCH  34  35
ENDBRANCH   1  34
TORSDOF 18
ENDMDL
