MODEL 1
REMARK VINA RESULT:     -13.2      0.000      0.000
REMARK SMILES Cc1ccc(NC(=O)N2CCCC[C@@H]2C(=O)NCCCCNC(=O)c2ccc(-c3c4nc(c(-c5cccc(S(=O)(=O)[O-])c5F)c5ccc([nH]5)c(-c5cccc(S(=O)(=O)[O-])c5F)c5nc(c(-c6cccc(S(=O)(=O)[O-])c6F)c6ccc3[nH]6)C=C5)C=C4)cc2)cc1
REMARK SMILES IDX 20 1 19 2 18 3 17 4 15 5 16 6 14 8 9 9 10 10 11 11 13 12
REMARK SMILES IDX 12 13 7 14 6 15 8 17 5 18 1 19 2 20 3 21 89 22 4 23 88 24
REMARK SMILES IDX 21 25 22 26 23 27 24 29 25 30 26 31 87 32 27 33 86 34 28 35
REMARK SMILES IDX 29 36 30 37 80 38 31 39 85 40 79 41 81 42 32 43 84 44 78 45
REMARK SMILES IDX 77 46 33 48 65 49 45 50 64 51 46 52 49 53 63 54 82 55 47 56
REMARK SMILES IDX 48 57 62 59 83 60 50 61 34 62 35 63 43 64 36 65 38 66 44 67
REMARK SMILES IDX 37 68 39 69 40 70 41 71 42 72 66 73 67 74 75 75 68 76 70 77
REMARK SMILES IDX 76 78 69 79 71 80 72 81 73 82 74 83 51 84 52 85 60 86 53 87
REMARK SMILES IDX 55 88 61 89 54 90 56 91 57 92 58 93 59 94
REMARK H PARENT 17 7 6 16 22 28 81 47 49 58
REMARK Flexibility Score: inf
ROOT
ATOM      1  C   UNL A   1      32.779  30.810  27.016  1.00  0.00     0.023 C 
ENDROOT
BRANCH   1   2
ATOM      2  C   UNL A   1      31.816  29.625  26.885  1.00  0.00     0.023 C 
BRANCH   2   3
ATOM      3  C   UNL A   1      32.293  28.472  25.979  1.00  0.00     0.116 C 
BRANCH   3   4
ATOM      4  N   UNL A   1      31.249  28.042  25.063  1.00  0.00    -0.354 N 
ATOM      5  C   UNL A   1      30.911  26.803  24.611  1.00  0.00     0.242 C 
ATOM      6  O   UNL A   1      30.232  26.756  23.577  1.00  0.00    -0.273 OA
ATOM      7  H   UNL A   1      30.691  28.772  24.708  1.00  0.00     0.163 HD
BRANCH   5   8
ATOM      8  C   UNL A   1      31.470  25.503  25.240  1.00  0.00     0.176 C 
ATOM      9  N   UNL A   1      32.009  24.523  24.259  1.00  0.00    -0.313 N 
ATOM     10  C   UNL A   1      32.064  23.113  24.632  1.00  0.00     0.122 C 
ATOM     11  C   UNL A   1      30.887  22.623  25.455  1.00  0.00     0.022 C 
ATOM     12  C   UNL A   1      30.372  24.933  26.160  1.00  0.00     0.035 C 
ATOM     13  C   UNL A   1      30.671  23.529  26.653  1.00  0.00     0.004 C 
BRANCH   9  14
ATOM     14  C   UNL A   1      32.808  24.849  23.171  1.00  0.00     0.322 C 
ATOM     15  N   UNL A   1      34.156  24.963  23.315  1.00  0.00    -0.308 N 
ATOM     16  H   UNL A   1      34.558  25.749  22.877  1.00  0.00     0.171 HD
ATOM     17  O   UNL A   1      32.313  25.099  22.070  1.00  0.00    -0.248 OA
BRANCH  15  18
ATOM     18  C   UNL A   1      35.061  24.129  23.994  1.00  0.00     0.042 A 
ATOM     19  C   UNL A   1      38.292  21.862  25.696  1.00  0.00     0.044 C 
ATOM     20  C   UNL A   1      37.081  22.564  25.159  1.00  0.00    -0.051 A 
ATOM     21  C   UNL A   1      36.507  23.621  25.871  1.00  0.00     0.005 A 
ATOM     22  C   UNL A   1      36.570  22.240  23.898  1.00  0.00     0.005 A 
ATOM     23  C   UNL A   1      35.481  24.376  25.303  1.00  0.00     0.026 A 
ATOM     24  C   UNL A   1      35.551  23.008  23.325  1.00  0.00     0.026 A 
ENDBRANCH  15  18
ENDBRANCH   9  14
ENDBRANCH   5   8
ENDBRANCH   3   4
ENDBRANCH   2   3
ENDBRANCH   1   2
BRANCH   1  25
ATOM     25  C   UNL A   1      34.221  30.402  27.269  1.00  0.00     0.116 C 
BRANCH  25  26
ATOM     26  N   UNL A   1      35.036  31.443  27.863  1.00  0.00    -0.352 N 
ATOM     27  C   UNL A   1      36.241  31.347  28.545  1.00  0.00     0.251 C 
ATOM     28  H   UNL A   1      34.680  32.357  27.769  1.00  0.00     0.163 HD
ATOM     29  O   UNL A   1      36.649  32.319  29.150  1.00  0.00    -0.269 OA
BRANCH  27  30
ATOM     30  C   UNL A   1      37.047  30.096  28.456  1.00  0.00     0.039 A 
ATOM     31  C   UNL A   1      37.174  29.301  29.604  1.00  0.00     0.014 A 
ATOM     32  C   UNL A   1      37.780  29.777  27.315  1.00  0.00     0.014 A 
ATOM     33  C   UNL A   1      38.181  28.334  29.675  1.00  0.00     0.010 A 
ATOM     34  C   UNL A   1      38.824  28.877  27.406  1.00  0.00     0.010 A 
ATOM     35  C   UNL A   1      39.061  28.196  28.603  1.00  0.00    -0.014 A 
BRANCH  35  36
ATOM     36  C   UNL A   1      40.331  27.485  28.666  1.00  0.00     0.031 A 
ATOM     37  C   UNL A   1      40.436  26.035  28.427  1.00  0.00     0.074 A 
ATOM     38  C   UNL A   1      41.469  28.203  28.801  1.00  0.00     0.049 A 
ATOM     39  N   UNL A   1      41.417  25.316  28.858  1.00  0.00    -0.248 NA
ATOM     40  C   UNL A   1      39.445  25.287  27.669  1.00  0.00     0.031 C 
ATOM     41  C   UNL A   1      42.833  27.758  28.540  1.00  0.00     0.029 A 
ATOM     42  N   UNL A   1      41.625  29.445  29.417  1.00  0.00    -0.354 N 
ATOM     43  C   UNL A   1      41.336  24.094  28.232  1.00  0.00     0.074 A 
ATOM     44  C   UNL A   1      40.058  24.102  27.554  1.00  0.00     0.031 C 
ATOM     45  C   UNL A   1      43.676  28.537  29.232  1.00  0.00     0.029 A 
ATOM     46  C   UNL A   1      42.871  29.411  30.067  1.00  0.00     0.049 A 
ATOM     47  H   UNL A   1      40.989  30.197  29.399  1.00  0.00     0.167 HD
ATOM     48  C   UNL A   1      42.417  23.263  28.225  1.00  0.00     0.034 A 
ATOM     49  C   UNL A   1      43.027  29.611  31.407  1.00  0.00     0.034 A 
ATOM     50  C   UNL A   1      43.570  23.843  28.923  1.00  0.00     0.049 A 
ATOM     51  C   UNL A   1      43.669  28.435  32.126  1.00  0.00     0.074 A 
ATOM     52  C   UNL A   1      44.731  24.483  28.514  1.00  0.00     0.029 A 
ATOM     53  N   UNL A   1      43.500  24.028  30.291  1.00  0.00    -0.354 N 
ATOM     54  N   UNL A   1      44.147  27.368  31.545  1.00  0.00    -0.248 NA
ATOM     55  C   UNL A   1      43.707  28.329  33.586  1.00  0.00     0.031 C 
ATOM     56  C   UNL A   1      45.354  25.055  29.661  1.00  0.00     0.029 A 
ATOM     57  C   UNL A   1      44.578  24.755  30.765  1.00  0.00     0.049 A 
ATOM     58  H   UNL A   1      42.771  23.687  30.858  1.00  0.00     0.167 HD
ATOM     59  C   UNL A   1      44.354  26.393  32.493  1.00  0.00     0.074 A 
ATOM     60  C   UNL A   1      44.109  27.060  33.759  1.00  0.00     0.031 C 
ATOM     61  C   UNL A   1      44.625  25.089  32.181  1.00  0.00     0.034 A 
BRANCH  48  62
ATOM     62  C   UNL A   1      42.516  22.046  27.331  1.00  0.00     0.023 A 
ATOM     63  C   UNL A   1      41.678  20.945  27.613  1.00  0.00     0.012 A 
ATOM     64  C   UNL A   1      43.417  21.889  26.255  1.00  0.00     0.148 A 
ATOM     65  C   UNL A   1      41.803  19.721  26.952  1.00  0.00     0.002 A 
ATOM     66  C   UNL A   1      43.605  20.642  25.656  1.00  0.00     0.091 A 
ATOM     67  F   UNL A   1      44.049  22.963  25.764  1.00  0.00    -0.205 F 
ATOM     68  C   UNL A   1      42.799  19.553  26.003  1.00  0.00     0.022 A 
BRANCH  66  69
ATOM     69  S   UNL A   1      44.979  20.318  24.537  1.00  0.00     0.127 S 
ATOM     70  O   UNL A   1      46.139  20.675  25.358  1.00  0.00    -0.237 OA
ATOM     71  O   UNL A   1      44.843  18.890  24.268  1.00  0.00    -0.237 OA
ATOM     72  O   UNL A   1      44.774  21.207  23.399  1.00  0.00    -0.744 OA
ENDBRANCH  66  69
ENDBRANCH  48  62
BRANCH  49  73
ATOM     73  C   UNL A   1      41.991  30.511  31.992  1.00  0.00     0.023 A 
ATOM     74  C   UNL A   1      41.947  31.843  31.516  1.00  0.00     0.012 A 
ATOM     75  C   UNL A   1      40.879  30.005  32.688  1.00  0.00     0.148 A 
ATOM     76  C   UNL A   1      40.786  32.609  31.630  1.00  0.00     0.002 A 
ATOM     77  C   UNL A   1      39.728  30.779  32.806  1.00  0.00     0.091 A 
ATOM     78  F   UNL A   1      40.925  28.751  33.155  1.00  0.00    -0.205 F 
ATOM     79  C   UNL A   1      39.667  32.065  32.250  1.00  0.00     0.022 A 
BRANCH  77  80
ATOM     80  S   UNL A   1      38.243  30.105  33.559  1.00  0.00     0.127 S 
ATOM     81  O   UNL A   1      37.230  31.050  33.101  1.00  0.00    -0.237 OA
ATOM     82  O   UNL A   1      38.161  28.774  32.961  1.00  0.00    -0.237 OA
ATOM     83  O   UNL A   1      38.530  30.098  34.987  1.00  0.00    -0.744 OA
ENDBRANCH  77  80
ENDBRANCH  49  73
BRANCH  61  84
ATOM     84  C   UNL A   1      44.929  24.015  33.213  1.00  0.00     0.023 A 
ATOM     85  C   UNL A   1      43.908  23.162  33.680  1.00  0.00     0.012 A 
ATOM     86  C   UNL A   1      46.193  23.901  33.850  1.00  0.00     0.148 A 
ATOM     87  C   UNL A   1      44.144  22.190  34.660  1.00  0.00     0.002 A 
ATOM     88  C   UNL A   1      46.401  22.992  34.883  1.00  0.00     0.091 A 
ATOM     89  F   UNL A   1      47.216  24.658  33.440  1.00  0.00    -0.205 F 
ATOM     90  C   UNL A   1      45.388  22.112  35.269  1.00  0.00     0.022 A 
BRANCH  88  91
ATOM     91  S   UNL A   1      47.921  22.947  35.849  1.00  0.00     0.127 S 
ATOM     92  O   UNL A   1      47.566  22.005  36.913  1.00  0.00    -0.237 OA
ATOM     93  O   UNL A   1      48.879  22.430  34.875  1.00  0.00    -0.237 OA
ATOM     94  O   UNL A   1      48.156  24.309  36.302  1.00  0.00    -0.744 OA
ENDBRANCH  88  91
ENDBRANCH  61  84
ENDBRANCH  35  36
ENDBRANCH  27  30
ENDBRANCH  25  26
ENDBRANCH   1  25
TORSDOF 16
ENDMDL
MODEL 2
REMARK VINA RESULT:     -13.2      4.167     10.348
REMARK SMILES Cc1ccc(NC(=O)N2CCCC[C@@H]2C(=O)NCCCCNC(=O)c2ccc(-c3c4nc(c(-c5cccc(S(=O)(=O)[O-])c5F)c5ccc([nH]5)c(-c5cccc(S(=O)(=O)[O-])c5F)c5nc(c(-c6cccc(S(=O)(=O)[O-])c6F)c6ccc3[nH]6)C=C5)C=C4)cc2)cc1
REMARK SMILES IDX 20 1 19 2 18 3 17 4 15 5 16 6 14 8 9 9 10 10 11 11 13 12
REMARK SMILES IDX 12 13 7 14 6 15 8 17 5 18 1 19 2 20 3 21 89 22 4 23 88 24
REMARK SMILES IDX 21 25 22 26 23 27 24 29 25 30 26 31 87 32 27 33 86 34 28 35
REMARK SMILES IDX 29 36 30 37 80 38 31 39 85 40 79 41 81 42 32 43 84 44 78 45
REMARK SMILES IDX 77 46 33 48 65 49 45 50 64 51 46 52 49 53 63 54 82 55 47 56
REMARK SMILES IDX 48 57 62 59 83 60 50 61 34 62 35 63 43 64 36 65 38 66 44 67
REMARK SMILES IDX 37 68 39 69 40 70 41 71 42 72 66 73 67 74 75 75 68 76 70 77
REMARK SMILES IDX 76 78 69 79 71 80 72 81 73 82 74 83 51 84 52 85 60 86 53 87
REMARK SMILES IDX 55 88 61 89 54 90 56 91 57 92 58 93 59 94
REMARK H PARENT 17 7 6 16 22 28 81 47 49 58
REMARK Flexibility Score: inf
ROOT
ATOM      1  C   UNL A   1      37.322  22.586  26.098  1.00  0.00     0.023 C 
ENDROOT
BRANCH   1   2
ATOM      2  C   UNL A   1      36.404  23.810  26.010  1.00  0.00     0.023 C 
BRANCH   2   3
ATOM      3  C   UNL A   1      34.900  23.534  26.206  1.00  0.00     0.116 C 
BRANCH   3   4
ATOM      4  N   UNL A   1      34.367  22.684  25.154  1.00  0.00    -0.354 N 
ATOM      5  C   UNL A   1      33.567  22.971  24.091  1.00  0.00     0.242 C 
ATOM      6  O   UNL A   1      32.976  22.018  23.568  1.00  0.00    -0.273 OA
ATOM      7  H   UNL A   1      34.632  21.737  25.221  1.00  0.00     0.163 HD
BRANCH   5   8
ATOM      8  C   UNL A   1      33.261  24.423  23.644  1.00  0.00     0.176 C 
ATOM      9  N   UNL A   1      31.965  24.961  24.135  1.00  0.00    -0.313 N 
ATOM     10  C   UNL A   1      31.328  26.045  23.393  1.00  0.00     0.122 C 
ATOM     11  C   UNL A   1      31.458  25.950  21.884  1.00  0.00     0.022 C 
ATOM     12  C   UNL A   1      33.423  24.471  22.111  1.00  0.00     0.035 C 
ATOM     13  C   UNL A   1      32.913  25.760  21.494  1.00  0.00     0.004 C 
BRANCH   9  14
ATOM     14  C   UNL A   1      31.478  24.801  25.425  1.00  0.00     0.322 C 
ATOM     15  N   UNL A   1      32.025  25.495  26.460  1.00  0.00    -0.308 N 
ATOM     16  H   UNL A   1      32.193  24.966  27.274  1.00  0.00     0.171 HD
ATOM     17  O   UNL A   1      30.585  23.989  25.672  1.00  0.00    -0.248 OA
BRANCH  15  18
ATOM     18  C   UNL A   1      32.386  26.851  26.542  1.00  0.00     0.042 A 
ATOM     19  C   UNL A   1      33.533  30.894  27.443  1.00  0.00     0.044 C 
ATOM     20  C   UNL A   1      33.096  29.528  27.007  1.00  0.00    -0.051 A 
ATOM     21  C   UNL A   1      34.017  28.640  26.445  1.00  0.00     0.005 A 
ATOM     22  C   UNL A   1      31.790  29.087  27.246  1.00  0.00     0.005 A 
ATOM     23  C   UNL A   1      33.652  27.319  26.185  1.00  0.00     0.026 A 
ATOM     24  C   UNL A   1      31.431  27.759  26.997  1.00  0.00     0.026 A 
ENDBRANCH  15  18
ENDBRANCH   9  14
ENDBRANCH   5   8
ENDBRANCH   3   4
ENDBRANCH   2   3
ENDBRANCH   1   2
BRANCH   1  25
ATOM     25  C   UNL A   1      38.648  22.762  25.376  1.00  0.00     0.116 C 
BRANCH  25  26
ATOM     26  N   UNL A   1      39.812  22.527  26.208  1.00  0.00    -0.352 N 
ATOM     27  C   UNL A   1      40.581  23.426  26.933  1.00  0.00     0.251 C 
ATOM     28  H   UNL A   1      40.100  21.587  26.267  1.00  0.00     0.163 HD
ATOM     29  O   UNL A   1      41.643  23.050  27.389  1.00  0.00    -0.269 OA
BRANCH  27  30
ATOM     30  C   UNL A   1      40.062  24.796  27.208  1.00  0.00     0.039 A 
ATOM     31  C   UNL A   1      40.582  25.867  26.468  1.00  0.00     0.014 A 
ATOM     32  C   UNL A   1      39.186  25.049  28.261  1.00  0.00     0.014 A 
ATOM     33  C   UNL A   1      40.398  27.179  26.916  1.00  0.00     0.010 A 
ATOM     34  C   UNL A   1      39.064  26.335  28.752  1.00  0.00     0.010 A 
ATOM     35  C   UNL A   1      39.716  27.394  28.114  1.00  0.00    -0.014 A 
BRANCH  35  36
ATOM     36  C   UNL A   1      39.737  28.644  28.861  1.00  0.00     0.031 A 
ATOM     37  C   UNL A   1      38.735  29.704  28.654  1.00  0.00     0.074 A 
ATOM     38  C   UNL A   1      40.615  28.774  29.880  1.00  0.00     0.049 A 
ATOM     39  N   UNL A   1      38.935  30.940  28.968  1.00  0.00    -0.248 NA
ATOM     40  C   UNL A   1      37.420  29.446  28.084  1.00  0.00     0.031 C 
ATOM     41  C   UNL A   1      40.582  29.755  30.958  1.00  0.00     0.029 A 
ATOM     42  N   UNL A   1      41.856  28.152  30.021  1.00  0.00    -0.354 N 
ATOM     43  C   UNL A   1      37.722  31.583  28.898  1.00  0.00     0.074 A 
ATOM     44  C   UNL A   1      36.824  30.629  28.281  1.00  0.00     0.031 C 
ATOM     45  C   UNL A   1      41.819  29.885  31.457  1.00  0.00     0.029 A 
ATOM     46  C   UNL A   1      42.707  29.098  30.621  1.00  0.00     0.049 A 
ATOM     47  H   UNL A   1      42.090  27.234  29.755  1.00  0.00     0.167 HD
ATOM     48  C   UNL A   1      37.561  32.794  29.502  1.00  0.00     0.034 A 
ATOM     49  C   UNL A   1      43.871  29.528  30.056  1.00  0.00     0.034 A 
ATOM     50  C   UNL A   1      38.781  33.245  30.181  1.00  0.00     0.049 A 
ATOM     51  C   UNL A   1      43.911  31.029  29.815  1.00  0.00     0.074 A 
ATOM     52  C   UNL A   1      39.215  33.245  31.498  1.00  0.00     0.029 A 
ATOM     53  N   UNL A   1      39.888  33.573  29.420  1.00  0.00    -0.354 N 
ATOM     54  N   UNL A   1      42.996  31.877  30.199  1.00  0.00    -0.248 NA
ATOM     55  C   UNL A   1      44.947  31.669  29.001  1.00  0.00     0.031 C 
ATOM     56  C   UNL A   1      40.601  33.578  31.513  1.00  0.00     0.029 A 
ATOM     57  C   UNL A   1      41.005  33.790  30.208  1.00  0.00     0.049 A 
ATOM     58  H   UNL A   1      39.882  33.643  28.437  1.00  0.00     0.167 HD
ATOM     59  C   UNL A   1      43.190  33.074  29.550  1.00  0.00     0.074 A 
ATOM     60  C   UNL A   1      44.451  32.907  28.849  1.00  0.00     0.031 C 
ATOM     61  C   UNL A   1      42.271  34.088  29.554  1.00  0.00     0.034 A 
BRANCH  48  62
ATOM     62  C   UNL A   1      36.207  33.433  29.722  1.00  0.00     0.023 A 
ATOM     63  C   UNL A   1      35.542  33.981  28.603  1.00  0.00     0.012 A 
ATOM     64  C   UNL A   1      35.560  33.577  30.968  1.00  0.00     0.148 A 
ATOM     65  C   UNL A   1      34.369  34.731  28.722  1.00  0.00     0.002 A 
ATOM     66  C   UNL A   1      34.439  34.400  31.102  1.00  0.00     0.091 A 
ATOM     67  F   UNL A   1      35.989  32.866  32.019  1.00  0.00    -0.205 F 
ATOM     68  C   UNL A   1      33.841  34.980  29.979  1.00  0.00     0.022 A 
BRANCH  66  69
ATOM     69  S   UNL A   1      33.802  34.890  32.713  1.00  0.00     0.127 S 
ATOM     70  O   UNL A   1      32.738  35.832  32.353  1.00  0.00    -0.237 OA
ATOM     71  O   UNL A   1      33.329  33.626  33.268  1.00  0.00    -0.237 OA
ATOM     72  O   UNL A   1      34.925  35.514  33.405  1.00  0.00    -0.744 OA
ENDBRANCH  66  69
ENDBRANCH  48  62
BRANCH  49  73
ATOM     73  C   UNL A   1      44.517  28.503  29.185  1.00  0.00     0.023 A 
ATOM     74  C   UNL A   1      45.006  27.334  29.816  1.00  0.00     0.012 A 
ATOM     75  C   UNL A   1      44.331  28.492  27.793  1.00  0.00     0.148 A 
ATOM     76  C   UNL A   1      45.194  26.154  29.095  1.00  0.00     0.002 A 
ATOM     77  C   UNL A   1      44.531  27.313  27.079  1.00  0.00     0.091 A 
ATOM     78  F   UNL A   1      43.886  29.602  27.191  1.00  0.00    -0.205 F 
ATOM     79  C   UNL A   1      44.928  26.137  27.731  1.00  0.00     0.022 A 
BRANCH  77  80
ATOM     80  S   UNL A   1      44.159  27.231  25.323  1.00  0.00     0.127 S 
ATOM     81  O   UNL A   1      45.405  27.718  24.739  1.00  0.00    -0.237 OA
ATOM     82  O   UNL A   1      43.899  25.807  25.121  1.00  0.00    -0.237 OA
ATOM     83  O   UNL A   1      42.987  28.078  25.159  1.00  0.00    -0.744 OA
ENDBRANCH  77  80
ENDBRANCH  49  73
BRANCH  61  84
ATOM     84  C   UNL A   1      42.500  35.443  28.906  1.00  0.00     0.023 A 
ATOM     85  C   UNL A   1      42.160  35.655  27.553  1.00  0.00     0.012 A 
ATOM     86  C   UNL A   1      43.175  36.504  29.565  1.00  0.00     0.148 A 
ATOM     87  C   UNL A   1      42.395  36.878  26.913  1.00  0.00     0.002 A 
ATOM     88  C   UNL A   1      43.483  37.687  28.900  1.00  0.00     0.091 A 
ATOM     89  F   UNL A   1      43.503  36.385  30.855  1.00  0.00    -0.205 F 
ATOM     90  C   UNL A   1      43.065  37.891  27.583  1.00  0.00     0.022 A 
BRANCH  88  91
ATOM     91  S   UNL A   1      44.506  38.977  29.631  1.00  0.00     0.127 S 
ATOM     92  O   UNL A   1      44.602  39.937  28.529  1.00  0.00    -0.237 OA
ATOM     93  O   UNL A   1      43.677  39.418  30.750  1.00  0.00    -0.237 OA
ATOM     94  O   UNL A   1      45.765  38.344  29.991  1.00  0.00    -0.744 OA
ENDBRANCH  88  91
ENDBRANCH  61  84
ENDBRANCH  35  36
ENDBRANCH  27  30
ENDBRANCH  25  26
ENDBRANCH   1  25
TORSDOF 16
ENDMDL
MODEL 3
REMARK VINA RESULT:     -13.1      1.344      2.173
REMARK SMILES Cc1ccc(NC(=O)N2CCCC[C@@H]2C(=O)NCCCCNC(=O)c2ccc(-c3c4nc(c(-c5cccc(S(=O)(=O)[O-])c5F)c5ccc([nH]5)c(-c5cccc(S(=O)(=O)[O-])c5F)c5nc(c(-c6cccc(S(=O)(=O)[O-])c6F)c6ccc3[nH]6)C=C5)C=C4)cc2)cc1
REMARK SMILES IDX 20 1 19 2 18 3 17 4 15 5 16 6 14 8 9 9 10 10 11 11 13 12
REMARK SMILES IDX 12 13 7 14 6 15 8 17 5 18 1 19 2 20 3 21 89 22 4 23 88 24
REMARK SMILES IDX 21 25 22 26 23 27 24 29 25 30 26 31 87 32 27 33 86 34 28 35
REMARK SMILES IDX 29 36 30 37 80 38 31 39 85 40 79 41 81 42 32 43 84 44 78 45
REMARK SMILES IDX 77 46 33 48 65 49 45 50 64 51 46 52 49 53 63 54 82 55 47 56
REMARK SMILES IDX 48 57 62 59 83 60 50 61 34 62 35 63 43 64 36 65 38 66 44 67
REMARK SMILES IDX 37 68 39 69 40 70 41 71 42 72 66 73 67 74 75 75 68 76 70 77
REMARK SMILES IDX 76 78 69 79 71 80 72 81 73 82 74 83 51 84 52 85 60 86 53 87
REMARK SMILES IDX 55 88 61 89 54 90 56 91 57 92 58 93 59 94
REMARK H PARENT 17 7 6 16 22 28 81 47 49 58
REMARK Flexibility Score: inf
ROOT
ATOM      1  C   UNL A   1      32.941  30.960  27.158  1.00  0.00     0.023 C 
ENDROOT
BRANCH   1   2
ATOM      2  C   UNL A   1      32.144  29.933  26.347  1.00  0.00     0.023 C 
BRANCH   2   3
ATOM      3  C   UNL A   1      31.605  28.725  27.140  1.00  0.00     0.116 C 
BRANCH   3   4
ATOM      4  N   UNL A   1      32.475  27.567  27.012  1.00  0.00    -0.354 N 
ATOM      5  C   UNL A   1      32.814  26.819  25.927  1.00  0.00     0.242 C 
ATOM      6  O   UNL A   1      33.273  25.692  26.152  1.00  0.00    -0.273 OA
ATOM      7  H   UNL A   1      32.890  27.274  27.856  1.00  0.00     0.163 HD
BRANCH   5   8
ATOM      8  C   UNL A   1      32.499  27.261  24.476  1.00  0.00     0.176 C 
ATOM      9  N   UNL A   1      31.607  26.335  23.728  1.00  0.00    -0.313 N 
ATOM     10  C   UNL A   1      31.660  26.334  22.269  1.00  0.00     0.122 C 
ATOM     11  C   UNL A   1      33.046  26.513  21.680  1.00  0.00     0.022 C 
ATOM     12  C   UNL A   1      33.847  27.536  23.780  1.00  0.00     0.035 C 
ATOM     13  C   UNL A   1      33.719  27.734  22.281  1.00  0.00     0.004 C 
BRANCH   9  14
ATOM     14  C   UNL A   1      30.467  25.739  24.249  1.00  0.00     0.322 C 
ATOM     15  N   UNL A   1      30.216  24.420  24.030  1.00  0.00    -0.308 N 
ATOM     16  H   UNL A   1      29.288  24.208  23.777  1.00  0.00     0.171 HD
ATOM     17  O   UNL A   1      29.630  26.400  24.868  1.00  0.00    -0.248 OA
BRANCH  15  18
ATOM     18  C   UNL A   1      31.082  23.316  24.110  1.00  0.00     0.042 A 
ATOM     19  C   UNL A   1      33.182  19.582  24.459  1.00  0.00     0.044 C 
ATOM     20  C   UNL A   1      32.569  20.945  24.352  1.00  0.00    -0.051 A 
ATOM     21  C   UNL A   1      32.377  21.535  23.100  1.00  0.00     0.005 A 
ATOM     22  C   UNL A   1      32.089  21.602  25.490  1.00  0.00     0.005 A 
ATOM     23  C   UNL A   1      31.666  22.730  22.986  1.00  0.00     0.026 A 
ATOM     24  C   UNL A   1      31.365  22.793  25.372  1.00  0.00     0.026 A 
ENDBRANCH  15  18
ENDBRANCH   9  14
ENDBRANCH   5   8
ENDBRANCH   3   4
ENDBRANCH   2   3
ENDBRANCH   1   2
BRANCH   1  25
ATOM     25  C   UNL A   1      34.318  30.472  27.578  1.00  0.00     0.116 C 
BRANCH  25  26
ATOM     26  N   UNL A   1      35.153  31.497  28.174  1.00  0.00    -0.352 N 
ATOM     27  C   UNL A   1      36.380  31.381  28.813  1.00  0.00     0.251 C 
ATOM     28  H   UNL A   1      34.796  32.413  28.116  1.00  0.00     0.163 HD
ATOM     29  O   UNL A   1      36.808  32.335  29.431  1.00  0.00    -0.269 OA
BRANCH  27  30
ATOM     30  C   UNL A   1      37.181  30.132  28.665  1.00  0.00     0.039 A 
ATOM     31  C   UNL A   1      37.268  29.262  29.760  1.00  0.00     0.014 A 
ATOM     32  C   UNL A   1      37.945  29.884  27.527  1.00  0.00     0.014 A 
ATOM     33  C   UNL A   1      38.266  28.283  29.797  1.00  0.00     0.010 A 
ATOM     34  C   UNL A   1      38.980  28.971  27.588  1.00  0.00     0.010 A 
ATOM     35  C   UNL A   1      39.177  28.210  28.743  1.00  0.00    -0.014 A 
BRANCH  35  36
ATOM     36  C   UNL A   1      40.441  27.486  28.796  1.00  0.00     0.031 A 
ATOM     37  C   UNL A   1      40.533  26.041  28.526  1.00  0.00     0.074 A 
ATOM     38  C   UNL A   1      41.584  28.190  28.951  1.00  0.00     0.049 A 
ATOM     39  N   UNL A   1      41.506  25.303  28.946  1.00  0.00    -0.248 NA
ATOM     40  C   UNL A   1      39.538  25.318  27.749  1.00  0.00     0.031 C 
ATOM     41  C   UNL A   1      42.945  27.739  28.686  1.00  0.00     0.029 A 
ATOM     42  N   UNL A   1      41.749  29.418  29.594  1.00  0.00    -0.354 N 
ATOM     43  C   UNL A   1      41.416  24.096  28.294  1.00  0.00     0.074 A 
ATOM     44  C   UNL A   1      40.140  24.130  27.611  1.00  0.00     0.031 C 
ATOM     45  C   UNL A   1      43.792  28.495  29.398  1.00  0.00     0.029 A 
ATOM     46  C   UNL A   1      42.993  29.358  30.248  1.00  0.00     0.049 A 
ATOM     47  H   UNL A   1      41.121  30.175  29.590  1.00  0.00     0.167 HD
ATOM     48  C   UNL A   1      42.490  23.256  28.273  1.00  0.00     0.034 A 
ATOM     49  C   UNL A   1      43.145  29.528  31.593  1.00  0.00     0.034 A 
ATOM     50  C   UNL A   1      43.645  23.809  28.987  1.00  0.00     0.049 A 
ATOM     51  C   UNL A   1      43.774  28.331  32.288  1.00  0.00     0.074 A 
ATOM     52  C   UNL A   1      44.813  24.447  28.596  1.00  0.00     0.029 A 
ATOM     53  N   UNL A   1      43.571  23.966  30.359  1.00  0.00    -0.354 N 
ATOM     54  N   UNL A   1      44.244  27.272  31.686  1.00  0.00    -0.248 NA
ATOM     55  C   UNL A   1      43.804  28.193  33.746  1.00  0.00     0.031 C 
ATOM     56  C   UNL A   1      45.437  24.989  29.758  1.00  0.00     0.029 A 
ATOM     57  C   UNL A   1      44.654  24.673  30.853  1.00  0.00     0.049 A 
ATOM     58  H   UNL A   1      42.837  23.619  30.916  1.00  0.00     0.167 HD
ATOM     59  C   UNL A   1      44.438  26.275  32.614  1.00  0.00     0.074 A 
ATOM     60  C   UNL A   1      44.194  26.917  33.894  1.00  0.00     0.031 C 
ATOM     61  C   UNL A   1      44.698  24.975  32.276  1.00  0.00     0.034 A 
BRANCH  48  62
ATOM     62  C   UNL A   1      42.581  22.057  27.353  1.00  0.00     0.023 A 
ATOM     63  C   UNL A   1      41.729  20.959  27.606  1.00  0.00     0.012 A 
ATOM     64  C   UNL A   1      43.486  21.914  26.280  1.00  0.00     0.148 A 
ATOM     65  C   UNL A   1      41.845  19.748  26.920  1.00  0.00     0.002 A 
ATOM     66  C   UNL A   1      43.665  20.678  25.654  1.00  0.00     0.091 A 
ATOM     67  F   UNL A   1      44.133  22.991  25.815  1.00  0.00    -0.205 F 
ATOM     68  C   UNL A   1      42.845  19.590  25.973  1.00  0.00     0.022 A 
BRANCH  66  69
ATOM     69  S   UNL A   1      45.041  20.364  24.536  1.00  0.00     0.127 S 
ATOM     70  O   UNL A   1      44.970  18.911  24.356  1.00  0.00    -0.237 OA
ATOM     71  O   UNL A   1      44.676  21.138  23.354  1.00  0.00    -0.237 OA
ATOM     72  O   UNL A   1      46.234  20.806  25.250  1.00  0.00    -0.744 OA
ENDBRANCH  66  69
ENDBRANCH  48  62
BRANCH  49  73
ATOM     73  C   UNL A   1      42.114  30.424  32.193  1.00  0.00     0.023 A 
ATOM     74  C   UNL A   1      42.138  31.786  31.806  1.00  0.00     0.012 A 
ATOM     75  C   UNL A   1      40.957  29.915  32.805  1.00  0.00     0.148 A 
ATOM     76  C   UNL A   1      40.999  32.585  31.923  1.00  0.00     0.002 A 
ATOM     77  C   UNL A   1      39.828  30.721  32.926  1.00  0.00     0.091 A 
ATOM     78  F   UNL A   1      40.939  28.632  33.188  1.00  0.00    -0.205 F 
ATOM     79  C   UNL A   1      39.835  32.043  32.457  1.00  0.00     0.022 A 
BRANCH  77  80
ATOM     80  S   UNL A   1      38.289  30.054  33.569  1.00  0.00     0.127 S 
ATOM     81  O   UNL A   1      38.328  28.687  33.056  1.00  0.00    -0.237 OA
ATOM     82  O   UNL A   1      38.470  30.174  35.014  1.00  0.00    -0.237 OA
ATOM     83  O   UNL A   1      37.258  30.925  33.024  1.00  0.00    -0.744 OA
ENDBRANCH  77  80
ENDBRANCH  49  73
BRANCH  61  84
ATOM     84  C   UNL A   1      44.988  23.877  33.285  1.00  0.00     0.023 A 
ATOM     85  C   UNL A   1      43.960  23.016  33.721  1.00  0.00     0.012 A 
ATOM     86  C   UNL A   1      46.245  23.745  33.933  1.00  0.00     0.148 A 
ATOM     87  C   UNL A   1      44.183  22.021  34.680  1.00  0.00     0.002 A 
ATOM     88  C   UNL A   1      46.440  22.811  34.947  1.00  0.00     0.091 A 
ATOM     89  F   UNL A   1      47.274  24.509  33.554  1.00  0.00    -0.205 F 
ATOM     90  C   UNL A   1      45.420  21.925  35.301  1.00  0.00     0.022 A 
BRANCH  88  91
ATOM     91  S   UNL A   1      47.948  22.741  35.929  1.00  0.00     0.127 S 
ATOM     92  O   UNL A   1      47.720  23.817  36.897  1.00  0.00    -0.237 OA
ATOM     93  O   UNL A   1      47.876  21.394  36.491  1.00  0.00    -0.237 OA
ATOM     94  O   UNL A   1      49.046  22.981  35.007  1.00  0.00    -0.744 OA
ENDBRANCH  88  91
ENDBRANCH  61  84
ENDBRANCH  35  36
ENDBRANCH  27  30
ENDBRANCH  25  26
ENDBRANCH   1  25
TORSDOF 16
ENDMDL
