MODEL 1
REMARK VINA RESULT:     -12.6      0.000      0.000
REMARK SMILES Cc1ccc(S(=O)(=O)N[C@H]2C=C[C@@H](C(=O)NCCCCNC(=O)c3ccc(-c4c5nc(c(-c6cccc(S(=O)(=O)[O-])c6F)c6ccc([nH]6)c(-c6cccc(S(=O)(=O)[O-])c6F)c6nc(c(-c7cccc(S(=O)(=O)[O-])c7F)c7ccc4[nH]7)C=C6)C=C5)cc3)C2)c(C)c1
REMARK SMILES IDX 18 1 17 2 16 3 14 4 15 5 13 7 10 8 11 9 87 10 12 11 9 12
REMARK SMILES IDX 6 14 7 15 8 16 5 17 1 18 2 19 3 20 90 21 4 22 88 23 89 24
REMARK SMILES IDX 19 25 20 26 21 27 22 28 23 30 24 31 25 32 86 33 26 34 85 35
REMARK SMILES IDX 27 36 28 37 29 38 79 39 30 40 84 41 78 42 80 43 31 44 83 45
REMARK SMILES IDX 77 46 76 47 32 49 64 50 44 51 63 52 45 53 48 54 62 55 81 56
REMARK SMILES IDX 46 57 47 58 61 60 82 61 49 62 33 63 34 64 42 65 35 66 37 67
REMARK SMILES IDX 43 68 36 69 38 70 39 71 40 72 41 73 65 74 66 75 74 76 67 77
REMARK SMILES IDX 69 78 75 79 68 80 70 81 71 82 72 83 73 84 50 85 51 86 59 87
REMARK SMILES IDX 52 88 54 89 60 90 53 91 55 92 56 93 57 94 58 95
REMARK H PARENT 16 6 9 13 21 29 80 48 48 59
REMARK Flexibility Score: inf
ROOT
ATOM      1  C   UNL A   1      32.886  29.279  24.568  1.00  0.00     0.023 C 
ENDROOT
BRANCH   1   2
ATOM      2  C   UNL A   1      32.336  29.035  23.165  1.00  0.00     0.116 C 
BRANCH   2   3
ATOM      3  N   UNL A   1      33.147  28.088  22.422  1.00  0.00    -0.356 N 
ATOM      4  C   UNL A   1      32.862  26.842  21.956  1.00  0.00     0.226 C 
ATOM      5  O   UNL A   1      33.742  26.261  21.313  1.00  0.00    -0.274 OA
ATOM      6  H   UNL A   1      34.059  28.400  22.222  1.00  0.00     0.163 HD
BRANCH   4   7
ATOM      7  C   UNL A   1      31.515  26.152  22.183  1.00  0.00     0.103 C 
ATOM      8  C   UNL A   1      30.391  25.124  24.127  1.00  0.00     0.093 C 
ATOM      9  C   UNL A   1      29.872  26.486  23.825  1.00  0.00    -0.011 C 
ATOM     10  C   UNL A   1      31.538  24.935  23.112  1.00  0.00     0.042 C 
ATOM     11  C   UNL A   1      30.474  27.048  22.772  1.00  0.00    -0.016 C 
BRANCH   8  12
ATOM     12  N   UNL A   1      30.918  24.956  25.476  1.00  0.00    -0.204 NA
ATOM     13  H   UNL A   1      31.703  25.605  25.536  1.00  0.00     0.142 HD
BRANCH  12  14
ATOM     14  S   UNL A   1      31.479  23.534  26.154  1.00  0.00     0.241 S 
ATOM     15  O   UNL A   1      31.038  22.448  25.307  1.00  0.00    -0.207 OA
ATOM     16  O   UNL A   1      31.107  23.606  27.550  1.00  0.00    -0.207 OA
BRANCH  14  17
ATOM     17  C   UNL A   1      33.259  23.613  26.099  1.00  0.00     0.085 A 
ATOM     18  C   UNL A   1      37.528  23.754  25.519  1.00  0.00     0.044 C 
ATOM     19  C   UNL A   1      36.044  23.724  25.737  1.00  0.00    -0.051 A 
ATOM     20  C   UNL A   1      35.249  24.820  25.403  1.00  0.00     0.005 A 
ATOM     21  C   UNL A   1      35.443  22.602  26.322  1.00  0.00     0.008 A 
ATOM     22  C   UNL A   1      33.869  24.769  25.592  1.00  0.00     0.022 A 
ATOM     23  C   UNL A   1      34.052  22.534  26.531  1.00  0.00    -0.031 A 
ATOM     24  C   UNL A   1      33.522  21.308  27.225  1.00  0.00     0.046 C 
ENDBRANCH  14  17
ENDBRANCH  12  14
ENDBRANCH   8  12
ENDBRANCH   4   7
ENDBRANCH   2   3
ENDBRANCH   1   2
BRANCH   1  25
ATOM     25  C   UNL A   1      31.943  28.873  25.702  1.00  0.00     0.023 C 
BRANCH  25  26
ATOM     26  C   UNL A   1      32.163  29.603  27.022  1.00  0.00     0.116 C 
BRANCH  26  27
ATOM     27  N   UNL A   1      32.153  31.052  26.883  1.00  0.00    -0.352 N 
ATOM     28  C   UNL A   1      33.110  31.955  27.282  1.00  0.00     0.251 C 
ATOM     29  H   UNL A   1      31.358  31.436  26.446  1.00  0.00     0.163 HD
ATOM     30  O   UNL A   1      32.900  33.161  27.199  1.00  0.00    -0.269 OA
BRANCH  28  31
ATOM     31  C   UNL A   1      34.385  31.461  27.844  1.00  0.00     0.039 A 
ATOM     32  C   UNL A   1      35.389  32.380  28.158  1.00  0.00     0.014 A 
ATOM     33  C   UNL A   1      34.575  30.097  28.085  1.00  0.00     0.014 A 
ATOM     34  C   UNL A   1      36.562  31.937  28.773  1.00  0.00     0.010 A 
ATOM     35  C   UNL A   1      35.710  29.669  28.764  1.00  0.00     0.010 A 
ATOM     36  C   UNL A   1      36.718  30.582  29.108  1.00  0.00    -0.014 A 
BRANCH  36  37
ATOM     37  C   UNL A   1      37.928  30.094  29.815  1.00  0.00     0.031 A 
ATOM     38  C   UNL A   1      38.225  30.567  31.212  1.00  0.00     0.074 A 
ATOM     39  C   UNL A   1      38.807  29.304  29.168  1.00  0.00     0.049 A 
ATOM     40  N   UNL A   1      39.255  30.301  31.972  1.00  0.00    -0.248 NA
ATOM     41  C   UNL A   1      37.251  31.486  31.823  1.00  0.00     0.031 C 
ATOM     42  C   UNL A   1      38.670  28.840  27.786  1.00  0.00     0.029 A 
ATOM     43  N   UNL A   1      40.001  28.768  29.582  1.00  0.00    -0.354 N 
ATOM     44  C   UNL A   1      39.075  31.047  33.129  1.00  0.00     0.074 A 
ATOM     45  C   UNL A   1      37.856  31.808  32.955  1.00  0.00     0.031 C 
ATOM     46  C   UNL A   1      39.728  28.074  27.473  1.00  0.00     0.029 A 
ATOM     47  C   UNL A   1      40.628  28.013  28.620  1.00  0.00     0.049 A 
ATOM     48  H   UNL A   1      40.372  28.911  30.482  1.00  0.00     0.167 HD
ATOM     49  C   UNL A   1      39.832  31.072  34.252  1.00  0.00     0.034 A 
ATOM     50  C   UNL A   1      41.795  27.340  28.661  1.00  0.00     0.034 A 
ATOM     51  C   UNL A   1      41.010  30.272  34.442  1.00  0.00     0.049 A 
ATOM     52  C   UNL A   1      42.597  27.347  29.935  1.00  0.00     0.074 A 
ATOM     53  C   UNL A   1      41.796  30.149  35.575  1.00  0.00     0.029 A 
ATOM     54  N   UNL A   1      41.575  29.456  33.473  1.00  0.00    -0.354 N 
ATOM     55  N   UNL A   1      42.328  27.931  31.077  1.00  0.00    -0.248 NA
ATOM     56  C   UNL A   1      43.846  26.572  29.936  1.00  0.00     0.031 C 
ATOM     57  C   UNL A   1      42.843  29.267  35.286  1.00  0.00     0.029 A 
ATOM     58  C   UNL A   1      42.701  28.829  33.977  1.00  0.00     0.049 A 
ATOM     59  H   UNL A   1      41.225  29.340  32.560  1.00  0.00     0.167 HD
ATOM     60  C   UNL A   1      43.350  27.563  31.945  1.00  0.00     0.074 A 
ATOM     61  C   UNL A   1      44.237  26.694  31.198  1.00  0.00     0.031 C 
ATOM     62  C   UNL A   1      43.542  27.921  33.239  1.00  0.00     0.034 A 
BRANCH  49  63
ATOM     63  C   UNL A   1      39.362  31.952  35.381  1.00  0.00     0.023 A 
ATOM     64  C   UNL A   1      39.697  33.323  35.374  1.00  0.00     0.012 A 
ATOM     65  C   UNL A   1      38.585  31.439  36.436  1.00  0.00     0.148 A 
ATOM     66  C   UNL A   1      39.308  34.156  36.422  1.00  0.00     0.002 A 
ATOM     67  C   UNL A   1      38.162  32.287  37.455  1.00  0.00     0.091 A 
ATOM     68  F   UNL A   1      38.296  30.129  36.446  1.00  0.00    -0.205 F 
ATOM     69  C   UNL A   1      38.534  33.641  37.458  1.00  0.00     0.022 A 
BRANCH  67  70
ATOM     70  S   UNL A   1      37.097  31.721  38.787  1.00  0.00     0.127 S 
ATOM     71  O   UNL A   1      36.837  30.337  38.392  1.00  0.00    -0.237 OA
ATOM     72  O   UNL A   1      37.958  31.866  39.962  1.00  0.00    -0.237 OA
ATOM     73  O   UNL A   1      35.946  32.612  38.774  1.00  0.00    -0.744 OA
ENDBRANCH  67  70
ENDBRANCH  49  63
BRANCH  50  74
ATOM     74  C   UNL A   1      42.213  26.511  27.496  1.00  0.00     0.023 A 
ATOM     75  C   UNL A   1      42.955  27.118  26.463  1.00  0.00     0.012 A 
ATOM     76  C   UNL A   1      41.931  25.133  27.422  1.00  0.00     0.148 A 
ATOM     77  C   UNL A   1      43.389  26.373  25.367  1.00  0.00     0.002 A 
ATOM     78  C   UNL A   1      42.408  24.388  26.350  1.00  0.00     0.091 A 
ATOM     79  F   UNL A   1      41.217  24.578  28.412  1.00  0.00    -0.205 F 
ATOM     80  C   UNL A   1      43.125  25.009  25.314  1.00  0.00     0.022 A 
BRANCH  78  81
ATOM     81  S   UNL A   1      42.224  22.603  26.251  1.00  0.00     0.127 S 
ATOM     82  O   UNL A   1      40.771  22.450  26.281  1.00  0.00    -0.237 OA
ATOM     83  O   UNL A   1      42.848  22.307  24.961  1.00  0.00    -0.237 OA
ATOM     84  O   UNL A   1      42.938  22.068  27.402  1.00  0.00    -0.744 OA
ENDBRANCH  78  81
ENDBRANCH  50  74
BRANCH  62  85
ATOM     85  C   UNL A   1      44.741  27.350  33.950  1.00  0.00     0.023 A 
ATOM     86  C   UNL A   1      45.966  28.045  33.920  1.00  0.00     0.012 A 
ATOM     87  C   UNL A   1      44.632  26.171  34.712  1.00  0.00     0.148 A 
ATOM     88  C   UNL A   1      47.072  27.560  34.616  1.00  0.00     0.002 A 
ATOM     89  C   UNL A   1      45.726  25.717  35.440  1.00  0.00     0.091 A 
ATOM     90  F   UNL A   1      43.463  25.512  34.710  1.00  0.00    -0.205 F 
ATOM     91  C   UNL A   1      46.949  26.403  35.385  1.00  0.00     0.022 A 
BRANCH  89  92
ATOM     92  S   UNL A   1      45.626  24.292  36.530  1.00  0.00     0.127 S 
ATOM     93  O   UNL A   1      45.203  23.239  35.608  1.00  0.00    -0.237 OA
ATOM     94  O   UNL A   1      47.004  24.166  37.008  1.00  0.00    -0.237 OA
ATOM     95  O   UNL A   1      44.662  24.648  37.563  1.00  0.00    -0.744 OA
ENDBRANCH  89  92
ENDBRANCH  62  85
ENDBRANCH  36  37
ENDBRANCH  28  31
ENDBRANCH  26  27
ENDBRANCH  25  26
ENDBRANCH   1  25
TORSDOF 17
ENDMDL
MODEL 2
REMARK VINA RESULT:     -12.4      2.686      3.280
REMARK SMILES Cc1ccc(S(=O)(=O)N[C@H]2C=C[C@@H](C(=O)NCCCCNC(=O)c3ccc(-c4c5nc(c(-c6cccc(S(=O)(=O)[O-])c6F)c6ccc([nH]6)c(-c6cccc(S(=O)(=O)[O-])c6F)c6nc(c(-c7cccc(S(=O)(=O)[O-])c7F)c7ccc4[nH]7)C=C6)C=C5)cc3)C2)c(C)c1
REMARK SMILES IDX 18 1 17 2 16 3 14 4 15 5 13 7 10 8 11 9 87 10 12 11 9 12
REMARK SMILES IDX 6 14 7 15 8 16 5 17 1 18 2 19 3 20 90 21 4 22 88 23 89 24
REMARK SMILES IDX 19 25 20 26 21 27 22 28 23 30 24 31 25 32 86 33 26 34 85 35
REMARK SMILES IDX 27 36 28 37 29 38 79 39 30 40 84 41 78 42 80 43 31 44 83 45
REMARK SMILES IDX 77 46 76 47 32 49 64 50 44 51 63 52 45 53 48 54 62 55 81 56
REMARK SMILES IDX 46 57 47 58 61 60 82 61 49 62 33 63 34 64 42 65 35 66 37 67
REMARK SMILES IDX 43 68 36 69 38 70 39 71 40 72 41 73 65 74 66 75 74 76 67 77
REMARK SMILES IDX 69 78 75 79 68 80 70 81 71 82 72 83 73 84 50 85 51 86 59 87
REMARK SMILES IDX 52 88 54 89 60 90 53 91 55 92 56 93 57 94 58 95
REMARK H PARENT 16 6 9 13 21 29 80 48 48 59
REMARK Flexibility Score: inf
ROOT
ATOM      1  C   UNL A   1      33.766  28.995  24.056  1.00  0.00     0.023 C 
ENDROOT
BRANCH   1   2
ATOM      2  C   UNL A   1      32.886  28.785  22.826  1.00  0.00     0.116 C 
BRANCH   2   3
ATOM      3  N   UNL A   1      33.339  27.665  22.022  1.00  0.00    -0.356 N 
ATOM      4  C   UNL A   1      32.718  26.506  21.675  1.00  0.00     0.226 C 
ATOM      5  O   UNL A   1      33.333  25.729  20.938  1.00  0.00    -0.274 OA
ATOM      6  H   UNL A   1      34.252  27.760  21.667  1.00  0.00     0.163 HD
BRANCH   4   7
ATOM      7  C   UNL A   1      31.307  26.140  22.144  1.00  0.00     0.103 C 
ATOM      8  C   UNL A   1      30.322  25.403  24.286  1.00  0.00     0.093 C 
ATOM      9  C   UNL A   1      30.077  26.846  24.014  1.00  0.00    -0.011 C 
ATOM     10  C   UNL A   1      31.212  24.955  23.109  1.00  0.00     0.042 C 
ATOM     11  C   UNL A   1      30.605  27.252  22.855  1.00  0.00    -0.016 C 
BRANCH   8  12
ATOM     12  N   UNL A   1      31.015  25.126  25.538  1.00  0.00    -0.204 NA
ATOM     13  H   UNL A   1      31.887  25.652  25.480  1.00  0.00     0.142 HD
BRANCH  12  14
ATOM     14  S   UNL A   1      31.454  23.620  26.118  1.00  0.00     0.241 S 
ATOM     15  O   UNL A   1      30.528  22.657  25.568  1.00  0.00    -0.207 OA
ATOM     16  O   UNL A   1      31.609  23.794  27.546  1.00  0.00    -0.207 OA
BRANCH  14  17
ATOM     17  C   UNL A   1      33.080  23.282  25.470  1.00  0.00     0.085 A 
ATOM     18  C   UNL A   1      36.873  22.658  23.518  1.00  0.00     0.044 C 
ATOM     19  C   UNL A   1      35.565  22.882  24.218  1.00  0.00    -0.051 A 
ATOM     20  C   UNL A   1      35.204  24.151  24.672  1.00  0.00     0.005 A 
ATOM     21  C   UNL A   1      34.706  21.804  24.463  1.00  0.00     0.008 A 
ATOM     22  C   UNL A   1      33.976  24.347  25.302  1.00  0.00     0.022 A 
ATOM     23  C   UNL A   1      33.465  21.978  25.106  1.00  0.00    -0.031 A 
ATOM     24  C   UNL A   1      32.651  20.741  25.373  1.00  0.00     0.046 C 
ENDBRANCH  14  17
ENDBRANCH  12  14
ENDBRANCH   8  12
ENDBRANCH   4   7
ENDBRANCH   2   3
ENDBRANCH   1   2
BRANCH   1  25
ATOM     25  C   UNL A   1      33.700  27.866  25.087  1.00  0.00     0.023 C 
BRANCH  25  26
ATOM     26  C   UNL A   1      34.086  28.261  26.508  1.00  0.00     0.116 C 
BRANCH  26  27
ATOM     27  N   UNL A   1      33.715  29.628  26.843  1.00  0.00    -0.352 N 
ATOM     28  C   UNL A   1      34.398  30.532  27.622  1.00  0.00     0.251 C 
ATOM     29  H   UNL A   1      32.866  29.948  26.461  1.00  0.00     0.163 HD
ATOM     30  O   UNL A   1      33.892  31.613  27.908  1.00  0.00    -0.269 OA
BRANCH  28  31
ATOM     31  C   UNL A   1      35.734  30.177  28.144  1.00  0.00     0.039 A 
ATOM     32  C   UNL A   1      35.838  29.628  29.424  1.00  0.00     0.014 A 
ATOM     33  C   UNL A   1      36.876  30.362  27.359  1.00  0.00     0.014 A 
ATOM     34  C   UNL A   1      37.083  29.205  29.894  1.00  0.00     0.010 A 
ATOM     35  C   UNL A   1      38.101  29.872  27.799  1.00  0.00     0.010 A 
ATOM     36  C   UNL A   1      38.219  29.297  29.073  1.00  0.00    -0.014 A 
BRANCH  36  37
ATOM     37  C   UNL A   1      39.543  28.800  29.525  1.00  0.00     0.031 A 
ATOM     38  C   UNL A   1      40.273  29.509  30.633  1.00  0.00     0.074 A 
ATOM     39  C   UNL A   1      40.128  27.775  28.877  1.00  0.00     0.049 A 
ATOM     40  N   UNL A   1      41.457  29.263  31.130  1.00  0.00    -0.248 NA
ATOM     41  C   UNL A   1      39.595  30.665  31.243  1.00  0.00     0.031 C 
ATOM     42  C   UNL A   1      39.556  27.056  27.738  1.00  0.00     0.029 A 
ATOM     43  N   UNL A   1      41.346  27.172  29.072  1.00  0.00    -0.354 N 
ATOM     44  C   UNL A   1      41.684  30.254  32.077  1.00  0.00     0.074 A 
ATOM     45  C   UNL A   1      40.530  31.127  32.058  1.00  0.00     0.031 C 
ATOM     46  C   UNL A   1      40.412  26.098  27.347  1.00  0.00     0.029 A 
ATOM     47  C   UNL A   1      41.603  26.151  28.188  1.00  0.00     0.049 A 
ATOM     48  H   UNL A   1      41.976  27.447  29.777  1.00  0.00     0.167 HD
ATOM     49  C   UNL A   1      42.737  30.405  32.914  1.00  0.00     0.034 A 
ATOM     50  C   UNL A   1      42.675  25.342  28.076  1.00  0.00     0.034 A 
ATOM     51  C   UNL A   1      43.855  29.503  32.969  1.00  0.00     0.049 A 
ATOM     52  C   UNL A   1      43.815  25.502  29.046  1.00  0.00     0.074 A 
ATOM     53  C   UNL A   1      44.927  29.509  33.843  1.00  0.00     0.029 A 
ATOM     54  N   UNL A   1      44.044  28.430  32.111  1.00  0.00    -0.354 N 
ATOM     55  N   UNL A   1      43.939  26.344  30.043  1.00  0.00    -0.248 NA
ATOM     56  C   UNL A   1      44.945  24.574  28.900  1.00  0.00     0.031 C 
ATOM     57  C   UNL A   1      45.771  28.445  33.506  1.00  0.00     0.029 A 
ATOM     58  C   UNL A   1      45.218  27.768  32.429  1.00  0.00     0.049 A 
ATOM     59  H   UNL A   1      43.433  28.176  31.381  1.00  0.00     0.167 HD
ATOM     60  C   UNL A   1      45.140  26.024  30.667  1.00  0.00     0.074 A 
ATOM     61  C   UNL A   1      45.699  24.901  29.942  1.00  0.00     0.031 C 
ATOM     62  C   UNL A   1      45.731  26.615  31.735  1.00  0.00     0.034 A 
BRANCH  49  63
ATOM     63  C   UNL A   1      42.690  31.560  33.880  1.00  0.00     0.023 A 
ATOM     64  C   UNL A   1      43.251  32.799  33.504  1.00  0.00     0.012 A 
ATOM     65  C   UNL A   1      42.086  31.434  35.145  1.00  0.00     0.148 A 
ATOM     66  C   UNL A   1      43.255  33.877  34.389  1.00  0.00     0.002 A 
ATOM     67  C   UNL A   1      42.054  32.527  36.005  1.00  0.00     0.091 A 
ATOM     68  F   UNL A   1      41.580  30.244  35.502  1.00  0.00    -0.205 F 
ATOM     69  C   UNL A   1      42.649  33.744  35.635  1.00  0.00     0.022 A 
BRANCH  67  70
ATOM     70  S   UNL A   1      41.225  32.464  37.598  1.00  0.00     0.127 S 
ATOM     71  O   UNL A   1      42.094  31.561  38.350  1.00  0.00    -0.237 OA
ATOM     72  O   UNL A   1      41.275  33.860  38.034  1.00  0.00    -0.237 OA
ATOM     73  O   UNL A   1      39.883  31.972  37.322  1.00  0.00    -0.744 OA
ENDBRANCH  67  70
ENDBRANCH  49  63
BRANCH  50  74
ATOM     74  C   UNL A   1      42.666  24.237  27.078  1.00  0.00     0.023 A 
ATOM     75  C   UNL A   1      43.370  24.408  25.869  1.00  0.00     0.012 A 
ATOM     76  C   UNL A   1      42.018  23.012  27.328  1.00  0.00     0.148 A 
ATOM     77  C   UNL A   1      43.411  23.388  24.919  1.00  0.00     0.002 A 
ATOM     78  C   UNL A   1      42.103  21.983  26.397  1.00  0.00     0.091 A 
ATOM     79  F   UNL A   1      41.347  22.873  28.481  1.00  0.00    -0.205 F 
ATOM     80  C   UNL A   1      42.787  22.174  25.186  1.00  0.00     0.022 A 
BRANCH  78  81
ATOM     81  S   UNL A   1      41.434  20.343  26.700  1.00  0.00     0.127 S 
ATOM     82  O   UNL A   1      42.176  19.933  27.890  1.00  0.00    -0.237 OA
ATOM     83  O   UNL A   1      40.018  20.632  26.924  1.00  0.00    -0.237 OA
ATOM     84  O   UNL A   1      41.708  19.576  25.492  1.00  0.00    -0.744 OA
ENDBRANCH  78  81
ENDBRANCH  50  74
BRANCH  62  85
ATOM     85  C   UNL A   1      47.039  26.041  32.214  1.00  0.00     0.023 A 
ATOM     86  C   UNL A   1      47.053  25.154  33.308  1.00  0.00     0.012 A 
ATOM     87  C   UNL A   1      48.240  26.316  31.530  1.00  0.00     0.148 A 
ATOM     88  C   UNL A   1      48.247  24.572  33.732  1.00  0.00     0.002 A 
ATOM     89  C   UNL A   1      49.418  25.697  31.929  1.00  0.00     0.091 A 
ATOM     90  F   UNL A   1      48.209  27.180  30.504  1.00  0.00    -0.205 F 
ATOM     91  C   UNL A   1      49.426  24.833  33.036  1.00  0.00     0.022 A 
BRANCH  89  92
ATOM     92  S   UNL A   1      50.960  25.904  31.031  1.00  0.00     0.127 S 
ATOM     93  O   UNL A   1      51.200  27.338  31.176  1.00  0.00    -0.237 OA
ATOM     94  O   UNL A   1      51.880  25.052  31.788  1.00  0.00    -0.237 OA
ATOM     95  O   UNL A   1      50.695  25.444  29.674  1.00  0.00    -0.744 OA
ENDBRANCH  89  92
ENDBRANCH  62  85
ENDBRANCH  36  37
ENDBRANCH  28  31
ENDBRANCH  26  27
ENDBRANCH  25  26
ENDBRANCH   1  25
TORSDOF 17
ENDMDL
MODEL 3
REMARK VINA RESULT:     -12.4      2.273      2.958
REMARK SMILES Cc1ccc(S(=O)(=O)N[C@H]2C=C[C@@H](C(=O)NCCCCNC(=O)c3ccc(-c4c5nc(c(-c6cccc(S(=O)(=O)[O-])c6F)c6ccc([nH]6)c(-c6cccc(S(=O)(=O)[O-])c6F)c6nc(c(-c7cccc(S(=O)(=O)[O-])c7F)c7ccc4[nH]7)C=C6)C=C5)cc3)C2)c(C)c1
REMARK SMILES IDX 18 1 17 2 16 3 14 4 15 5 13 7 10 8 11 9 87 10 12 11 9 12
REMARK SMILES IDX 6 14 7 15 8 16 5 17 1 18 2 19 3 20 90 21 4 22 88 23 89 24
REMARK SMILES IDX 19 25 20 26 21 27 22 28 23 30 24 31 25 32 86 33 26 34 85 35
REMARK SMILES IDX 27 36 28 37 29 38 79 39 30 40 84 41 78 42 80 43 31 44 83 45
REMARK SMILES IDX 77 46 76 47 32 49 64 50 44 51 63 52 45 53 48 54 62 55 81 56
REMARK SMILES IDX 46 57 47 58 61 60 82 61 49 62 33 63 34 64 42 65 35 66 37 67
REMARK SMILES IDX 43 68 36 69 38 70 39 71 40 72 41 73 65 74 66 75 74 76 67 77
REMARK SMILES IDX 69 78 75 79 68 80 70 81 71 82 72 83 73 84 50 85 51 86 59 87
REMARK SMILES IDX 52 88 54 89 60 90 53 91 55 92 56 93 57 94 58 95
REMARK H PARENT 16 6 9 13 21 29 80 48 48 59
REMARK Flexibility Score: inf
ROOT
ATOM      1  C   UNL A   1      33.602  27.273  24.445  1.00  0.00     0.023 C 
ENDROOT
BRANCH   1   2
ATOM      2  C   UNL A   1      33.341  27.113  22.950  1.00  0.00     0.116 C 
BRANCH   2   3
ATOM      3  N   UNL A   1      32.292  28.002  22.485  1.00  0.00    -0.356 N 
ATOM      4  C   UNL A   1      30.939  27.872  22.502  1.00  0.00     0.226 C 
ATOM      5  O   UNL A   1      30.271  28.815  22.065  1.00  0.00    -0.274 OA
ATOM      6  H   UNL A   1      32.616  28.844  22.089  1.00  0.00     0.163 HD
BRANCH   4   7
ATOM      7  C   UNL A   1      30.224  26.631  23.043  1.00  0.00     0.103 C 
ATOM      8  C   UNL A   1      30.957  24.530  24.116  1.00  0.00     0.093 C 
ATOM      9  C   UNL A   1      30.424  25.514  25.097  1.00  0.00    -0.011 C 
ATOM     10  C   UNL A   1      30.919  25.293  22.775  1.00  0.00     0.042 C 
ATOM     11  C   UNL A   1      30.023  26.653  24.523  1.00  0.00    -0.016 C 
BRANCH   8  12
ATOM     12  N   UNL A   1      32.323  24.090  24.373  1.00  0.00    -0.204 NA
ATOM     13  H   UNL A   1      32.889  24.554  23.663  1.00  0.00     0.142 HD
BRANCH  12  14
ATOM     14  S   UNL A   1      32.869  22.509  24.398  1.00  0.00     0.241 S 
ATOM     15  O   UNL A   1      32.894  22.039  23.031  1.00  0.00    -0.207 OA
ATOM     16  O   UNL A   1      32.075  21.849  25.412  1.00  0.00    -0.207 OA
BRANCH  14  17
ATOM     17  C   UNL A   1      34.540  22.559  25.015  1.00  0.00     0.085 A 
ATOM     18  C   UNL A   1      38.697  22.866  26.112  1.00  0.00     0.044 C 
ATOM     19  C   UNL A   1      37.245  22.768  25.753  1.00  0.00    -0.051 A 
ATOM     20  C   UNL A   1      36.432  23.901  25.740  1.00  0.00     0.005 A 
ATOM     21  C   UNL A   1      36.675  21.520  25.468  1.00  0.00     0.008 A 
ATOM     22  C   UNL A   1      35.088  23.796  25.383  1.00  0.00     0.022 A 
ATOM     23  C   UNL A   1      35.318  21.391  25.115  1.00  0.00    -0.031 A 
ATOM     24  C   UNL A   1      34.798  19.996  24.890  1.00  0.00     0.046 C 
ENDBRANCH  14  17
ENDBRANCH  12  14
ENDBRANCH   8  12
ENDBRANCH   4   7
ENDBRANCH   2   3
ENDBRANCH   1   2
BRANCH   1  25
ATOM     25  C   UNL A   1      33.618  28.722  24.938  1.00  0.00     0.023 C 
BRANCH  25  26
ATOM     26  C   UNL A   1      33.913  28.899  26.423  1.00  0.00     0.116 C 
BRANCH  26  27
ATOM     27  N   UNL A   1      33.870  30.288  26.854  1.00  0.00    -0.352 N 
ATOM     28  C   UNL A   1      34.764  30.964  27.650  1.00  0.00     0.251 C 
ATOM     29  H   UNL A   1      33.101  30.814  26.532  1.00  0.00     0.163 HD
ATOM     30  O   UNL A   1      34.524  32.109  28.021  1.00  0.00    -0.269 OA
BRANCH  28  31
ATOM     31  C   UNL A   1      36.004  30.288  28.085  1.00  0.00     0.039 A 
ATOM     32  C   UNL A   1      37.124  30.322  27.250  1.00  0.00     0.014 A 
ATOM     33  C   UNL A   1      36.067  29.645  29.324  1.00  0.00     0.014 A 
ATOM     34  C   UNL A   1      38.327  29.766  27.686  1.00  0.00     0.010 A 
ATOM     35  C   UNL A   1      37.285  29.159  29.787  1.00  0.00     0.010 A 
ATOM     36  C   UNL A   1      38.424  29.206  28.971  1.00  0.00    -0.014 A 
BRANCH  36  37
ATOM     37  C   UNL A   1      39.706  28.661  29.483  1.00  0.00     0.031 A 
ATOM     38  C   UNL A   1      40.434  29.369  30.594  1.00  0.00     0.074 A 
ATOM     39  C   UNL A   1      40.262  27.588  28.887  1.00  0.00     0.049 A 
ATOM     40  N   UNL A   1      41.588  29.082  31.138  1.00  0.00    -0.248 NA
ATOM     41  C   UNL A   1      39.795  30.575  31.144  1.00  0.00     0.031 C 
ATOM     42  C   UNL A   1      39.692  26.861  27.751  1.00  0.00     0.029 A 
ATOM     43  N   UNL A   1      41.441  26.934  29.142  1.00  0.00    -0.354 N 
ATOM     44  C   UNL A   1      41.832  30.090  32.061  1.00  0.00     0.074 A 
ATOM     45  C   UNL A   1      40.724  31.018  31.976  1.00  0.00     0.031 C 
ATOM     46  C   UNL A   1      40.513  25.852  27.419  1.00  0.00     0.029 A 
ATOM     47  C   UNL A   1      41.676  25.874  28.299  1.00  0.00     0.049 A 
ATOM     48  H   UNL A   1      42.061  27.201  29.859  1.00  0.00     0.167 HD
ATOM     49  C   UNL A   1      42.864  30.217  32.930  1.00  0.00     0.034 A 
ATOM     50  C   UNL A   1      42.710  25.011  28.248  1.00  0.00     0.034 A 
ATOM     51  C   UNL A   1      43.933  29.265  33.049  1.00  0.00     0.049 A 
ATOM     52  C   UNL A   1      43.824  25.146  29.252  1.00  0.00     0.074 A 
ATOM     53  C   UNL A   1      44.975  29.247  33.960  1.00  0.00     0.029 A 
ATOM     54  N   UNL A   1      44.097  28.157  32.231  1.00  0.00    -0.354 N 
ATOM     55  N   UNL A   1      43.957  26.013  30.226  1.00  0.00    -0.248 NA
ATOM     56  C   UNL A   1      44.911  24.161  29.172  1.00  0.00     0.031 C 
ATOM     57  C   UNL A   1      45.776  28.133  33.684  1.00  0.00     0.029 A 
ATOM     58  C   UNL A   1      45.225  27.449  32.610  1.00  0.00     0.049 A 
ATOM     59  H   UNL A   1      43.499  27.909  31.490  1.00  0.00     0.167 HD
ATOM     60  C   UNL A   1      45.120  25.656  30.900  1.00  0.00     0.074 A 
ATOM     61  C   UNL A   1      45.646  24.484  30.229  1.00  0.00     0.031 C 
ATOM     62  C   UNL A   1      45.704  26.251  31.969  1.00  0.00     0.034 A 
BRANCH  49  63
ATOM     63  C   UNL A   1      42.842  31.403  33.858  1.00  0.00     0.023 A 
ATOM     64  C   UNL A   1      43.380  32.633  33.421  1.00  0.00     0.012 A 
ATOM     65  C   UNL A   1      42.283  31.316  35.147  1.00  0.00     0.148 A 
ATOM     66  C   UNL A   1      43.407  33.739  34.269  1.00  0.00     0.002 A 
ATOM     67  C   UNL A   1      42.274  32.437  35.971  1.00  0.00     0.091 A 
ATOM     68  F   UNL A   1      41.800  30.135  35.560  1.00  0.00    -0.205 F 
ATOM     69  C   UNL A   1      42.847  33.645  35.540  1.00  0.00     0.022 A 
BRANCH  67  70
ATOM     70  S   UNL A   1      41.502  32.422  37.593  1.00  0.00     0.127 S 
ATOM     71  O   UNL A   1      41.664  33.814  38.012  1.00  0.00    -0.237 OA
ATOM     72  O   UNL A   1      40.125  32.037  37.283  1.00  0.00    -0.237 OA
ATOM     73  O   UNL A   1      42.240  31.435  38.369  1.00  0.00    -0.744 OA
ENDBRANCH  67  70
ENDBRANCH  49  63
BRANCH  50  74
ATOM     74  C   UNL A   1      42.679  23.876  27.285  1.00  0.00     0.023 A 
ATOM     75  C   UNL A   1      43.289  24.038  26.025  1.00  0.00     0.012 A 
ATOM     76  C   UNL A   1      42.103  22.634  27.614  1.00  0.00     0.148 A 
ATOM     77  C   UNL A   1      43.308  22.993  25.102  1.00  0.00     0.002 A 
ATOM     78  C   UNL A   1      42.168  21.581  26.708  1.00  0.00     0.091 A 
ATOM     79  F   UNL A   1      41.522  22.503  28.815  1.00  0.00    -0.205 F 
ATOM     80  C   UNL A   1      42.757  21.763  25.446  1.00  0.00     0.022 A 
BRANCH  78  81
ATOM     81  S   UNL A   1      41.594  19.925  27.103  1.00  0.00     0.127 S 
ATOM     82  O   UNL A   1      40.570  20.195  28.110  1.00  0.00    -0.237 OA
ATOM     83  O   UNL A   1      41.082  19.468  25.811  1.00  0.00    -0.237 OA
ATOM     84  O   UNL A   1      42.767  19.202  27.575  1.00  0.00    -0.744 OA
ENDBRANCH  78  81
ENDBRANCH  50  74
BRANCH  62  85
ATOM     85  C   UNL A   1      46.965  25.630  32.510  1.00  0.00     0.023 A 
ATOM     86  C   UNL A   1      48.215  26.031  31.998  1.00  0.00     0.012 A 
ATOM     87  C   UNL A   1      46.916  24.712  33.577  1.00  0.00     0.148 A 
ATOM     88  C   UNL A   1      49.396  25.506  32.523  1.00  0.00     0.002 A 
ATOM     89  C   UNL A   1      48.098  24.227  34.125  1.00  0.00     0.091 A 
ATOM     90  F   UNL A   1      45.715  24.326  34.035  1.00  0.00    -0.205 F 
ATOM     91  C   UNL A   1      49.338  24.615  33.593  1.00  0.00     0.022 A 
BRANCH  89  92
ATOM     92  S   UNL A   1      48.115  23.152  35.564  1.00  0.00     0.127 S 
ATOM     93  O   UNL A   1      47.393  21.981  35.071  1.00  0.00    -0.237 OA
ATOM     94  O   UNL A   1      49.548  22.938  35.778  1.00  0.00    -0.237 OA
ATOM     95  O   UNL A   1      47.455  23.898  36.627  1.00  0.00    -0.744 OA
ENDBRANCH  89  92
ENDBRANCH  62  85
ENDBRANCH  36  37
ENDBRANCH  28  31
ENDBRANCH  26  27
ENDBRANCH  25  26
ENDBRANCH   1  25
TORSDOF 17
ENDMDL
