MODEL 1
REMARK VINA RESULT:     -13.1      0.000      0.000
REMARK SMILES O=C(NCCCCNC(=O)[C@@H]1CC2(CC[NH2+]CC2)C[N@H+]1Cc1cccc2nonc12)c1ccc(-c2c3nc(c(-c4cccc(S(=O)(=O)[O-])c4F)c4ccc([nH]4)c(-c4cccc(S(=O)(=O)[O-])c4F)c4nc(c(-c5cccc(S(=O)(=O)[O-])c5F)c5ccc2[nH]5)C=C4)C=C3)cc1
REMARK SMILES IDX 5 1 4 2 3 3 1 4 2 5 31 7 32 8 93 9 33 10 92 11 34 12 35 13
REMARK SMILES IDX 36 14 86 15 37 16 91 17 85 18 87 19 38 20 90 21 84 22 83 23
REMARK SMILES IDX 39 25 71 26 51 27 70 28 52 29 55 30 69 31 88 32 53 33 54 34
REMARK SMILES IDX 68 36 89 37 56 38 40 39 41 40 49 41 42 42 44 43 50 44 43 45
REMARK SMILES IDX 45 46 46 47 47 48 48 49 72 50 73 51 81 52 74 53 76 54 82 55
REMARK SMILES IDX 75 56 77 57 78 58 79 59 80 60 57 61 58 62 66 63 59 64 61 65
REMARK SMILES IDX 67 66 60 67 62 68 63 69 64 70 65 71 6 72 7 73 8 74 9 75
REMARK SMILES IDX 10 77 11 78 12 79 20 80 13 81 19 82 14 84 18 85 15 86 17 87
REMARK SMILES IDX 16 88 21 91 22 92 23 93 30 94 24 95 26 96 29 97 25 98 27 99
REMARK SMILES IDX 28 100
REMARK H PARENT 3 6 87 24 55 35 8 76 20 83 16 89 16 90
REMARK Flexibility Score: inf
ROOT
ATOM      1  C   UNL A   1      38.889  21.789  25.696  1.00  0.00     0.023 C 
ENDROOT
BRANCH   1   2
ATOM      2  C   UNL A   1      39.679  22.100  26.963  1.00  0.00     0.116 C 
BRANCH   2   3
ATOM      3  N   UNL A   1      41.051  21.615  26.852  1.00  0.00    -0.352 N 
ATOM      4  O   UNL A   1      43.180  21.738  26.155  1.00  0.00    -0.269 OA
ATOM      5  C   UNL A   1      42.199  22.319  26.614  1.00  0.00     0.251 C 
ATOM      6  H   UNL A   1      41.168  20.644  26.965  1.00  0.00     0.163 HD
BRANCH   5   7
ATOM      7  C   UNL A   1      42.258  23.760  26.918  1.00  0.00     0.039 A 
ATOM      8  C   UNL A   1      42.523  24.648  25.873  1.00  0.00     0.014 A 
ATOM      9  C   UNL A   1      42.142  24.222  28.234  1.00  0.00     0.014 A 
ATOM     10  C   UNL A   1      42.627  26.007  26.144  1.00  0.00     0.010 A 
ATOM     11  C   UNL A   1      42.213  25.580  28.500  1.00  0.00     0.010 A 
ATOM     12  C   UNL A   1      42.451  26.474  27.454  1.00  0.00    -0.014 A 
BRANCH  12  13
ATOM     13  C   UNL A   1      42.521  27.924  27.674  1.00  0.00     0.031 A 
ATOM     14  C   UNL A   1      41.183  28.602  27.763  1.00  0.00     0.074 A 
ATOM     15  C   UNL A   1      43.554  28.400  28.398  1.00  0.00     0.049 A 
ATOM     16  N   UNL A   1      40.428  28.586  28.823  1.00  0.00    -0.248 NA
ATOM     17  C   UNL A   1      40.499  29.099  26.567  1.00  0.00     0.031 C 
ATOM     18  C   UNL A   1      44.126  27.723  29.571  1.00  0.00     0.029 A 
ATOM     19  N   UNL A   1      44.158  29.633  28.385  1.00  0.00    -0.354 N 
ATOM     20  C   UNL A   1      39.167  29.022  28.444  1.00  0.00     0.074 A 
ATOM     21  C   UNL A   1      39.261  29.330  27.034  1.00  0.00     0.031 C 
ATOM     22  C   UNL A   1      44.866  28.609  30.264  1.00  0.00     0.029 A 
ATOM     23  C   UNL A   1      44.918  29.869  29.530  1.00  0.00     0.049 A 
ATOM     24  H   UNL A   1      44.065  30.280  27.648  1.00  0.00     0.167 HD
ATOM     25  C   UNL A   1      38.118  29.123  29.310  1.00  0.00     0.034 A 
ATOM     26  C   UNL A   1      45.097  31.107  30.071  1.00  0.00     0.034 A 
ATOM     27  C   UNL A   1      38.427  28.815  30.676  1.00  0.00     0.049 A 
ATOM     28  C   UNL A   1      43.773  31.257  30.798  1.00  0.00     0.074 A 
ATOM     29  C   UNL A   1      38.213  27.799  31.581  1.00  0.00     0.029 A 
ATOM     30  N   UNL A   1      39.177  29.734  31.368  1.00  0.00    -0.354 N 
ATOM     31  N   UNL A   1      43.425  30.645  31.903  1.00  0.00    -0.248 NA
ATOM     32  C   UNL A   1      42.651  31.786  30.022  1.00  0.00     0.031 C 
ATOM     33  C   UNL A   1      39.227  27.961  32.583  1.00  0.00     0.029 A 
ATOM     34  C   UNL A   1      40.008  29.058  32.220  1.00  0.00     0.049 A 
ATOM     35  H   UNL A   1      39.126  30.712  31.268  1.00  0.00     0.167 HD
ATOM     36  C   UNL A   1      42.048  30.420  31.784  1.00  0.00     0.074 A 
ATOM     37  C   UNL A   1      41.635  31.174  30.615  1.00  0.00     0.031 C 
ATOM     38  C   UNL A   1      41.352  29.506  32.527  1.00  0.00     0.034 A 
BRANCH  25  39
ATOM     39  C   UNL A   1      36.828  29.785  28.988  1.00  0.00     0.023 A 
ATOM     40  C   UNL A   1      36.034  29.142  28.017  1.00  0.00     0.012 A 
ATOM     41  C   UNL A   1      36.469  31.071  29.430  1.00  0.00     0.148 A 
ATOM     42  C   UNL A   1      34.931  29.775  27.454  1.00  0.00     0.002 A 
ATOM     43  C   UNL A   1      35.355  31.698  28.869  1.00  0.00     0.091 A 
ATOM     44  F   UNL A   1      37.236  31.673  30.351  1.00  0.00    -0.205 F 
ATOM     45  C   UNL A   1      34.596  31.055  27.874  1.00  0.00     0.022 A 
BRANCH  43  46
ATOM     46  S   UNL A   1      34.817  33.354  29.320  1.00  0.00     0.127 S 
ATOM     47  O   UNL A   1      35.960  34.169  28.897  1.00  0.00    -0.237 OA
ATOM     48  O   UNL A   1      33.620  33.516  28.487  1.00  0.00    -0.237 OA
ATOM     49  O   UNL A   1      34.564  33.321  30.745  1.00  0.00    -0.744 OA
ENDBRANCH  43  46
ENDBRANCH  25  39
BRANCH  26  50
ATOM     50  C   UNL A   1      45.657  32.116  29.099  1.00  0.00     0.023 A 
ATOM     51  C   UNL A   1      47.008  32.506  29.291  1.00  0.00     0.012 A 
ATOM     52  C   UNL A   1      44.978  32.667  27.999  1.00  0.00     0.148 A 
ATOM     53  C   UNL A   1      47.697  33.278  28.356  1.00  0.00     0.002 A 
ATOM     54  C   UNL A   1      45.678  33.404  27.043  1.00  0.00     0.091 A 
ATOM     55  F   UNL A   1      43.662  32.452  27.875  1.00  0.00    -0.205 F 
ATOM     56  C   UNL A   1      47.039  33.698  27.210  1.00  0.00     0.022 A 
BRANCH  54  57
ATOM     57  S   UNL A   1      44.930  33.949  25.502  1.00  0.00     0.127 S 
ATOM     58  O   UNL A   1      43.901  34.875  25.972  1.00  0.00    -0.237 OA
ATOM     59  O   UNL A   1      46.069  34.579  24.837  1.00  0.00    -0.237 OA
ATOM     60  O   UNL A   1      44.424  32.744  24.862  1.00  0.00    -0.744 OA
ENDBRANCH  54  57
ENDBRANCH  26  50
BRANCH  38  61
ATOM     61  C   UNL A   1      42.105  28.827  33.635  1.00  0.00     0.023 A 
ATOM     62  C   UNL A   1      42.085  29.418  34.911  1.00  0.00     0.012 A 
ATOM     63  C   UNL A   1      42.745  27.581  33.464  1.00  0.00     0.148 A 
ATOM     64  C   UNL A   1      42.667  28.778  36.004  1.00  0.00     0.002 A 
ATOM     65  C   UNL A   1      43.299  26.932  34.563  1.00  0.00     0.091 A 
ATOM     66  F   UNL A   1      42.786  27.037  32.238  1.00  0.00    -0.205 F 
ATOM     67  C   UNL A   1      43.260  27.530  35.834  1.00  0.00     0.022 A 
BRANCH  65  68
ATOM     68  S   UNL A   1      44.039  25.296  34.472  1.00  0.00     0.127 S 
ATOM     69  O   UNL A   1      44.782  25.368  33.214  1.00  0.00    -0.237 OA
ATOM     70  O   UNL A   1      44.877  25.276  35.672  1.00  0.00    -0.237 OA
ATOM     71  O   UNL A   1      42.937  24.344  34.480  1.00  0.00    -0.744 OA
ENDBRANCH  65  68
ENDBRANCH  38  61
ENDBRANCH  12  13
ENDBRANCH   5   7
ENDBRANCH   2   3
ENDBRANCH   1   2
BRANCH   1  72
ATOM     72  C   UNL A   1      37.598  22.571  25.599  1.00  0.00     0.023 C 
BRANCH  72  73
ATOM     73  C   UNL A   1      37.354  23.294  24.295  1.00  0.00     0.116 C 
BRANCH  73  74
ATOM     74  N   UNL A   1      36.312  22.911  23.377  1.00  0.00    -0.351 N 
ATOM     75  C   UNL A   1      35.056  22.455  23.748  1.00  0.00     0.278 C 
ATOM     76  H   UNL A   1      36.507  22.979  22.415  1.00  0.00     0.163 HD
ATOM     77  O   UNL A   1      34.103  22.738  23.015  1.00  0.00    -0.268 OA
BRANCH  75  78
ATOM     78  C   UNL A   1      34.816  21.550  25.008  1.00  0.00     0.275 C 
ATOM     79  C   UNL A   1      34.679  20.016  24.819  1.00  0.00     0.089 C 
ATOM     80  N   UNL A   1      33.610  21.982  25.727  1.00  0.00    -0.320 N 
ATOM     81  C   UNL A   1      33.187  19.673  25.038  1.00  0.00     0.036 C 
ATOM     82  C   UNL A   1      32.785  20.824  26.024  1.00  0.00     0.270 C 
ATOM     83  H   UNL A   1      33.026  22.556  25.120  1.00  0.00     0.349 HD
ATOM     84  C   UNL A   1      32.854  18.346  25.758  1.00  0.00     0.074 C 
ATOM     85  C   UNL A   1      32.496  19.639  23.643  1.00  0.00     0.074 C 
ATOM     86  C   UNL A   1      32.894  17.095  24.885  1.00  0.00     0.261 C 
ATOM     87  C   UNL A   1      32.528  18.313  22.887  1.00  0.00     0.261 C 
ATOM     88  N   UNL A   1      32.040  17.225  23.712  1.00  0.00    -0.346 N 
ATOM     89  H   UNL A   1      31.083  17.422  24.006  1.00  0.00     0.346 HD
ATOM     90  H   UNL A   1      32.056  16.355  23.179  1.00  0.00     0.346 HD
BRANCH  80  91
ATOM     91  C   UNL A   1      33.829  23.002  26.756  1.00  0.00     0.302 C 
BRANCH  91  92
ATOM     92  C   UNL A   1      33.308  24.340  26.286  1.00  0.00     0.038 A 
ATOM     93  C   UNL A   1      34.200  25.354  25.853  1.00  0.00     0.012 A 
ATOM     94  C   UNL A   1      31.971  24.793  26.402  1.00  0.00     0.144 A 
ATOM     95  C   UNL A   1      33.830  26.717  25.669  1.00  0.00     0.003 A 
ATOM     96  C   UNL A   1      31.601  26.197  26.238  1.00  0.00     0.135 A 
ATOM     97  N   UNL A   1      30.859  24.107  26.698  1.00  0.00    -0.049 NA
ATOM     98  C   UNL A   1      32.532  27.197  25.905  1.00  0.00     0.034 A 
ATOM     99  N   UNL A   1      30.291  26.320  26.479  1.00  0.00    -0.050 NA
ATOM    100  O   UNL A   1      29.843  25.045  26.776  1.00  0.00    -0.243 OA
ENDBRANCH  91  92
ENDBRANCH  80  91
ENDBRANCH  75  78
ENDBRANCH  73  74
ENDBRANCH  72  73
ENDBRANCH   1  72
TORSDOF 16
ENDMDL
MODEL 2
REMARK VINA RESULT:     -12.8      2.833      8.803
REMARK SMILES O=C(NCCCCNC(=O)[C@@H]1CC2(CC[NH2+]CC2)C[N@H+]1Cc1cccc2nonc12)c1ccc(-c2c3nc(c(-c4cccc(S(=O)(=O)[O-])c4F)c4ccc([nH]4)c(-c4cccc(S(=O)(=O)[O-])c4F)c4nc(c(-c5cccc(S(=O)(=O)[O-])c5F)c5ccc2[nH]5)C=C4)C=C3)cc1
REMARK SMILES IDX 5 1 4 2 3 3 1 4 2 5 31 7 32 8 93 9 33 10 92 11 34 12 35 13
REMARK SMILES IDX 36 14 86 15 37 16 91 17 85 18 87 19 38 20 90 21 84 22 83 23
REMARK SMILES IDX 39 25 71 26 51 27 70 28 52 29 55 30 69 31 88 32 53 33 54 34
REMARK SMILES IDX 68 36 89 37 56 38 40 39 41 40 49 41 42 42 44 43 50 44 43 45
REMARK SMILES IDX 45 46 46 47 47 48 48 49 72 50 73 51 81 52 74 53 76 54 82 55
REMARK SMILES IDX 75 56 77 57 78 58 79 59 80 60 57 61 58 62 66 63 59 64 61 65
REMARK SMILES IDX 67 66 60 67 62 68 63 69 64 70 65 71 6 72 7 73 8 74 9 75
REMARK SMILES IDX 10 77 11 78 12 79 20 80 13 81 19 82 14 84 18 85 15 86 17 87
REMARK SMILES IDX 16 88 21 91 22 92 23 93 30 94 24 95 26 96 29 97 25 98 27 99
REMARK SMILES IDX 28 100
REMARK H PARENT 3 6 87 24 55 35 8 76 20 83 16 89 16 90
REMARK Flexibility Score: inf
ROOT
ATOM      1  C   UNL A   1      33.516  31.464  27.745  1.00  0.00     0.023 C 
ENDROOT
BRANCH   1   2
ATOM      2  C   UNL A   1      35.032  31.332  27.647  1.00  0.00     0.116 C 
BRANCH   2   3
ATOM      3  N   UNL A   1      35.680  32.627  27.828  1.00  0.00    -0.352 N 
ATOM      4  O   UNL A   1      36.809  34.167  29.006  1.00  0.00    -0.269 OA
ATOM      5  C   UNL A   1      36.668  32.984  28.703  1.00  0.00     0.251 C 
ATOM      6  H   UNL A   1      35.360  33.347  27.237  1.00  0.00     0.163 HD
BRANCH   5   7
ATOM      7  C   UNL A   1      37.562  31.956  29.266  1.00  0.00     0.039 A 
ATOM      8  C   UNL A   1      38.112  31.009  28.399  1.00  0.00     0.014 A 
ATOM      9  C   UNL A   1      37.783  31.873  30.646  1.00  0.00     0.014 A 
ATOM     10  C   UNL A   1      38.922  30.004  28.913  1.00  0.00     0.010 A 
ATOM     11  C   UNL A   1      38.617  30.890  31.155  1.00  0.00     0.010 A 
ATOM     12  C   UNL A   1      39.191  29.958  30.288  1.00  0.00    -0.014 A 
BRANCH  12  13
ATOM     13  C   UNL A   1      40.093  28.904  30.770  1.00  0.00     0.031 A 
ATOM     14  C   UNL A   1      39.998  27.613  30.008  1.00  0.00     0.074 A 
ATOM     15  C   UNL A   1      41.279  29.281  31.288  1.00  0.00     0.049 A 
ATOM     16  N   UNL A   1      40.552  27.408  28.848  1.00  0.00    -0.248 NA
ATOM     17  C   UNL A   1      39.037  26.574  30.386  1.00  0.00     0.031 C 
ATOM     18  C   UNL A   1      42.093  30.392  30.773  1.00  0.00     0.029 A 
ATOM     19  N   UNL A   1      42.089  28.659  32.206  1.00  0.00    -0.354 N 
ATOM     20  C   UNL A   1      39.997  26.254  28.317  1.00  0.00     0.074 A 
ATOM     21  C   UNL A   1      39.062  25.771  29.309  1.00  0.00     0.031 C 
ATOM     22  C   UNL A   1      43.345  30.270  31.254  1.00  0.00     0.029 A 
ATOM     23  C   UNL A   1      43.392  29.155  32.194  1.00  0.00     0.049 A 
ATOM     24  H   UNL A   1      41.783  27.942  32.808  1.00  0.00     0.167 HD
ATOM     25  C   UNL A   1      40.346  25.747  27.100  1.00  0.00     0.034 A 
ATOM     26  C   UNL A   1      44.486  28.398  32.489  1.00  0.00     0.034 A 
ATOM     27  C   UNL A   1      41.395  26.456  26.425  1.00  0.00     0.049 A 
ATOM     28  C   UNL A   1      44.647  27.665  31.171  1.00  0.00     0.074 A 
ATOM     29  C   UNL A   1      41.542  27.319  25.363  1.00  0.00     0.029 A 
ATOM     30  N   UNL A   1      42.666  26.312  26.926  1.00  0.00    -0.354 N 
ATOM     31  N   UNL A   1      45.098  28.175  30.052  1.00  0.00    -0.248 NA
ATOM     32  C   UNL A   1      43.873  26.433  31.003  1.00  0.00     0.031 C 
ATOM     33  C   UNL A   1      42.790  27.991  25.588  1.00  0.00     0.029 A 
ATOM     34  C   UNL A   1      43.321  27.506  26.783  1.00  0.00     0.049 A 
ATOM     35  H   UNL A   1      43.041  25.492  27.321  1.00  0.00     0.167 HD
ATOM     36  C   UNL A   1      44.387  27.527  29.035  1.00  0.00     0.074 A 
ATOM     37  C   UNL A   1      43.672  26.449  29.692  1.00  0.00     0.031 C 
ATOM     38  C   UNL A   1      44.278  27.998  27.755  1.00  0.00     0.034 A 
BRANCH  25  39
ATOM     39  C   UNL A   1      39.935  24.410  26.602  1.00  0.00     0.023 A 
ATOM     40  C   UNL A   1      38.575  24.277  26.252  1.00  0.00     0.012 A 
ATOM     41  C   UNL A   1      40.748  23.263  26.655  1.00  0.00     0.148 A 
ATOM     42  C   UNL A   1      38.013  23.028  26.006  1.00  0.00     0.002 A 
ATOM     43  C   UNL A   1      40.181  22.014  26.396  1.00  0.00     0.091 A 
ATOM     44  F   UNL A   1      42.037  23.404  26.992  1.00  0.00    -0.205 F 
ATOM     45  C   UNL A   1      38.814  21.897  26.085  1.00  0.00     0.022 A 
BRANCH  43  46
ATOM     46  S   UNL A   1      41.105  20.472  26.469  1.00  0.00     0.127 S 
ATOM     47  O   UNL A   1      42.325  20.816  25.732  1.00  0.00    -0.237 OA
ATOM     48  O   UNL A   1      41.300  20.310  27.915  1.00  0.00    -0.237 OA
ATOM     49  O   UNL A   1      40.264  19.468  25.855  1.00  0.00    -0.744 OA
ENDBRANCH  43  46
ENDBRANCH  25  39
BRANCH  26  50
ATOM     50  C   UNL A   1      44.410  27.726  33.837  1.00  0.00     0.023 A 
ATOM     51  C   UNL A   1      45.618  27.644  34.579  1.00  0.00     0.012 A 
ATOM     52  C   UNL A   1      43.248  27.218  34.442  1.00  0.00     0.148 A 
ATOM     53  C   UNL A   1      45.644  27.223  35.909  1.00  0.00     0.002 A 
ATOM     54  C   UNL A   1      43.267  26.837  35.785  1.00  0.00     0.091 A 
ATOM     55  F   UNL A   1      42.125  27.130  33.717  1.00  0.00    -0.205 F 
ATOM     56  C   UNL A   1      44.458  26.853  36.524  1.00  0.00     0.022 A 
BRANCH  54  57
ATOM     57  S   UNL A   1      41.777  26.390  36.686  1.00  0.00     0.127 S 
ATOM     58  O   UNL A   1      42.293  26.161  38.035  1.00  0.00    -0.237 OA
ATOM     59  O   UNL A   1      40.974  27.601  36.531  1.00  0.00    -0.237 OA
ATOM     60  O   UNL A   1      41.255  25.206  36.020  1.00  0.00    -0.744 OA
ENDBRANCH  54  57
ENDBRANCH  26  50
BRANCH  38  61
ATOM     61  C   UNL A   1      45.106  29.201  27.407  1.00  0.00     0.023 A 
ATOM     62  C   UNL A   1      46.492  29.030  27.247  1.00  0.00     0.012 A 
ATOM     63  C   UNL A   1      44.534  30.465  27.146  1.00  0.00     0.148 A 
ATOM     64  C   UNL A   1      47.297  30.082  26.814  1.00  0.00     0.002 A 
ATOM     65  C   UNL A   1      45.337  31.504  26.685  1.00  0.00     0.091 A 
ATOM     66  F   UNL A   1      43.215  30.630  27.329  1.00  0.00    -0.205 F 
ATOM     67  C   UNL A   1      46.719  31.313  26.519  1.00  0.00     0.022 A 
BRANCH  65  68
ATOM     68  S   UNL A   1      44.691  33.116  26.220  1.00  0.00     0.127 S 
ATOM     69  O   UNL A   1      45.909  33.837  25.849  1.00  0.00    -0.237 OA
ATOM     70  O   UNL A   1      43.819  32.780  25.094  1.00  0.00    -0.237 OA
ATOM     71  O   UNL A   1      44.003  33.638  27.393  1.00  0.00    -0.744 OA
ENDBRANCH  65  68
ENDBRANCH  38  61
ENDBRANCH  12  13
ENDBRANCH   5   7
ENDBRANCH   2   3
ENDBRANCH   1   2
BRANCH   1  72
ATOM     72  C   UNL A   1      32.779  30.436  26.915  1.00  0.00     0.023 C 
BRANCH  72  73
ATOM     73  C   UNL A   1      32.538  29.098  27.573  1.00  0.00     0.116 C 
BRANCH  73  74
ATOM     74  N   UNL A   1      31.439  28.241  27.212  1.00  0.00    -0.351 N 
ATOM     75  C   UNL A   1      31.275  27.642  25.971  1.00  0.00     0.278 C 
ATOM     76  H   UNL A   1      30.753  28.067  27.896  1.00  0.00     0.163 HD
ATOM     77  O   UNL A   1      30.735  26.530  25.937  1.00  0.00    -0.268 OA
BRANCH  75  78
ATOM     78  C   UNL A   1      31.681  28.341  24.626  1.00  0.00     0.275 C 
ATOM     79  C   UNL A   1      30.738  29.414  24.020  1.00  0.00     0.089 C 
ATOM     80  N   UNL A   1      31.892  27.341  23.572  1.00  0.00    -0.320 N 
ATOM     81  C   UNL A   1      30.072  28.771  22.782  1.00  0.00     0.036 C 
ATOM     82  C   UNL A   1      31.190  27.752  22.369  1.00  0.00     0.270 C 
ATOM     83  H   UNL A   1      31.450  26.459  23.830  1.00  0.00     0.349 HD
ATOM     84  C   UNL A   1      29.826  29.672  21.550  1.00  0.00     0.074 C 
ATOM     85  C   UNL A   1      28.694  28.195  23.226  1.00  0.00     0.074 C 
ATOM     86  C   UNL A   1      28.583  30.555  21.617  1.00  0.00     0.261 C 
ATOM     87  C   UNL A   1      27.500  29.145  23.181  1.00  0.00     0.261 C 
ATOM     88  N   UNL A   1      27.380  29.778  21.882  1.00  0.00    -0.346 N 
ATOM     89  H   UNL A   1      27.269  29.063  21.163  1.00  0.00     0.346 HD
ATOM     90  H   UNL A   1      26.566  30.393  21.873  1.00  0.00     0.346 HD
BRANCH  80  91
ATOM     91  C   UNL A   1      33.257  26.817  23.473  1.00  0.00     0.302 C 
BRANCH  91  92
ATOM     92  C   UNL A   1      33.372  25.510  24.222  1.00  0.00     0.038 A 
ATOM     93  C   UNL A   1      34.374  25.325  25.209  1.00  0.00     0.012 A 
ATOM     94  C   UNL A   1      32.674  24.317  23.914  1.00  0.00     0.144 A 
ATOM     95  C   UNL A   1      34.735  24.059  25.751  1.00  0.00     0.003 A 
ATOM     96  C   UNL A   1      33.064  23.016  24.453  1.00  0.00     0.135 A 
ATOM     97  N   UNL A   1      31.622  24.127  23.105  1.00  0.00    -0.049 NA
ATOM     98  C   UNL A   1      34.131  22.855  25.355  1.00  0.00     0.034 A 
ATOM     99  N   UNL A   1      32.267  22.082  23.924  1.00  0.00    -0.050 NA
ATOM    100  O   UNL A   1      31.397  22.760  23.088  1.00  0.00    -0.243 OA
ENDBRANCH  91  92
ENDBRANCH  80  91
ENDBRANCH  75  78
ENDBRANCH  73  74
ENDBRANCH  72  73
ENDBRANCH   1  72
TORSDOF 16
ENDMDL
MODEL 3
REMARK VINA RESULT:     -12.6      3.188      8.776
REMARK SMILES O=C(NCCCCNC(=O)[C@@H]1CC2(CC[NH2+]CC2)C[N@H+]1Cc1cccc2nonc12)c1ccc(-c2c3nc(c(-c4cccc(S(=O)(=O)[O-])c4F)c4ccc([nH]4)c(-c4cccc(S(=O)(=O)[O-])c4F)c4nc(c(-c5cccc(S(=O)(=O)[O-])c5F)c5ccc2[nH]5)C=C4)C=C3)cc1
REMARK SMILES IDX 5 1 4 2 3 3 1 4 2 5 31 7 32 8 93 9 33 10 92 11 34 12 35 13
REMARK SMILES IDX 36 14 86 15 37 16 91 17 85 18 87 19 38 20 90 21 84 22 83 23
REMARK SMILES IDX 39 25 71 26 51 27 70 28 52 29 55 30 69 31 88 32 53 33 54 34
REMARK SMILES IDX 68 36 89 37 56 38 40 39 41 40 49 41 42 42 44 43 50 44 43 45
REMARK SMILES IDX 45 46 46 47 47 48 48 49 72 50 73 51 81 52 74 53 76 54 82 55
REMARK SMILES IDX 75 56 77 57 78 58 79 59 80 60 57 61 58 62 66 63 59 64 61 65
REMARK SMILES IDX 67 66 60 67 62 68 63 69 64 70 65 71 6 72 7 73 8 74 9 75
REMARK SMILES IDX 10 77 11 78 12 79 20 80 13 81 19 82 14 84 18 85 15 86 17 87
REMARK SMILES IDX 16 88 21 91 22 92 23 93 30 94 24 95 26 96 29 97 25 98 27 99
REMARK SMILES IDX 28 100
REMARK H PARENT 3 6 87 24 55 35 8 76 20 83 16 89 16 90
REMARK Flexibility Score: inf
ROOT
ATOM      1  C   UNL A   1      34.605  30.589  27.958  1.00  0.00     0.023 C 
ENDROOT
BRANCH   1   2
ATOM      2  C   UNL A   1      34.843  32.061  27.634  1.00  0.00     0.116 C 
BRANCH   2   3
ATOM      3  N   UNL A   1      34.530  32.903  28.784  1.00  0.00    -0.352 N 
ATOM      4  O   UNL A   1      34.201  33.286  30.970  1.00  0.00    -0.269 OA
ATOM      5  C   UNL A   1      34.866  32.731  30.099  1.00  0.00     0.251 C 
ATOM      6  H   UNL A   1      34.001  33.710  28.587  1.00  0.00     0.163 HD
BRANCH   5   7
ATOM      7  C   UNL A   1      36.025  31.896  30.460  1.00  0.00     0.039 A 
ATOM      8  C   UNL A   1      35.880  30.972  31.497  1.00  0.00     0.014 A 
ATOM      9  C   UNL A   1      37.267  32.085  29.842  1.00  0.00     0.014 A 
ATOM     10  C   UNL A   1      36.971  30.205  31.884  1.00  0.00     0.010 A 
ATOM     11  C   UNL A   1      38.349  31.297  30.206  1.00  0.00     0.010 A 
ATOM     12  C   UNL A   1      38.200  30.353  31.224  1.00  0.00    -0.014 A 
BRANCH  12  13
ATOM     13  C   UNL A   1      39.305  29.481  31.641  1.00  0.00     0.031 A 
ATOM     14  C   UNL A   1      39.461  28.240  30.809  1.00  0.00     0.074 A 
ATOM     15  C   UNL A   1      40.399  30.064  32.173  1.00  0.00     0.049 A 
ATOM     16  N   UNL A   1      40.026  28.215  29.637  1.00  0.00    -0.248 NA
ATOM     17  C   UNL A   1      38.738  27.008  31.134  1.00  0.00     0.031 C 
ATOM     18  C   UNL A   1      40.961  31.343  31.715  1.00  0.00     0.029 A 
ATOM     19  N   UNL A   1      41.333  29.572  33.050  1.00  0.00    -0.354 N 
ATOM     20  C   UNL A   1      39.708  27.002  29.045  1.00  0.00     0.074 A 
ATOM     21  C   UNL A   1      38.908  26.286  30.014  1.00  0.00     0.031 C 
ATOM     22  C   UNL A   1      42.220  31.453  32.181  1.00  0.00     0.029 A 
ATOM     23  C   UNL A   1      42.508  30.323  33.058  1.00  0.00     0.049 A 
ATOM     24  H   UNL A   1      41.190  28.777  33.613  1.00  0.00     0.167 HD
ATOM     25  C   UNL A   1      40.131  26.642  27.800  1.00  0.00     0.034 A 
ATOM     26  C   UNL A   1      43.738  29.791  33.304  1.00  0.00     0.034 A 
ATOM     27  C   UNL A   1      41.003  27.584  27.160  1.00  0.00     0.049 A 
ATOM     28  C   UNL A   1      44.022  29.176  31.946  1.00  0.00     0.074 A 
ATOM     29  C   UNL A   1      40.954  28.515  26.146  1.00  0.00     0.029 A 
ATOM     30  N   UNL A   1      42.285  27.677  27.645  1.00  0.00    -0.354 N 
ATOM     31  N   UNL A   1      44.341  29.827  30.855  1.00  0.00    -0.248 NA
ATOM     32  C   UNL A   1      43.512  27.824  31.714  1.00  0.00     0.031 C 
ATOM     33  C   UNL A   1      42.042  29.414  26.401  1.00  0.00     0.029 A 
ATOM     34  C   UNL A   1      42.681  28.985  27.564  1.00  0.00     0.049 A 
ATOM     35  H   UNL A   1      42.825  26.930  27.991  1.00  0.00     0.167 HD
ATOM     36  C   UNL A   1      43.759  29.102  29.807  1.00  0.00     0.074 A 
ATOM     37  C   UNL A   1      43.290  27.868  30.408  1.00  0.00     0.031 C 
ATOM     38  C   UNL A   1      43.535  29.609  28.556  1.00  0.00     0.034 A 
BRANCH  25  39
ATOM     39  C   UNL A   1      39.992  25.278  27.231  1.00  0.00     0.023 A 
ATOM     40  C   UNL A   1      38.748  24.986  26.634  1.00  0.00     0.012 A 
ATOM     41  C   UNL A   1      40.921  24.240  27.431  1.00  0.00     0.148 A 
ATOM     42  C   UNL A   1      38.405  23.684  26.284  1.00  0.00     0.002 A 
ATOM     43  C   UNL A   1      40.574  22.937  27.068  1.00  0.00     0.091 A 
ATOM     44  F   UNL A   1      42.098  24.531  28.002  1.00  0.00    -0.205 F 
ATOM     45  C   UNL A   1      39.314  22.659  26.508  1.00  0.00     0.022 A 
BRANCH  43  46
ATOM     46  S   UNL A   1      41.657  21.520  27.308  1.00  0.00     0.127 S 
ATOM     47  O   UNL A   1      42.714  22.088  28.152  1.00  0.00    -0.237 OA
ATOM     48  O   UNL A   1      40.769  20.581  28.003  1.00  0.00    -0.237 OA
ATOM     49  O   UNL A   1      42.070  21.100  25.986  1.00  0.00    -0.744 OA
ENDBRANCH  43  46
ENDBRANCH  25  39
BRANCH  26  50
ATOM     50  C   UNL A   1      43.823  29.047  34.613  1.00  0.00     0.023 A 
ATOM     51  C   UNL A   1      43.494  27.666  34.586  1.00  0.00     0.012 A 
ATOM     52  C   UNL A   1      44.241  29.584  35.842  1.00  0.00     0.148 A 
ATOM     53  C   UNL A   1      43.716  26.829  35.680  1.00  0.00     0.002 A 
ATOM     54  C   UNL A   1      44.504  28.740  36.922  1.00  0.00     0.091 A 
ATOM     55  F   UNL A   1      44.406  30.909  35.948  1.00  0.00    -0.205 F 
ATOM     56  C   UNL A   1      44.257  27.362  36.840  1.00  0.00     0.022 A 
BRANCH  54  57
ATOM     57  S   UNL A   1      45.251  29.324  38.449  1.00  0.00     0.127 S 
ATOM     58  O   UNL A   1      45.169  28.139  39.303  1.00  0.00    -0.237 OA
ATOM     59  O   UNL A   1      46.598  29.666  37.997  1.00  0.00    -0.237 OA
ATOM     60  O   UNL A   1      44.434  30.448  38.882  1.00  0.00    -0.744 OA
ENDBRANCH  54  57
ENDBRANCH  26  50
BRANCH  38  61
ATOM     61  C   UNL A   1      44.095  30.972  28.271  1.00  0.00     0.023 A 
ATOM     62  C   UNL A   1      43.377  32.094  28.724  1.00  0.00     0.012 A 
ATOM     63  C   UNL A   1      45.351  31.162  27.656  1.00  0.00     0.148 A 
ATOM     64  C   UNL A   1      43.901  33.378  28.591  1.00  0.00     0.002 A 
ATOM     65  C   UNL A   1      45.883  32.444  27.553  1.00  0.00     0.091 A 
ATOM     66  F   UNL A   1      46.018  30.091  27.200  1.00  0.00    -0.205 F 
ATOM     67  C   UNL A   1      45.158  33.553  28.021  1.00  0.00     0.022 A 
BRANCH  65  68
ATOM     68  S   UNL A   1      47.518  32.782  26.886  1.00  0.00     0.127 S 
ATOM     69  O   UNL A   1      47.212  33.663  25.760  1.00  0.00    -0.237 OA
ATOM     70  O   UNL A   1      48.174  33.445  28.015  1.00  0.00    -0.237 OA
ATOM     71  O   UNL A   1      48.088  31.492  26.520  1.00  0.00    -0.744 OA
ENDBRANCH  65  68
ENDBRANCH  38  61
ENDBRANCH  12  13
ENDBRANCH   5   7
ENDBRANCH   2   3
ENDBRANCH   1   2
BRANCH   1  72
ATOM     72  C   UNL A   1      33.358  30.036  27.302  1.00  0.00     0.023 C 
BRANCH  72  73
ATOM     73  C   UNL A   1      32.976  28.626  27.684  1.00  0.00     0.116 C 
BRANCH  73  74
ATOM     74  N   UNL A   1      31.714  28.037  27.317  1.00  0.00    -0.351 N 
ATOM     75  C   UNL A   1      31.316  27.758  26.018  1.00  0.00     0.278 C 
ATOM     76  H   UNL A   1      31.087  27.816  28.043  1.00  0.00     0.163 HD
ATOM     77  O   UNL A   1      30.595  26.771  25.838  1.00  0.00    -0.268 OA
BRANCH  75  78
ATOM     78  C   UNL A   1      31.687  28.673  24.798  1.00  0.00     0.275 C 
ATOM     79  C   UNL A   1      30.616  29.641  24.229  1.00  0.00     0.089 C 
ATOM     80  N   UNL A   1      32.143  27.856  23.665  1.00  0.00    -0.320 N 
ATOM     81  C   UNL A   1      30.160  29.051  22.874  1.00  0.00     0.036 C 
ATOM     82  C   UNL A   1      31.465  28.289  22.455  1.00  0.00     0.270 C 
ATOM     83  H   UNL A   1      31.844  26.889  23.786  1.00  0.00     0.349 HD
ATOM     84  C   UNL A   1      29.847  30.042  21.729  1.00  0.00     0.074 C 
ATOM     85  C   UNL A   1      28.877  28.206  23.129  1.00  0.00     0.074 C 
ATOM     86  C   UNL A   1      28.468  30.693  21.779  1.00  0.00     0.261 C 
ATOM     87  C   UNL A   1      27.541  28.944  23.080  1.00  0.00     0.261 C 
ATOM     88  N   UNL A   1      27.403  29.702  21.851  1.00  0.00    -0.346 N 
ATOM     89  H   UNL A   1      27.469  29.070  21.052  1.00  0.00     0.346 HD
ATOM     90  H   UNL A   1      26.497  30.170  21.836  1.00  0.00     0.346 HD
BRANCH  80  91
ATOM     91  C   UNL A   1      33.582  27.580  23.633  1.00  0.00     0.302 C 
BRANCH  91  92
ATOM     92  C   UNL A   1      33.845  26.133  23.973  1.00  0.00     0.038 A 
ATOM     93  C   UNL A   1      34.377  25.769  25.236  1.00  0.00     0.012 A 
ATOM     94  C   UNL A   1      33.790  25.047  23.064  1.00  0.00     0.144 A 
ATOM     95  C   UNL A   1      34.917  24.486  25.536  1.00  0.00     0.003 A 
ATOM     96  C   UNL A   1      34.368  23.740  23.367  1.00  0.00     0.135 A 
ATOM     97  N   UNL A   1      33.278  24.993  21.827  1.00  0.00    -0.049 NA
ATOM     98  C   UNL A   1      34.980  23.444  24.597  1.00  0.00     0.034 A 
ATOM     99  N   UNL A   1      34.224  22.955  22.293  1.00  0.00    -0.050 NA
ATOM    100  O   UNL A   1      33.573  23.728  21.348  1.00  0.00    -0.243 OA
ENDBRANCH  91  92
ENDBRANCH  80  91
ENDBRANCH  75  78
ENDBRANCH  73  74
ENDBRANCH  72  73
ENDBRANCH   1  72
TORSDOF 16
ENDMDL
