MODEL 1
REMARK VINA RESULT:     -11.0      0.000      0.000
REMARK SMILES CSc1ccc(Cl)c(C(=O)N[C@@H](CO)C(=O)NCCCCNC(=O)c2ccc(-c3c4nc(c(-c5cccc(S(=O)(=O)[O-])c5F)c5ccc([nH]5)c(-c5cccc(S(=O)(=O)[O-])c5F)c5nc(c(-c6cccc(S(=O)(=O)[O-])c6F)c6ccc3[nH]6)C=C5)C=C4)cc2)c1
REMARK SMILES IDX 19 1 18 2 17 3 15 4 16 5 12 7 11 8 9 9 10 10 8 12 3 13 4 14
REMARK SMILES IDX 88 15 5 16 6 17 7 18 2 19 1 20 13 21 14 22 20 24 21 25 22 26
REMARK SMILES IDX 23 27 24 29 25 30 26 31 87 32 27 33 86 34 28 35 29 36 30 37
REMARK SMILES IDX 80 38 31 39 85 40 79 41 81 42 32 43 84 44 78 45 77 46 33 48
REMARK SMILES IDX 65 49 45 50 64 51 46 52 49 53 63 54 82 55 47 56 48 57 62 59
REMARK SMILES IDX 83 60 50 61 34 62 35 63 43 64 36 65 38 66 44 67 37 68 39 69
REMARK SMILES IDX 40 70 41 71 42 72 66 73 67 74 75 75 68 76 70 77 76 78 69 79
REMARK SMILES IDX 71 80 72 81 73 82 74 83 51 84 52 85 60 86 53 87 55 88 61 89
REMARK SMILES IDX 54 90 56 91 57 92 58 93 59 94
REMARK H PARENT 17 6 11 11 14 23 22 28 81 47 49 58
REMARK Flexibility Score: inf
ROOT
ATOM      1  C   UNL A   1      31.984  27.817  26.993  1.00  0.00     0.023 C 
ENDROOT
BRANCH   1   2
ATOM      2  C   UNL A   1      31.612  26.683  26.043  1.00  0.00     0.116 C 
BRANCH   2   3
ATOM      3  N   UNL A   1      30.686  27.112  25.014  1.00  0.00    -0.354 N 
ATOM      4  C   UNL A   1      30.874  27.438  23.710  1.00  0.00     0.244 C 
ATOM      5  O   UNL A   1      29.855  27.582  23.025  1.00  0.00    -0.273 OA
ATOM      6  H   UNL A   1      29.751  27.179  25.316  1.00  0.00     0.163 HD
BRANCH   4   7
ATOM      7  C   UNL A   1      32.256  27.519  23.029  1.00  0.00     0.197 C 
BRANCH   7   8
ATOM      8  N   UNL A   1      32.416  26.783  21.770  1.00  0.00    -0.338 N 
ATOM      9  C   UNL A   1      32.840  25.523  21.440  1.00  0.00     0.253 C 
ATOM     10  O   UNL A   1      32.963  25.307  20.230  1.00  0.00    -0.269 OA
ATOM     11  H   UNL A   1      32.160  27.315  20.983  1.00  0.00     0.164 HD
BRANCH   9  12
ATOM     12  C   UNL A   1      33.062  24.374  22.373  1.00  0.00     0.059 A 
ATOM     13  C   UNL A   1      34.839  23.108  23.547  1.00  0.00     0.008 A 
ATOM     14  C   UNL A   1      33.874  22.262  24.078  1.00  0.00     0.016 A 
ATOM     15  C   UNL A   1      34.428  24.117  22.659  1.00  0.00     0.030 A 
ATOM     16  C   UNL A   1      32.526  22.517  23.848  1.00  0.00     0.022 A 
ATOM     17  C   UNL A   1      32.119  23.613  23.068  1.00  0.00     0.053 A 
ATOM     18  Cl  UNL A   1      30.459  24.021  23.267  1.00  0.00    -0.083 Cl
BRANCH  13  19
ATOM     19  S   UNL A   1      36.570  22.986  23.973  1.00  0.00    -0.130 SA
ATOM     20  C   UNL A   1      36.500  22.589  25.748  1.00  0.00     0.091 C 
ENDBRANCH  13  19
ENDBRANCH   9  12
ENDBRANCH   7   8
BRANCH   7  21
ATOM     21  C   UNL A   1      32.682  28.995  22.864  1.00  0.00     0.191 C 
BRANCH  21  22
ATOM     22  O   UNL A   1      31.864  29.724  21.945  1.00  0.00    -0.394 OA
ATOM     23  H   UNL A   1      31.064  29.211  21.747  1.00  0.00     0.210 HD
ENDBRANCH  21  22
ENDBRANCH   7  21
ENDBRANCH   4   7
ENDBRANCH   2   3
ENDBRANCH   1   2
BRANCH   1  24
ATOM     24  C   UNL A   1      33.474  28.155  27.062  1.00  0.00     0.023 C 
BRANCH  24  25
ATOM     25  C   UNL A   1      33.913  29.365  26.243  1.00  0.00     0.116 C 
BRANCH  25  26
ATOM     26  N   UNL A   1      33.781  30.621  26.966  1.00  0.00    -0.352 N 
ATOM     27  C   UNL A   1      34.589  31.141  27.949  1.00  0.00     0.251 C 
ATOM     28  H   UNL A   1      33.006  31.175  26.718  1.00  0.00     0.163 HD
ATOM     29  O   UNL A   1      34.264  32.166  28.542  1.00  0.00    -0.269 OA
BRANCH  27  30
ATOM     30  C   UNL A   1      35.838  30.438  28.305  1.00  0.00     0.039 A 
ATOM     31  C   UNL A   1      36.960  30.594  27.487  1.00  0.00     0.014 A 
ATOM     32  C   UNL A   1      35.912  29.667  29.468  1.00  0.00     0.014 A 
ATOM     33  C   UNL A   1      38.178  30.034  27.876  1.00  0.00     0.010 A 
ATOM     34  C   UNL A   1      37.142  29.178  29.892  1.00  0.00     0.010 A 
ATOM     35  C   UNL A   1      38.288  29.354  29.100  1.00  0.00    -0.014 A 
BRANCH  35  36
ATOM     36  C   UNL A   1      39.593  28.831  29.579  1.00  0.00     0.031 A 
ATOM     37  C   UNL A   1      40.321  29.527  30.696  1.00  0.00     0.074 A 
ATOM     38  C   UNL A   1      40.166  27.789  28.945  1.00  0.00     0.049 A 
ATOM     39  N   UNL A   1      41.492  29.256  31.212  1.00  0.00    -0.248 NA
ATOM     40  C   UNL A   1      39.662  30.700  31.293  1.00  0.00     0.031 C 
ATOM     41  C   UNL A   1      39.603  27.088  27.788  1.00  0.00     0.029 A 
ATOM     42  N   UNL A   1      41.363  27.155  29.164  1.00  0.00    -0.354 N 
ATOM     43  C   UNL A   1      41.726  30.244  32.160  1.00  0.00     0.074 A 
ATOM     44  C   UNL A   1      40.593  31.141  32.126  1.00  0.00     0.031 C 
ATOM     45  C   UNL A   1      40.450  26.119  27.404  1.00  0.00     0.029 A 
ATOM     46  C   UNL A   1      41.627  26.144  28.268  1.00  0.00     0.049 A 
ATOM     47  H   UNL A   1      41.977  27.401  29.894  1.00  0.00     0.167 HD
ATOM     48  C   UNL A   1      42.774  30.374  33.008  1.00  0.00     0.034 A 
ATOM     49  C   UNL A   1      42.694  25.330  28.158  1.00  0.00     0.034 A 
ATOM     50  C   UNL A   1      43.870  29.447  33.079  1.00  0.00     0.049 A 
ATOM     51  C   UNL A   1      43.815  25.454  29.154  1.00  0.00     0.074 A 
ATOM     52  C   UNL A   1      44.929  29.432  33.970  1.00  0.00     0.029 A 
ATOM     53  N   UNL A   1      44.051  28.371  32.224  1.00  0.00    -0.354 N 
ATOM     54  N   UNL A   1      43.936  26.291  30.157  1.00  0.00    -0.248 NA
ATOM     55  C   UNL A   1      44.926  24.501  29.029  1.00  0.00     0.031 C 
ATOM     56  C   UNL A   1      45.758  28.354  33.644  1.00  0.00     0.029 A 
ATOM     57  C   UNL A   1      45.206  27.687  32.562  1.00  0.00     0.049 A 
ATOM     58  H   UNL A   1      43.448  28.128  31.486  1.00  0.00     0.167 HD
ATOM     59  C   UNL A   1      45.116  25.942  30.804  1.00  0.00     0.074 A 
ATOM     60  C   UNL A   1      45.662  24.804  30.091  1.00  0.00     0.031 C 
ATOM     61  C   UNL A   1      45.705  26.520  31.879  1.00  0.00     0.034 A 
BRANCH  48  62
ATOM     62  C   UNL A   1      42.748  31.526  33.978  1.00  0.00     0.023 A 
ATOM     63  C   UNL A   1      43.323  32.758  33.605  1.00  0.00     0.012 A 
ATOM     64  C   UNL A   1      42.114  31.412  35.231  1.00  0.00     0.148 A 
ATOM     65  C   UNL A   1      43.302  33.847  34.475  1.00  0.00     0.002 A 
ATOM     66  C   UNL A   1      42.058  32.514  36.076  1.00  0.00     0.091 A 
ATOM     67  F   UNL A   1      41.592  30.226  35.579  1.00  0.00    -0.205 F 
ATOM     68  C   UNL A   1      42.661  33.728  35.704  1.00  0.00     0.022 A 
BRANCH  66  69
ATOM     69  S   UNL A   1      41.188  32.486  37.647  1.00  0.00     0.127 S 
ATOM     70  O   UNL A   1      42.039  31.598  38.439  1.00  0.00    -0.237 OA
ATOM     71  O   UNL A   1      41.233  33.892  38.051  1.00  0.00    -0.237 OA
ATOM     72  O   UNL A   1      39.854  31.981  37.357  1.00  0.00    -0.744 OA
ENDBRANCH  66  69
ENDBRANCH  48  62
BRANCH  49  73
ATOM     73  C   UNL A   1      42.715  24.269  27.111  1.00  0.00     0.023 A 
ATOM     74  C   UNL A   1      43.421  24.499  25.913  1.00  0.00     0.012 A 
ATOM     75  C   UNL A   1      42.073  23.030  27.301  1.00  0.00     0.148 A 
ATOM     76  C   UNL A   1      43.461  23.527  24.912  1.00  0.00     0.002 A 
ATOM     77  C   UNL A   1      42.162  22.046  26.323  1.00  0.00     0.091 A 
ATOM     78  F   UNL A   1      41.396  22.835  28.442  1.00  0.00    -0.205 F 
ATOM     79  C   UNL A   1      42.841  22.299  25.120  1.00  0.00     0.022 A 
BRANCH  77  80
ATOM     80  S   UNL A   1      41.506  20.391  26.562  1.00  0.00     0.127 S 
ATOM     81  O   UNL A   1      40.066  20.635  26.549  1.00  0.00    -0.237 OA
ATOM     82  O   UNL A   1      42.022  19.687  25.387  1.00  0.00    -0.237 OA
ATOM     83  O   UNL A   1      42.062  19.930  27.826  1.00  0.00    -0.744 OA
ENDBRANCH  77  80
ENDBRANCH  49  73
BRANCH  61  84
ATOM     84  C   UNL A   1      46.992  25.921  32.379  1.00  0.00     0.023 A 
ATOM     85  C   UNL A   1      48.223  26.401  31.890  1.00  0.00     0.012 A 
ATOM     86  C   UNL A   1      46.985  24.939  33.389  1.00  0.00     0.148 A 
ATOM     87  C   UNL A   1      49.426  25.892  32.376  1.00  0.00     0.002 A 
ATOM     88  C   UNL A   1      48.188  24.470  33.903  1.00  0.00     0.091 A 
ATOM     89  F   UNL A   1      45.804  24.479  33.826  1.00  0.00    -0.205 F 
ATOM     90  C   UNL A   1      49.409  24.937  33.390  1.00  0.00     0.022 A 
BRANCH  88  91
ATOM     91  S   UNL A   1      48.260  23.312  35.274  1.00  0.00     0.127 S 
ATOM     92  O   UNL A   1      49.701  23.122  35.429  1.00  0.00    -0.237 OA
ATOM     93  O   UNL A   1      47.624  24.065  36.353  1.00  0.00    -0.237 OA
ATOM     94  O   UNL A   1      47.516  22.136  34.841  1.00  0.00    -0.744 OA
ENDBRANCH  88  91
ENDBRANCH  61  84
ENDBRANCH  35  36
ENDBRANCH  27  30
ENDBRANCH  25  26
ENDBRANCH  24  25
ENDBRANCH   1  24
TORSDOF 19
ENDMDL
MODEL 2
REMARK VINA RESULT:     -10.8      2.622      3.693
REMARK SMILES CSc1ccc(Cl)c(C(=O)N[C@@H](CO)C(=O)NCCCCNC(=O)c2ccc(-c3c4nc(c(-c5cccc(S(=O)(=O)[O-])c5F)c5ccc([nH]5)c(-c5cccc(S(=O)(=O)[O-])c5F)c5nc(c(-c6cccc(S(=O)(=O)[O-])c6F)c6ccc3[nH]6)C=C5)C=C4)cc2)c1
REMARK SMILES IDX 19 1 18 2 17 3 15 4 16 5 12 7 11 8 9 9 10 10 8 12 3 13 4 14
REMARK SMILES IDX 88 15 5 16 6 17 7 18 2 19 1 20 13 21 14 22 20 24 21 25 22 26
REMARK SMILES IDX 23 27 24 29 25 30 26 31 87 32 27 33 86 34 28 35 29 36 30 37
REMARK SMILES IDX 80 38 31 39 85 40 79 41 81 42 32 43 84 44 78 45 77 46 33 48
REMARK SMILES IDX 65 49 45 50 64 51 46 52 49 53 63 54 82 55 47 56 48 57 62 59
REMARK SMILES IDX 83 60 50 61 34 62 35 63 43 64 36 65 38 66 44 67 37 68 39 69
REMARK SMILES IDX 40 70 41 71 42 72 66 73 67 74 75 75 68 76 70 77 76 78 69 79
REMARK SMILES IDX 71 80 72 81 73 82 74 83 51 84 52 85 60 86 53 87 55 88 61 89
REMARK SMILES IDX 54 90 56 91 57 92 58 93 59 94
REMARK H PARENT 17 6 11 11 14 23 22 28 81 47 49 58
REMARK Flexibility Score: inf
ROOT
ATOM      1  C   UNL A   1      32.118  27.835  27.192  1.00  0.00     0.023 C 
ENDROOT
BRANCH   1   2
ATOM      2  C   UNL A   1      31.449  26.582  26.636  1.00  0.00     0.116 C 
BRANCH   2   3
ATOM      3  N   UNL A   1      31.978  25.369  27.228  1.00  0.00    -0.354 N 
ATOM      4  C   UNL A   1      31.754  24.059  26.950  1.00  0.00     0.244 C 
ATOM      5  O   UNL A   1      32.502  23.244  27.503  1.00  0.00    -0.273 OA
ATOM      6  H   UNL A   1      32.612  25.523  27.964  1.00  0.00     0.163 HD
BRANCH   4   7
ATOM      7  C   UNL A   1      30.722  23.556  25.920  1.00  0.00     0.197 C 
BRANCH   7   8
ATOM      8  N   UNL A   1      31.246  23.108  24.625  1.00  0.00    -0.338 N 
ATOM      9  C   UNL A   1      31.705  23.742  23.501  1.00  0.00     0.253 C 
ATOM     10  O   UNL A   1      31.946  23.005  22.540  1.00  0.00    -0.269 OA
ATOM     11  H   UNL A   1      31.275  22.127  24.546  1.00  0.00     0.164 HD
BRANCH   9  12
ATOM     12  C   UNL A   1      32.039  25.194  23.360  1.00  0.00     0.059 A 
ATOM     13  C   UNL A   1      31.026  27.410  22.912  1.00  0.00     0.008 A 
ATOM     14  C   UNL A   1      32.284  27.993  22.988  1.00  0.00     0.016 A 
ATOM     15  C   UNL A   1      30.925  26.015  23.043  1.00  0.00     0.030 A 
ATOM     16  C   UNL A   1      33.386  27.217  23.339  1.00  0.00     0.022 A 
ATOM     17  C   UNL A   1      33.252  25.844  23.603  1.00  0.00     0.053 A 
ATOM     18  Cl  UNL A   1      34.595  25.168  24.440  1.00  0.00    -0.083 Cl
BRANCH  13  19
ATOM     19  S   UNL A   1      29.532  28.366  22.688  1.00  0.00    -0.130 SA
ATOM     20  C   UNL A   1      30.173  29.914  21.975  1.00  0.00     0.091 C 
ENDBRANCH  13  19
ENDBRANCH   9  12
ENDBRANCH   7   8
BRANCH   7  21
ATOM     21  C   UNL A   1      29.819  22.475  26.556  1.00  0.00     0.191 C 
BRANCH  21  22
ATOM     22  O   UNL A   1      29.483  22.745  27.919  1.00  0.00    -0.394 OA
ATOM     23  H   UNL A   1      30.273  23.054  28.392  1.00  0.00     0.210 HD
ENDBRANCH  21  22
ENDBRANCH   7  21
ENDBRANCH   4   7
ENDBRANCH   2   3
ENDBRANCH   1   2
BRANCH   1  24
ATOM     24  C   UNL A   1      31.662  29.155  26.572  1.00  0.00     0.023 C 
BRANCH  24  25
ATOM     25  C   UNL A   1      32.777  30.076  26.091  1.00  0.00     0.116 C 
BRANCH  25  26
ATOM     26  N   UNL A   1      32.608  31.454  26.528  1.00  0.00    -0.352 N 
ATOM     27  C   UNL A   1      33.390  32.191  27.386  1.00  0.00     0.251 C 
ATOM     28  H   UNL A   1      31.825  31.924  26.158  1.00  0.00     0.163 HD
ATOM     29  O   UNL A   1      33.033  33.310  27.744  1.00  0.00    -0.269 OA
BRANCH  27  30
ATOM     30  C   UNL A   1      34.647  31.610  27.897  1.00  0.00     0.039 A 
ATOM     31  C   UNL A   1      35.778  32.424  27.998  1.00  0.00     0.014 A 
ATOM     32  C   UNL A   1      34.694  30.278  28.318  1.00  0.00     0.014 A 
ATOM     33  C   UNL A   1      36.937  31.921  28.591  1.00  0.00     0.010 A 
ATOM     34  C   UNL A   1      35.823  29.805  28.978  1.00  0.00     0.010 A 
ATOM     35  C   UNL A   1      36.957  30.619  29.120  1.00  0.00    -0.014 A 
BRANCH  35  36
ATOM     36  C   UNL A   1      38.146  30.095  29.838  1.00  0.00     0.031 A 
ATOM     37  C   UNL A   1      38.456  30.568  31.232  1.00  0.00     0.074 A 
ATOM     38  C   UNL A   1      38.997  29.267  29.200  1.00  0.00     0.049 A 
ATOM     39  N   UNL A   1      39.475  30.270  31.996  1.00  0.00    -0.248 NA
ATOM     40  C   UNL A   1      37.515  31.525  31.836  1.00  0.00     0.031 C 
ATOM     41  C   UNL A   1      38.856  28.809  27.816  1.00  0.00     0.029 A 
ATOM     42  N   UNL A   1      40.167  28.686  29.622  1.00  0.00    -0.354 N 
ATOM     43  C   UNL A   1      39.320  31.031  33.148  1.00  0.00     0.074 A 
ATOM     44  C   UNL A   1      38.128  31.830  32.971  1.00  0.00     0.031 C 
ATOM     45  C   UNL A   1      39.894  28.016  27.506  1.00  0.00     0.029 A 
ATOM     46  C   UNL A   1      40.788  27.926  28.657  1.00  0.00     0.049 A 
ATOM     47  H   UNL A   1      40.529  28.802  30.530  1.00  0.00     0.167 HD
ATOM     48  C   UNL A   1      40.080  31.038  34.269  1.00  0.00     0.034 A 
ATOM     49  C   UNL A   1      41.944  27.236  28.696  1.00  0.00     0.034 A 
ATOM     50  C   UNL A   1      41.231  30.199  34.464  1.00  0.00     0.049 A 
ATOM     51  C   UNL A   1      42.736  27.210  29.975  1.00  0.00     0.074 A 
ATOM     52  C   UNL A   1      42.010  30.057  35.598  1.00  0.00     0.029 A 
ATOM     53  N   UNL A   1      41.771  29.361  33.500  1.00  0.00    -0.354 N 
ATOM     54  N   UNL A   1      42.478  27.802  31.117  1.00  0.00    -0.248 NA
ATOM     55  C   UNL A   1      43.955  26.390  29.986  1.00  0.00     0.031 C 
ATOM     56  C   UNL A   1      43.030  29.142  35.316  1.00  0.00     0.029 A 
ATOM     57  C   UNL A   1      42.875  28.702  34.012  1.00  0.00     0.049 A 
ATOM     58  H   UNL A   1      41.420  29.251  32.587  1.00  0.00     0.167 HD
ATOM     59  C   UNL A   1      43.481  27.400  31.990  1.00  0.00     0.074 A 
ATOM     60  C   UNL A   1      44.339  26.495  31.252  1.00  0.00     0.031 C 
ATOM     61  C   UNL A   1      43.684  27.759  33.282  1.00  0.00     0.034 A 
BRANCH  48  62
ATOM     62  C   UNL A   1      39.649  31.935  35.399  1.00  0.00     0.023 A 
ATOM     63  C   UNL A   1      40.058  33.284  35.407  1.00  0.00     0.012 A 
ATOM     64  C   UNL A   1      38.801  31.464  36.421  1.00  0.00     0.148 A 
ATOM     65  C   UNL A   1      39.664  34.142  36.432  1.00  0.00     0.002 A 
ATOM     66  C   UNL A   1      38.376  32.337  37.416  1.00  0.00     0.091 A 
ATOM     67  F   UNL A   1      38.440  30.173  36.410  1.00  0.00    -0.205 F 
ATOM     68  C   UNL A   1      38.815  33.671  37.430  1.00  0.00     0.022 A 
BRANCH  66  69
ATOM     69  S   UNL A   1      37.220  31.848  38.702  1.00  0.00     0.127 S 
ATOM     70  O   UNL A   1      37.981  32.150  39.913  1.00  0.00    -0.237 OA
ATOM     71  O   UNL A   1      36.087  32.741  38.455  1.00  0.00    -0.237 OA
ATOM     72  O   UNL A   1      36.940  30.437  38.473  1.00  0.00    -0.744 OA
ENDBRANCH  66  69
ENDBRANCH  48  62
BRANCH  49  73
ATOM     73  C   UNL A   1      42.378  26.445  27.509  1.00  0.00     0.023 A 
ATOM     74  C   UNL A   1      43.148  27.073  26.510  1.00  0.00     0.012 A 
ATOM     75  C   UNL A   1      42.065  25.079  27.378  1.00  0.00     0.148 A 
ATOM     76  C   UNL A   1      43.573  26.362  25.387  1.00  0.00     0.002 A 
ATOM     77  C   UNL A   1      42.536  24.363  26.282  1.00  0.00     0.091 A 
ATOM     78  F   UNL A   1      41.321  24.503  28.333  1.00  0.00    -0.205 F 
ATOM     79  C   UNL A   1      43.275  25.006  25.277  1.00  0.00     0.022 A 
BRANCH  77  80
ATOM     80  S   UNL A   1      42.314  22.588  26.127  1.00  0.00     0.127 S 
ATOM     81  O   UNL A   1      42.939  22.099  27.352  1.00  0.00    -0.237 OA
ATOM     82  O   UNL A   1      40.856  22.465  26.087  1.00  0.00    -0.237 OA
ATOM     83  O   UNL A   1      42.978  22.218  24.884  1.00  0.00    -0.744 OA
ENDBRANCH  77  80
ENDBRANCH  49  73
BRANCH  61  84
ATOM     84  C   UNL A   1      44.861  27.154  33.999  1.00  0.00     0.023 A 
ATOM     85  C   UNL A   1      46.114  27.799  33.955  1.00  0.00     0.012 A 
ATOM     86  C   UNL A   1      44.709  25.991  34.780  1.00  0.00     0.148 A 
ATOM     87  C   UNL A   1      47.202  27.280  34.652  1.00  0.00     0.002 A 
ATOM     88  C   UNL A   1      45.787  25.506  35.510  1.00  0.00     0.091 A 
ATOM     89  F   UNL A   1      43.516  25.381  34.792  1.00  0.00    -0.205 F 
ATOM     90  C   UNL A   1      47.037  26.142  35.439  1.00  0.00     0.022 A 
BRANCH  88  91
ATOM     91  S   UNL A   1      45.639  24.104  36.624  1.00  0.00     0.127 S 
ATOM     92  O   UNL A   1      44.701  24.613  37.622  1.00  0.00    -0.237 OA
ATOM     93  O   UNL A   1      45.096  23.066  35.749  1.00  0.00    -0.237 OA
ATOM     94  O   UNL A   1      46.987  23.837  37.109  1.00  0.00    -0.744 OA
ENDBRANCH  88  91
ENDBRANCH  61  84
ENDBRANCH  35  36
ENDBRANCH  27  30
ENDBRANCH  25  26
ENDBRANCH  24  25
ENDBRANCH   1  24
TORSDOF 19
ENDMDL
MODEL 3
REMARK VINA RESULT:     -10.7      2.226      3.145
REMARK SMILES CSc1ccc(Cl)c(C(=O)N[C@@H](CO)C(=O)NCCCCNC(=O)c2ccc(-c3c4nc(c(-c5cccc(S(=O)(=O)[O-])c5F)c5ccc([nH]5)c(-c5cccc(S(=O)(=O)[O-])c5F)c5nc(c(-c6cccc(S(=O)(=O)[O-])c6F)c6ccc3[nH]6)C=C5)C=C4)cc2)c1
REMARK SMILES IDX 19 1 18 2 17 3 15 4 16 5 12 7 11 8 9 9 10 10 8 12 3 13 4 14
REMARK SMILES IDX 88 15 5 16 6 17 7 18 2 19 1 20 13 21 14 22 20 24 21 25 22 26
REMARK SMILES IDX 23 27 24 29 25 30 26 31 87 32 27 33 86 34 28 35 29 36 30 37
REMARK SMILES IDX 80 38 31 39 85 40 79 41 81 42 32 43 84 44 78 45 77 46 33 48
REMARK SMILES IDX 65 49 45 50 64 51 46 52 49 53 63 54 82 55 47 56 48 57 62 59
REMARK SMILES IDX 83 60 50 61 34 62 35 63 43 64 36 65 38 66 44 67 37 68 39 69
REMARK SMILES IDX 40 70 41 71 42 72 66 73 67 74 75 75 68 76 70 77 76 78 69 79
REMARK SMILES IDX 71 80 72 81 73 82 74 83 51 84 52 85 60 86 53 87 55 88 61 89
REMARK SMILES IDX 54 90 56 91 57 92 58 93 59 94
REMARK H PARENT 17 6 11 11 14 23 22 28 81 47 49 58
REMARK Flexibility Score: inf
ROOT
ATOM      1  C   UNL A   1      33.824  28.167  24.142  1.00  0.00     0.023 C 
ENDROOT
BRANCH   1   2
ATOM      2  C   UNL A   1      33.300  27.297  23.004  1.00  0.00     0.116 C 
BRANCH   2   3
ATOM      3  N   UNL A   1      32.101  27.845  22.402  1.00  0.00    -0.354 N 
ATOM      4  C   UNL A   1      30.785  27.614  22.642  1.00  0.00     0.244 C 
ATOM      5  O   UNL A   1      29.982  28.379  22.096  1.00  0.00    -0.273 OA
ATOM      6  H   UNL A   1      32.272  28.503  21.690  1.00  0.00     0.163 HD
BRANCH   4   7
ATOM      7  C   UNL A   1      30.259  26.549  23.626  1.00  0.00     0.197 C 
BRANCH   7   8
ATOM      8  N   UNL A   1      30.765  26.614  25.002  1.00  0.00    -0.338 N 
ATOM      9  C   UNL A   1      31.269  25.697  25.886  1.00  0.00     0.253 C 
ATOM     10  O   UNL A   1      31.472  26.121  27.028  1.00  0.00    -0.269 OA
ATOM     11  H   UNL A   1      30.736  27.524  25.375  1.00  0.00     0.164 HD
BRANCH   9  12
ATOM     12  C   UNL A   1      31.689  24.293  25.584  1.00  0.00     0.059 A 
ATOM     13  C   UNL A   1      33.585  22.949  24.724  1.00  0.00     0.008 A 
ATOM     14  C   UNL A   1      32.821  21.798  24.861  1.00  0.00     0.016 A 
ATOM     15  C   UNL A   1      32.993  24.186  25.034  1.00  0.00     0.030 A 
ATOM     16  C   UNL A   1      31.556  21.870  25.437  1.00  0.00     0.022 A 
ATOM     17  C   UNL A   1      31.026  23.097  25.871  1.00  0.00     0.053 A 
ATOM     18  Cl  UNL A   1      29.688  22.930  26.939  1.00  0.00    -0.083 Cl
BRANCH  13  19
ATOM     19  S   UNL A   1      35.295  22.917  24.203  1.00  0.00    -0.130 SA
ATOM     20  C   UNL A   1      36.072  24.076  25.373  1.00  0.00     0.091 C 
ENDBRANCH  13  19
ENDBRANCH   9  12
ENDBRANCH   7   8
BRANCH   7  21
ATOM     21  C   UNL A   1      28.714  26.522  23.606  1.00  0.00     0.191 C 
BRANCH  21  22
ATOM     22  O   UNL A   1      28.139  25.961  24.789  1.00  0.00    -0.394 OA
ATOM     23  H   UNL A   1      28.168  26.615  25.505  1.00  0.00     0.210 HD
ENDBRANCH  21  22
ENDBRANCH   7  21
ENDBRANCH   4   7
ENDBRANCH   2   3
ENDBRANCH   1   2
BRANCH   1  24
ATOM     24  C   UNL A   1      32.976  29.395  24.475  1.00  0.00     0.023 C 
BRANCH  24  25
ATOM     25  C   UNL A   1      32.600  29.555  25.944  1.00  0.00     0.116 C 
BRANCH  25  26
ATOM     26  N   UNL A   1      32.369  30.941  26.325  1.00  0.00    -0.352 N 
ATOM     27  C   UNL A   1      33.110  31.741  27.162  1.00  0.00     0.251 C 
ATOM     28  H   UNL A   1      31.572  31.364  25.930  1.00  0.00     0.163 HD
ATOM     29  O   UNL A   1      32.704  32.858  27.472  1.00  0.00    -0.269 OA
BRANCH  27  30
ATOM     30  C   UNL A   1      34.384  31.233  27.707  1.00  0.00     0.039 A 
ATOM     31  C   UNL A   1      35.429  32.131  27.938  1.00  0.00     0.014 A 
ATOM     32  C   UNL A   1      34.529  29.882  28.032  1.00  0.00     0.014 A 
ATOM     33  C   UNL A   1      36.594  31.686  28.565  1.00  0.00     0.010 A 
ATOM     34  C   UNL A   1      35.657  29.458  28.725  1.00  0.00     0.010 A 
ATOM     35  C   UNL A   1      36.702  30.354  28.997  1.00  0.00    -0.014 A 
BRANCH  35  36
ATOM     36  C   UNL A   1      37.892  29.879  29.749  1.00  0.00     0.031 A 
ATOM     37  C   UNL A   1      38.156  30.383  31.142  1.00  0.00     0.074 A 
ATOM     38  C   UNL A   1      38.784  29.071  29.141  1.00  0.00     0.049 A 
ATOM     39  N   UNL A   1      39.167  30.130  31.931  1.00  0.00    -0.248 NA
ATOM     40  C   UNL A   1      37.170  31.316  31.711  1.00  0.00     0.031 C 
ATOM     41  C   UNL A   1      38.689  28.590  27.761  1.00  0.00     0.029 A 
ATOM     42  N   UNL A   1      39.963  28.536  29.597  1.00  0.00    -0.354 N 
ATOM     43  C   UNL A   1      38.961  30.901  33.069  1.00  0.00     0.074 A 
ATOM     44  C   UNL A   1      37.748  31.657  32.854  1.00  0.00     0.031 C 
ATOM     45  C   UNL A   1      39.759  27.827  27.485  1.00  0.00     0.029 A 
ATOM     46  C   UNL A   1      40.629  27.784  28.657  1.00  0.00     0.049 A 
ATOM     47  H   UNL A   1      40.301  28.677  30.511  1.00  0.00     0.167 HD
ATOM     48  C   UNL A   1      39.696  30.949  34.205  1.00  0.00     0.034 A 
ATOM     49  C   UNL A   1      41.806  27.133  28.731  1.00  0.00     0.034 A 
ATOM     50  C   UNL A   1      40.869  30.152  34.438  1.00  0.00     0.049 A 
ATOM     51  C   UNL A   1      42.571  27.151  30.027  1.00  0.00     0.074 A 
ATOM     52  C   UNL A   1      41.628  30.052  35.590  1.00  0.00     0.029 A 
ATOM     53  N   UNL A   1      41.458  29.319  33.498  1.00  0.00    -0.354 N 
ATOM     54  N   UNL A   1      42.268  27.751  31.154  1.00  0.00    -0.248 NA
ATOM     55  C   UNL A   1      43.816  26.374  30.077  1.00  0.00     0.031 C 
ATOM     56  C   UNL A   1      42.683  29.168  35.344  1.00  0.00     0.029 A 
ATOM     57  C   UNL A   1      42.571  28.704  34.043  1.00  0.00     0.049 A 
ATOM     58  H   UNL A   1      41.131  29.184  32.580  1.00  0.00     0.167 HD
ATOM     59  C   UNL A   1      43.264  27.395  32.055  1.00  0.00     0.074 A 
ATOM     60  C   UNL A   1      44.168  26.509  31.349  1.00  0.00     0.031 C 
ATOM     61  C   UNL A   1      43.428  27.779  33.345  1.00  0.00     0.034 A 
BRANCH  48  62
ATOM     62  C   UNL A   1      39.211  31.847  35.312  1.00  0.00     0.023 A 
ATOM     63  C   UNL A   1      38.239  31.370  36.216  1.00  0.00     0.012 A 
ATOM     64  C   UNL A   1      39.746  33.138  35.492  1.00  0.00     0.148 A 
ATOM     65  C   UNL A   1      37.781  32.173  37.259  1.00  0.00     0.002 A 
ATOM     66  C   UNL A   1      39.315  33.917  36.561  1.00  0.00     0.091 A 
ATOM     67  F   UNL A   1      40.651  33.585  34.610  1.00  0.00    -0.205 F 
ATOM     68  C   UNL A   1      38.326  33.441  37.437  1.00  0.00     0.022 A 
BRANCH  66  69
ATOM     69  S   UNL A   1      40.012  35.534  36.921  1.00  0.00     0.127 S 
ATOM     70  O   UNL A   1      39.560  36.313  35.770  1.00  0.00    -0.237 OA
ATOM     71  O   UNL A   1      39.358  35.877  38.185  1.00  0.00    -0.237 OA
ATOM     72  O   UNL A   1      41.451  35.336  37.019  1.00  0.00    -0.744 OA
ENDBRANCH  66  69
ENDBRANCH  48  62
BRANCH  49  73
ATOM     73  C   UNL A   1      42.293  26.341  27.566  1.00  0.00     0.023 A 
ATOM     74  C   UNL A   1      43.097  26.969  26.595  1.00  0.00     0.012 A 
ATOM     75  C   UNL A   1      41.995  24.972  27.428  1.00  0.00     0.148 A 
ATOM     76  C   UNL A   1      43.571  26.256  25.492  1.00  0.00     0.002 A 
ATOM     77  C   UNL A   1      42.513  24.255  26.355  1.00  0.00     0.091 A 
ATOM     78  F   UNL A   1      41.217  24.394  28.356  1.00  0.00    -0.205 F 
ATOM     79  C   UNL A   1      43.287  24.899  25.377  1.00  0.00     0.022 A 
BRANCH  77  80
ATOM     80  S   UNL A   1      42.310  22.477  26.199  1.00  0.00     0.127 S 
ATOM     81  O   UNL A   1      43.032  22.201  24.960  1.00  0.00    -0.237 OA
ATOM     82  O   UNL A   1      42.961  21.987  27.415  1.00  0.00    -0.237 OA
ATOM     83  O   UNL A   1      40.871  22.251  26.159  1.00  0.00    -0.744 OA
ENDBRANCH  77  80
ENDBRANCH  49  73
BRANCH  61  84
ATOM     84  C   UNL A   1      44.608  27.223  34.096  1.00  0.00     0.023 A 
ATOM     85  C   UNL A   1      45.824  27.936  34.113  1.00  0.00     0.012 A 
ATOM     86  C   UNL A   1      44.490  26.039  34.849  1.00  0.00     0.148 A 
ATOM     87  C   UNL A   1      46.912  27.462  34.842  1.00  0.00     0.002 A 
ATOM     88  C   UNL A   1      45.565  25.598  35.612  1.00  0.00     0.091 A 
ATOM     89  F   UNL A   1      43.332  25.365  34.804  1.00  0.00    -0.205 F 
ATOM     90  C   UNL A   1      46.780  26.302  35.601  1.00  0.00     0.022 A 
BRANCH  88  91
ATOM     91  S   UNL A   1      45.451  24.168  36.694  1.00  0.00     0.127 S 
ATOM     92  O   UNL A   1      46.797  24.114  37.261  1.00  0.00    -0.237 OA
ATOM     93  O   UNL A   1      44.407  24.570  37.636  1.00  0.00    -0.237 OA
ATOM     94  O   UNL A   1      45.088  23.048  35.835  1.00  0.00    -0.744 OA
ENDBRANCH  88  91
ENDBRANCH  61  84
ENDBRANCH  35  36
ENDBRANCH  27  30
ENDBRANCH  25  26
ENDBRANCH  24  25
ENDBRANCH   1  24
TORSDOF 19
ENDMDL
