MODEL 1
REMARK VINA RESULT:     -12.5      0.000      0.000
REMARK SMILES CSc1ccc(CNc2ccc(N3CCOCC3)c(C(=O)NCCCCNC(=O)c3ccc(-c4c5nc(c(-c6cccc(S(=O)(=O)[O-])c6F)c6ccc([nH]6)c(-c6cccc(S(=O)(=O)[O-])c6F)c6nc(c(-c7cccc(S(=O)(=O)[O-])c7F)c7ccc4[nH]7)C=C6)C=C5)cc3)c2)cc1
REMARK SMILES IDX 24 1 23 2 22 3 20 4 21 5 19 7 9 8 10 9 93 10 11 11 12 12
REMARK SMILES IDX 8 13 7 15 6 16 3 17 4 18 95 19 5 20 94 21 2 22 1 23 13 24
REMARK SMILES IDX 14 25 18 26 15 27 17 28 16 29 25 30 26 31 27 32 28 33 29 35
REMARK SMILES IDX 30 36 31 37 92 38 32 39 91 40 33 41 34 42 35 43 85 44 36 45
REMARK SMILES IDX 90 46 84 47 86 48 37 49 89 50 83 51 82 52 38 54 70 55 50 56
REMARK SMILES IDX 69 57 51 58 54 59 68 60 87 61 52 62 53 63 67 65 88 66 55 67
REMARK SMILES IDX 39 68 40 69 48 70 41 71 43 72 49 73 42 74 44 75 45 76 46 77
REMARK SMILES IDX 47 78 71 79 72 80 80 81 73 82 75 83 81 84 74 85 76 86 77 87
REMARK SMILES IDX 78 88 79 89 56 90 57 91 65 92 58 93 60 94 66 95 59 96 61 97
REMARK SMILES IDX 62 98 63 99 64 100
REMARK H PARENT 22 6 8 14 27 34 86 53 54 64
REMARK Flexibility Score: inf
ROOT
ATOM      1  C   UNL A   1      34.220  22.989  26.784  1.00  0.00     0.023 C 
ENDROOT
BRANCH   1   2
ATOM      2  C   UNL A   1      32.843  22.569  27.277  1.00  0.00     0.116 C 
BRANCH   2   3
ATOM      3  N   UNL A   1      31.810  23.599  27.282  1.00  0.00    -0.352 N 
ATOM      4  C   UNL A   1      31.321  24.414  26.265  1.00  0.00     0.253 C 
ATOM      5  O   UNL A   1      30.314  25.074  26.509  1.00  0.00    -0.269 OA
ATOM      6  H   UNL A   1      31.386  23.745  28.159  1.00  0.00     0.163 HD
BRANCH   4   7
ATOM      7  C   UNL A   1      32.016  24.507  24.939  1.00  0.00     0.065 A 
ATOM      8  C   UNL A   1      32.678  23.232  22.946  1.00  0.00     0.035 A 
ATOM      9  C   UNL A   1      33.540  24.271  22.614  1.00  0.00     0.028 A 
ATOM     10  C   UNL A   1      31.871  23.417  24.064  1.00  0.00     0.041 A 
ATOM     11  C   UNL A   1      33.543  25.458  23.350  1.00  0.00     0.029 A 
ATOM     12  C   UNL A   1      32.757  25.626  24.506  1.00  0.00     0.050 A 
BRANCH   8  13
ATOM     13  N   UNL A   1      32.645  22.100  22.168  1.00  0.00    -0.381 N 
ATOM     14  H   UNL A   1      33.354  22.004  21.492  1.00  0.00     0.160 HD
BRANCH  13  15
ATOM     15  C   UNL A   1      31.665  21.030  22.248  1.00  0.00     0.148 C 
BRANCH  15  16
ATOM     16  C   UNL A   1      32.300  19.843  22.926  1.00  0.00    -0.029 A 
ATOM     17  C   UNL A   1      33.474  17.644  24.243  1.00  0.00     0.007 A 
ATOM     18  C   UNL A   1      33.367  18.878  24.887  1.00  0.00     0.015 A 
ATOM     19  C   UNL A   1      33.002  17.525  22.930  1.00  0.00     0.015 A 
ATOM     20  C   UNL A   1      32.803  19.970  24.230  1.00  0.00     0.007 A 
ATOM     21  C   UNL A   1      32.424  18.614  22.272  1.00  0.00     0.007 A 
BRANCH  17  22
ATOM     22  S   UNL A   1      34.131  16.184  25.036  1.00  0.00    -0.130 SA
ATOM     23  C   UNL A   1      32.618  15.339  25.569  1.00  0.00     0.091 C 
ENDBRANCH  17  22
ENDBRANCH  15  16
ENDBRANCH  13  15
ENDBRANCH   8  13
BRANCH  12  24
ATOM     24  N   UNL A   1      32.675  26.889  25.056  1.00  0.00    -0.366 N 
ATOM     25  C   UNL A   1      31.579  27.826  24.795  1.00  0.00     0.145 C 
ATOM     26  C   UNL A   1      33.574  27.255  26.158  1.00  0.00     0.145 C 
ATOM     27  C   UNL A   1      32.114  29.273  24.751  1.00  0.00     0.181 C 
ATOM     28  C   UNL A   1      34.033  28.708  25.987  1.00  0.00     0.181 C 
ATOM     29  O   UNL A   1      32.905  29.594  25.915  1.00  0.00    -0.378 OA
ENDBRANCH  12  24
ENDBRANCH   4   7
ENDBRANCH   2   3
ENDBRANCH   1   2
BRANCH   1  30
ATOM     30  C   UNL A   1      35.206  21.885  26.429  1.00  0.00     0.023 C 
BRANCH  30  31
ATOM     31  C   UNL A   1      36.393  22.277  25.557  1.00  0.00     0.116 C 
BRANCH  31  32
ATOM     32  N   UNL A   1      37.491  21.322  25.569  1.00  0.00    -0.352 N 
ATOM     33  C   UNL A   1      38.793  21.467  26.006  1.00  0.00     0.251 C 
ATOM     34  H   UNL A   1      37.271  20.432  25.208  1.00  0.00     0.163 HD
ATOM     35  O   UNL A   1      39.579  20.542  25.881  1.00  0.00    -0.269 OA
BRANCH  33  36
ATOM     36  C   UNL A   1      39.248  22.759  26.579  1.00  0.00     0.039 A 
ATOM     37  C   UNL A   1      40.316  22.749  27.482  1.00  0.00     0.014 A 
ATOM     38  C   UNL A   1      38.653  23.969  26.219  1.00  0.00     0.014 A 
ATOM     39  C   UNL A   1      40.849  23.958  27.943  1.00  0.00     0.010 A 
ATOM     40  C   UNL A   1      39.235  25.172  26.613  1.00  0.00     0.010 A 
ATOM     41  C   UNL A   1      40.345  25.182  27.472  1.00  0.00    -0.014 A 
BRANCH  41  42
ATOM     42  C   UNL A   1      40.989  26.473  27.831  1.00  0.00     0.031 A 
ATOM     43  C   UNL A   1      42.428  26.737  27.476  1.00  0.00     0.074 A 
ATOM     44  C   UNL A   1      40.305  27.374  28.568  1.00  0.00     0.049 A 
ATOM     45  N   UNL A   1      43.165  27.783  27.751  1.00  0.00    -0.248 NA
ATOM     46  C   UNL A   1      43.141  25.679  26.743  1.00  0.00     0.031 C 
ATOM     47  C   UNL A   1      38.937  27.200  29.062  1.00  0.00     0.029 A 
ATOM     48  N   UNL A   1      40.676  28.604  29.054  1.00  0.00    -0.354 N 
ATOM     49  C   UNL A   1      44.433  27.495  27.261  1.00  0.00     0.074 A 
ATOM     50  C   UNL A   1      44.375  26.161  26.701  1.00  0.00     0.031 C 
ATOM     51  C   UNL A   1      38.584  28.282  29.773  1.00  0.00     0.029 A 
ATOM     52  C   UNL A   1      39.703  29.218  29.808  1.00  0.00     0.049 A 
ATOM     53  H   UNL A   1      41.557  29.008  28.880  1.00  0.00     0.167 HD
ATOM     54  C   UNL A   1      45.538  28.278  27.246  1.00  0.00     0.034 A 
ATOM     55  C   UNL A   1      39.708  30.400  30.455  1.00  0.00     0.034 A 
ATOM     56  C   UNL A   1      45.581  29.623  27.754  1.00  0.00     0.049 A 
ATOM     57  C   UNL A   1      40.926  31.278  30.365  1.00  0.00     0.074 A 
ATOM     58  C   UNL A   1      46.623  30.533  27.691  1.00  0.00     0.029 A 
ATOM     59  N   UNL A   1      44.541  30.253  28.417  1.00  0.00    -0.354 N 
ATOM     60  N   UNL A   1      42.057  31.059  29.739  1.00  0.00    -0.248 NA
ATOM     61  C   UNL A   1      40.856  32.585  31.036  1.00  0.00     0.031 C 
ATOM     62  C   UNL A   1      46.215  31.709  28.330  1.00  0.00     0.029 A 
ATOM     63  C   UNL A   1      44.914  31.536  28.776  1.00  0.00     0.049 A 
ATOM     64  H   UNL A   1      43.664  29.846  28.607  1.00  0.00     0.167 HD
ATOM     65  C   UNL A   1      42.819  32.208  29.914  1.00  0.00     0.074 A 
ATOM     66  C   UNL A   1      42.011  33.133  30.682  1.00  0.00     0.031 C 
ATOM     67  C   UNL A   1      44.081  32.468  29.492  1.00  0.00     0.034 A 
BRANCH  54  68
ATOM     68  C   UNL A   1      46.779  27.724  26.595  1.00  0.00     0.023 A 
ATOM     69  C   UNL A   1      47.681  26.964  27.366  1.00  0.00     0.012 A 
ATOM     70  C   UNL A   1      47.024  27.901  25.219  1.00  0.00     0.148 A 
ATOM     71  C   UNL A   1      48.825  26.416  26.788  1.00  0.00     0.002 A 
ATOM     72  C   UNL A   1      48.145  27.316  24.641  1.00  0.00     0.091 A 
ATOM     73  F   UNL A   1      46.167  28.646  24.506  1.00  0.00    -0.205 F 
ATOM     74  C   UNL A   1      49.052  26.583  25.425  1.00  0.00     0.022 A 
BRANCH  72  75
ATOM     75  S   UNL A   1      48.486  27.409  22.879  1.00  0.00     0.127 S 
ATOM     76  O   UNL A   1      49.818  28.015  22.868  1.00  0.00    -0.237 OA
ATOM     77  O   UNL A   1      48.456  26.001  22.484  1.00  0.00    -0.237 OA
ATOM     78  O   UNL A   1      47.423  28.222  22.308  1.00  0.00    -0.744 OA
ENDBRANCH  72  75
ENDBRANCH  54  68
BRANCH  55  79
ATOM     79  C   UNL A   1      38.486  30.861  31.174  1.00  0.00     0.023 A 
ATOM     80  C   UNL A   1      38.392  30.665  32.566  1.00  0.00     0.012 A 
ATOM     81  C   UNL A   1      37.435  31.514  30.501  1.00  0.00     0.148 A 
ATOM     82  C   UNL A   1      37.263  31.082  33.271  1.00  0.00     0.002 A 
ATOM     83  C   UNL A   1      36.336  31.976  31.218  1.00  0.00     0.091 A 
ATOM     84  F   UNL A   1      37.535  31.678  29.175  1.00  0.00    -0.205 F 
ATOM     85  C   UNL A   1      36.241  31.747  32.599  1.00  0.00     0.022 A 
BRANCH  83  86
ATOM     86  S   UNL A   1      35.039  32.959  30.456  1.00  0.00     0.127 S 
ATOM     87  O   UNL A   1      34.148  33.206  31.587  1.00  0.00    -0.237 OA
ATOM     88  O   UNL A   1      35.779  34.130  29.987  1.00  0.00    -0.237 OA
ATOM     89  O   UNL A   1      34.499  32.128  29.389  1.00  0.00    -0.744 OA
ENDBRANCH  83  86
ENDBRANCH  55  79
BRANCH  67  90
ATOM     90  C   UNL A   1      44.666  33.815  29.827  1.00  0.00     0.023 A 
ATOM     91  C   UNL A   1      45.394  33.981  31.021  1.00  0.00     0.012 A 
ATOM     92  C   UNL A   1      44.554  34.895  28.929  1.00  0.00     0.148 A 
ATOM     93  C   UNL A   1      45.976  35.208  31.333  1.00  0.00     0.002 A 
ATOM     94  C   UNL A   1      45.176  36.104  29.225  1.00  0.00     0.091 A 
ATOM     95  F   UNL A   1      43.839  34.726  27.808  1.00  0.00    -0.205 F 
ATOM     96  C   UNL A   1      45.877  36.264  30.431  1.00  0.00     0.022 A 
BRANCH  94  97
ATOM     97  S   UNL A   1      45.177  37.485  28.076  1.00  0.00     0.127 S 
ATOM     98  O   UNL A   1      43.747  37.715  27.885  1.00  0.00    -0.237 OA
ATOM     99  O   UNL A   1      45.866  38.527  28.840  1.00  0.00    -0.237 OA
ATOM    100  O   UNL A   1      45.904  37.024  26.901  1.00  0.00    -0.744 OA
ENDBRANCH  94  97
ENDBRANCH  67  90
ENDBRANCH  41  42
ENDBRANCH  33  36
ENDBRANCH  31  32
ENDBRANCH  30  31
ENDBRANCH   1  30
TORSDOF 19
ENDMDL
MODEL 2
REMARK VINA RESULT:     -12.5      1.288      7.391
REMARK SMILES CSc1ccc(CNc2ccc(N3CCOCC3)c(C(=O)NCCCCNC(=O)c3ccc(-c4c5nc(c(-c6cccc(S(=O)(=O)[O-])c6F)c6ccc([nH]6)c(-c6cccc(S(=O)(=O)[O-])c6F)c6nc(c(-c7cccc(S(=O)(=O)[O-])c7F)c7ccc4[nH]7)C=C6)C=C5)cc3)c2)cc1
REMARK SMILES IDX 24 1 23 2 22 3 20 4 21 5 19 7 9 8 10 9 93 10 11 11 12 12
REMARK SMILES IDX 8 13 7 15 6 16 3 17 4 18 95 19 5 20 94 21 2 22 1 23 13 24
REMARK SMILES IDX 14 25 18 26 15 27 17 28 16 29 25 30 26 31 27 32 28 33 29 35
REMARK SMILES IDX 30 36 31 37 92 38 32 39 91 40 33 41 34 42 35 43 85 44 36 45
REMARK SMILES IDX 90 46 84 47 86 48 37 49 89 50 83 51 82 52 38 54 70 55 50 56
REMARK SMILES IDX 69 57 51 58 54 59 68 60 87 61 52 62 53 63 67 65 88 66 55 67
REMARK SMILES IDX 39 68 40 69 48 70 41 71 43 72 49 73 42 74 44 75 45 76 46 77
REMARK SMILES IDX 47 78 71 79 72 80 80 81 73 82 75 83 81 84 74 85 76 86 77 87
REMARK SMILES IDX 78 88 79 89 56 90 57 91 65 92 58 93 60 94 66 95 59 96 61 97
REMARK SMILES IDX 62 98 63 99 64 100
REMARK H PARENT 22 6 8 14 27 34 86 53 54 64
REMARK Flexibility Score: inf
ROOT
ATOM      1  C   UNL A   1      33.939  22.844  27.112  1.00  0.00     0.023 C 
ENDROOT
BRANCH   1   2
ATOM      2  C   UNL A   1      32.460  22.543  27.306  1.00  0.00     0.116 C 
BRANCH   2   3
ATOM      3  N   UNL A   1      31.550  23.681  27.250  1.00  0.00    -0.352 N 
ATOM      4  C   UNL A   1      31.232  24.553  26.212  1.00  0.00     0.253 C 
ATOM      5  O   UNL A   1      30.288  25.318  26.391  1.00  0.00    -0.269 OA
ATOM      6  H   UNL A   1      31.079  23.866  28.095  1.00  0.00     0.163 HD
BRANCH   4   7
ATOM      7  C   UNL A   1      32.032  24.578  24.943  1.00  0.00     0.065 A 
ATOM      8  C   UNL A   1      32.826  23.209  23.064  1.00  0.00     0.035 A 
ATOM      9  C   UNL A   1      33.732  24.218  22.761  1.00  0.00     0.028 A 
ATOM     10  C   UNL A   1      31.936  23.455  24.105  1.00  0.00     0.041 A 
ATOM     11  C   UNL A   1      33.700  25.435  23.446  1.00  0.00     0.029 A 
ATOM     12  C   UNL A   1      32.828  25.666  24.527  1.00  0.00     0.050 A 
BRANCH   8  13
ATOM     13  N   UNL A   1      32.831  22.046  22.332  1.00  0.00    -0.381 N 
ATOM     14  H   UNL A   1      33.629  21.872  21.781  1.00  0.00     0.160 HD
BRANCH  13  15
ATOM     15  C   UNL A   1      31.777  21.049  22.295  1.00  0.00     0.148 C 
BRANCH  15  16
ATOM     16  C   UNL A   1      32.238  19.829  23.052  1.00  0.00    -0.029 A 
ATOM     17  C   UNL A   1      33.077  17.569  24.513  1.00  0.00     0.007 A 
ATOM     18  C   UNL A   1      32.846  18.783  25.162  1.00  0.00     0.015 A 
ATOM     19  C   UNL A   1      32.900  17.500  23.124  1.00  0.00     0.015 A 
ATOM     20  C   UNL A   1      32.448  19.905  24.437  1.00  0.00     0.007 A 
ATOM     21  C   UNL A   1      32.489  18.620  22.397  1.00  0.00     0.007 A 
BRANCH  17  22
ATOM     22  S   UNL A   1      33.533  16.072  25.376  1.00  0.00    -0.130 SA
ATOM     23  C   UNL A   1      35.342  16.115  25.261  1.00  0.00     0.091 C 
ENDBRANCH  17  22
ENDBRANCH  15  16
ENDBRANCH  13  15
ENDBRANCH   8  13
BRANCH  12  24
ATOM     24  N   UNL A   1      32.729  26.952  25.017  1.00  0.00    -0.366 N 
ATOM     25  C   UNL A   1      31.719  27.918  24.578  1.00  0.00     0.145 C 
ATOM     26  C   UNL A   1      33.488  27.326  26.217  1.00  0.00     0.145 C 
ATOM     27  C   UNL A   1      32.316  29.341  24.557  1.00  0.00     0.181 C 
ATOM     28  C   UNL A   1      34.028  28.753  26.059  1.00  0.00     0.181 C 
ATOM     29  O   UNL A   1      32.958  29.678  25.805  1.00  0.00    -0.378 OA
ENDBRANCH  12  24
ENDBRANCH   4   7
ENDBRANCH   2   3
ENDBRANCH   1   2
BRANCH   1  30
ATOM     30  C   UNL A   1      34.807  21.749  26.509  1.00  0.00     0.023 C 
BRANCH  30  31
ATOM     31  C   UNL A   1      35.961  22.196  25.621  1.00  0.00     0.116 C 
BRANCH  31  32
ATOM     32  N   UNL A   1      37.016  21.206  25.459  1.00  0.00    -0.352 N 
ATOM     33  C   UNL A   1      38.362  21.283  25.759  1.00  0.00     0.251 C 
ATOM     34  H   UNL A   1      36.724  20.348  25.074  1.00  0.00     0.163 HD
ATOM     35  O   UNL A   1      39.093  20.341  25.497  1.00  0.00    -0.269 OA
BRANCH  33  36
ATOM     36  C   UNL A   1      38.926  22.521  26.352  1.00  0.00     0.039 A 
ATOM     37  C   UNL A   1      40.029  22.411  27.206  1.00  0.00     0.014 A 
ATOM     38  C   UNL A   1      38.398  23.779  26.057  1.00  0.00     0.014 A 
ATOM     39  C   UNL A   1      40.660  23.565  27.680  1.00  0.00     0.010 A 
ATOM     40  C   UNL A   1      39.076  24.927  26.463  1.00  0.00     0.010 A 
ATOM     41  C   UNL A   1      40.219  24.835  27.271  1.00  0.00    -0.014 A 
BRANCH  41  42
ATOM     42  C   UNL A   1      40.962  26.069  27.642  1.00  0.00     0.031 A 
ATOM     43  C   UNL A   1      40.275  27.185  28.382  1.00  0.00     0.074 A 
ATOM     44  C   UNL A   1      42.235  26.227  27.223  1.00  0.00     0.049 A 
ATOM     45  N   UNL A   1      40.752  28.349  28.743  1.00  0.00    -0.248 NA
ATOM     46  C   UNL A   1      38.862  26.981  28.737  1.00  0.00     0.031 C 
ATOM     47  C   UNL A   1      42.987  25.264  26.415  1.00  0.00     0.029 A 
ATOM     48  N   UNL A   1      43.114  27.269  27.396  1.00  0.00    -0.354 N 
ATOM     49  C   UNL A   1      39.692  29.028  29.332  1.00  0.00     0.074 A 
ATOM     50  C   UNL A   1      38.537  28.160  29.249  1.00  0.00     0.031 C 
ATOM     51  C   UNL A   1      44.211  25.756  26.167  1.00  0.00     0.029 A 
ATOM     52  C   UNL A   1      44.328  27.077  26.777  1.00  0.00     0.049 A 
ATOM     53  H   UNL A   1      42.896  28.077  27.913  1.00  0.00     0.167 HD
ATOM     54  C   UNL A   1      39.684  30.249  29.918  1.00  0.00     0.034 A 
ATOM     55  C   UNL A   1      45.415  27.872  26.708  1.00  0.00     0.034 A 
ATOM     56  C   UNL A   1      40.844  31.090  30.049  1.00  0.00     0.049 A 
ATOM     57  C   UNL A   1      45.401  29.194  27.426  1.00  0.00     0.074 A 
ATOM     58  C   UNL A   1      40.961  32.297  30.716  1.00  0.00     0.029 A 
ATOM     59  N   UNL A   1      42.087  30.814  29.501  1.00  0.00    -0.354 N 
ATOM     60  N   UNL A   1      44.440  29.739  28.132  1.00  0.00    -0.248 NA
ATOM     61  C   UNL A   1      46.633  29.995  27.371  1.00  0.00     0.031 C 
ATOM     62  C   UNL A   1      42.274  32.757  30.560  1.00  0.00     0.029 A 
ATOM     63  C   UNL A   1      42.976  31.829  29.809  1.00  0.00     0.049 A 
ATOM     64  H   UNL A   1      42.305  30.013  28.970  1.00  0.00     0.167 HD
ATOM     65  C   UNL A   1      44.960  30.928  28.631  1.00  0.00     0.074 A 
ATOM     66  C   UNL A   1      46.331  31.011  28.168  1.00  0.00     0.031 C 
ATOM     67  C   UNL A   1      44.354  31.873  29.390  1.00  0.00     0.034 A 
BRANCH  54  68
ATOM     68  C   UNL A   1      38.391  30.723  30.530  1.00  0.00     0.023 A 
ATOM     69  C   UNL A   1      38.161  30.511  31.904  1.00  0.00     0.012 A 
ATOM     70  C   UNL A   1      37.436  31.426  29.769  1.00  0.00     0.148 A 
ATOM     71  C   UNL A   1      36.987  30.960  32.507  1.00  0.00     0.002 A 
ATOM     72  C   UNL A   1      36.287  31.908  30.386  1.00  0.00     0.091 A 
ATOM     73  F   UNL A   1      37.662  31.600  28.460  1.00  0.00    -0.205 F 
ATOM     74  C   UNL A   1      36.056  31.667  31.751  1.00  0.00     0.022 A 
BRANCH  72  75
ATOM     75  S   UNL A   1      35.063  32.896  29.518  1.00  0.00     0.127 S 
ATOM     76  O   UNL A   1      35.888  33.973  28.971  1.00  0.00    -0.237 OA
ATOM     77  O   UNL A   1      34.556  31.952  28.521  1.00  0.00    -0.237 OA
ATOM     78  O   UNL A   1      34.089  33.299  30.521  1.00  0.00    -0.744 OA
ENDBRANCH  72  75
ENDBRANCH  54  68
BRANCH  55  79
ATOM     79  C   UNL A   1      46.639  27.400  26.001  1.00  0.00     0.023 A 
ATOM     80  C   UNL A   1      46.771  27.640  24.619  1.00  0.00     0.012 A 
ATOM     81  C   UNL A   1      47.681  26.745  26.686  1.00  0.00     0.148 A 
ATOM     82  C   UNL A   1      47.903  27.211  23.926  1.00  0.00     0.002 A 
ATOM     83  C   UNL A   1      48.831  26.368  26.000  1.00  0.00     0.091 A 
ATOM     84  F   UNL A   1      47.532  26.512  27.998  1.00  0.00    -0.205 F 
ATOM     85  C   UNL A   1      48.937  26.585  24.618  1.00  0.00     0.022 A 
BRANCH  83  86
ATOM     86  S   UNL A   1      50.264  25.679  26.836  1.00  0.00     0.127 S 
ATOM     87  O   UNL A   1      51.204  25.511  25.730  1.00  0.00    -0.237 OA
ATOM     88  O   UNL A   1      50.607  26.743  27.780  1.00  0.00    -0.237 OA
ATOM     89  O   UNL A   1      49.794  24.452  27.465  1.00  0.00    -0.744 OA
ENDBRANCH  83  86
ENDBRANCH  55  79
BRANCH  67  90
ATOM     90  C   UNL A   1      45.168  33.075  29.791  1.00  0.00     0.023 A 
ATOM     91  C   UNL A   1      45.954  33.025  30.959  1.00  0.00     0.012 A 
ATOM     92  C   UNL A   1      45.210  34.225  28.978  1.00  0.00     0.148 A 
ATOM     93  C   UNL A   1      46.745  34.112  31.329  1.00  0.00     0.002 A 
ATOM     94  C   UNL A   1      46.036  35.287  29.329  1.00  0.00     0.091 A 
ATOM     95  F   UNL A   1      44.439  34.263  27.882  1.00  0.00    -0.205 F 
ATOM     96  C   UNL A   1      46.796  35.236  30.509  1.00  0.00     0.022 A 
BRANCH  94  97
ATOM     97  S   UNL A   1      46.232  36.734  28.282  1.00  0.00     0.127 S 
ATOM     98  O   UNL A   1      44.887  37.305  28.310  1.00  0.00    -0.237 OA
ATOM     99  O   UNL A   1      47.239  37.511  29.006  1.00  0.00    -0.237 OA
ATOM    100  O   UNL A   1      46.676  36.231  26.989  1.00  0.00    -0.744 OA
ENDBRANCH  94  97
ENDBRANCH  67  90
ENDBRANCH  41  42
ENDBRANCH  33  36
ENDBRANCH  31  32
ENDBRANCH  30  31
ENDBRANCH   1  30
TORSDOF 19
ENDMDL
MODEL 3
REMARK VINA RESULT:     -12.1      5.582     10.318
REMARK SMILES CSc1ccc(CNc2ccc(N3CCOCC3)c(C(=O)NCCCCNC(=O)c3ccc(-c4c5nc(c(-c6cccc(S(=O)(=O)[O-])c6F)c6ccc([nH]6)c(-c6cccc(S(=O)(=O)[O-])c6F)c6nc(c(-c7cccc(S(=O)(=O)[O-])c7F)c7ccc4[nH]7)C=C6)C=C5)cc3)c2)cc1
REMARK SMILES IDX 24 1 23 2 22 3 20 4 21 5 19 7 9 8 10 9 93 10 11 11 12 12
REMARK SMILES IDX 8 13 7 15 6 16 3 17 4 18 95 19 5 20 94 21 2 22 1 23 13 24
REMARK SMILES IDX 14 25 18 26 15 27 17 28 16 29 25 30 26 31 27 32 28 33 29 35
REMARK SMILES IDX 30 36 31 37 92 38 32 39 91 40 33 41 34 42 35 43 85 44 36 45
REMARK SMILES IDX 90 46 84 47 86 48 37 49 89 50 83 51 82 52 38 54 70 55 50 56
REMARK SMILES IDX 69 57 51 58 54 59 68 60 87 61 52 62 53 63 67 65 88 66 55 67
REMARK SMILES IDX 39 68 40 69 48 70 41 71 43 72 49 73 42 74 44 75 45 76 46 77
REMARK SMILES IDX 47 78 71 79 72 80 80 81 73 82 75 83 81 84 74 85 76 86 77 87
REMARK SMILES IDX 78 88 79 89 56 90 57 91 65 92 58 93 60 94 66 95 59 96 61 97
REMARK SMILES IDX 62 98 63 99 64 100
REMARK H PARENT 22 6 8 14 27 34 86 53 54 64
REMARK Flexibility Score: inf
ROOT
ATOM      1  C   UNL A   1      31.439  30.847  25.840  1.00  0.00     0.023 C 
ENDROOT
BRANCH   1   2
ATOM      2  C   UNL A   1      32.260  29.721  25.228  1.00  0.00     0.116 C 
BRANCH   2   3
ATOM      3  N   UNL A   1      32.277  29.646  23.771  1.00  0.00    -0.352 N 
ATOM      4  C   UNL A   1      31.332  29.172  22.865  1.00  0.00     0.253 C 
ATOM      5  O   UNL A   1      31.533  29.396  21.674  1.00  0.00    -0.269 OA
ATOM      6  H   UNL A   1      33.101  29.988  23.356  1.00  0.00     0.163 HD
BRANCH   4   7
ATOM      7  C   UNL A   1      30.136  28.390  23.323  1.00  0.00     0.065 A 
ATOM      8  C   UNL A   1      29.415  26.278  24.353  1.00  0.00     0.035 A 
ATOM      9  C   UNL A   1      28.120  26.561  23.934  1.00  0.00     0.028 A 
ATOM     10  C   UNL A   1      30.381  27.250  24.106  1.00  0.00     0.041 A 
ATOM     11  C   UNL A   1      27.813  27.789  23.343  1.00  0.00     0.029 A 
ATOM     12  C   UNL A   1      28.800  28.751  23.056  1.00  0.00     0.050 A 
BRANCH   8  13
ATOM     13  N   UNL A   1      29.681  25.092  24.992  1.00  0.00    -0.381 N 
ATOM     14  H   UNL A   1      29.236  24.287  24.639  1.00  0.00     0.160 HD
BRANCH  13  15
ATOM     15  C   UNL A   1      30.556  24.909  26.137  1.00  0.00     0.148 C 
BRANCH  15  16
ATOM     16  C   UNL A   1      31.843  24.280  25.667  1.00  0.00    -0.029 A 
ATOM     17  C   UNL A   1      34.224  23.089  24.740  1.00  0.00     0.007 A 
ATOM     18  C   UNL A   1      32.986  22.666  24.252  1.00  0.00     0.015 A 
ATOM     19  C   UNL A   1      34.257  24.102  25.708  1.00  0.00     0.015 A 
ATOM     20  C   UNL A   1      31.808  23.243  24.722  1.00  0.00     0.007 A 
ATOM     21  C   UNL A   1      33.078  24.691  26.173  1.00  0.00     0.007 A 
BRANCH  17  22
ATOM     22  S   UNL A   1      35.780  22.443  24.147  1.00  0.00    -0.130 SA
ATOM     23  C   UNL A   1      35.914  20.891  25.075  1.00  0.00     0.091 C 
ENDBRANCH  17  22
ENDBRANCH  15  16
ENDBRANCH  13  15
ENDBRANCH   8  13
BRANCH  12  24
ATOM     24  N   UNL A   1      28.385  30.004  22.653  1.00  0.00    -0.366 N 
ATOM     25  C   UNL A   1      27.977  30.330  21.284  1.00  0.00     0.145 C 
ATOM     26  C   UNL A   1      28.079  31.022  23.666  1.00  0.00     0.145 C 
ATOM     27  C   UNL A   1      28.417  31.764  20.924  1.00  0.00     0.181 C 
ATOM     28  C   UNL A   1      28.574  32.391  23.185  1.00  0.00     0.181 C 
ATOM     29  O   UNL A   1      27.994  32.726  21.914  1.00  0.00    -0.378 OA
ENDBRANCH  12  24
ENDBRANCH   4   7
ENDBRANCH   2   3
ENDBRANCH   1   2
BRANCH   1  30
ATOM     30  C   UNL A   1      31.868  31.367  27.205  1.00  0.00     0.023 C 
BRANCH  30  31
ATOM     31  C   UNL A   1      33.022  32.363  27.230  1.00  0.00     0.116 C 
BRANCH  31  32
ATOM     32  N   UNL A   1      32.649  33.706  27.647  1.00  0.00    -0.352 N 
ATOM     33  C   UNL A   1      33.214  34.532  28.600  1.00  0.00     0.251 C 
ATOM     34  H   UNL A   1      31.871  34.086  27.177  1.00  0.00     0.163 HD
ATOM     35  O   UNL A   1      32.711  35.619  28.831  1.00  0.00    -0.269 OA
BRANCH  33  36
ATOM     36  C   UNL A   1      34.398  34.079  29.373  1.00  0.00     0.039 A 
ATOM     37  C   UNL A   1      34.191  33.305  30.519  1.00  0.00     0.014 A 
ATOM     38  C   UNL A   1      35.697  34.389  28.968  1.00  0.00     0.014 A 
ATOM     39  C   UNL A   1      35.286  32.759  31.197  1.00  0.00     0.010 A 
ATOM     40  C   UNL A   1      36.782  33.779  29.595  1.00  0.00     0.010 A 
ATOM     41  C   UNL A   1      36.590  32.950  30.711  1.00  0.00    -0.014 A 
BRANCH  41  42
ATOM     42  C   UNL A   1      37.755  32.260  31.327  1.00  0.00     0.031 A 
ATOM     43  C   UNL A   1      38.357  32.769  32.609  1.00  0.00     0.074 A 
ATOM     44  C   UNL A   1      38.336  31.230  30.677  1.00  0.00     0.049 A 
ATOM     45  N   UNL A   1      39.400  32.324  33.262  1.00  0.00    -0.248 NA
ATOM     46  C   UNL A   1      37.724  33.946  33.224  1.00  0.00     0.031 C 
ATOM     47  C   UNL A   1      37.912  30.702  29.378  1.00  0.00     0.029 A 
ATOM     48  N   UNL A   1      39.425  30.461  31.005  1.00  0.00    -0.354 N 
ATOM     49  C   UNL A   1      39.572  33.186  34.339  1.00  0.00     0.074 A 
ATOM     50  C   UNL A   1      38.545  34.200  34.234  1.00  0.00     0.031 C 
ATOM     51  C   UNL A   1      38.725  29.694  29.025  1.00  0.00     0.029 A 
ATOM     52  C   UNL A   1      39.743  29.517  30.056  1.00  0.00     0.049 A 
ATOM     53  H   UNL A   1      39.932  30.574  31.842  1.00  0.00     0.167 HD
ATOM     54  C   UNL A   1      40.477  33.122  35.344  1.00  0.00     0.034 A 
ATOM     55  C   UNL A   1      40.739  28.610  30.018  1.00  0.00     0.034 A 
ATOM     56  C   UNL A   1      41.463  32.083  35.478  1.00  0.00     0.049 A 
ATOM     57  C   UNL A   1      41.691  28.519  31.179  1.00  0.00     0.074 A 
ATOM     58  C   UNL A   1      42.357  31.874  36.514  1.00  0.00     0.029 A 
ATOM     59  N   UNL A   1      41.687  31.079  34.550  1.00  0.00    -0.354 N 
ATOM     60  N   UNL A   1      41.722  29.234  32.279  1.00  0.00    -0.248 NA
ATOM     61  C   UNL A   1      42.720  27.471  31.116  1.00  0.00     0.031 C 
ATOM     62  C   UNL A   1      43.130  30.750  36.204  1.00  0.00     0.029 A 
ATOM     63  C   UNL A   1      42.707  30.251  34.983  1.00  0.00     0.049 A 
ATOM     64  H   UNL A   1      41.192  30.972  33.704  1.00  0.00     0.167 HD
ATOM     65  C   UNL A   1      42.750  28.703  33.050  1.00  0.00     0.074 A 
ATOM     66  C   UNL A   1      43.300  27.589  32.304  1.00  0.00     0.031 C 
ATOM     67  C   UNL A   1      43.209  29.112  34.258  1.00  0.00     0.034 A 
BRANCH  54  68
ATOM     68  C   UNL A   1      40.401  34.172  36.422  1.00  0.00     0.023 A 
ATOM     69  C   UNL A   1      40.855  35.478  36.147  1.00  0.00     0.012 A 
ATOM     70  C   UNL A   1      39.830  33.889  37.679  1.00  0.00     0.148 A 
ATOM     71  C   UNL A   1      40.774  36.478  37.114  1.00  0.00     0.002 A 
ATOM     72  C   UNL A   1      39.714  34.902  38.624  1.00  0.00     0.091 A 
ATOM     73  F   UNL A   1      39.423  32.637  37.931  1.00  0.00    -0.205 F 
ATOM     74  C   UNL A   1      40.195  36.194  38.347  1.00  0.00     0.022 A 
BRANCH  72  75
ATOM     75  S   UNL A   1      38.914  34.657  40.214  1.00  0.00     0.127 S 
ATOM     76  O   UNL A   1      37.769  33.826  39.843  1.00  0.00    -0.237 OA
ATOM     77  O   UNL A   1      39.950  33.958  40.976  1.00  0.00    -0.237 OA
ATOM     78  O   UNL A   1      38.591  35.986  40.709  1.00  0.00    -0.744 OA
ENDBRANCH  72  75
ENDBRANCH  54  68
BRANCH  55  79
ATOM     79  C   UNL A   1      40.835  27.657  28.876  1.00  0.00     0.023 A 
ATOM     80  C   UNL A   1      39.931  26.579  28.802  1.00  0.00     0.012 A 
ATOM     81  C   UNL A   1      41.788  27.824  27.852  1.00  0.00     0.148 A 
ATOM     82  C   UNL A   1      39.992  25.668  27.748  1.00  0.00     0.002 A 
ATOM     83  C   UNL A   1      41.809  26.943  26.776  1.00  0.00     0.091 A 
ATOM     84  F   UNL A   1      42.649  28.846  27.947  1.00  0.00    -0.205 F 
ATOM     85  C   UNL A   1      40.923  25.855  26.730  1.00  0.00     0.022 A 
BRANCH  83  86
ATOM     86  S   UNL A   1      42.884  27.187  25.357  1.00  0.00     0.127 S 
ATOM     87  O   UNL A   1      42.730  25.922  24.644  1.00  0.00    -0.237 OA
ATOM     88  O   UNL A   1      42.269  28.343  24.704  1.00  0.00    -0.237 OA
ATOM     89  O   UNL A   1      44.205  27.450  25.912  1.00  0.00    -0.744 OA
ENDBRANCH  83  86
ENDBRANCH  55  79
BRANCH  67  90
ATOM     90  C   UNL A   1      44.349  28.341  34.869  1.00  0.00     0.023 A 
ATOM     91  C   UNL A   1      45.672  28.788  34.681  1.00  0.00     0.012 A 
ATOM     92  C   UNL A   1      44.108  27.217  35.683  1.00  0.00     0.148 A 
ATOM     93  C   UNL A   1      46.740  28.112  35.269  1.00  0.00     0.002 A 
ATOM     94  C   UNL A   1      45.174  26.574  36.303  1.00  0.00     0.091 A 
ATOM     95  F   UNL A   1      42.845  26.792  35.832  1.00  0.00    -0.205 F 
ATOM     96  C   UNL A   1      46.490  27.014  36.089  1.00  0.00     0.022 A 
BRANCH  94  97
ATOM     97  S   UNL A   1      44.934  25.210  37.448  1.00  0.00     0.127 S 
ATOM     98  O   UNL A   1      44.167  24.269  36.634  1.00  0.00    -0.237 OA
ATOM     99  O   UNL A   1      46.309  24.792  37.730  1.00  0.00    -0.237 OA
ATOM    100  O   UNL A   1      44.231  25.772  38.593  1.00  0.00    -0.744 OA
ENDBRANCH  94  97
ENDBRANCH  67  90
ENDBRANCH  41  42
ENDBRANCH  33  36
ENDBRANCH  31  32
ENDBRANCH  30  31
ENDBRANCH   1  30
TORSDOF 19
ENDMDL
