MODEL 1
REMARK VINA RESULT:     -12.0      0.000      0.000
REMARK SMILES CCc1cc(OC(F)(F)F)cc2c1O[C@@H](C(F)(F)F)C(C(=O)NCCCCNC(=O)c1ccc(-c3c4nc(c(-c5cccc(S(=O)(=O)[O-])c5F)c5ccc([nH]5)c(-c5cccc(S(=O)(=O)[O-])c5F)c5nc(c(-c6cccc(S(=O)(=O)[O-])c6F)c6ccc3[nH]6)C=C5)C=C4)cc1)=C2
REMARK SMILES IDX 26 1 25 2 24 3 23 4 21 5 22 6 20 8 3 9 4 10 13 11 5 12 12 13
REMARK SMILES IDX 14 14 11 15 94 16 15 17 2 18 1 19 6 20 7 21 8 22 9 23 10 24
REMARK SMILES IDX 16 25 17 26 18 27 19 28 27 29 28 30 29 31 30 33 31 34 32 35
REMARK SMILES IDX 93 36 33 37 92 38 34 39 35 40 36 41 86 42 37 43 91 44 85 45
REMARK SMILES IDX 87 46 38 47 90 48 84 49 83 50 39 52 71 53 51 54 70 55 52 56
REMARK SMILES IDX 55 57 69 58 88 59 53 60 54 61 68 63 89 64 56 65 40 66 41 67
REMARK SMILES IDX 49 68 42 69 44 70 50 71 43 72 45 73 46 74 47 75 48 76 72 77
REMARK SMILES IDX 73 78 81 79 74 80 76 81 82 82 75 83 77 84 78 85 79 86 80 87
REMARK SMILES IDX 57 88 58 89 66 90 59 91 61 92 67 93 60 94 62 95 63 96 64 97
REMARK SMILES IDX 65 98
REMARK H PARENT 23 7 28 32 87 51 55 62
REMARK Flexibility Score: inf
ROOT
ATOM      1  C   UNL A   1      38.153  19.782  25.107  1.00  0.00     0.023 C 
ENDROOT
BRANCH   1   2
ATOM      2  C   UNL A   1      37.255  20.927  24.626  1.00  0.00     0.023 C 
BRANCH   2   3
ATOM      3  C   UNL A   1      36.753  21.839  25.752  1.00  0.00     0.116 C 
BRANCH   3   4
ATOM      4  N   UNL A   1      35.555  21.272  26.342  1.00  0.00    -0.352 N 
ATOM      5  C   UNL A   1      34.300  21.763  26.512  1.00  0.00     0.251 C 
ATOM      6  O   UNL A   1      33.534  21.144  27.245  1.00  0.00    -0.270 OA
ATOM      7  H   UNL A   1      35.675  20.358  26.686  1.00  0.00     0.163 HD
BRANCH   5   8
ATOM      8  C   UNL A   1      33.796  22.967  25.798  1.00  0.00     0.067 C 
ATOM      9  C   UNL A   1      32.447  26.159  23.397  1.00  0.00    -0.002 A 
ATOM     10  C   UNL A   1      32.804  27.474  23.773  1.00  0.00     0.054 A 
ATOM     11  C   UNL A   1      32.895  25.094  24.192  1.00  0.00     0.131 A 
ATOM     12  C   UNL A   1      33.554  27.722  24.925  1.00  0.00     0.130 A 
ATOM     13  C   UNL A   1      33.608  25.338  25.366  1.00  0.00     0.021 A 
ATOM     14  O   UNL A   1      32.711  23.823  23.735  1.00  0.00    -0.475 OA
ATOM     15  C   UNL A   1      33.933  26.648  25.728  1.00  0.00     0.058 A 
ATOM     16  C   UNL A   1      34.096  24.221  26.162  1.00  0.00     0.025 C 
ATOM     17  C   UNL A   1      32.769  22.729  24.697  1.00  0.00     0.314 C 
BRANCH   9  18
ATOM     18  C   UNL A   1      31.655  25.990  22.115  1.00  0.00     0.036 C 
ATOM     19  C   UNL A   1      32.438  25.698  20.840  1.00  0.00     0.009 C 
ENDBRANCH   9  18
BRANCH  12  20
ATOM     20  O   UNL A   1      33.992  28.936  25.370  1.00  0.00    -0.406 OA
BRANCH  20  21
ATOM     21  C   UNL A   1      33.369  29.491  26.515  1.00  0.00     0.573 C 
ATOM     22  F   UNL A   1      33.673  28.790  27.629  1.00  0.00    -0.132 F 
ATOM     23  F   UNL A   1      33.729  30.781  26.683  1.00  0.00    -0.132 F 
ATOM     24  F   UNL A   1      32.029  29.447  26.345  1.00  0.00    -0.132 F 
ENDBRANCH  20  21
ENDBRANCH  12  20
BRANCH  17  25
ATOM     25  C   UNL A   1      32.884  21.424  23.872  1.00  0.00     0.429 C 
ATOM     26  F   UNL A   1      32.157  20.408  24.386  1.00  0.00    -0.167 F 
ATOM     27  F   UNL A   1      32.390  21.611  22.616  1.00  0.00    -0.167 F 
ATOM     28  F   UNL A   1      34.163  21.013  23.726  1.00  0.00    -0.167 F 
ENDBRANCH  17  25
ENDBRANCH   5   8
ENDBRANCH   3   4
ENDBRANCH   2   3
ENDBRANCH   1   2
BRANCH   1  29
ATOM     29  C   UNL A   1      39.336  20.221  25.963  1.00  0.00     0.116 C 
BRANCH  29  30
ATOM     30  N   UNL A   1      40.369  19.203  26.063  1.00  0.00    -0.352 N 
ATOM     31  C   UNL A   1      41.722  19.366  26.231  1.00  0.00     0.251 C 
ATOM     32  H   UNL A   1      40.056  18.271  26.002  1.00  0.00     0.163 HD
ATOM     33  O   UNL A   1      42.467  18.401  26.166  1.00  0.00    -0.269 OA
BRANCH  31  34
ATOM     34  C   UNL A   1      42.264  20.723  26.456  1.00  0.00     0.039 A 
ATOM     35  C   UNL A   1      42.490  21.544  25.349  1.00  0.00     0.014 A 
ATOM     36  C   UNL A   1      42.536  21.185  27.746  1.00  0.00     0.014 A 
ATOM     37  C   UNL A   1      42.952  22.845  25.543  1.00  0.00     0.010 A 
ATOM     38  C   UNL A   1      42.921  22.506  27.941  1.00  0.00     0.010 A 
ATOM     39  C   UNL A   1      43.151  23.345  26.841  1.00  0.00    -0.014 A 
BRANCH  39  40
ATOM     40  C   UNL A   1      43.610  24.738  27.056  1.00  0.00     0.031 A 
ATOM     41  C   UNL A   1      42.656  25.782  27.572  1.00  0.00     0.074 A 
ATOM     42  C   UNL A   1      44.873  25.078  26.731  1.00  0.00     0.049 A 
ATOM     43  N   UNL A   1      42.880  27.042  27.838  1.00  0.00    -0.248 NA
ATOM     44  C   UNL A   1      41.261  25.363  27.796  1.00  0.00     0.031 C 
ATOM     45  C   UNL A   1      45.863  24.179  26.134  1.00  0.00     0.029 A 
ATOM     46  N   UNL A   1      45.535  26.273  26.843  1.00  0.00    -0.354 N 
ATOM     47  C   UNL A   1      41.656  27.571  28.228  1.00  0.00     0.074 A 
ATOM     48  C   UNL A   1      40.682  26.508  28.123  1.00  0.00     0.031 C 
ATOM     49  C   UNL A   1      47.010  24.851  25.948  1.00  0.00     0.029 A 
ATOM     50  C   UNL A   1      46.833  26.230  26.391  1.00  0.00     0.049 A 
ATOM     51  H   UNL A   1      45.120  27.086  27.214  1.00  0.00     0.167 HD
ATOM     52  C   UNL A   1      41.372  28.821  28.668  1.00  0.00     0.034 A 
ATOM     53  C   UNL A   1      47.773  27.192  26.344  1.00  0.00     0.034 A 
ATOM     54  C   UNL A   1      42.352  29.863  28.810  1.00  0.00     0.049 A 
ATOM     55  C   UNL A   1      47.449  28.556  26.892  1.00  0.00     0.074 A 
ATOM     56  C   UNL A   1      42.189  31.133  29.333  1.00  0.00     0.029 A 
ATOM     57  N   UNL A   1      43.679  29.759  28.420  1.00  0.00    -0.354 N 
ATOM     58  N   UNL A   1      46.330  28.987  27.422  1.00  0.00    -0.248 NA
ATOM     59  C   UNL A   1      48.528  29.551  26.874  1.00  0.00     0.031 C 
ATOM     60  C   UNL A   1      43.412  31.806  29.236  1.00  0.00     0.029 A 
ATOM     61  C   UNL A   1      44.344  30.945  28.680  1.00  0.00     0.049 A 
ATOM     62  H   UNL A   1      44.087  28.959  28.017  1.00  0.00     0.167 HD
ATOM     63  C   UNL A   1      46.580  30.293  27.830  1.00  0.00     0.074 A 
ATOM     64  C   UNL A   1      47.966  30.569  27.512  1.00  0.00     0.031 C 
ATOM     65  C   UNL A   1      45.735  31.189  28.398  1.00  0.00     0.034 A 
BRANCH  52  66
ATOM     66  C   UNL A   1      39.951  29.110  29.081  1.00  0.00     0.023 A 
ATOM     67  C   UNL A   1      38.972  29.340  28.093  1.00  0.00     0.012 A 
ATOM     68  C   UNL A   1      39.574  29.106  30.438  1.00  0.00     0.148 A 
ATOM     69  C   UNL A   1      37.649  29.599  28.447  1.00  0.00     0.002 A 
ATOM     70  C   UNL A   1      38.243  29.317  30.782  1.00  0.00     0.091 A 
ATOM     71  F   UNL A   1      40.521  28.906  31.366  1.00  0.00    -0.205 F 
ATOM     72  C   UNL A   1      37.284  29.577  29.789  1.00  0.00     0.022 A 
BRANCH  70  73
ATOM     73  S   UNL A   1      37.653  29.231  32.476  1.00  0.00     0.127 S 
ATOM     74  O   UNL A   1      38.559  30.160  33.151  1.00  0.00    -0.237 OA
ATOM     75  O   UNL A   1      36.276  29.710  32.346  1.00  0.00    -0.237 OA
ATOM     76  O   UNL A   1      37.777  27.837  32.875  1.00  0.00    -0.744 OA
ENDBRANCH  70  73
ENDBRANCH  52  66
BRANCH  53  77
ATOM     77  C   UNL A   1      49.136  26.879  25.828  1.00  0.00     0.023 A 
ATOM     78  C   UNL A   1      50.025  26.132  26.625  1.00  0.00     0.012 A 
ATOM     79  C   UNL A   1      49.547  27.294  24.547  1.00  0.00     0.148 A 
ATOM     80  C   UNL A   1      51.311  25.835  26.173  1.00  0.00     0.002 A 
ATOM     81  C   UNL A   1      50.810  26.947  24.079  1.00  0.00     0.091 A 
ATOM     82  F   UNL A   1      48.690  28.012  23.807  1.00  0.00    -0.205 F 
ATOM     83  C   UNL A   1      51.700  26.234  24.897  1.00  0.00     0.022 A 
BRANCH  81  84
ATOM     84  S   UNL A   1      51.345  27.302  22.401  1.00  0.00     0.127 S 
ATOM     85  O   UNL A   1      52.670  26.689  22.375  1.00  0.00    -0.237 OA
ATOM     86  O   UNL A   1      50.329  26.611  21.608  1.00  0.00    -0.237 OA
ATOM     87  O   UNL A   1      51.316  28.754  22.279  1.00  0.00    -0.744 OA
ENDBRANCH  81  84
ENDBRANCH  53  77
BRANCH  65  88
ATOM     88  C   UNL A   1      46.293  32.548  28.737  1.00  0.00     0.023 A 
ATOM     89  C   UNL A   1      46.854  32.778  30.009  1.00  0.00     0.012 A 
ATOM     90  C   UNL A   1      46.303  33.581  27.779  1.00  0.00     0.148 A 
ATOM     91  C   UNL A   1      47.378  34.028  30.337  1.00  0.00     0.002 A 
ATOM     92  C   UNL A   1      46.876  34.807  28.096  1.00  0.00     0.091 A 
ATOM     93  F   UNL A   1      45.748  33.350  26.581  1.00  0.00    -0.205 F 
ATOM     94  C   UNL A   1      47.400  35.038  29.378  1.00  0.00     0.022 A 
BRANCH  92  95
ATOM     95  S   UNL A   1      47.035  36.131  26.891  1.00  0.00     0.127 S 
ATOM     96  O   UNL A   1      47.805  35.479  25.834  1.00  0.00    -0.237 OA
ATOM     97  O   UNL A   1      45.641  36.409  26.547  1.00  0.00    -0.237 OA
ATOM     98  O   UNL A   1      47.713  37.220  27.582  1.00  0.00    -0.744 OA
ENDBRANCH  92  95
ENDBRANCH  65  88
ENDBRANCH  39  40
ENDBRANCH  31  34
ENDBRANCH  29  30
ENDBRANCH   1  29
TORSDOF 18
ENDMDL
MODEL 2
REMARK VINA RESULT:     -11.9      5.454      9.049
REMARK SMILES CCc1cc(OC(F)(F)F)cc2c1O[C@@H](C(F)(F)F)C(C(=O)NCCCCNC(=O)c1ccc(-c3c4nc(c(-c5cccc(S(=O)(=O)[O-])c5F)c5ccc([nH]5)c(-c5cccc(S(=O)(=O)[O-])c5F)c5nc(c(-c6cccc(S(=O)(=O)[O-])c6F)c6ccc3[nH]6)C=C5)C=C4)cc1)=C2
REMARK SMILES IDX 26 1 25 2 24 3 23 4 21 5 22 6 20 8 3 9 4 10 13 11 5 12 12 13
REMARK SMILES IDX 14 14 11 15 94 16 15 17 2 18 1 19 6 20 7 21 8 22 9 23 10 24
REMARK SMILES IDX 16 25 17 26 18 27 19 28 27 29 28 30 29 31 30 33 31 34 32 35
REMARK SMILES IDX 93 36 33 37 92 38 34 39 35 40 36 41 86 42 37 43 91 44 85 45
REMARK SMILES IDX 87 46 38 47 90 48 84 49 83 50 39 52 71 53 51 54 70 55 52 56
REMARK SMILES IDX 55 57 69 58 88 59 53 60 54 61 68 63 89 64 56 65 40 66 41 67
REMARK SMILES IDX 49 68 42 69 44 70 50 71 43 72 45 73 46 74 47 75 48 76 72 77
REMARK SMILES IDX 73 78 81 79 74 80 76 81 82 82 75 83 77 84 78 85 79 86 80 87
REMARK SMILES IDX 57 88 58 89 66 90 59 91 61 92 67 93 60 94 62 95 63 96 64 97
REMARK SMILES IDX 65 98
REMARK H PARENT 23 7 28 32 87 51 55 62
REMARK Flexibility Score: inf
ROOT
ATOM      1  C   UNL A   1      31.772  28.433  25.554  1.00  0.00     0.023 C 
ENDROOT
BRANCH   1   2
ATOM      2  C   UNL A   1      31.393  27.672  26.828  1.00  0.00     0.023 C 
BRANCH   2   3
ATOM      3  C   UNL A   1      31.435  26.146  26.678  1.00  0.00     0.116 C 
BRANCH   3   4
ATOM      4  N   UNL A   1      30.682  25.750  25.503  1.00  0.00    -0.352 N 
ATOM      5  C   UNL A   1      30.930  24.846  24.521  1.00  0.00     0.251 C 
ATOM      6  O   UNL A   1      30.217  24.870  23.522  1.00  0.00    -0.270 OA
ATOM      7  H   UNL A   1      29.829  26.230  25.396  1.00  0.00     0.163 HD
BRANCH   5   8
ATOM      8  C   UNL A   1      31.970  23.788  24.635  1.00  0.00     0.067 C 
ATOM      9  C   UNL A   1      35.135  21.003  24.637  1.00  0.00    -0.002 A 
ATOM     10  C   UNL A   1      34.817  19.632  24.768  1.00  0.00     0.054 A 
ATOM     11  C   UNL A   1      34.085  21.933  24.634  1.00  0.00     0.131 A 
ATOM     12  C   UNL A   1      33.498  19.204  24.925  1.00  0.00     0.130 A 
ATOM     13  C   UNL A   1      32.769  21.516  24.835  1.00  0.00     0.021 A 
ATOM     14  O   UNL A   1      34.370  23.230  24.326  1.00  0.00    -0.475 OA
ATOM     15  C   UNL A   1      32.481  20.155  24.980  1.00  0.00     0.058 A 
ATOM     16  C   UNL A   1      31.687  22.488  24.794  1.00  0.00     0.025 C 
ATOM     17  C   UNL A   1      33.417  24.259  24.725  1.00  0.00     0.314 C 
BRANCH   9  18
ATOM     18  C   UNL A   1      36.594  21.367  24.442  1.00  0.00     0.036 C 
ATOM     19  C   UNL A   1      37.637  20.384  24.961  1.00  0.00     0.009 C 
ENDBRANCH   9  18
BRANCH  12  20
ATOM     20  O   UNL A   1      33.062  17.913  25.021  1.00  0.00    -0.406 OA
BRANCH  20  21
ATOM     21  C   UNL A   1      33.304  17.045  23.928  1.00  0.00     0.573 C 
ATOM     22  F   UNL A   1      34.599  17.085  23.544  1.00  0.00    -0.132 F 
ATOM     23  F   UNL A   1      32.965  15.775  24.236  1.00  0.00    -0.132 F 
ATOM     24  F   UNL A   1      32.544  17.441  22.882  1.00  0.00    -0.132 F 
ENDBRANCH  20  21
ENDBRANCH  12  20
BRANCH  17  25
ATOM     25  C   UNL A   1      33.808  25.543  23.954  1.00  0.00     0.429 C 
ATOM     26  F   UNL A   1      32.767  26.106  23.304  1.00  0.00    -0.167 F 
ATOM     27  F   UNL A   1      34.245  26.501  24.819  1.00  0.00    -0.167 F 
ATOM     28  F   UNL A   1      34.811  25.334  23.072  1.00  0.00    -0.167 F 
ENDBRANCH  17  25
ENDBRANCH   5   8
ENDBRANCH   3   4
ENDBRANCH   2   3
ENDBRANCH   1   2
BRANCH   1  29
ATOM     29  C   UNL A   1      32.966  29.368  25.705  1.00  0.00     0.116 C 
BRANCH  29  30
ATOM     30  N   UNL A   1      32.582  30.711  26.113  1.00  0.00    -0.352 N 
ATOM     31  C   UNL A   1      33.175  31.527  27.046  1.00  0.00     0.251 C 
ATOM     32  H   UNL A   1      31.792  31.085  25.661  1.00  0.00     0.163 HD
ATOM     33  O   UNL A   1      32.646  32.581  27.360  1.00  0.00    -0.269 OA
BRANCH  31  34
ATOM     34  C   UNL A   1      34.438  31.097  27.684  1.00  0.00     0.039 A 
ATOM     35  C   UNL A   1      35.455  32.039  27.853  1.00  0.00     0.014 A 
ATOM     36  C   UNL A   1      34.612  29.782  28.122  1.00  0.00     0.014 A 
ATOM     37  C   UNL A   1      36.634  31.668  28.499  1.00  0.00     0.010 A 
ATOM     38  C   UNL A   1      35.754  29.436  28.835  1.00  0.00     0.010 A 
ATOM     39  C   UNL A   1      36.785  30.369  29.015  1.00  0.00    -0.014 A 
BRANCH  39  40
ATOM     40  C   UNL A   1      38.022  29.978  29.732  1.00  0.00     0.031 A 
ATOM     41  C   UNL A   1      38.288  30.490  31.123  1.00  0.00     0.074 A 
ATOM     42  C   UNL A   1      38.934  29.206  29.109  1.00  0.00     0.049 A 
ATOM     43  N   UNL A   1      39.301  30.242  31.910  1.00  0.00    -0.248 NA
ATOM     44  C   UNL A   1      37.300  31.421  31.695  1.00  0.00     0.031 C 
ATOM     45  C   UNL A   1      38.833  28.725  27.730  1.00  0.00     0.029 A 
ATOM     46  N   UNL A   1      40.131  28.702  29.550  1.00  0.00    -0.354 N 
ATOM     47  C   UNL A   1      39.091  31.007  33.052  1.00  0.00     0.074 A 
ATOM     48  C   UNL A   1      37.876  31.761  32.838  1.00  0.00     0.031 C 
ATOM     49  C   UNL A   1      39.916  27.984  27.443  1.00  0.00     0.029 A 
ATOM     50  C   UNL A   1      40.794  27.953  28.608  1.00  0.00     0.049 A 
ATOM     51  H   UNL A   1      40.481  28.861  30.457  1.00  0.00     0.167 HD
ATOM     52  C   UNL A   1      39.823  31.052  34.190  1.00  0.00     0.034 A 
ATOM     53  C   UNL A   1      41.975  27.311  28.677  1.00  0.00     0.034 A 
ATOM     54  C   UNL A   1      41.007  30.268  34.415  1.00  0.00     0.049 A 
ATOM     55  C   UNL A   1      42.741  27.330  29.973  1.00  0.00     0.074 A 
ATOM     56  C   UNL A   1      41.770  30.169  35.565  1.00  0.00     0.029 A 
ATOM     57  N   UNL A   1      41.608  29.454  33.466  1.00  0.00    -0.354 N 
ATOM     58  N   UNL A   1      42.434  27.919  31.104  1.00  0.00    -0.248 NA
ATOM     59  C   UNL A   1      43.992  26.563  30.016  1.00  0.00     0.031 C 
ATOM     60  C   UNL A   1      42.846  29.314  35.303  1.00  0.00     0.029 A 
ATOM     61  C   UNL A   1      42.737  28.857  34.000  1.00  0.00     0.049 A 
ATOM     62  H   UNL A   1      41.279  29.321  32.548  1.00  0.00     0.167 HD
ATOM     63  C   UNL A   1      43.437  27.568  32.001  1.00  0.00     0.074 A 
ATOM     64  C   UNL A   1      44.342  26.690  31.288  1.00  0.00     0.031 C 
ATOM     65  C   UNL A   1      43.604  27.951  33.291  1.00  0.00     0.034 A 
BRANCH  52  66
ATOM     66  C   UNL A   1      39.328  31.939  35.304  1.00  0.00     0.023 A 
ATOM     67  C   UNL A   1      38.393  31.436  36.232  1.00  0.00     0.012 A 
ATOM     68  C   UNL A   1      39.820  33.249  35.463  1.00  0.00     0.148 A 
ATOM     69  C   UNL A   1      37.927  32.232  37.277  1.00  0.00     0.002 A 
ATOM     70  C   UNL A   1      39.387  34.021  36.535  1.00  0.00     0.091 A 
ATOM     71  F   UNL A   1      40.692  33.719  34.560  1.00  0.00    -0.205 F 
ATOM     72  C   UNL A   1      38.431  33.519  37.434  1.00  0.00     0.022 A 
BRANCH  70  73
ATOM     73  S   UNL A   1      40.034  35.663  36.874  1.00  0.00     0.127 S 
ATOM     74  O   UNL A   1      39.579  36.406  35.700  1.00  0.00    -0.237 OA
ATOM     75  O   UNL A   1      39.349  36.011  38.119  1.00  0.00    -0.237 OA
ATOM     76  O   UNL A   1      41.477  35.509  36.995  1.00  0.00    -0.744 OA
ENDBRANCH  70  73
ENDBRANCH  52  66
BRANCH  53  77
ATOM     77  C   UNL A   1      42.470  26.529  27.508  1.00  0.00     0.023 A 
ATOM     78  C   UNL A   1      43.316  27.148  26.568  1.00  0.00     0.012 A 
ATOM     79  C   UNL A   1      42.128  25.175  27.335  1.00  0.00     0.148 A 
ATOM     80  C   UNL A   1      43.784  26.445  25.458  1.00  0.00     0.002 A 
ATOM     81  C   UNL A   1      42.642  24.463  26.257  1.00  0.00     0.091 A 
ATOM     82  F   UNL A   1      41.313  24.606  28.235  1.00  0.00    -0.205 F 
ATOM     83  C   UNL A   1      43.455  25.100  25.307  1.00  0.00     0.022 A 
BRANCH  81  84
ATOM     84  S   UNL A   1      42.380  22.697  26.057  1.00  0.00     0.127 S 
ATOM     85  O   UNL A   1      43.033  22.441  24.776  1.00  0.00    -0.237 OA
ATOM     86  O   UNL A   1      43.076  22.155  27.224  1.00  0.00    -0.237 OA
ATOM     87  O   UNL A   1      40.935  22.509  26.081  1.00  0.00    -0.744 OA
ENDBRANCH  81  84
ENDBRANCH  53  77
BRANCH  65  88
ATOM     88  C   UNL A   1      44.800  27.403  34.027  1.00  0.00     0.023 A 
ATOM     89  C   UNL A   1      46.046  28.054  33.921  1.00  0.00     0.012 A 
ATOM     90  C   UNL A   1      44.678  26.274  34.860  1.00  0.00     0.148 A 
ATOM     91  C   UNL A   1      47.162  27.564  34.599  1.00  0.00     0.002 A 
ATOM     92  C   UNL A   1      45.782  25.823  35.574  1.00  0.00     0.091 A 
ATOM     93  F   UNL A   1      43.490  25.657  34.933  1.00  0.00    -0.205 F 
ATOM     94  C   UNL A   1      47.027  26.456  35.433  1.00  0.00     0.022 A 
BRANCH  92  95
ATOM     95  S   UNL A   1      45.676  24.465  36.746  1.00  0.00     0.127 S 
ATOM     96  O   UNL A   1      45.352  23.341  35.870  1.00  0.00    -0.237 OA
ATOM     97  O   UNL A   1      47.027  24.431  37.307  1.00  0.00    -0.237 OA
ATOM     98  O   UNL A   1      44.638  24.841  37.697  1.00  0.00    -0.744 OA
ENDBRANCH  92  95
ENDBRANCH  65  88
ENDBRANCH  39  40
ENDBRANCH  31  34
ENDBRANCH  29  30
ENDBRANCH   1  29
TORSDOF 18
ENDMDL
MODEL 3
REMARK VINA RESULT:     -11.8      1.646      2.112
REMARK SMILES CCc1cc(OC(F)(F)F)cc2c1O[C@@H](C(F)(F)F)C(C(=O)NCCCCNC(=O)c1ccc(-c3c4nc(c(-c5cccc(S(=O)(=O)[O-])c5F)c5ccc([nH]5)c(-c5cccc(S(=O)(=O)[O-])c5F)c5nc(c(-c6cccc(S(=O)(=O)[O-])c6F)c6ccc3[nH]6)C=C5)C=C4)cc1)=C2
REMARK SMILES IDX 26 1 25 2 24 3 23 4 21 5 22 6 20 8 3 9 4 10 13 11 5 12 12 13
REMARK SMILES IDX 14 14 11 15 94 16 15 17 2 18 1 19 6 20 7 21 8 22 9 23 10 24
REMARK SMILES IDX 16 25 17 26 18 27 19 28 27 29 28 30 29 31 30 33 31 34 32 35
REMARK SMILES IDX 93 36 33 37 92 38 34 39 35 40 36 41 86 42 37 43 91 44 85 45
REMARK SMILES IDX 87 46 38 47 90 48 84 49 83 50 39 52 71 53 51 54 70 55 52 56
REMARK SMILES IDX 55 57 69 58 88 59 53 60 54 61 68 63 89 64 56 65 40 66 41 67
REMARK SMILES IDX 49 68 42 69 44 70 50 71 43 72 45 73 46 74 47 75 48 76 72 77
REMARK SMILES IDX 73 78 81 79 74 80 76 81 82 82 75 83 77 84 78 85 79 86 80 87
REMARK SMILES IDX 57 88 58 89 66 90 59 91 61 92 67 93 60 94 62 95 63 96 64 97
REMARK SMILES IDX 65 98
REMARK H PARENT 23 7 28 32 87 51 55 62
REMARK Flexibility Score: inf
ROOT
ATOM      1  C   UNL A   1      37.954  19.255  24.960  1.00  0.00     0.023 C 
ENDROOT
BRANCH   1   2
ATOM      2  C   UNL A   1      36.575  19.917  25.045  1.00  0.00     0.023 C 
BRANCH   2   3
ATOM      3  C   UNL A   1      36.624  21.429  25.298  1.00  0.00     0.116 C 
BRANCH   3   4
ATOM      4  N   UNL A   1      36.608  22.137  24.032  1.00  0.00    -0.352 N 
ATOM      5  C   UNL A   1      35.709  22.985  23.471  1.00  0.00     0.251 C 
ATOM      6  O   UNL A   1      35.848  23.270  22.285  1.00  0.00    -0.270 OA
ATOM      7  H   UNL A   1      37.400  21.969  23.472  1.00  0.00     0.163 HD
BRANCH   5   8
ATOM      8  C   UNL A   1      34.616  23.636  24.243  1.00  0.00     0.067 C 
ATOM      9  C   UNL A   1      31.238  25.287  26.151  1.00  0.00    -0.002 A 
ATOM     10  C   UNL A   1      31.305  26.632  26.579  1.00  0.00     0.054 A 
ATOM     11  C   UNL A   1      32.359  24.734  25.514  1.00  0.00     0.131 A 
ATOM     12  C   UNL A   1      32.463  27.392  26.409  1.00  0.00     0.130 A 
ATOM     13  C   UNL A   1      33.534  25.474  25.380  1.00  0.00     0.021 A 
ATOM     14  O   UNL A   1      32.236  23.504  24.939  1.00  0.00    -0.475 OA
ATOM     15  C   UNL A   1      33.582  26.798  25.828  1.00  0.00     0.058 A 
ATOM     16  C   UNL A   1      34.677  24.900  24.686  1.00  0.00     0.025 C 
ATOM     17  C   UNL A   1      33.451  22.748  24.663  1.00  0.00     0.314 C 
BRANCH   9  18
ATOM     18  C   UNL A   1      29.927  24.552  26.354  1.00  0.00     0.036 C 
ATOM     19  C   UNL A   1      29.984  23.193  27.041  1.00  0.00     0.009 C 
ENDBRANCH   9  18
BRANCH  12  20
ATOM     20  O   UNL A   1      32.637  28.705  26.742  1.00  0.00    -0.406 OA
BRANCH  20  21
ATOM     21  C   UNL A   1      32.246  29.689  25.802  1.00  0.00     0.573 C 
ATOM     22  F   UNL A   1      31.064  29.378  25.225  1.00  0.00    -0.132 F 
ATOM     23  F   UNL A   1      32.157  30.904  26.382  1.00  0.00    -0.132 F 
ATOM     24  F   UNL A   1      33.182  29.756  24.828  1.00  0.00    -0.132 F 
ENDBRANCH  20  21
ENDBRANCH  12  20
BRANCH  17  25
ATOM     25  C   UNL A   1      33.045  21.594  23.715  1.00  0.00     0.429 C 
ATOM     26  F   UNL A   1      31.777  21.172  23.908  1.00  0.00    -0.167 F 
ATOM     27  F   UNL A   1      33.084  22.009  22.417  1.00  0.00    -0.167 F 
ATOM     28  F   UNL A   1      33.875  20.531  23.804  1.00  0.00    -0.167 F 
ENDBRANCH  17  25
ENDBRANCH   5   8
ENDBRANCH   3   4
ENDBRANCH   2   3
ENDBRANCH   1   2
BRANCH   1  29
ATOM     29  C   UNL A   1      39.046  19.962  25.755  1.00  0.00     0.116 C 
BRANCH  29  30
ATOM     30  N   UNL A   1      40.168  19.092  26.070  1.00  0.00    -0.352 N 
ATOM     31  C   UNL A   1      41.451  19.438  26.420  1.00  0.00     0.251 C 
ATOM     32  H   UNL A   1      39.983  18.126  26.027  1.00  0.00     0.163 HD
ATOM     33  O   UNL A   1      42.308  18.575  26.528  1.00  0.00    -0.269 OA
BRANCH  31  34
ATOM     34  C   UNL A   1      41.784  20.862  26.631  1.00  0.00     0.039 A 
ATOM     35  C   UNL A   1      42.087  21.293  27.924  1.00  0.00     0.014 A 
ATOM     36  C   UNL A   1      41.809  21.762  25.562  1.00  0.00     0.014 A 
ATOM     37  C   UNL A   1      42.454  22.622  28.136  1.00  0.00     0.010 A 
ATOM     38  C   UNL A   1      42.251  23.064  25.764  1.00  0.00     0.010 A 
ATOM     39  C   UNL A   1      42.560  23.513  27.055  1.00  0.00    -0.014 A 
BRANCH  39  40
ATOM     40  C   UNL A   1      42.983  24.918  27.270  1.00  0.00     0.031 A 
ATOM     41  C   UNL A   1      42.051  25.900  27.928  1.00  0.00     0.074 A 
ATOM     42  C   UNL A   1      44.186  25.324  26.820  1.00  0.00     0.049 A 
ATOM     43  N   UNL A   1      42.252  27.160  28.214  1.00  0.00    -0.248 NA
ATOM     44  C   UNL A   1      40.709  25.412  28.289  1.00  0.00     0.031 C 
ATOM     45  C   UNL A   1      45.139  24.490  26.084  1.00  0.00     0.029 A 
ATOM     46  N   UNL A   1      44.808  26.544  26.903  1.00  0.00    -0.354 N 
ATOM     47  C   UNL A   1      41.059  27.621  28.757  1.00  0.00     0.074 A 
ATOM     48  C   UNL A   1      40.123  26.519  28.721  1.00  0.00     0.031 C 
ATOM     49  C   UNL A   1      46.230  25.219  25.797  1.00  0.00     0.029 A 
ATOM     50  C   UNL A   1      46.047  26.573  26.309  1.00  0.00     0.049 A 
ATOM     51  H   UNL A   1      44.404  27.325  27.348  1.00  0.00     0.167 HD
ATOM     52  C   UNL A   1      40.776  28.841  29.272  1.00  0.00     0.034 A 
ATOM     53  C   UNL A   1      46.936  27.577  26.193  1.00  0.00     0.034 A 
ATOM     54  C   UNL A   1      41.722  29.921  29.345  1.00  0.00     0.049 A 
ATOM     55  C   UNL A   1      46.620  28.907  26.825  1.00  0.00     0.074 A 
ATOM     56  C   UNL A   1      41.567  31.165  29.929  1.00  0.00     0.029 A 
ATOM     57  N   UNL A   1      42.999  29.889  28.806  1.00  0.00    -0.354 N 
ATOM     58  N   UNL A   1      45.551  29.270  27.491  1.00  0.00    -0.248 NA
ATOM     59  C   UNL A   1      47.649  29.950  26.725  1.00  0.00     0.031 C 
ATOM     60  C   UNL A   1      42.743  31.895  29.723  1.00  0.00     0.029 A 
ATOM     61  C   UNL A   1      43.641  31.094  29.035  1.00  0.00     0.049 A 
ATOM     62  H   UNL A   1      43.392  29.122  28.330  1.00  0.00     0.167 HD
ATOM     63  C   UNL A   1      45.792  30.572  27.918  1.00  0.00     0.074 A 
ATOM     64  C   UNL A   1      47.121  30.920  27.459  1.00  0.00     0.031 C 
ATOM     65  C   UNL A   1      44.980  31.410  28.610  1.00  0.00     0.034 A 
BRANCH  52  66
ATOM     66  C   UNL A   1      39.400  29.052  29.851  1.00  0.00     0.023 A 
ATOM     67  C   UNL A   1      39.101  28.553  31.136  1.00  0.00     0.012 A 
ATOM     68  C   UNL A   1      38.421  29.784  29.151  1.00  0.00     0.148 A 
ATOM     69  C   UNL A   1      37.840  28.743  31.699  1.00  0.00     0.002 A 
ATOM     70  C   UNL A   1      37.181  30.011  29.739  1.00  0.00     0.091 A 
ATOM     71  F   UNL A   1      38.715  30.233  27.923  1.00  0.00    -0.205 F 
ATOM     72  C   UNL A   1      36.885  29.481  31.005  1.00  0.00     0.022 A 
BRANCH  70  73
ATOM     73  S   UNL A   1      35.910  31.016  28.964  1.00  0.00     0.127 S 
ATOM     74  O   UNL A   1      35.139  31.461  30.124  1.00  0.00    -0.237 OA
ATOM     75  O   UNL A   1      36.699  32.065  28.317  1.00  0.00    -0.237 OA
ATOM     76  O   UNL A   1      35.203  30.133  28.047  1.00  0.00    -0.744 OA
ENDBRANCH  70  73
ENDBRANCH  52  66
BRANCH  53  77
ATOM     77  C   UNL A   1      48.244  27.343  25.518  1.00  0.00     0.023 A 
ATOM     78  C   UNL A   1      49.335  26.862  26.268  1.00  0.00     0.012 A 
ATOM     79  C   UNL A   1      48.406  27.568  24.138  1.00  0.00     0.148 A 
ATOM     80  C   UNL A   1      50.574  26.646  25.664  1.00  0.00     0.002 A 
ATOM     81  C   UNL A   1      49.627  27.297  23.531  1.00  0.00     0.091 A 
ATOM     82  F   UNL A   1      47.358  28.035  23.443  1.00  0.00    -0.205 F 
ATOM     83  C   UNL A   1      50.718  26.854  24.295  1.00  0.00     0.022 A 
BRANCH  81  84
ATOM     84  S   UNL A   1      49.864  27.408  21.754  1.00  0.00     0.127 S 
ATOM     85  O   UNL A   1      51.259  26.999  21.612  1.00  0.00    -0.237 OA
ATOM     86  O   UNL A   1      48.884  26.442  21.258  1.00  0.00    -0.237 OA
ATOM     87  O   UNL A   1      49.571  28.792  21.404  1.00  0.00    -0.744 OA
ENDBRANCH  81  84
ENDBRANCH  53  77
BRANCH  65  88
ATOM     88  C   UNL A   1      45.516  32.781  28.935  1.00  0.00     0.023 A 
ATOM     89  C   UNL A   1      46.332  32.963  30.070  1.00  0.00     0.012 A 
ATOM     90  C   UNL A   1      45.252  33.877  28.091  1.00  0.00     0.148 A 
ATOM     91  C   UNL A   1      46.840  34.223  30.384  1.00  0.00     0.002 A 
ATOM     92  C   UNL A   1      45.806  35.118  28.380  1.00  0.00     0.091 A 
ATOM     93  F   UNL A   1      44.459  33.689  27.026  1.00  0.00    -0.205 F 
ATOM     94  C   UNL A   1      46.586  35.297  29.533  1.00  0.00     0.022 A 
BRANCH  92  95
ATOM     95  S   UNL A   1      45.613  36.532  27.288  1.00  0.00     0.127 S 
ATOM     96  O   UNL A   1      46.496  36.173  26.180  1.00  0.00    -0.237 OA
ATOM     97  O   UNL A   1      44.186  36.488  26.970  1.00  0.00    -0.237 OA
ATOM     98  O   UNL A   1      46.022  37.695  28.066  1.00  0.00    -0.744 OA
ENDBRANCH  92  95
ENDBRANCH  65  88
ENDBRANCH  39  40
ENDBRANCH  31  34
ENDBRANCH  29  30
ENDBRANCH   1  29
TORSDOF 18
ENDMDL
