MODEL 1
REMARK VINA RESULT:     -11.0      0.000      0.000
REMARK SMILES C#CC[N@H+](CC(=O)NCCCCNC(=O)c1ccc(-c2c3nc(c(-c4cccc(S(=O)(=O)[O-])c4F)c4ccc([nH]4)c(-c4cccc(S(=O)(=O)[O-])c4F)c4nc(c(-c5cccc(S(=O)(=O)[O-])c5F)c5ccc2[nH]5)C=C4)C=C3)cc1)[C@H]1CCO[C@@H](C(C)C)C1
REMARK SMILES IDX 10 1 9 2 8 3 6 4 7 5 5 7 4 8 3 10 2 11 1 12 79 13 80 14
REMARK SMILES IDX 87 15 81 16 83 17 82 18 84 19 85 20 86 21 11 22 12 23 13 24
REMARK SMILES IDX 14 25 15 27 16 28 17 29 78 30 18 31 77 32 19 33 20 34 21 35
REMARK SMILES IDX 71 36 22 37 76 38 70 39 72 40 23 41 75 42 69 43 68 44 24 46
REMARK SMILES IDX 56 47 36 48 55 49 37 50 40 51 54 52 73 53 38 54 39 55 53 57
REMARK SMILES IDX 74 58 41 59 25 60 26 61 34 62 27 63 29 64 35 65 28 66 30 67
REMARK SMILES IDX 31 68 32 69 33 70 57 71 58 72 66 73 59 74 61 75 67 76 60 77
REMARK SMILES IDX 62 78 63 79 64 80 65 81 42 82 43 83 51 84 44 85 46 86 52 87
REMARK SMILES IDX 45 88 47 89 48 90 49 91 50 92
REMARK H PARENT 8 6 4 9 13 26 72 45 40 56
REMARK Flexibility Score: inf
ROOT
ATOM      1  C   UNL A   1      34.384  21.216  26.035  1.00  0.00     0.023 C 
ENDROOT
BRANCH   1   2
ATOM      2  C   UNL A   1      33.084  21.564  25.280  1.00  0.00     0.116 C 
BRANCH   2   3
ATOM      3  N   UNL A   1      32.110  22.117  26.202  1.00  0.00    -0.351 N 
ATOM      4  C   UNL A   1      31.812  23.417  26.506  1.00  0.00     0.275 C 
ATOM      5  O   UNL A   1      31.185  23.616  27.552  1.00  0.00    -0.269 OA
ATOM      6  H   UNL A   1      31.577  21.447  26.688  1.00  0.00     0.163 HD
BRANCH   4   7
ATOM      7  C   UNL A   1      32.120  24.584  25.537  1.00  0.00     0.364 C 
BRANCH   7   8
ATOM      8  N   UNL A   1      33.286  25.445  25.851  1.00  0.00    -0.314 N 
ATOM      9  H   UNL A   1      33.752  25.034  26.659  1.00  0.00     0.349 HD
BRANCH   8  10
ATOM     10  C   UNL A   1      34.132  25.457  24.675  1.00  0.00     0.354 C 
BRANCH  10  11
ATOM     11  C   UNL A   1      33.525  25.078  23.334  1.00  0.00    -0.047 C 
ATOM     12  C   UNL A   1      33.006  24.752  22.183  1.00  0.00     0.010 C 
ENDBRANCH  10  11
ENDBRANCH   8  10
BRANCH   8  13
ATOM     13  C   UNL A   1      32.997  26.815  26.348  1.00  0.00     0.190 C 
ATOM     14  C   UNL A   1      33.927  27.962  25.920  1.00  0.00     0.093 C 
ATOM     15  C   UNL A   1      31.523  27.270  26.230  1.00  0.00     0.097 C 
ATOM     16  C   UNL A   1      33.460  28.684  24.669  1.00  0.00     0.166 C 
ATOM     17  C   UNL A   1      31.142  28.135  25.010  1.00  0.00     0.126 C 
ATOM     18  O   UNL A   1      32.126  29.160  24.809  1.00  0.00    -0.377 OA
BRANCH  17  19
ATOM     19  C   UNL A   1      30.791  27.413  23.685  1.00  0.00     0.012 C 
ATOM     20  C   UNL A   1      29.589  26.472  23.826  1.00  0.00     0.010 C 
ATOM     21  C   UNL A   1      30.543  28.380  22.525  1.00  0.00     0.010 C 
ENDBRANCH  17  19
ENDBRANCH   8  13
ENDBRANCH   7   8
ENDBRANCH   4   7
ENDBRANCH   2   3
ENDBRANCH   1   2
BRANCH   1  22
ATOM     22  C   UNL A   1      35.255  22.383  26.427  1.00  0.00     0.023 C 
BRANCH  22  23
ATOM     23  C   UNL A   1      36.390  22.617  25.471  1.00  0.00     0.116 C 
BRANCH  23  24
ATOM     24  N   UNL A   1      37.298  21.481  25.340  1.00  0.00    -0.352 N 
ATOM     25  C   UNL A   1      38.597  21.421  25.788  1.00  0.00     0.251 C 
ATOM     26  H   UNL A   1      36.946  20.681  24.887  1.00  0.00     0.163 HD
ATOM     27  O   UNL A   1      39.315  20.457  25.554  1.00  0.00    -0.269 OA
BRANCH  25  28
ATOM     28  C   UNL A   1      39.093  22.597  26.521  1.00  0.00     0.039 A 
ATOM     29  C   UNL A   1      40.143  22.440  27.421  1.00  0.00     0.014 A 
ATOM     30  C   UNL A   1      38.662  23.864  26.117  1.00  0.00     0.014 A 
ATOM     31  C   UNL A   1      40.801  23.576  27.883  1.00  0.00     0.010 A 
ATOM     32  C   UNL A   1      39.420  24.969  26.454  1.00  0.00     0.010 A 
ATOM     33  C   UNL A   1      40.466  24.845  27.376  1.00  0.00    -0.014 A 
BRANCH  33  34
ATOM     34  C   UNL A   1      41.168  26.059  27.844  1.00  0.00     0.031 A 
ATOM     35  C   UNL A   1      42.599  26.291  27.436  1.00  0.00     0.074 A 
ATOM     36  C   UNL A   1      40.539  26.921  28.667  1.00  0.00     0.049 A 
ATOM     37  N   UNL A   1      43.364  27.320  27.678  1.00  0.00    -0.248 NA
ATOM     38  C   UNL A   1      43.276  25.209  26.697  1.00  0.00     0.031 C 
ATOM     39  C   UNL A   1      39.202  26.731  29.239  1.00  0.00     0.029 A 
ATOM     40  N   UNL A   1      40.943  28.132  29.166  1.00  0.00    -0.354 N 
ATOM     41  C   UNL A   1      44.610  26.994  27.156  1.00  0.00     0.074 A 
ATOM     42  C   UNL A   1      44.524  25.646  26.649  1.00  0.00     0.031 C 
ATOM     43  C   UNL A   1      38.883  27.806  29.978  1.00  0.00     0.029 A 
ATOM     44  C   UNL A   1      39.990  28.756  29.938  1.00  0.00     0.049 A 
ATOM     45  H   UNL A   1      41.830  28.519  28.989  1.00  0.00     0.167 HD
ATOM     46  C   UNL A   1      45.713  27.766  27.052  1.00  0.00     0.034 A 
ATOM     47  C   UNL A   1      40.002  29.972  30.516  1.00  0.00     0.034 A 
ATOM     48  C   UNL A   1      45.764  29.130  27.493  1.00  0.00     0.049 A 
ATOM     49  C   UNL A   1      41.194  30.862  30.282  1.00  0.00     0.074 A 
ATOM     50  C   UNL A   1      46.786  30.047  27.348  1.00  0.00     0.029 A 
ATOM     51  N   UNL A   1      44.735  29.773  28.165  1.00  0.00    -0.354 N 
ATOM     52  N   UNL A   1      42.294  30.609  29.614  1.00  0.00    -0.248 NA
ATOM     53  C   UNL A   1      41.124  32.223  30.831  1.00  0.00     0.031 C 
ATOM     54  C   UNL A   1      46.379  31.245  27.946  1.00  0.00     0.029 A 
ATOM     55  C   UNL A   1      45.095  31.078  28.444  1.00  0.00     0.049 A 
ATOM     56  H   UNL A   1      43.875  29.360  28.409  1.00  0.00     0.167 HD
ATOM     57  C   UNL A   1      43.033  31.785  29.634  1.00  0.00     0.074 A 
ATOM     58  C   UNL A   1      42.238  32.760  30.356  1.00  0.00     0.031 C 
ATOM     59  C   UNL A   1      44.263  32.037  29.122  1.00  0.00     0.034 A 
BRANCH  46  60
ATOM     60  C   UNL A   1      46.917  27.170  26.373  1.00  0.00     0.023 A 
ATOM     61  C   UNL A   1      47.039  27.251  24.969  1.00  0.00     0.012 A 
ATOM     62  C   UNL A   1      47.937  26.548  27.118  1.00  0.00     0.148 A 
ATOM     63  C   UNL A   1      48.133  26.688  24.314  1.00  0.00     0.002 A 
ATOM     64  C   UNL A   1      49.049  26.033  26.462  1.00  0.00     0.091 A 
ATOM     65  F   UNL A   1      47.790  26.451  28.447  1.00  0.00    -0.205 F 
ATOM     66  C   UNL A   1      49.143  26.090  25.060  1.00  0.00     0.022 A 
BRANCH  64  67
ATOM     67  S   UNL A   1      50.441  25.313  27.339  1.00  0.00     0.127 S 
ATOM     68  O   UNL A   1      51.337  24.968  26.236  1.00  0.00    -0.237 OA
ATOM     69  O   UNL A   1      50.894  26.430  28.166  1.00  0.00    -0.237 OA
ATOM     70  O   UNL A   1      49.903  24.184  28.084  1.00  0.00    -0.744 OA
ENDBRANCH  64  67
ENDBRANCH  46  60
BRANCH  47  71
ATOM     71  C   UNL A   1      38.805  30.454  31.262  1.00  0.00     0.023 A 
ATOM     72  C   UNL A   1      38.744  30.285  32.660  1.00  0.00     0.012 A 
ATOM     73  C   UNL A   1      37.751  31.116  30.606  1.00  0.00     0.148 A 
ATOM     74  C   UNL A   1      37.640  30.736  33.386  1.00  0.00     0.002 A 
ATOM     75  C   UNL A   1      36.680  31.612  31.342  1.00  0.00     0.091 A 
ATOM     76  F   UNL A   1      37.822  31.261  29.275  1.00  0.00    -0.205 F 
ATOM     77  C   UNL A   1      36.614  31.409  32.729  1.00  0.00     0.022 A 
BRANCH  75  78
ATOM     78  S   UNL A   1      35.385  32.612  30.597  1.00  0.00     0.127 S 
ATOM     79  O   UNL A   1      36.128  33.795  30.171  1.00  0.00    -0.237 OA
ATOM     80  O   UNL A   1      34.923  31.748  29.510  1.00  0.00    -0.237 OA
ATOM     81  O   UNL A   1      34.402  32.823  31.652  1.00  0.00    -0.744 OA
ENDBRANCH  75  78
ENDBRANCH  47  71
BRANCH  59  82
ATOM     82  C   UNL A   1      44.814  33.425  29.299  1.00  0.00     0.023 A 
ATOM     83  C   UNL A   1      45.500  33.758  30.483  1.00  0.00     0.012 A 
ATOM     84  C   UNL A   1      44.703  34.379  28.269  1.00  0.00     0.148 A 
ATOM     85  C   UNL A   1      46.032  35.034  30.656  1.00  0.00     0.002 A 
ATOM     86  C   UNL A   1      45.281  35.632  28.428  1.00  0.00     0.091 A 
ATOM     87  F   UNL A   1      44.029  34.049  27.157  1.00  0.00    -0.205 F 
ATOM     88  C   UNL A   1      45.933  35.966  29.625  1.00  0.00     0.022 A 
BRANCH  86  89
ATOM     89  S   UNL A   1      45.283  36.848  27.108  1.00  0.00     0.127 S 
ATOM     90  O   UNL A   1      46.125  37.901  27.673  1.00  0.00    -0.237 OA
ATOM     91  O   UNL A   1      45.892  36.110  26.000  1.00  0.00    -0.237 OA
ATOM     92  O   UNL A   1      43.885  37.201  26.895  1.00  0.00    -0.744 OA
ENDBRANCH  86  89
ENDBRANCH  59  82
ENDBRANCH  33  34
ENDBRANCH  25  28
ENDBRANCH  23  24
ENDBRANCH  22  23
ENDBRANCH   1  22
TORSDOF 19
ENDMDL
MODEL 2
REMARK VINA RESULT:     -10.9      4.952      9.969
REMARK SMILES C#CC[N@H+](CC(=O)NCCCCNC(=O)c1ccc(-c2c3nc(c(-c4cccc(S(=O)(=O)[O-])c4F)c4ccc([nH]4)c(-c4cccc(S(=O)(=O)[O-])c4F)c4nc(c(-c5cccc(S(=O)(=O)[O-])c5F)c5ccc2[nH]5)C=C4)C=C3)cc1)[C@H]1CCO[C@@H](C(C)C)C1
REMARK SMILES IDX 10 1 9 2 8 3 6 4 7 5 5 7 4 8 3 10 2 11 1 12 79 13 80 14
REMARK SMILES IDX 87 15 81 16 83 17 82 18 84 19 85 20 86 21 11 22 12 23 13 24
REMARK SMILES IDX 14 25 15 27 16 28 17 29 78 30 18 31 77 32 19 33 20 34 21 35
REMARK SMILES IDX 71 36 22 37 76 38 70 39 72 40 23 41 75 42 69 43 68 44 24 46
REMARK SMILES IDX 56 47 36 48 55 49 37 50 40 51 54 52 73 53 38 54 39 55 53 57
REMARK SMILES IDX 74 58 41 59 25 60 26 61 34 62 27 63 29 64 35 65 28 66 30 67
REMARK SMILES IDX 31 68 32 69 33 70 57 71 58 72 66 73 59 74 61 75 67 76 60 77
REMARK SMILES IDX 62 78 63 79 64 80 65 81 42 82 43 83 51 84 44 85 46 86 52 87
REMARK SMILES IDX 45 88 47 89 48 90 49 91 50 92
REMARK H PARENT 8 6 4 9 13 26 72 45 40 56
REMARK Flexibility Score: inf
ROOT
ATOM      1  C   UNL A   1      31.122  28.235  26.144  1.00  0.00     0.023 C 
ENDROOT
BRANCH   1   2
ATOM      2  C   UNL A   1      30.853  26.890  25.437  1.00  0.00     0.116 C 
BRANCH   2   3
ATOM      3  N   UNL A   1      30.879  25.809  26.405  1.00  0.00    -0.351 N 
ATOM      4  C   UNL A   1      31.831  24.859  26.651  1.00  0.00     0.275 C 
ATOM      5  O   UNL A   1      31.475  23.864  27.290  1.00  0.00    -0.269 OA
ATOM      6  H   UNL A   1      30.081  25.751  26.978  1.00  0.00     0.163 HD
BRANCH   4   7
ATOM      7  C   UNL A   1      33.318  25.061  26.270  1.00  0.00     0.364 C 
BRANCH   7   8
ATOM      8  N   UNL A   1      33.771  24.518  24.966  1.00  0.00    -0.314 N 
ATOM      9  H   UNL A   1      33.040  23.890  24.633  1.00  0.00     0.349 HD
BRANCH   8  10
ATOM     10  C   UNL A   1      33.969  25.649  24.082  1.00  0.00     0.354 C 
BRANCH  10  11
ATOM     11  C   UNL A   1      33.375  25.597  22.685  1.00  0.00    -0.047 C 
ATOM     12  C   UNL A   1      32.866  25.553  21.484  1.00  0.00     0.010 C 
ENDBRANCH  10  11
ENDBRANCH   8  10
BRANCH   8  13
ATOM     13  C   UNL A   1      34.947  23.609  24.988  1.00  0.00     0.190 C 
ATOM     14  C   UNL A   1      35.406  23.037  26.339  1.00  0.00     0.093 C 
ATOM     15  C   UNL A   1      34.943  22.487  23.924  1.00  0.00     0.097 C 
ATOM     16  C   UNL A   1      34.787  21.691  26.668  1.00  0.00     0.166 C 
ATOM     17  C   UNL A   1      34.444  21.095  24.362  1.00  0.00     0.126 C 
ATOM     18  O   UNL A   1      35.016  20.744  25.630  1.00  0.00    -0.377 OA
BRANCH  17  19
ATOM     19  C   UNL A   1      32.919  20.823  24.330  1.00  0.00     0.012 C 
ATOM     20  C   UNL A   1      32.221  21.511  23.151  1.00  0.00     0.010 C 
ATOM     21  C   UNL A   1      32.577  19.331  24.318  1.00  0.00     0.010 C 
ENDBRANCH  17  19
ENDBRANCH   8  13
ENDBRANCH   7   8
ENDBRANCH   4   7
ENDBRANCH   2   3
ENDBRANCH   1   2
BRANCH   1  22
ATOM     22  C   UNL A   1      32.369  28.301  26.990  1.00  0.00     0.023 C 
BRANCH  22  23
ATOM     23  C   UNL A   1      33.351  29.333  26.512  1.00  0.00     0.116 C 
BRANCH  23  24
ATOM     24  N   UNL A   1      33.016  30.698  26.909  1.00  0.00    -0.352 N 
ATOM     25  C   UNL A   1      33.829  31.569  27.595  1.00  0.00     0.251 C 
ATOM     26  H   UNL A   1      32.121  31.026  26.660  1.00  0.00     0.163 HD
ATOM     27  O   UNL A   1      33.431  32.667  27.965  1.00  0.00    -0.269 OA
BRANCH  25  28
ATOM     28  C   UNL A   1      35.187  31.093  27.905  1.00  0.00     0.039 A 
ATOM     29  C   UNL A   1      36.228  32.014  27.973  1.00  0.00     0.014 A 
ATOM     30  C   UNL A   1      35.345  29.778  28.355  1.00  0.00     0.014 A 
ATOM     31  C   UNL A   1      37.432  31.619  28.550  1.00  0.00     0.010 A 
ATOM     32  C   UNL A   1      36.483  29.446  29.066  1.00  0.00     0.010 A 
ATOM     33  C   UNL A   1      37.555  30.343  29.130  1.00  0.00    -0.014 A 
BRANCH  33  34
ATOM     34  C   UNL A   1      38.821  29.915  29.762  1.00  0.00     0.031 A 
ATOM     35  C   UNL A   1      39.206  30.476  31.104  1.00  0.00     0.074 A 
ATOM     36  C   UNL A   1      39.640  29.065  29.111  1.00  0.00     0.049 A 
ATOM     37  N   UNL A   1      40.231  30.178  31.855  1.00  0.00    -0.248 NA
ATOM     38  C   UNL A   1      38.355  31.545  31.661  1.00  0.00     0.031 C 
ATOM     39  C   UNL A   1      39.438  28.564  27.748  1.00  0.00     0.029 A 
ATOM     40  N   UNL A   1      40.810  28.473  29.511  1.00  0.00    -0.354 N 
ATOM     41  C   UNL A   1      40.164  31.039  32.943  1.00  0.00     0.074 A 
ATOM     42  C   UNL A   1      39.045  31.922  32.725  1.00  0.00     0.031 C 
ATOM     43  C   UNL A   1      40.430  27.710  27.441  1.00  0.00     0.029 A 
ATOM     44  C   UNL A   1      41.337  27.608  28.580  1.00  0.00     0.049 A 
ATOM     45  H   UNL A   1      41.233  28.650  30.382  1.00  0.00     0.167 HD
ATOM     46  C   UNL A   1      40.930  31.058  34.057  1.00  0.00     0.034 A 
ATOM     47  C   UNL A   1      42.412  26.801  28.656  1.00  0.00     0.034 A 
ATOM     48  C   UNL A   1      41.994  30.128  34.296  1.00  0.00     0.049 A 
ATOM     49  C   UNL A   1      43.176  26.750  29.953  1.00  0.00     0.074 A 
ATOM     50  C   UNL A   1      42.771  29.977  35.428  1.00  0.00     0.029 A 
ATOM     51  N   UNL A   1      42.426  29.180  33.379  1.00  0.00    -0.354 N 
ATOM     52  N   UNL A   1      42.980  27.436  31.053  1.00  0.00    -0.248 NA
ATOM     53  C   UNL A   1      44.272  25.776  30.040  1.00  0.00     0.031 C 
ATOM     54  C   UNL A   1      43.685  28.944  35.189  1.00  0.00     0.029 A 
ATOM     55  C   UNL A   1      43.460  28.439  33.917  1.00  0.00     0.049 A 
ATOM     56  H   UNL A   1      42.050  29.056  32.478  1.00  0.00     0.167 HD
ATOM     57  C   UNL A   1      43.904  26.957  31.973  1.00  0.00     0.074 A 
ATOM     58  C   UNL A   1      44.639  25.900  31.307  1.00  0.00     0.031 C 
ATOM     59  C   UNL A   1      44.139  27.362  33.246  1.00  0.00     0.034 A 
BRANCH  46  60
ATOM     60  C   UNL A   1      40.587  32.070  35.118  1.00  0.00     0.023 A 
ATOM     61  C   UNL A   1      41.341  33.259  35.217  1.00  0.00     0.012 A 
ATOM     62  C   UNL A   1      39.512  31.859  36.002  1.00  0.00     0.148 A 
ATOM     63  C   UNL A   1      41.059  34.202  36.205  1.00  0.00     0.002 A 
ATOM     64  C   UNL A   1      39.205  32.827  36.951  1.00  0.00     0.091 A 
ATOM     65  F   UNL A   1      38.828  30.710  35.914  1.00  0.00    -0.205 F 
ATOM     66  C   UNL A   1      39.985  33.992  37.063  1.00  0.00     0.022 A 
BRANCH  64  67
ATOM     67  S   UNL A   1      37.793  32.687  38.052  1.00  0.00     0.127 S 
ATOM     68  O   UNL A   1      38.030  33.795  38.976  1.00  0.00    -0.237 OA
ATOM     69  O   UNL A   1      36.670  32.885  37.137  1.00  0.00    -0.237 OA
ATOM     70  O   UNL A   1      37.873  31.356  38.637  1.00  0.00    -0.744 OA
ENDBRANCH  64  67
ENDBRANCH  46  60
BRANCH  47  71
ATOM     71  C   UNL A   1      42.748  25.898  27.519  1.00  0.00     0.023 A 
ATOM     72  C   UNL A   1      43.647  26.337  26.526  1.00  0.00     0.012 A 
ATOM     73  C   UNL A   1      42.220  24.596  27.437  1.00  0.00     0.148 A 
ATOM     74  C   UNL A   1      43.988  25.509  25.456  1.00  0.00     0.002 A 
ATOM     75  C   UNL A   1      42.607  23.756  26.398  1.00  0.00     0.091 A 
ATOM     76  F   UNL A   1      41.360  24.199  28.385  1.00  0.00    -0.205 F 
ATOM     77  C   UNL A   1      43.477  24.216  25.398  1.00  0.00     0.022 A 
BRANCH  75  78
ATOM     78  S   UNL A   1      42.107  22.031  26.321  1.00  0.00     0.127 S 
ATOM     79  O   UNL A   1      42.497  21.549  27.644  1.00  0.00    -0.237 OA
ATOM     80  O   UNL A   1      40.664  22.144  26.105  1.00  0.00    -0.237 OA
ATOM     81  O   UNL A   1      42.837  21.464  25.196  1.00  0.00    -0.744 OA
ENDBRANCH  75  78
ENDBRANCH  47  71
BRANCH  59  82
ATOM     82  C   UNL A   1      45.218  26.643  34.010  1.00  0.00     0.023 A 
ATOM     83  C   UNL A   1      46.551  27.087  33.920  1.00  0.00     0.012 A 
ATOM     84  C   UNL A   1      44.900  25.569  34.862  1.00  0.00     0.148 A 
ATOM     85  C   UNL A   1      47.560  26.444  34.634  1.00  0.00     0.002 A 
ATOM     86  C   UNL A   1      45.902  24.966  35.611  1.00  0.00     0.091 A 
ATOM     87  F   UNL A   1      43.627  25.148  34.919  1.00  0.00    -0.205 F 
ATOM     88  C   UNL A   1      47.233  25.392  35.488  1.00  0.00     0.022 A 
BRANCH  86  89
ATOM     89  S   UNL A   1      45.544  23.675  36.807  1.00  0.00     0.127 S 
ATOM     90  O   UNL A   1      44.618  24.354  37.711  1.00  0.00    -0.237 OA
ATOM     91  O   UNL A   1      44.935  22.636  35.977  1.00  0.00    -0.237 OA
ATOM     92  O   UNL A   1      46.831  23.303  37.382  1.00  0.00    -0.744 OA
ENDBRANCH  86  89
ENDBRANCH  59  82
ENDBRANCH  33  34
ENDBRANCH  25  28
ENDBRANCH  23  24
ENDBRANCH  22  23
ENDBRANCH   1  22
TORSDOF 19
ENDMDL
MODEL 3
REMARK VINA RESULT:     -10.7      5.004      9.908
REMARK SMILES C#CC[N@H+](CC(=O)NCCCCNC(=O)c1ccc(-c2c3nc(c(-c4cccc(S(=O)(=O)[O-])c4F)c4ccc([nH]4)c(-c4cccc(S(=O)(=O)[O-])c4F)c4nc(c(-c5cccc(S(=O)(=O)[O-])c5F)c5ccc2[nH]5)C=C4)C=C3)cc1)[C@H]1CCO[C@@H](C(C)C)C1
REMARK SMILES IDX 10 1 9 2 8 3 6 4 7 5 5 7 4 8 3 10 2 11 1 12 79 13 80 14
REMARK SMILES IDX 87 15 81 16 83 17 82 18 84 19 85 20 86 21 11 22 12 23 13 24
REMARK SMILES IDX 14 25 15 27 16 28 17 29 78 30 18 31 77 32 19 33 20 34 21 35
REMARK SMILES IDX 71 36 22 37 76 38 70 39 72 40 23 41 75 42 69 43 68 44 24 46
REMARK SMILES IDX 56 47 36 48 55 49 37 50 40 51 54 52 73 53 38 54 39 55 53 57
REMARK SMILES IDX 74 58 41 59 25 60 26 61 34 62 27 63 29 64 35 65 28 66 30 67
REMARK SMILES IDX 31 68 32 69 33 70 57 71 58 72 66 73 59 74 61 75 67 76 60 77
REMARK SMILES IDX 62 78 63 79 64 80 65 81 42 82 43 83 51 84 44 85 46 86 52 87
REMARK SMILES IDX 45 88 47 89 48 90 49 91 50 92
REMARK H PARENT 8 6 4 9 13 26 72 45 40 56
REMARK Flexibility Score: inf
ROOT
ATOM      1  C   UNL A   1      33.235  26.665  25.863  1.00  0.00     0.023 C 
ENDROOT
BRANCH   1   2
ATOM      2  C   UNL A   1      31.794  26.205  25.558  1.00  0.00     0.116 C 
BRANCH   2   3
ATOM      3  N   UNL A   1      31.375  25.214  26.532  1.00  0.00    -0.351 N 
ATOM      4  C   UNL A   1      30.903  23.942  26.359  1.00  0.00     0.275 C 
ATOM      5  O   UNL A   1      30.310  23.432  27.315  1.00  0.00    -0.269 OA
ATOM      6  H   UNL A   1      31.440  25.506  27.470  1.00  0.00     0.163 HD
BRANCH   4   7
ATOM      7  C   UNL A   1      31.202  23.116  25.084  1.00  0.00     0.364 C 
BRANCH   7   8
ATOM      8  N   UNL A   1      32.450  22.314  25.065  1.00  0.00    -0.314 N 
ATOM      9  H   UNL A   1      33.101  22.759  25.711  1.00  0.00     0.349 HD
BRANCH   8  10
ATOM     10  C   UNL A   1      32.097  20.971  25.476  1.00  0.00     0.354 C 
BRANCH  10  11
ATOM     11  C   UNL A   1      32.312  19.828  24.498  1.00  0.00    -0.047 C 
ATOM     12  C   UNL A   1      32.495  18.845  23.659  1.00  0.00     0.010 C 
ENDBRANCH  10  11
ENDBRANCH   8  10
BRANCH   8  13
ATOM     13  C   UNL A   1      33.238  22.327  23.804  1.00  0.00     0.190 C 
ATOM     14  C   UNL A   1      33.076  23.523  22.851  1.00  0.00     0.093 C 
ATOM     15  C   UNL A   1      34.737  21.979  23.951  1.00  0.00     0.097 C 
ATOM     16  C   UNL A   1      34.085  24.631  23.094  1.00  0.00     0.166 C 
ATOM     17  C   UNL A   1      35.733  23.154  24.039  1.00  0.00     0.126 C 
ATOM     18  O   UNL A   1      35.420  24.140  23.044  1.00  0.00    -0.377 OA
BRANCH  17  19
ATOM     19  C   UNL A   1      35.978  23.802  25.425  1.00  0.00     0.012 C 
ATOM     20  C   UNL A   1      35.280  23.044  26.561  1.00  0.00     0.010 C 
ATOM     21  C   UNL A   1      37.463  23.957  25.759  1.00  0.00     0.010 C 
ENDBRANCH  17  19
ENDBRANCH   8  13
ENDBRANCH   7   8
ENDBRANCH   4   7
ENDBRANCH   2   3
ENDBRANCH   1   2
BRANCH   1  22
ATOM     22  C   UNL A   1      33.673  27.950  25.207  1.00  0.00     0.023 C 
BRANCH  22  23
ATOM     23  C   UNL A   1      34.348  28.896  26.159  1.00  0.00     0.116 C 
BRANCH  23  24
ATOM     24  N   UNL A   1      33.640  30.160  26.340  1.00  0.00    -0.352 N 
ATOM     25  C   UNL A   1      33.921  31.124  27.280  1.00  0.00     0.251 C 
ATOM     26  H   UNL A   1      32.889  30.340  25.730  1.00  0.00     0.163 HD
ATOM     27  O   UNL A   1      33.215  32.115  27.418  1.00  0.00    -0.269 OA
BRANCH  25  28
ATOM     28  C   UNL A   1      35.086  30.876  28.145  1.00  0.00     0.039 A 
ATOM     29  C   UNL A   1      35.111  29.730  28.935  1.00  0.00     0.014 A 
ATOM     30  C   UNL A   1      36.226  31.666  27.969  1.00  0.00     0.014 A 
ATOM     31  C   UNL A   1      36.317  29.346  29.515  1.00  0.00     0.010 A 
ATOM     32  C   UNL A   1      37.445  31.191  28.415  1.00  0.00     0.010 A 
ATOM     33  C   UNL A   1      37.498  30.055  29.230  1.00  0.00    -0.014 A 
BRANCH  33  34
ATOM     34  C   UNL A   1      38.790  29.650  29.825  1.00  0.00     0.031 A 
ATOM     35  C   UNL A   1      39.211  30.233  31.148  1.00  0.00     0.074 A 
ATOM     36  C   UNL A   1      39.597  28.801  29.159  1.00  0.00     0.049 A 
ATOM     37  N   UNL A   1      40.263  29.957  31.868  1.00  0.00    -0.248 NA
ATOM     38  C   UNL A   1      38.365  31.300  31.718  1.00  0.00     0.031 C 
ATOM     39  C   UNL A   1      39.357  28.280  27.810  1.00  0.00     0.029 A 
ATOM     40  N   UNL A   1      40.786  28.228  29.529  1.00  0.00    -0.354 N 
ATOM     41  C   UNL A   1      40.222  30.832  32.947  1.00  0.00     0.074 A 
ATOM     42  C   UNL A   1      39.085  31.699  32.753  1.00  0.00     0.031 C 
ATOM     43  C   UNL A   1      40.348  27.433  27.483  1.00  0.00     0.029 A 
ATOM     44  C   UNL A   1      41.293  27.357  28.593  1.00  0.00     0.049 A 
ATOM     45  H   UNL A   1      41.235  28.421  30.383  1.00  0.00     0.167 HD
ATOM     46  C   UNL A   1      41.022  30.875  34.034  1.00  0.00     0.034 A 
ATOM     47  C   UNL A   1      42.380  26.563  28.644  1.00  0.00     0.034 A 
ATOM     48  C   UNL A   1      42.105  29.959  34.251  1.00  0.00     0.049 A 
ATOM     49  C   UNL A   1      43.185  26.538  29.916  1.00  0.00     0.074 A 
ATOM     50  C   UNL A   1      42.920  29.833  35.359  1.00  0.00     0.029 A 
ATOM     51  N   UNL A   1      42.518  29.005  33.333  1.00  0.00    -0.354 N 
ATOM     52  N   UNL A   1      43.017  27.236  31.013  1.00  0.00    -0.248 NA
ATOM     53  C   UNL A   1      44.295  25.578  29.980  1.00  0.00     0.031 C 
ATOM     54  C   UNL A   1      43.838  28.807  35.104  1.00  0.00     0.029 A 
ATOM     55  C   UNL A   1      43.577  28.283  33.847  1.00  0.00     0.049 A 
ATOM     56  H   UNL A   1      42.115  28.864  32.446  1.00  0.00     0.167 HD
ATOM     57  C   UNL A   1      43.976  26.780  31.909  1.00  0.00     0.074 A 
ATOM     58  C   UNL A   1      44.702  25.723  31.233  1.00  0.00     0.031 C 
ATOM     59  C   UNL A   1      44.247  27.205  33.168  1.00  0.00     0.034 A 
BRANCH  46  60
ATOM     60  C   UNL A   1      40.702  31.896  35.093  1.00  0.00     0.023 A 
ATOM     61  C   UNL A   1      41.528  33.033  35.238  1.00  0.00     0.012 A 
ATOM     62  C   UNL A   1      39.580  31.749  35.929  1.00  0.00     0.148 A 
ATOM     63  C   UNL A   1      41.266  33.982  36.225  1.00  0.00     0.002 A 
ATOM     64  C   UNL A   1      39.297  32.725  36.877  1.00  0.00     0.091 A 
ATOM     65  F   UNL A   1      38.826  30.648  35.799  1.00  0.00    -0.205 F 
ATOM     66  C   UNL A   1      40.145  33.834  37.036  1.00  0.00     0.022 A 
BRANCH  64  67
ATOM     67  S   UNL A   1      37.833  32.668  37.916  1.00  0.00     0.127 S 
ATOM     68  O   UNL A   1      36.770  32.908  36.942  1.00  0.00    -0.237 OA
ATOM     69  O   UNL A   1      37.883  31.304  38.441  1.00  0.00    -0.237 OA
ATOM     70  O   UNL A   1      38.013  33.711  38.917  1.00  0.00    -0.744 OA
ENDBRANCH  64  67
ENDBRANCH  46  60
BRANCH  47  71
ATOM     71  C   UNL A   1      42.690  25.649  27.508  1.00  0.00     0.023 A 
ATOM     72  C   UNL A   1      43.576  26.073  26.498  1.00  0.00     0.012 A 
ATOM     73  C   UNL A   1      42.149  24.351  27.445  1.00  0.00     0.148 A 
ATOM     74  C   UNL A   1      43.893  25.234  25.429  1.00  0.00     0.002 A 
ATOM     75  C   UNL A   1      42.511  23.500  26.405  1.00  0.00     0.091 A 
ATOM     76  F   UNL A   1      41.300  23.968  28.409  1.00  0.00    -0.205 F 
ATOM     77  C   UNL A   1      43.369  23.945  25.388  1.00  0.00     0.022 A 
BRANCH  75  78
ATOM     78  S   UNL A   1      41.994  21.779  26.350  1.00  0.00     0.127 S 
ATOM     79  O   UNL A   1      42.835  21.250  25.279  1.00  0.00    -0.237 OA
ATOM     80  O   UNL A   1      42.340  21.315  27.694  1.00  0.00    -0.237 OA
ATOM     81  O   UNL A   1      40.564  21.812  26.079  1.00  0.00    -0.744 OA
ENDBRANCH  75  78
ENDBRANCH  47  71
BRANCH  59  82
ATOM     82  C   UNL A   1      45.359  26.508  33.905  1.00  0.00     0.023 A 
ATOM     83  C   UNL A   1      46.668  27.023  33.842  1.00  0.00     0.012 A 
ATOM     84  C   UNL A   1      45.093  25.383  34.708  1.00  0.00     0.148 A 
ATOM     85  C   UNL A   1      47.706  26.401  34.534  1.00  0.00     0.002 A 
ATOM     86  C   UNL A   1      46.122  24.799  35.436  1.00  0.00     0.091 A 
ATOM     87  F   UNL A   1      43.843  24.896  34.740  1.00  0.00    -0.205 F 
ATOM     88  C   UNL A   1      47.430  25.298  35.339  1.00  0.00     0.022 A 
BRANCH  86  89
ATOM     89  S   UNL A   1      45.827  23.441  36.572  1.00  0.00     0.127 S 
ATOM     90  O   UNL A   1      47.189  23.041  36.920  1.00  0.00    -0.237 OA
ATOM     91  O   UNL A   1      45.087  24.091  37.654  1.00  0.00    -0.237 OA
ATOM     92  O   UNL A   1      45.051  22.461  35.821  1.00  0.00    -0.744 OA
ENDBRANCH  86  89
ENDBRANCH  59  82
ENDBRANCH  33  34
ENDBRANCH  25  28
ENDBRANCH  23  24
ENDBRANCH  22  23
ENDBRANCH   1  22
TORSDOF 19
ENDMDL
