MODEL 1
REMARK VINA RESULT:     -11.7      0.000      0.000
REMARK SMILES CC[NH2+][C@]1(C(=O)NCCCCNC(=O)c2ccc(-c3c4nc(c(-c5cccc(S(=O)(=O)[O-])c5F)c5ccc([nH]5)c(-c5cccc(S(=O)(=O)[O-])c5F)c5nc(c(-c6cccc(S(=O)(=O)[O-])c6F)c6ccc3[nH]6)C=C5)C=C4)cc2)CC[C@@H](Sc2ccc(OC)cc2)C1
REMARK SMILES IDX 9 1 8 2 7 3 5 4 6 5 4 7 78 8 90 9 79 10 80 11 3 12 2 15 1 16
REMARK SMILES IDX 81 17 82 18 83 19 89 20 84 21 88 22 85 23 86 24 87 25 10 26
REMARK SMILES IDX 11 27 12 28 13 29 14 31 15 32 16 33 77 34 17 35 76 36 18 37
REMARK SMILES IDX 19 38 20 39 70 40 21 41 75 42 69 43 71 44 22 45 74 46 68 47
REMARK SMILES IDX 67 48 23 50 55 51 35 52 54 53 36 54 39 55 53 56 72 57 37 58
REMARK SMILES IDX 38 59 52 61 73 62 40 63 24 64 25 65 33 66 26 67 28 68 34 69
REMARK SMILES IDX 27 70 29 71 30 72 31 73 32 74 56 75 57 76 65 77 58 78 60 79
REMARK SMILES IDX 66 80 59 81 61 82 62 83 63 84 64 85 41 86 42 87 50 88 43 89
REMARK SMILES IDX 45 90 51 91 44 92 46 93 47 94 48 95 49 96
REMARK H PARENT 7 6 3 13 3 14 12 30 71 49 39 60
REMARK Flexibility Score: inf
ROOT
ATOM      1  C   UNL A   1      32.207  29.940  27.088  1.00  0.00     0.023 C 
ENDROOT
BRANCH   1   2
ATOM      2  C   UNL A   1      32.123  29.000  25.896  1.00  0.00     0.116 C 
BRANCH   2   3
ATOM      3  N   UNL A   1      32.913  29.383  24.758  1.00  0.00    -0.351 N 
ATOM      4  C   UNL A   1      33.218  28.675  23.631  1.00  0.00     0.281 C 
ATOM      5  O   UNL A   1      33.902  29.292  22.803  1.00  0.00    -0.268 OA
ATOM      6  H   UNL A   1      33.292  30.291  24.797  1.00  0.00     0.163 HD
BRANCH   4   7
ATOM      7  C   UNL A   1      32.830  27.152  23.419  1.00  0.00     0.176 C 
ATOM      8  C   UNL A   1      33.298  26.740  22.006  1.00  0.00     0.080 C 
ATOM      9  C   UNL A   1      33.487  26.060  24.295  1.00  0.00     0.094 C 
ATOM     10  C   UNL A   1      33.286  25.213  21.985  1.00  0.00     0.022 C 
ATOM     11  C   UNL A   1      33.487  24.783  23.440  1.00  0.00     0.058 C 
BRANCH   7  12
ATOM     12  N   UNL A   1      31.341  27.024  23.461  1.00  0.00    -0.334 N 
ATOM     13  H   UNL A   1      31.103  26.035  23.377  1.00  0.00     0.347 HD
ATOM     14  H   UNL A   1      31.039  27.435  24.345  1.00  0.00     0.347 HD
BRANCH  12  15
ATOM     15  C   UNL A   1      30.637  27.753  22.405  1.00  0.00     0.257 C 
ATOM     16  C   UNL A   1      29.663  28.746  23.021  1.00  0.00     0.071 C 
ENDBRANCH  12  15
ENDBRANCH   7  12
BRANCH  11  17
ATOM     17  S   UNL A   1      34.887  23.628  23.778  1.00  0.00    -0.122 SA
BRANCH  17  18
ATOM     18  C   UNL A   1      34.102  22.059  24.104  1.00  0.00     0.008 A 
ATOM     19  C   UNL A   1      32.750  21.868  23.797  1.00  0.00     0.019 A 
ATOM     20  C   UNL A   1      34.778  21.047  24.790  1.00  0.00     0.019 A 
ATOM     21  C   UNL A   1      32.121  20.650  24.074  1.00  0.00     0.047 A 
ATOM     22  C   UNL A   1      34.146  19.827  25.069  1.00  0.00     0.047 A 
ATOM     23  C   UNL A   1      32.831  19.608  24.667  1.00  0.00     0.118 A 
BRANCH  23  24
ATOM     24  O   UNL A   1      32.144  18.444  24.865  1.00  0.00    -0.497 OA
ATOM     25  C   UNL A   1      32.913  17.393  25.451  1.00  0.00     0.278 C 
ENDBRANCH  23  24
ENDBRANCH  17  18
ENDBRANCH  11  17
ENDBRANCH   4   7
ENDBRANCH   2   3
ENDBRANCH   1   2
BRANCH   1  26
ATOM     26  C   UNL A   1      32.087  31.427  26.788  1.00  0.00     0.023 C 
BRANCH  26  27
ATOM     27  C   UNL A   1      33.138  32.330  27.422  1.00  0.00     0.116 C 
BRANCH  27  28
ATOM     28  N   UNL A   1      32.694  33.697  27.685  1.00  0.00    -0.352 N 
ATOM     29  C   UNL A   1      33.166  34.653  28.559  1.00  0.00     0.251 C 
ATOM     30  H   UNL A   1      31.923  33.985  27.145  1.00  0.00     0.163 HD
ATOM     31  O   UNL A   1      32.598  35.732  28.641  1.00  0.00    -0.269 OA
BRANCH  29  32
ATOM     32  C   UNL A   1      34.322  34.353  29.433  1.00  0.00     0.039 A 
ATOM     33  C   UNL A   1      34.095  33.788  30.692  1.00  0.00     0.014 A 
ATOM     34  C   UNL A   1      35.625  34.565  28.991  1.00  0.00     0.014 A 
ATOM     35  C   UNL A   1      35.177  33.319  31.444  1.00  0.00     0.010 A 
ATOM     36  C   UNL A   1      36.683  33.982  29.676  1.00  0.00     0.010 A 
ATOM     37  C   UNL A   1      36.474  33.347  30.910  1.00  0.00    -0.014 A 
BRANCH  37  38
ATOM     38  C   UNL A   1      37.628  32.705  31.598  1.00  0.00     0.031 A 
ATOM     39  C   UNL A   1      38.356  31.560  30.944  1.00  0.00     0.074 A 
ATOM     40  C   UNL A   1      37.935  33.062  32.863  1.00  0.00     0.049 A 
ATOM     41  N   UNL A   1      39.298  30.795  31.432  1.00  0.00    -0.248 NA
ATOM     42  C   UNL A   1      37.937  31.194  29.580  1.00  0.00     0.031 C 
ATOM     43  C   UNL A   1      37.236  34.079  33.655  1.00  0.00     0.029 A 
ATOM     44  N   UNL A   1      38.898  32.587  33.719  1.00  0.00    -0.354 N 
ATOM     45  C   UNL A   1      39.539  29.827  30.463  1.00  0.00     0.074 A 
ATOM     46  C   UNL A   1      38.613  30.072  29.380  1.00  0.00     0.031 C 
ATOM     47  C   UNL A   1      37.803  34.162  34.869  1.00  0.00     0.029 A 
ATOM     48  C   UNL A   1      38.885  33.187  34.958  1.00  0.00     0.049 A 
ATOM     49  H   UNL A   1      39.539  31.883  33.470  1.00  0.00     0.167 HD
ATOM     50  C   UNL A   1      40.473  28.847  30.452  1.00  0.00     0.034 A 
ATOM     51  C   UNL A   1      39.656  32.977  36.043  1.00  0.00     0.034 A 
ATOM     52  C   UNL A   1      41.449  28.661  31.490  1.00  0.00     0.049 A 
ATOM     53  C   UNL A   1      40.753  31.949  35.968  1.00  0.00     0.074 A 
ATOM     54  C   UNL A   1      42.513  27.779  31.522  1.00  0.00     0.029 A 
ATOM     55  N   UNL A   1      41.486  29.378  32.675  1.00  0.00    -0.354 N 
ATOM     56  N   UNL A   1      41.075  31.159  34.972  1.00  0.00    -0.248 NA
ATOM     57  C   UNL A   1      41.618  31.812  37.148  1.00  0.00     0.031 C 
ATOM     58  C   UNL A   1      43.191  27.958  32.733  1.00  0.00     0.029 A 
ATOM     59  C   UNL A   1      42.556  28.961  33.447  1.00  0.00     0.049 A 
ATOM     60  H   UNL A   1      40.845  30.081  32.931  1.00  0.00     0.167 HD
ATOM     61  C   UNL A   1      42.198  30.455  35.392  1.00  0.00     0.074 A 
ATOM     62  C   UNL A   1      42.516  30.932  36.723  1.00  0.00     0.031 C 
ATOM     63  C   UNL A   1      42.894  29.489  34.744  1.00  0.00     0.034 A 
BRANCH  50  64
ATOM     64  C   UNL A   1      40.533  27.953  29.241  1.00  0.00     0.023 A 
ATOM     65  C   UNL A   1      39.661  26.849  29.151  1.00  0.00     0.012 A 
ATOM     66  C   UNL A   1      41.417  28.223  28.178  1.00  0.00     0.148 A 
ATOM     67  C   UNL A   1      39.695  26.002  28.045  1.00  0.00     0.002 A 
ATOM     68  C   UNL A   1      41.412  27.400  27.057  1.00  0.00     0.091 A 
ATOM     69  F   UNL A   1      42.255  29.262  28.289  1.00  0.00    -0.205 F 
ATOM     70  C   UNL A   1      40.563  26.283  26.994  1.00  0.00     0.022 A 
BRANCH  68  71
ATOM     71  S   UNL A   1      42.435  27.723  25.616  1.00  0.00     0.127 S 
ATOM     72  O   UNL A   1      43.775  27.741  26.202  1.00  0.00    -0.237 OA
ATOM     73  O   UNL A   1      42.155  26.561  24.772  1.00  0.00    -0.237 OA
ATOM     74  O   UNL A   1      41.971  28.992  25.071  1.00  0.00    -0.744 OA
ENDBRANCH  68  71
ENDBRANCH  50  64
BRANCH  51  75
ATOM     75  C   UNL A   1      39.478  33.820  37.260  1.00  0.00     0.023 A 
ATOM     76  C   UNL A   1      39.972  35.140  37.257  1.00  0.00     0.012 A 
ATOM     77  C   UNL A   1      38.804  33.345  38.400  1.00  0.00     0.148 A 
ATOM     78  C   UNL A   1      39.827  35.960  38.376  1.00  0.00     0.002 A 
ATOM     79  C   UNL A   1      38.615  34.184  39.494  1.00  0.00     0.091 A 
ATOM     80  F   UNL A   1      38.351  32.083  38.392  1.00  0.00    -0.205 F 
ATOM     81  C   UNL A   1      39.141  35.486  39.490  1.00  0.00     0.022 A 
BRANCH  79  82
ATOM     82  S   UNL A   1      37.628  33.704  40.917  1.00  0.00     0.127 S 
ATOM     83  O   UNL A   1      36.459  33.102  40.281  1.00  0.00    -0.237 OA
ATOM     84  O   UNL A   1      38.516  32.759  41.597  1.00  0.00    -0.237 OA
ATOM     85  O   UNL A   1      37.388  34.936  41.657  1.00  0.00    -0.744 OA
ENDBRANCH  79  82
ENDBRANCH  51  75
BRANCH  63  86
ATOM     86  C   UNL A   1      44.088  28.899  35.443  1.00  0.00     0.023 A 
ATOM     87  C   UNL A   1      45.359  29.478  35.261  1.00  0.00     0.012 A 
ATOM     88  C   UNL A   1      43.938  27.825  36.342  1.00  0.00     0.148 A 
ATOM     89  C   UNL A   1      46.469  28.978  35.940  1.00  0.00     0.002 A 
ATOM     90  C   UNL A   1      45.040  27.363  37.052  1.00  0.00     0.091 A 
ATOM     91  F   UNL A   1      42.724  27.275  36.486  1.00  0.00    -0.205 F 
ATOM     92  C   UNL A   1      46.307  27.930  36.844  1.00  0.00     0.022 A 
BRANCH  90  93
ATOM     93  S   UNL A   1      44.903  26.083  38.305  1.00  0.00     0.127 S 
ATOM     94  O   UNL A   1      46.281  25.979  38.778  1.00  0.00    -0.237 OA
ATOM     95  O   UNL A   1      43.972  26.682  39.263  1.00  0.00    -0.237 OA
ATOM     96  O   UNL A   1      44.384  24.908  37.619  1.00  0.00    -0.744 OA
ENDBRANCH  90  93
ENDBRANCH  63  86
ENDBRANCH  37  38
ENDBRANCH  29  32
ENDBRANCH  27  28
ENDBRANCH  26  27
ENDBRANCH   1  26
TORSDOF 19
ENDMDL
MODEL 2
REMARK VINA RESULT:     -11.3      5.846      9.486
REMARK SMILES CC[NH2+][C@]1(C(=O)NCCCCNC(=O)c2ccc(-c3c4nc(c(-c5cccc(S(=O)(=O)[O-])c5F)c5ccc([nH]5)c(-c5cccc(S(=O)(=O)[O-])c5F)c5nc(c(-c6cccc(S(=O)(=O)[O-])c6F)c6ccc3[nH]6)C=C5)C=C4)cc2)CC[C@@H](Sc2ccc(OC)cc2)C1
REMARK SMILES IDX 9 1 8 2 7 3 5 4 6 5 4 7 78 8 90 9 79 10 80 11 3 12 2 15 1 16
REMARK SMILES IDX 81 17 82 18 83 19 89 20 84 21 88 22 85 23 86 24 87 25 10 26
REMARK SMILES IDX 11 27 12 28 13 29 14 31 15 32 16 33 77 34 17 35 76 36 18 37
REMARK SMILES IDX 19 38 20 39 70 40 21 41 75 42 69 43 71 44 22 45 74 46 68 47
REMARK SMILES IDX 67 48 23 50 55 51 35 52 54 53 36 54 39 55 53 56 72 57 37 58
REMARK SMILES IDX 38 59 52 61 73 62 40 63 24 64 25 65 33 66 26 67 28 68 34 69
REMARK SMILES IDX 27 70 29 71 30 72 31 73 32 74 56 75 57 76 65 77 58 78 60 79
REMARK SMILES IDX 66 80 59 81 61 82 62 83 63 84 64 85 41 86 42 87 50 88 43 89
REMARK SMILES IDX 45 90 51 91 44 92 46 93 47 94 48 95 49 96
REMARK H PARENT 7 6 3 13 3 14 12 30 71 49 39 60
REMARK Flexibility Score: inf
ROOT
ATOM      1  C   UNL A   1      35.989  20.382  25.026  1.00  0.00     0.023 C 
ENDROOT
BRANCH   1   2
ATOM      2  C   UNL A   1      35.774  21.783  25.575  1.00  0.00     0.116 C 
BRANCH   2   3
ATOM      3  N   UNL A   1      34.956  21.860  26.754  1.00  0.00    -0.351 N 
ATOM      4  C   UNL A   1      33.600  21.962  26.868  1.00  0.00     0.281 C 
ATOM      5  O   UNL A   1      33.180  21.977  28.033  1.00  0.00    -0.268 OA
ATOM      6  H   UNL A   1      35.447  21.837  27.607  1.00  0.00     0.163 HD
BRANCH   4   7
ATOM      7  C   UNL A   1      32.626  22.152  25.630  1.00  0.00     0.176 C 
ATOM      8  C   UNL A   1      31.633  23.282  25.983  1.00  0.00     0.080 C 
ATOM      9  C   UNL A   1      33.188  22.644  24.276  1.00  0.00     0.094 C 
ATOM     10  C   UNL A   1      30.997  23.712  24.664  1.00  0.00     0.022 C 
ATOM     11  C   UNL A   1      32.027  23.375  23.583  1.00  0.00     0.058 C 
BRANCH   7  12
ATOM     12  N   UNL A   1      31.838  20.896  25.441  1.00  0.00    -0.334 N 
ATOM     13  H   UNL A   1      31.289  20.734  26.285  1.00  0.00     0.347 HD
ATOM     14  H   UNL A   1      31.261  21.039  24.611  1.00  0.00     0.347 HD
BRANCH  12  15
ATOM     15  C   UNL A   1      32.645  19.702  25.184  1.00  0.00     0.257 C 
ATOM     16  C   UNL A   1      32.458  19.250  23.743  1.00  0.00     0.071 C 
ENDBRANCH  12  15
ENDBRANCH   7  12
BRANCH  11  17
ATOM     17  S   UNL A   1      32.540  24.753  22.467  1.00  0.00    -0.122 SA
BRANCH  17  18
ATOM     18  C   UNL A   1      32.698  26.165  23.546  1.00  0.00     0.008 A 
ATOM     19  C   UNL A   1      31.980  27.337  23.284  1.00  0.00     0.019 A 
ATOM     20  C   UNL A   1      33.635  26.176  24.582  1.00  0.00     0.019 A 
ATOM     21  C   UNL A   1      32.118  28.458  24.111  1.00  0.00     0.047 A 
ATOM     22  C   UNL A   1      33.774  27.300  25.409  1.00  0.00     0.047 A 
ATOM     23  C   UNL A   1      32.981  28.425  25.205  1.00  0.00     0.118 A 
BRANCH  23  24
ATOM     24  O   UNL A   1      33.022  29.552  25.975  1.00  0.00    -0.497 OA
ATOM     25  C   UNL A   1      31.951  29.670  26.913  1.00  0.00     0.278 C 
ENDBRANCH  23  24
ENDBRANCH  17  18
ENDBRANCH  11  17
ENDBRANCH   4   7
ENDBRANCH   2   3
ENDBRANCH   1   2
BRANCH   1  26
ATOM     26  C   UNL A   1      37.431  19.967  24.775  1.00  0.00     0.023 C 
BRANCH  26  27
ATOM     27  C   UNL A   1      38.504  20.835  25.422  1.00  0.00     0.116 C 
BRANCH  27  28
ATOM     28  N   UNL A   1      39.689  20.110  25.876  1.00  0.00    -0.352 N 
ATOM     29  C   UNL A   1      40.785  20.524  26.603  1.00  0.00     0.251 C 
ATOM     30  H   UNL A   1      39.708  19.160  25.616  1.00  0.00     0.163 HD
ATOM     31  O   UNL A   1      41.692  19.738  26.830  1.00  0.00    -0.269 OA
BRANCH  29  32
ATOM     32  C   UNL A   1      40.885  21.929  27.058  1.00  0.00     0.039 A 
ATOM     33  C   UNL A   1      41.568  22.212  28.245  1.00  0.00     0.014 A 
ATOM     34  C   UNL A   1      40.366  22.967  26.289  1.00  0.00     0.014 A 
ATOM     35  C   UNL A   1      41.841  23.541  28.584  1.00  0.00     0.010 A 
ATOM     36  C   UNL A   1      40.750  24.274  26.557  1.00  0.00     0.010 A 
ATOM     37  C   UNL A   1      41.496  24.580  27.705  1.00  0.00    -0.014 A 
BRANCH  37  38
ATOM     38  C   UNL A   1      41.916  25.988  27.941  1.00  0.00     0.031 A 
ATOM     39  C   UNL A   1      43.307  26.433  27.568  1.00  0.00     0.074 A 
ATOM     40  C   UNL A   1      41.098  26.828  28.609  1.00  0.00     0.049 A 
ATOM     41  N   UNL A   1      43.899  27.576  27.806  1.00  0.00    -0.248 NA
ATOM     42  C   UNL A   1      44.163  25.450  26.883  1.00  0.00     0.031 C 
ATOM     43  C   UNL A   1      39.769  26.490  29.127  1.00  0.00     0.029 A 
ATOM     44  N   UNL A   1      41.276  28.134  28.996  1.00  0.00    -0.354 N 
ATOM     45  C   UNL A   1      45.205  27.426  27.355  1.00  0.00     0.074 A 
ATOM     46  C   UNL A   1      45.334  26.069  26.873  1.00  0.00     0.031 C 
ATOM     47  C   UNL A   1      39.248  27.563  29.745  1.00  0.00     0.029 A 
ATOM     48  C   UNL A   1      40.213  28.655  29.697  1.00  0.00     0.049 A 
ATOM     49  H   UNL A   1      42.089  28.650  28.790  1.00  0.00     0.167 HD
ATOM     50  C   UNL A   1      46.200  28.343  27.305  1.00  0.00     0.034 A 
ATOM     51  C   UNL A   1      40.034  29.876  30.241  1.00  0.00     0.034 A 
ATOM     52  C   UNL A   1      46.043  29.715  27.702  1.00  0.00     0.049 A 
ATOM     53  C   UNL A   1      41.117  30.909  30.083  1.00  0.00     0.074 A 
ATOM     54  C   UNL A   1      46.946  30.754  27.580  1.00  0.00     0.029 A 
ATOM     55  N   UNL A   1      44.902  30.240  28.289  1.00  0.00    -0.354 N 
ATOM     56  N   UNL A   1      42.286  30.795  29.497  1.00  0.00    -0.248 NA
ATOM     57  C   UNL A   1      40.844  32.248  30.623  1.00  0.00     0.031 C 
ATOM     58  C   UNL A   1      46.353  31.910  28.102  1.00  0.00     0.029 A 
ATOM     59  C   UNL A   1      45.076  31.591  28.535  1.00  0.00     0.049 A 
ATOM     60  H   UNL A   1      44.089  29.728  28.500  1.00  0.00     0.167 HD
ATOM     61  C   UNL A   1      42.871  32.054  29.568  1.00  0.00     0.074 A 
ATOM     62  C   UNL A   1      41.919  32.921  30.231  1.00  0.00     0.031 C 
ATOM     63  C   UNL A   1      44.095  32.453  29.140  1.00  0.00     0.034 A 
BRANCH  50  64
ATOM     64  C   UNL A   1      47.521  27.911  26.725  1.00  0.00     0.023 A 
ATOM     65  C   UNL A   1      48.579  27.569  27.592  1.00  0.00     0.012 A 
ATOM     66  C   UNL A   1      47.707  27.802  25.333  1.00  0.00     0.148 A 
ATOM     67  C   UNL A   1      49.814  27.168  27.087  1.00  0.00     0.002 A 
ATOM     68  C   UNL A   1      48.927  27.356  24.837  1.00  0.00     0.091 A 
ATOM     69  F   UNL A   1      46.700  28.152  24.522  1.00  0.00    -0.205 F 
ATOM     70  C   UNL A   1      49.985  27.051  25.710  1.00  0.00     0.022 A 
BRANCH  68  71
ATOM     71  S   UNL A   1      49.223  27.095  23.084  1.00  0.00     0.127 S 
ATOM     72  O   UNL A   1      48.703  28.336  22.510  1.00  0.00    -0.237 OA
ATOM     73  O   UNL A   1      50.679  26.963  23.033  1.00  0.00    -0.237 OA
ATOM     74  O   UNL A   1      48.492  25.885  22.731  1.00  0.00    -0.744 OA
ENDBRANCH  68  71
ENDBRANCH  50  64
BRANCH  51  75
ATOM     75  C   UNL A   1      38.742  30.216  30.904  1.00  0.00     0.023 A 
ATOM     76  C   UNL A   1      38.528  29.807  32.236  1.00  0.00     0.012 A 
ATOM     77  C   UNL A   1      37.745  30.961  30.248  1.00  0.00     0.148 A 
ATOM     78  C   UNL A   1      37.333  30.105  32.890  1.00  0.00     0.002 A 
ATOM     79  C   UNL A   1      36.577  31.302  30.923  1.00  0.00     0.091 A 
ATOM     80  F   UNL A   1      37.961  31.333  28.978  1.00  0.00    -0.205 F 
ATOM     81  C   UNL A   1      36.362  30.860  32.238  1.00  0.00     0.022 A 
BRANCH  79  82
ATOM     82  S   UNL A   1      35.333  32.383  30.209  1.00  0.00     0.127 S 
ATOM     83  O   UNL A   1      34.860  31.590  29.078  1.00  0.00    -0.237 OA
ATOM     84  O   UNL A   1      34.378  32.518  31.310  1.00  0.00    -0.237 OA
ATOM     85  O   UNL A   1      36.035  33.616  29.874  1.00  0.00    -0.744 OA
ENDBRANCH  79  82
ENDBRANCH  51  75
BRANCH  63  86
ATOM     86  C   UNL A   1      44.469  33.896  29.343  1.00  0.00     0.023 A 
ATOM     87  C   UNL A   1      45.032  34.306  30.568  1.00  0.00     0.012 A 
ATOM     88  C   UNL A   1      44.339  34.827  28.294  1.00  0.00     0.148 A 
ATOM     89  C   UNL A   1      45.432  35.627  30.756  1.00  0.00     0.002 A 
ATOM     90  C   UNL A   1      44.784  36.131  28.473  1.00  0.00     0.091 A 
ATOM     91  F   UNL A   1      43.783  34.422  27.143  1.00  0.00    -0.205 F 
ATOM     92  C   UNL A   1      45.320  36.536  29.705  1.00  0.00     0.022 A 
BRANCH  90  93
ATOM     93  S   UNL A   1      44.767  37.339  27.142  1.00  0.00     0.127 S 
ATOM     94  O   UNL A   1      45.336  38.514  27.799  1.00  0.00    -0.237 OA
ATOM     95  O   UNL A   1      45.637  36.716  26.144  1.00  0.00    -0.237 OA
ATOM     96  O   UNL A   1      43.374  37.460  26.734  1.00  0.00    -0.744 OA
ENDBRANCH  90  93
ENDBRANCH  63  86
ENDBRANCH  37  38
ENDBRANCH  29  32
ENDBRANCH  27  28
ENDBRANCH  26  27
ENDBRANCH   1  26
TORSDOF 19
ENDMDL
MODEL 3
REMARK VINA RESULT:     -11.2      5.784      9.316
REMARK SMILES CC[NH2+][C@]1(C(=O)NCCCCNC(=O)c2ccc(-c3c4nc(c(-c5cccc(S(=O)(=O)[O-])c5F)c5ccc([nH]5)c(-c5cccc(S(=O)(=O)[O-])c5F)c5nc(c(-c6cccc(S(=O)(=O)[O-])c6F)c6ccc3[nH]6)C=C5)C=C4)cc2)CC[C@@H](Sc2ccc(OC)cc2)C1
REMARK SMILES IDX 9 1 8 2 7 3 5 4 6 5 4 7 78 8 90 9 79 10 80 11 3 12 2 15 1 16
REMARK SMILES IDX 81 17 82 18 83 19 89 20 84 21 88 22 85 23 86 24 87 25 10 26
REMARK SMILES IDX 11 27 12 28 13 29 14 31 15 32 16 33 77 34 17 35 76 36 18 37
REMARK SMILES IDX 19 38 20 39 70 40 21 41 75 42 69 43 71 44 22 45 74 46 68 47
REMARK SMILES IDX 67 48 23 50 55 51 35 52 54 53 36 54 39 55 53 56 72 57 37 58
REMARK SMILES IDX 38 59 52 61 73 62 40 63 24 64 25 65 33 66 26 67 28 68 34 69
REMARK SMILES IDX 27 70 29 71 30 72 31 73 32 74 56 75 57 76 65 77 58 78 60 79
REMARK SMILES IDX 66 80 59 81 61 82 62 83 63 84 64 85 41 86 42 87 50 88 43 89
REMARK SMILES IDX 45 90 51 91 44 92 46 93 47 94 48 95 49 96
REMARK H PARENT 7 6 3 13 3 14 12 30 71 49 39 60
REMARK Flexibility Score: inf
ROOT
ATOM      1  C   UNL A   1      34.761  22.133  24.425  1.00  0.00     0.023 C 
ENDROOT
BRANCH   1   2
ATOM      2  C   UNL A   1      34.295  23.464  24.994  1.00  0.00     0.116 C 
BRANCH   2   3
ATOM      3  N   UNL A   1      33.349  23.372  26.072  1.00  0.00    -0.351 N 
ATOM      4  C   UNL A   1      32.299  24.187  26.381  1.00  0.00     0.281 C 
ATOM      5  O   UNL A   1      31.638  23.826  27.365  1.00  0.00    -0.268 OA
ATOM      6  H   UNL A   1      33.478  22.607  26.678  1.00  0.00     0.163 HD
BRANCH   4   7
ATOM      7  C   UNL A   1      31.990  25.547  25.626  1.00  0.00     0.176 C 
ATOM      8  C   UNL A   1      32.208  25.306  24.116  1.00  0.00     0.080 C 
ATOM      9  C   UNL A   1      30.559  26.131  25.645  1.00  0.00     0.094 C 
ATOM     10  C   UNL A   1      31.527  26.470  23.400  1.00  0.00     0.022 C 
ATOM     11  C   UNL A   1      30.423  26.944  24.347  1.00  0.00     0.058 C 
BRANCH   7  12
ATOM     12  N   UNL A   1      32.978  26.578  26.068  1.00  0.00    -0.334 N 
ATOM     13  H   UNL A   1      33.705  26.111  26.611  1.00  0.00     0.347 HD
ATOM     14  H   UNL A   1      33.335  27.021  25.220  1.00  0.00     0.347 HD
BRANCH  12  15
ATOM     15  C   UNL A   1      32.413  27.651  26.889  1.00  0.00     0.257 C 
ATOM     16  C   UNL A   1      33.493  28.668  27.227  1.00  0.00     0.071 C 
ENDBRANCH  12  15
ENDBRANCH   7  12
BRANCH  11  17
ATOM     17  S   UNL A   1      28.712  27.014  23.657  1.00  0.00    -0.122 SA
BRANCH  17  18
ATOM     18  C   UNL A   1      28.528  28.696  23.089  1.00  0.00     0.008 A 
ATOM     19  C   UNL A   1      29.488  29.264  22.245  1.00  0.00     0.019 A 
ATOM     20  C   UNL A   1      27.507  29.512  23.582  1.00  0.00     0.019 A 
ATOM     21  C   UNL A   1      29.365  30.591  21.817  1.00  0.00     0.047 A 
ATOM     22  C   UNL A   1      27.385  30.842  23.154  1.00  0.00     0.047 A 
ATOM     23  C   UNL A   1      28.286  31.368  22.233  1.00  0.00     0.118 A 
BRANCH  23  24
ATOM     24  O   UNL A   1      28.230  32.639  21.734  1.00  0.00    -0.497 OA
ATOM     25  C   UNL A   1      27.831  32.723  20.365  1.00  0.00     0.278 C 
ENDBRANCH  23  24
ENDBRANCH  17  18
ENDBRANCH  11  17
ENDBRANCH   4   7
ENDBRANCH   2   3
ENDBRANCH   1   2
BRANCH   1  26
ATOM     26  C   UNL A   1      36.264  21.905  24.382  1.00  0.00     0.023 C 
BRANCH  26  27
ATOM     27  C   UNL A   1      36.972  21.823  25.730  1.00  0.00     0.116 C 
BRANCH  27  28
ATOM     28  N   UNL A   1      38.206  21.040  25.729  1.00  0.00    -0.352 N 
ATOM     29  C   UNL A   1      39.479  21.349  26.159  1.00  0.00     0.251 C 
ATOM     30  H   UNL A   1      38.111  20.133  25.355  1.00  0.00     0.163 HD
ATOM     31  O   UNL A   1      40.381  20.537  26.014  1.00  0.00    -0.269 OA
BRANCH  29  32
ATOM     32  C   UNL A   1      39.762  22.679  26.742  1.00  0.00     0.039 A 
ATOM     33  C   UNL A   1      40.671  22.779  27.800  1.00  0.00     0.014 A 
ATOM     34  C   UNL A   1      39.186  23.829  26.210  1.00  0.00     0.014 A 
ATOM     35  C   UNL A   1      41.096  24.040  28.229  1.00  0.00     0.010 A 
ATOM     36  C   UNL A   1      39.705  25.073  26.545  1.00  0.00     0.010 A 
ATOM     37  C   UNL A   1      40.670  25.196  27.556  1.00  0.00    -0.014 A 
BRANCH  37  38
ATOM     38  C   UNL A   1      41.227  26.541  27.865  1.00  0.00     0.031 A 
ATOM     39  C   UNL A   1      42.655  26.867  27.510  1.00  0.00     0.074 A 
ATOM     40  C   UNL A   1      40.496  27.421  28.581  1.00  0.00     0.049 A 
ATOM     41  N   UNL A   1      43.356  27.931  27.806  1.00  0.00    -0.248 NA
ATOM     42  C   UNL A   1      43.411  25.842  26.770  1.00  0.00     0.031 C 
ATOM     43  C   UNL A   1      39.139  27.187  29.086  1.00  0.00     0.029 A 
ATOM     44  N   UNL A   1      40.801  28.680  29.036  1.00  0.00    -0.354 N 
ATOM     45  C   UNL A   1      44.642  27.678  27.342  1.00  0.00     0.074 A 
ATOM     46  C   UNL A   1      44.637  26.343  26.788  1.00  0.00     0.031 C 
ATOM     47  C   UNL A   1      38.726  28.271  29.763  1.00  0.00     0.029 A 
ATOM     48  C   UNL A   1      39.794  29.265  29.769  1.00  0.00     0.049 A 
ATOM     49  H   UNL A   1      41.661  29.124  28.854  1.00  0.00     0.167 HD
ATOM     50  C   UNL A   1      45.722  28.494  27.336  1.00  0.00     0.034 A 
ATOM     51  C   UNL A   1      39.735  30.466  30.378  1.00  0.00     0.034 A 
ATOM     52  C   UNL A   1      45.701  29.852  27.807  1.00  0.00     0.049 A 
ATOM     53  C   UNL A   1      40.915  31.394  30.270  1.00  0.00     0.074 A 
ATOM     54  C   UNL A   1      46.702  30.803  27.737  1.00  0.00     0.029 A 
ATOM     55  N   UNL A   1      44.617  30.454  28.427  1.00  0.00    -0.354 N 
ATOM     56  N   UNL A   1      42.067  31.198  29.674  1.00  0.00    -0.248 NA
ATOM     57  C   UNL A   1      40.774  32.723  30.882  1.00  0.00     0.031 C 
ATOM     58  C   UNL A   1      46.225  31.982  28.322  1.00  0.00     0.029 A 
ATOM     59  C   UNL A   1      44.923  31.767  28.743  1.00  0.00     0.049 A 
ATOM     60  H   UNL A   1      43.756  30.014  28.614  1.00  0.00     0.167 HD
ATOM     61  C   UNL A   1      42.773  32.387  29.810  1.00  0.00     0.074 A 
ATOM     62  C   UNL A   1      41.910  33.307  30.523  1.00  0.00     0.031 C 
ATOM     63  C   UNL A   1      44.030  32.687  29.399  1.00  0.00     0.034 A 
BRANCH  50  64
ATOM     64  C   UNL A   1      46.995  27.966  26.728  1.00  0.00     0.023 A 
ATOM     65  C   UNL A   1      47.990  27.422  27.567  1.00  0.00     0.012 A 
ATOM     66  C   UNL A   1      47.194  27.968  25.334  1.00  0.00     0.148 A 
ATOM     67  C   UNL A   1      49.179  26.928  27.035  1.00  0.00     0.002 A 
ATOM     68  C   UNL A   1      48.363  27.429  24.807  1.00  0.00     0.091 A 
ATOM     69  F   UNL A   1      46.250  28.508  24.552  1.00  0.00    -0.205 F 
ATOM     70  C   UNL A   1      49.361  26.922  25.655  1.00  0.00     0.022 A 
BRANCH  68  71
ATOM     71  S   UNL A   1      48.659  27.302  23.040  1.00  0.00     0.127 S 
ATOM     72  O   UNL A   1      48.289  25.911  22.778  1.00  0.00    -0.237 OA
ATOM     73  O   UNL A   1      47.727  28.292  22.498  1.00  0.00    -0.237 OA
ATOM     74  O   UNL A   1      50.066  27.624  22.845  1.00  0.00    -0.744 OA
ENDBRANCH  68  71
ENDBRANCH  50  64
BRANCH  51  75
ATOM     75  C   UNL A   1      38.483  30.896  31.064  1.00  0.00     0.023 A 
ATOM     76  C   UNL A   1      38.361  30.697  32.454  1.00  0.00     0.012 A 
ATOM     77  C   UNL A   1      37.433  31.523  30.368  1.00  0.00     0.148 A 
ATOM     78  C   UNL A   1      37.205  31.084  33.132  1.00  0.00     0.002 A 
ATOM     79  C   UNL A   1      36.305  31.955  31.058  1.00  0.00     0.091 A 
ATOM     80  F   UNL A   1      37.560  31.694  29.044  1.00  0.00    -0.205 F 
ATOM     81  C   UNL A   1      36.181  31.721  32.437  1.00  0.00     0.022 A 
BRANCH  79  82
ATOM     82  S   UNL A   1      34.998  32.903  30.269  1.00  0.00     0.127 S 
ATOM     83  O   UNL A   1      34.102  33.170  31.390  1.00  0.00    -0.237 OA
ATOM     84  O   UNL A   1      35.728  34.070  29.770  1.00  0.00    -0.237 OA
ATOM     85  O   UNL A   1      34.469  32.039  29.221  1.00  0.00    -0.744 OA
ENDBRANCH  79  82
ENDBRANCH  51  75
BRANCH  63  86
ATOM     86  C   UNL A   1      44.544  34.073  29.676  1.00  0.00     0.023 A 
ATOM     87  C   UNL A   1      45.175  34.350  30.905  1.00  0.00     0.012 A 
ATOM     88  C   UNL A   1      44.476  35.077  28.690  1.00  0.00     0.148 A 
ATOM     89  C   UNL A   1      45.703  35.615  31.160  1.00  0.00     0.002 A 
ATOM     90  C   UNL A   1      45.047  36.320  28.934  1.00  0.00     0.091 A 
ATOM     91  F   UNL A   1      43.853  34.799  27.535  1.00  0.00    -0.205 F 
ATOM     92  C   UNL A   1      45.650  36.595  30.171  1.00  0.00     0.022 A 
BRANCH  90  93
ATOM     93  S   UNL A   1      45.109  37.607  27.680  1.00  0.00     0.127 S 
ATOM     94  O   UNL A   1      43.690  37.856  27.438  1.00  0.00    -0.237 OA
ATOM     95  O   UNL A   1      45.809  38.687  28.376  1.00  0.00    -0.237 OA
ATOM     96  O   UNL A   1      45.847  37.036  26.562  1.00  0.00    -0.744 OA
ENDBRANCH  90  93
ENDBRANCH  63  86
ENDBRANCH  37  38
ENDBRANCH  29  32
ENDBRANCH  27  28
ENDBRANCH  26  27
ENDBRANCH   1  26
TORSDOF 19
ENDMDL
