MODEL 1
REMARK VINA RESULT:     -11.5      0.000      0.000
REMARK SMILES [NH3+][C@H]1C=C[C@@H](C(=O)NC2(CC(=O)NCCCCNC(=O)c3ccc(-c4c5nc(c(-c6cccc(S(=O)(=O)[O-])c6F)c6ccc([nH]6)c(-c6cccc(S(=O)(=O)[O-])c6F)c6nc(c(-c7cccc(S(=O)(=O)[O-])c7F)c7ccc4[nH]7)C=C6)C=C5)cc3)CCC2)C1
REMARK SMILES IDX 15 1 14 2 13 3 11 4 12 5 10 7 9 8 84 9 86 10 85 11 8 12 6 13
REMARK SMILES IDX 7 14 5 16 2 17 3 18 87 19 4 20 1 21 16 25 17 26 18 27 19 28
REMARK SMILES IDX 20 30 21 31 22 32 83 33 23 34 82 35 24 36 25 37 26 38 76 39
REMARK SMILES IDX 27 40 81 41 75 42 77 43 28 44 80 45 74 46 73 47 29 49 61 50
REMARK SMILES IDX 41 51 60 52 42 53 45 54 59 55 78 56 43 57 44 58 58 60 79 61
REMARK SMILES IDX 46 62 30 63 31 64 39 65 32 66 34 67 40 68 33 69 35 70 36 71
REMARK SMILES IDX 37 72 38 73 62 74 63 75 71 76 64 77 66 78 72 79 65 80 67 81
REMARK SMILES IDX 68 82 69 83 70 84 47 85 48 86 56 87 49 88 51 89 57 90 50 91
REMARK SMILES IDX 52 92 53 93 54 94 55 95
REMARK H PARENT 13 6 8 15 1 22 1 23 1 24 18 29 77 48 45 59
REMARK Flexibility Score: inf
ROOT
ATOM      1  C   UNL A   1      31.139  28.899  23.853  1.00  0.00     0.023 C 
ENDROOT
BRANCH   1   2
ATOM      2  C   UNL A   1      30.627  27.837  22.880  1.00  0.00     0.116 C 
BRANCH   2   3
ATOM      3  N   UNL A   1      31.692  27.407  22.000  1.00  0.00    -0.356 N 
ATOM      4  C   UNL A   1      32.262  26.176  21.895  1.00  0.00     0.222 C 
ATOM      5  O   UNL A   1      33.309  26.060  21.255  1.00  0.00    -0.275 OA
ATOM      6  H   UNL A   1      32.052  28.097  21.397  1.00  0.00     0.163 HD
BRANCH   4   7
ATOM      7  C   UNL A   1      31.631  24.961  22.541  1.00  0.00     0.128 C 
BRANCH   7   8
ATOM      8  C   UNL A   1      32.510  24.146  23.523  1.00  0.00     0.049 C 
ATOM      9  C   UNL A   1      33.449  23.151  22.767  1.00  0.00     0.029 C 
ATOM     10  C   UNL A   1      31.785  22.902  24.081  1.00  0.00     0.029 C 
ATOM     11  C   UNL A   1      32.381  22.064  22.942  1.00  0.00     0.005 C 
BRANCH   8  12
ATOM     12  N   UNL A   1      33.263  25.057  24.417  1.00  0.00    -0.350 N 
ATOM     13  C   UNL A   1      34.200  24.996  25.399  1.00  0.00     0.227 C 
ATOM     14  O   UNL A   1      34.602  26.104  25.791  1.00  0.00    -0.274 OA
ATOM     15  H   UNL A   1      33.006  25.992  24.247  1.00  0.00     0.164 HD
BRANCH  13  16
ATOM     16  C   UNL A   1      34.783  23.755  26.085  1.00  0.00     0.107 C 
ATOM     17  C   UNL A   1      34.310  21.454  26.775  1.00  0.00     0.205 C 
ATOM     18  C   UNL A   1      35.300  21.515  25.655  1.00  0.00     0.033 C 
ATOM     19  C   UNL A   1      33.776  22.894  26.853  1.00  0.00     0.087 C 
ATOM     20  C   UNL A   1      35.549  22.771  25.264  1.00  0.00    -0.012 C 
BRANCH  17  21
ATOM     21  N   UNL A   1      33.273  20.469  26.520  1.00  0.00    -0.352 N 
ATOM     22  H   UNL A   1      33.518  19.590  26.976  1.00  0.00     0.345 HD
ATOM     23  H   UNL A   1      33.188  20.317  25.514  1.00  0.00     0.345 HD
ATOM     24  H   UNL A   1      32.384  20.807  26.888  1.00  0.00     0.345 HD
ENDBRANCH  17  21
ENDBRANCH  13  16
ENDBRANCH   8  12
ENDBRANCH   7   8
ENDBRANCH   4   7
ENDBRANCH   2   3
ENDBRANCH   1   2
BRANCH   1  25
ATOM     25  C   UNL A   1      31.955  28.367  25.028  1.00  0.00     0.023 C 
BRANCH  25  26
ATOM     26  C   UNL A   1      33.069  29.295  25.485  1.00  0.00     0.116 C 
BRANCH  26  27
ATOM     27  N   UNL A   1      32.595  30.590  25.954  1.00  0.00    -0.352 N 
ATOM     28  C   UNL A   1      33.137  31.388  26.934  1.00  0.00     0.251 C 
ATOM     29  H   UNL A   1      31.785  30.937  25.515  1.00  0.00     0.163 HD
ATOM     30  O   UNL A   1      32.557  32.413  27.281  1.00  0.00    -0.269 OA
BRANCH  28  31
ATOM     31  C   UNL A   1      34.400  30.979  27.587  1.00  0.00     0.039 A 
ATOM     32  C   UNL A   1      35.385  31.942  27.823  1.00  0.00     0.014 A 
ATOM     33  C   UNL A   1      34.600  29.659  27.994  1.00  0.00     0.014 A 
ATOM     34  C   UNL A   1      36.549  31.584  28.506  1.00  0.00     0.010 A 
ATOM     35  C   UNL A   1      35.707  29.329  28.764  1.00  0.00     0.010 A 
ATOM     36  C   UNL A   1      36.709  30.279  29.002  1.00  0.00    -0.014 A 
BRANCH  36  37
ATOM     37  C   UNL A   1      37.938  29.873  29.727  1.00  0.00     0.031 A 
ATOM     38  C   UNL A   1      38.201  30.402  31.114  1.00  0.00     0.074 A 
ATOM     39  C   UNL A   1      38.853  29.095  29.116  1.00  0.00     0.049 A 
ATOM     40  N   UNL A   1      39.222  30.182  31.901  1.00  0.00    -0.248 NA
ATOM     41  C   UNL A   1      37.208  31.334  31.674  1.00  0.00     0.031 C 
ATOM     42  C   UNL A   1      38.767  28.608  27.738  1.00  0.00     0.029 A 
ATOM     43  N   UNL A   1      40.046  28.594  29.570  1.00  0.00    -0.354 N 
ATOM     44  C   UNL A   1      39.014  30.978  33.022  1.00  0.00     0.074 A 
ATOM     45  C   UNL A   1      37.800  31.725  32.792  1.00  0.00     0.031 C 
ATOM     46  C   UNL A   1      39.852  27.865  27.465  1.00  0.00     0.029 A 
ATOM     47  C   UNL A   1      40.717  27.835  28.640  1.00  0.00     0.049 A 
ATOM     48  H   UNL A   1      40.390  28.762  30.478  1.00  0.00     0.167 HD
ATOM     49  C   UNL A   1      39.743  31.050  34.161  1.00  0.00     0.034 A 
ATOM     50  C   UNL A   1      41.890  27.179  28.732  1.00  0.00     0.034 A 
ATOM     51  C   UNL A   1      40.912  30.255  34.412  1.00  0.00     0.049 A 
ATOM     52  C   UNL A   1      42.628  27.191  30.045  1.00  0.00     0.074 A 
ATOM     53  C   UNL A   1      41.669  30.173  35.567  1.00  0.00     0.029 A 
ATOM     54  N   UNL A   1      41.494  29.397  33.490  1.00  0.00    -0.354 N 
ATOM     55  N   UNL A   1      42.323  27.814  31.157  1.00  0.00    -0.248 NA
ATOM     56  C   UNL A   1      43.842  26.366  30.130  1.00  0.00     0.031 C 
ATOM     57  C   UNL A   1      42.716  29.272  35.338  1.00  0.00     0.029 A 
ATOM     58  C   UNL A   1      42.596  28.776  34.050  1.00  0.00     0.049 A 
ATOM     59  H   UNL A   1      41.169  29.250  32.573  1.00  0.00     0.167 HD
ATOM     60  C   UNL A   1      43.282  27.424  32.087  1.00  0.00     0.074 A 
ATOM     61  C   UNL A   1      44.163  26.495  31.410  1.00  0.00     0.031 C 
ATOM     62  C   UNL A   1      43.428  27.810  33.379  1.00  0.00     0.034 A 
BRANCH  49  63
ATOM     63  C   UNL A   1      39.252  31.977  35.244  1.00  0.00     0.023 A 
ATOM     64  C   UNL A   1      38.258  31.534  36.143  1.00  0.00     0.012 A 
ATOM     65  C   UNL A   1      39.788  33.270  35.394  1.00  0.00     0.148 A 
ATOM     66  C   UNL A   1      37.772  32.377  37.140  1.00  0.00     0.002 A 
ATOM     67  C   UNL A   1      39.334  34.087  36.424  1.00  0.00     0.091 A 
ATOM     68  F   UNL A   1      40.714  33.686  34.518  1.00  0.00    -0.205 F 
ATOM     69  C   UNL A   1      38.316  33.649  37.287  1.00  0.00     0.022 A 
BRANCH  67  70
ATOM     70  S   UNL A   1      40.029  35.712  36.746  1.00  0.00     0.127 S 
ATOM     71  O   UNL A   1      41.455  35.406  36.855  1.00  0.00    -0.237 OA
ATOM     72  O   UNL A   1      39.654  36.453  35.542  1.00  0.00    -0.237 OA
ATOM     73  O   UNL A   1      39.394  36.183  37.969  1.00  0.00    -0.744 OA
ENDBRANCH  67  70
ENDBRANCH  49  63
BRANCH  50  74
ATOM     74  C   UNL A   1      42.380  26.369  27.581  1.00  0.00     0.023 A 
ATOM     75  C   UNL A   1      43.246  26.960  26.640  1.00  0.00     0.012 A 
ATOM     76  C   UNL A   1      42.024  25.016  27.432  1.00  0.00     0.148 A 
ATOM     77  C   UNL A   1      43.723  26.228  25.553  1.00  0.00     0.002 A 
ATOM     78  C   UNL A   1      42.545  24.276  26.376  1.00  0.00     0.091 A 
ATOM     79  F   UNL A   1      41.194  24.474  28.335  1.00  0.00    -0.205 F 
ATOM     80  C   UNL A   1      43.381  24.885  25.426  1.00  0.00     0.022 A 
BRANCH  78  81
ATOM     81  S   UNL A   1      42.267  22.510  26.205  1.00  0.00     0.127 S 
ATOM     82  O   UNL A   1      42.838  21.997  27.448  1.00  0.00    -0.237 OA
ATOM     83  O   UNL A   1      40.807  22.442  26.124  1.00  0.00    -0.237 OA
ATOM     84  O   UNL A   1      42.954  22.120  24.983  1.00  0.00    -0.744 OA
ENDBRANCH  78  81
ENDBRANCH  50  74
BRANCH  62  85
ATOM     85  C   UNL A   1      44.553  27.193  34.167  1.00  0.00     0.023 A 
ATOM     86  C   UNL A   1      45.792  27.857  34.265  1.00  0.00     0.012 A 
ATOM     87  C   UNL A   1      44.361  25.981  34.859  1.00  0.00     0.148 A 
ATOM     88  C   UNL A   1      46.835  27.304  35.006  1.00  0.00     0.002 A 
ATOM     89  C   UNL A   1      45.389  25.463  35.638  1.00  0.00     0.091 A 
ATOM     90  F   UNL A   1      43.184  25.351  34.738  1.00  0.00    -0.205 F 
ATOM     91  C   UNL A   1      46.631  26.114  35.701  1.00  0.00     0.022 A 
BRANCH  89  92
ATOM     92  S   UNL A   1      45.170  23.989  36.642  1.00  0.00     0.127 S 
ATOM     93  O   UNL A   1      44.511  24.530  37.828  1.00  0.00    -0.237 OA
ATOM     94  O   UNL A   1      44.315  23.155  35.796  1.00  0.00    -0.237 OA
ATOM     95  O   UNL A   1      46.509  23.453  36.851  1.00  0.00    -0.744 OA
ENDBRANCH  89  92
ENDBRANCH  62  85
ENDBRANCH  36  37
ENDBRANCH  28  31
ENDBRANCH  26  27
ENDBRANCH  25  26
ENDBRANCH   1  25
TORSDOF 18
ENDMDL
MODEL 2
REMARK VINA RESULT:     -11.4      4.737      9.981
REMARK SMILES [NH3+][C@H]1C=C[C@@H](C(=O)NC2(CC(=O)NCCCCNC(=O)c3ccc(-c4c5nc(c(-c6cccc(S(=O)(=O)[O-])c6F)c6ccc([nH]6)c(-c6cccc(S(=O)(=O)[O-])c6F)c6nc(c(-c7cccc(S(=O)(=O)[O-])c7F)c7ccc4[nH]7)C=C6)C=C5)cc3)CCC2)C1
REMARK SMILES IDX 15 1 14 2 13 3 11 4 12 5 10 7 9 8 84 9 86 10 85 11 8 12 6 13
REMARK SMILES IDX 7 14 5 16 2 17 3 18 87 19 4 20 1 21 16 25 17 26 18 27 19 28
REMARK SMILES IDX 20 30 21 31 22 32 83 33 23 34 82 35 24 36 25 37 26 38 76 39
REMARK SMILES IDX 27 40 81 41 75 42 77 43 28 44 80 45 74 46 73 47 29 49 61 50
REMARK SMILES IDX 41 51 60 52 42 53 45 54 59 55 78 56 43 57 44 58 58 60 79 61
REMARK SMILES IDX 46 62 30 63 31 64 39 65 32 66 34 67 40 68 33 69 35 70 36 71
REMARK SMILES IDX 37 72 38 73 62 74 63 75 71 76 64 77 66 78 72 79 65 80 67 81
REMARK SMILES IDX 68 82 69 83 70 84 47 85 48 86 56 87 49 88 51 89 57 90 50 91
REMARK SMILES IDX 52 92 53 93 54 94 55 95
REMARK H PARENT 13 6 8 15 1 22 1 23 1 24 18 29 77 48 45 59
REMARK Flexibility Score: inf
ROOT
ATOM      1  C   UNL A   1      34.266  20.859  25.610  1.00  0.00     0.023 C 
ENDROOT
BRANCH   1   2
ATOM      2  C   UNL A   1      32.742  20.829  25.726  1.00  0.00     0.116 C 
BRANCH   2   3
ATOM      3  N   UNL A   1      32.285  21.877  26.613  1.00  0.00    -0.356 N 
ATOM      4  C   UNL A   1      31.740  23.082  26.293  1.00  0.00     0.222 C 
ATOM      5  O   UNL A   1      31.627  23.935  27.176  1.00  0.00    -0.275 OA
ATOM      6  H   UNL A   1      32.382  21.694  27.575  1.00  0.00     0.163 HD
BRANCH   4   7
ATOM      7  C   UNL A   1      31.271  23.382  24.886  1.00  0.00     0.128 C 
BRANCH   7   8
ATOM      8  C   UNL A   1      32.045  24.470  24.099  1.00  0.00     0.049 C 
ATOM      9  C   UNL A   1      32.308  24.036  22.621  1.00  0.00     0.029 C 
ATOM     10  C   UNL A   1      33.573  24.381  24.304  1.00  0.00     0.029 C 
ATOM     11  C   UNL A   1      33.673  23.491  23.059  1.00  0.00     0.005 C 
BRANCH   8  12
ATOM     12  N   UNL A   1      31.337  25.769  24.184  1.00  0.00    -0.350 N 
ATOM     13  C   UNL A   1      31.377  26.920  24.905  1.00  0.00     0.227 C 
ATOM     14  O   UNL A   1      30.594  27.799  24.508  1.00  0.00    -0.274 OA
ATOM     15  H   UNL A   1      30.619  25.812  23.512  1.00  0.00     0.164 HD
BRANCH  13  16
ATOM     16  C   UNL A   1      32.229  27.244  26.138  1.00  0.00     0.107 C 
ATOM     17  C   UNL A   1      33.968  28.722  27.024  1.00  0.00     0.205 C 
ATOM     18  C   UNL A   1      32.638  28.972  27.660  1.00  0.00     0.033 C 
ATOM     19  C   UNL A   1      33.627  27.795  25.844  1.00  0.00     0.087 C 
ATOM     20  C   UNL A   1      31.681  28.176  27.167  1.00  0.00    -0.012 C 
BRANCH  17  21
ATOM     21  N   UNL A   1      34.607  29.961  26.616  1.00  0.00    -0.352 N 
ATOM     22  H   UNL A   1      35.044  29.835  25.703  1.00  0.00     0.345 HD
ATOM     23  H   UNL A   1      35.320  30.217  27.300  1.00  0.00     0.345 HD
ATOM     24  H   UNL A   1      33.909  30.702  26.559  1.00  0.00     0.345 HD
ENDBRANCH  17  21
ENDBRANCH  13  16
ENDBRANCH   8  12
ENDBRANCH   7   8
ENDBRANCH   4   7
ENDBRANCH   2   3
ENDBRANCH   1   2
BRANCH   1  25
ATOM     25  C   UNL A   1      34.969  21.866  26.518  1.00  0.00     0.023 C 
BRANCH  25  26
ATOM     26  C   UNL A   1      36.312  22.348  25.992  1.00  0.00     0.116 C 
BRANCH  26  27
ATOM     27  N   UNL A   1      37.289  21.281  25.823  1.00  0.00    -0.352 N 
ATOM     28  C   UNL A   1      38.653  21.346  25.990  1.00  0.00     0.251 C 
ATOM     29  H   UNL A   1      36.929  20.405  25.556  1.00  0.00     0.163 HD
ATOM     30  O   UNL A   1      39.352  20.376  25.711  1.00  0.00    -0.269 OA
BRANCH  28  31
ATOM     31  C   UNL A   1      39.267  22.604  26.469  1.00  0.00     0.039 A 
ATOM     32  C   UNL A   1      40.296  22.541  27.412  1.00  0.00     0.014 A 
ATOM     33  C   UNL A   1      38.852  23.839  25.967  1.00  0.00     0.014 A 
ATOM     34  C   UNL A   1      40.934  23.715  27.815  1.00  0.00     0.010 A 
ATOM     35  C   UNL A   1      39.556  24.991  26.289  1.00  0.00     0.010 A 
ATOM     36  C   UNL A   1      40.584  24.948  27.240  1.00  0.00    -0.014 A 
BRANCH  36  37
ATOM     37  C   UNL A   1      41.245  26.210  27.654  1.00  0.00     0.031 A 
ATOM     38  C   UNL A   1      42.682  26.464  27.279  1.00  0.00     0.074 A 
ATOM     39  C   UNL A   1      40.584  27.091  28.430  1.00  0.00     0.049 A 
ATOM     40  N   UNL A   1      43.440  27.491  27.562  1.00  0.00    -0.248 NA
ATOM     41  C   UNL A   1      43.373  25.406  26.521  1.00  0.00     0.031 C 
ATOM     42  C   UNL A   1      39.227  26.911  28.952  1.00  0.00     0.029 A 
ATOM     43  N   UNL A   1      40.972  28.306  28.933  1.00  0.00    -0.354 N 
ATOM     44  C   UNL A   1      44.699  27.185  27.058  1.00  0.00     0.074 A 
ATOM     45  C   UNL A   1      44.618  25.855  26.500  1.00  0.00     0.031 C 
ATOM     46  C   UNL A   1      38.891  27.984  29.687  1.00  0.00     0.029 A 
ATOM     47  C   UNL A   1      40.011  28.920  29.701  1.00  0.00     0.049 A 
ATOM     48  H   UNL A   1      41.857  28.702  28.760  1.00  0.00     0.167 HD
ATOM     49  C   UNL A   1      45.812  27.954  27.022  1.00  0.00     0.034 A 
ATOM     50  C   UNL A   1      40.028  30.109  30.334  1.00  0.00     0.034 A 
ATOM     51  C   UNL A   1      45.867  29.301  27.519  1.00  0.00     0.049 A 
ATOM     52  C   UNL A   1      41.240  30.991  30.191  1.00  0.00     0.074 A 
ATOM     53  C   UNL A   1      46.910  30.206  27.445  1.00  0.00     0.029 A 
ATOM     54  N   UNL A   1      44.829  29.939  28.181  1.00  0.00    -0.354 N 
ATOM     55  N   UNL A   1      42.364  30.753  29.560  1.00  0.00    -0.248 NA
ATOM     56  C   UNL A   1      41.165  32.325  30.803  1.00  0.00     0.031 C 
ATOM     57  C   UNL A   1      46.506  31.389  28.074  1.00  0.00     0.029 A 
ATOM     58  C   UNL A   1      45.202  31.228  28.517  1.00  0.00     0.049 A 
ATOM     59  H   UNL A   1      43.955  29.534  28.381  1.00  0.00     0.167 HD
ATOM     60  C   UNL A   1      43.113  31.920  29.660  1.00  0.00     0.074 A 
ATOM     61  C   UNL A   1      42.304  32.870  30.396  1.00  0.00     0.031 C 
ATOM     62  C   UNL A   1      44.362  32.179  29.198  1.00  0.00     0.034 A 
BRANCH  49  63
ATOM     63  C   UNL A   1      47.039  27.374  26.365  1.00  0.00     0.023 A 
ATOM     64  C   UNL A   1      47.251  27.577  24.985  1.00  0.00     0.012 A 
ATOM     65  C   UNL A   1      47.994  26.657  27.110  1.00  0.00     0.148 A 
ATOM     66  C   UNL A   1      48.367  27.035  24.348  1.00  0.00     0.002 A 
ATOM     67  C   UNL A   1      49.129  26.162  26.478  1.00  0.00     0.091 A 
ATOM     68  F   UNL A   1      47.766  26.452  28.416  1.00  0.00    -0.205 F 
ATOM     69  C   UNL A   1      49.309  26.337  25.096  1.00  0.00     0.022 A 
BRANCH  67  70
ATOM     70  S   UNL A   1      50.443  25.320  27.369  1.00  0.00     0.127 S 
ATOM     71  O   UNL A   1      50.831  26.333  28.349  1.00  0.00    -0.237 OA
ATOM     72  O   UNL A   1      49.743  24.165  27.931  1.00  0.00    -0.237 OA
ATOM     73  O   UNL A   1      51.454  24.990  26.374  1.00  0.00    -0.744 OA
ENDBRANCH  67  70
ENDBRANCH  49  63
BRANCH  50  74
ATOM     74  C   UNL A   1      38.817  30.577  31.067  1.00  0.00     0.023 A 
ATOM     75  C   UNL A   1      38.763  30.442  32.468  1.00  0.00     0.012 A 
ATOM     76  C   UNL A   1      37.742  31.185  30.393  1.00  0.00     0.148 A 
ATOM     77  C   UNL A   1      37.645  30.872  33.182  1.00  0.00     0.002 A 
ATOM     78  C   UNL A   1      36.654  31.661  31.116  1.00  0.00     0.091 A 
ATOM     79  F   UNL A   1      37.811  31.300  29.059  1.00  0.00    -0.205 F 
ATOM     80  C   UNL A   1      36.595  31.490  32.508  1.00  0.00     0.022 A 
BRANCH  78  81
ATOM     81  S   UNL A   1      35.317  32.587  30.351  1.00  0.00     0.127 S 
ATOM     82  O   UNL A   1      35.997  33.815  29.949  1.00  0.00    -0.237 OA
ATOM     83  O   UNL A   1      34.934  31.705  29.247  1.00  0.00    -0.237 OA
ATOM     84  O   UNL A   1      34.301  32.733  31.382  1.00  0.00    -0.744 OA
ENDBRANCH  78  81
ENDBRANCH  50  74
BRANCH  62  85
ATOM     85  C   UNL A   1      44.917  33.560  29.428  1.00  0.00     0.023 A 
ATOM     86  C   UNL A   1      45.622  33.847  30.614  1.00  0.00     0.012 A 
ATOM     87  C   UNL A   1      44.789  34.556  28.441  1.00  0.00     0.148 A 
ATOM     88  C   UNL A   1      46.156  35.117  30.830  1.00  0.00     0.002 A 
ATOM     89  C   UNL A   1      45.368  35.803  28.641  1.00  0.00     0.091 A 
ATOM     90  F   UNL A   1      44.097  34.272  27.328  1.00  0.00    -0.205 F 
ATOM     91  C   UNL A   1      46.039  36.091  29.841  1.00  0.00     0.022 A 
BRANCH  89  92
ATOM     92  S   UNL A   1      45.349  37.075  27.374  1.00  0.00     0.127 S 
ATOM     93  O   UNL A   1      43.917  37.300  27.196  1.00  0.00    -0.237 OA
ATOM     94  O   UNL A   1      46.063  38.177  28.021  1.00  0.00    -0.237 OA
ATOM     95  O   UNL A   1      46.047  36.502  26.230  1.00  0.00    -0.744 OA
ENDBRANCH  89  92
ENDBRANCH  62  85
ENDBRANCH  36  37
ENDBRANCH  28  31
ENDBRANCH  26  27
ENDBRANCH  25  26
ENDBRANCH   1  25
TORSDOF 18
ENDMDL
MODEL 3
REMARK VINA RESULT:     -11.4      2.158      2.955
REMARK SMILES [NH3+][C@H]1C=C[C@@H](C(=O)NC2(CC(=O)NCCCCNC(=O)c3ccc(-c4c5nc(c(-c6cccc(S(=O)(=O)[O-])c6F)c6ccc([nH]6)c(-c6cccc(S(=O)(=O)[O-])c6F)c6nc(c(-c7cccc(S(=O)(=O)[O-])c7F)c7ccc4[nH]7)C=C6)C=C5)cc3)CCC2)C1
REMARK SMILES IDX 15 1 14 2 13 3 11 4 12 5 10 7 9 8 84 9 86 10 85 11 8 12 6 13
REMARK SMILES IDX 7 14 5 16 2 17 3 18 87 19 4 20 1 21 16 25 17 26 18 27 19 28
REMARK SMILES IDX 20 30 21 31 22 32 83 33 23 34 82 35 24 36 25 37 26 38 76 39
REMARK SMILES IDX 27 40 81 41 75 42 77 43 28 44 80 45 74 46 73 47 29 49 61 50
REMARK SMILES IDX 41 51 60 52 42 53 45 54 59 55 78 56 43 57 44 58 58 60 79 61
REMARK SMILES IDX 46 62 30 63 31 64 39 65 32 66 34 67 40 68 33 69 35 70 36 71
REMARK SMILES IDX 37 72 38 73 62 74 63 75 71 76 64 77 66 78 72 79 65 80 67 81
REMARK SMILES IDX 68 82 69 83 70 84 47 85 48 86 56 87 49 88 51 89 57 90 50 91
REMARK SMILES IDX 52 92 53 93 54 94 55 95
REMARK H PARENT 13 6 8 15 1 22 1 23 1 24 18 29 77 48 45 59
REMARK Flexibility Score: inf
ROOT
ATOM      1  C   UNL A   1      33.582  28.486  23.823  1.00  0.00     0.023 C 
ENDROOT
BRANCH   1   2
ATOM      2  C   UNL A   1      32.609  28.445  22.646  1.00  0.00     0.116 C 
BRANCH   2   3
ATOM      3  N   UNL A   1      32.990  27.404  21.716  1.00  0.00    -0.356 N 
ATOM      4  C   UNL A   1      32.687  26.077  21.754  1.00  0.00     0.222 C 
ATOM      5  O   UNL A   1      33.292  25.309  21.004  1.00  0.00    -0.275 OA
ATOM      6  H   UNL A   1      33.541  27.693  20.954  1.00  0.00     0.163 HD
BRANCH   4   7
ATOM      7  C   UNL A   1      31.626  25.542  22.691  1.00  0.00     0.128 C 
BRANCH   7   8
ATOM      8  C   UNL A   1      31.981  24.275  23.511  1.00  0.00     0.049 C 
ATOM      9  C   UNL A   1      31.036  24.103  24.745  1.00  0.00     0.029 C 
ATOM     10  C   UNL A   1      33.118  24.520  24.526  1.00  0.00     0.029 C 
ATOM     11  C   UNL A   1      32.070  24.850  25.597  1.00  0.00     0.005 C 
BRANCH   8  12
ATOM     12  N   UNL A   1      31.982  23.080  22.636  1.00  0.00    -0.350 N 
ATOM     13  C   UNL A   1      32.161  21.736  22.726  1.00  0.00     0.227 C 
ATOM     14  O   UNL A   1      31.954  21.121  21.666  1.00  0.00    -0.274 OA
ATOM     15  H   UNL A   1      31.795  23.338  21.704  1.00  0.00     0.164 HD
BRANCH  13  16
ATOM     16  C   UNL A   1      32.609  20.913  23.939  1.00  0.00     0.107 C 
ATOM     17  C   UNL A   1      33.651  18.813  24.645  1.00  0.00     0.205 C 
ATOM     18  C   UNL A   1      34.533  19.993  24.901  1.00  0.00     0.033 C 
ATOM     19  C   UNL A   1      32.528  19.393  23.768  1.00  0.00     0.087 C 
ATOM     20  C   UNL A   1      33.974  21.142  24.501  1.00  0.00    -0.012 C 
BRANCH  17  21
ATOM     21  N   UNL A   1      34.378  17.729  24.006  1.00  0.00    -0.352 N 
ATOM     22  H   UNL A   1      33.987  16.835  24.302  1.00  0.00     0.345 HD
ATOM     23  H   UNL A   1      35.362  17.775  24.275  1.00  0.00     0.345 HD
ATOM     24  H   UNL A   1      34.299  17.817  22.993  1.00  0.00     0.345 HD
ENDBRANCH  17  21
ENDBRANCH  13  16
ENDBRANCH   8  12
ENDBRANCH   7   8
ENDBRANCH   4   7
ENDBRANCH   2   3
ENDBRANCH   1   2
BRANCH   1  25
ATOM     25  C   UNL A   1      32.958  28.234  25.193  1.00  0.00     0.023 C 
BRANCH  25  26
ATOM     26  C   UNL A   1      33.845  28.626  26.364  1.00  0.00     0.116 C 
BRANCH  26  27
ATOM     27  N   UNL A   1      33.681  30.011  26.783  1.00  0.00    -0.352 N 
ATOM     28  C   UNL A   1      34.515  30.762  27.578  1.00  0.00     0.251 C 
ATOM     29  H   UNL A   1      32.871  30.466  26.457  1.00  0.00     0.163 HD
ATOM     30  O   UNL A   1      34.182  31.892  27.921  1.00  0.00    -0.269 OA
BRANCH  28  31
ATOM     31  C   UNL A   1      35.794  30.180  28.043  1.00  0.00     0.039 A 
ATOM     32  C   UNL A   1      36.913  30.246  27.209  1.00  0.00     0.014 A 
ATOM     33  C   UNL A   1      35.895  29.598  29.308  1.00  0.00     0.014 A 
ATOM     34  C   UNL A   1      38.142  29.769  27.667  1.00  0.00     0.010 A 
ATOM     35  C   UNL A   1      37.138  29.221  29.800  1.00  0.00     0.010 A 
ATOM     36  C   UNL A   1      38.269  29.272  28.976  1.00  0.00    -0.014 A 
BRANCH  36  37
ATOM     37  C   UNL A   1      39.564  28.755  29.484  1.00  0.00     0.031 A 
ATOM     38  C   UNL A   1      40.246  29.442  30.639  1.00  0.00     0.074 A 
ATOM     39  C   UNL A   1      40.164  27.721  28.864  1.00  0.00     0.049 A 
ATOM     40  N   UNL A   1      41.386  29.157  31.213  1.00  0.00    -0.248 NA
ATOM     41  C   UNL A   1      39.581  30.634  31.196  1.00  0.00     0.031 C 
ATOM     42  C   UNL A   1      39.660  27.039  27.669  1.00  0.00     0.029 A 
ATOM     43  N   UNL A   1      41.341  27.074  29.141  1.00  0.00    -0.354 N 
ATOM     44  C   UNL A   1      41.592  30.152  32.162  1.00  0.00     0.074 A 
ATOM     45  C   UNL A   1      40.489  31.078  32.051  1.00  0.00     0.031 C 
ATOM     46  C   UNL A   1      40.513  26.061  27.327  1.00  0.00     0.029 A 
ATOM     47  C   UNL A   1      41.631  26.054  28.266  1.00  0.00     0.049 A 
ATOM     48  H   UNL A   1      41.924  27.318  29.896  1.00  0.00     0.167 HD
ATOM     49  C   UNL A   1      42.587  30.265  33.074  1.00  0.00     0.034 A 
ATOM     50  C   UNL A   1      42.674  25.202  28.234  1.00  0.00     0.034 A 
ATOM     51  C   UNL A   1      43.644  29.305  33.224  1.00  0.00     0.049 A 
ATOM     52  C   UNL A   1      43.712  25.283  29.322  1.00  0.00     0.074 A 
ATOM     53  C   UNL A   1      44.645  29.266  34.177  1.00  0.00     0.029 A 
ATOM     54  N   UNL A   1      43.836  28.208  32.396  1.00  0.00    -0.354 N 
ATOM     55  N   UNL A   1      43.797  26.129  30.320  1.00  0.00    -0.248 NA
ATOM     56  C   UNL A   1      44.766  24.259  29.310  1.00  0.00     0.031 C 
ATOM     57  C   UNL A   1      45.450  28.150  33.918  1.00  0.00     0.029 A 
ATOM     58  C   UNL A   1      44.934  27.482  32.818  1.00  0.00     0.049 A 
ATOM     59  H   UNL A   1      43.271  27.980  31.623  1.00  0.00     0.167 HD
ATOM     60  C   UNL A   1      44.887  25.715  31.079  1.00  0.00     0.074 A 
ATOM     61  C   UNL A   1      45.415  24.530  30.434  1.00  0.00     0.031 C 
ATOM     62  C   UNL A   1      45.411  26.272  32.199  1.00  0.00     0.034 A 
BRANCH  49  63
ATOM     63  C   UNL A   1      42.533  31.437  34.021  1.00  0.00     0.023 A 
ATOM     64  C   UNL A   1      43.220  32.626  33.696  1.00  0.00     0.012 A 
ATOM     65  C   UNL A   1      41.785  31.378  35.212  1.00  0.00     0.148 A 
ATOM     66  C   UNL A   1      43.204  33.718  34.562  1.00  0.00     0.002 A 
ATOM     67  C   UNL A   1      41.733  32.489  36.046  1.00  0.00     0.091 A 
ATOM     68  F   UNL A   1      41.157  30.233  35.518  1.00  0.00    -0.205 F 
ATOM     69  C   UNL A   1      42.453  33.653  35.731  1.00  0.00     0.022 A 
BRANCH  67  70
ATOM     70  S   UNL A   1      40.727  32.533  37.534  1.00  0.00     0.127 S 
ATOM     71  O   UNL A   1      41.567  31.801  38.480  1.00  0.00    -0.237 OA
ATOM     72  O   UNL A   1      40.624  33.969  37.794  1.00  0.00    -0.237 OA
ATOM     73  O   UNL A   1      39.468  31.890  37.185  1.00  0.00    -0.744 OA
ENDBRANCH  67  70
ENDBRANCH  49  63
BRANCH  50  74
ATOM     74  C   UNL A   1      42.727  24.132  27.197  1.00  0.00     0.023 A 
ATOM     75  C   UNL A   1      43.625  24.259  26.120  1.00  0.00     0.012 A 
ATOM     76  C   UNL A   1      41.924  22.980  27.290  1.00  0.00     0.148 A 
ATOM     77  C   UNL A   1      43.700  23.273  25.135  1.00  0.00     0.002 A 
ATOM     78  C   UNL A   1      42.042  21.977  26.335  1.00  0.00     0.091 A 
ATOM     79  F   UNL A   1      41.072  22.881  28.320  1.00  0.00    -0.205 F 
ATOM     80  C   UNL A   1      42.916  22.129  25.248  1.00  0.00     0.022 A 
BRANCH  78  81
ATOM     81  S   UNL A   1      41.170  20.411  26.468  1.00  0.00     0.127 S 
ATOM     82  O   UNL A   1      41.468  20.020  27.843  1.00  0.00    -0.237 OA
ATOM     83  O   UNL A   1      39.784  20.817  26.229  1.00  0.00    -0.237 OA
ATOM     84  O   UNL A   1      41.733  19.559  25.430  1.00  0.00    -0.744 OA
ENDBRANCH  78  81
ENDBRANCH  50  74
BRANCH  62  85
ATOM     85  C   UNL A   1      46.590  25.582  32.833  1.00  0.00     0.023 A 
ATOM     86  C   UNL A   1      47.900  25.993  32.517  1.00  0.00     0.012 A 
ATOM     87  C   UNL A   1      46.395  24.564  33.787  1.00  0.00     0.148 A 
ATOM     88  C   UNL A   1      48.999  25.373  33.112  1.00  0.00     0.002 A 
ATOM     89  C   UNL A   1      47.493  23.987  34.413  1.00  0.00     0.091 A 
ATOM     90  F   UNL A   1      45.142  24.170  34.059  1.00  0.00    -0.205 F 
ATOM     91  C   UNL A   1      48.796  24.379  34.066  1.00  0.00     0.022 A 
BRANCH  89  92
ATOM     92  S   UNL A   1      47.310  22.774  35.724  1.00  0.00     0.127 S 
ATOM     93  O   UNL A   1      46.705  21.651  35.012  1.00  0.00    -0.237 OA
ATOM     94  O   UNL A   1      48.695  22.553  36.145  1.00  0.00    -0.237 OA
ATOM     95  O   UNL A   1      46.473  23.408  36.734  1.00  0.00    -0.744 OA
ENDBRANCH  89  92
ENDBRANCH  62  85
ENDBRANCH  36  37
ENDBRANCH  28  31
ENDBRANCH  26  27
ENDBRANCH  25  26
ENDBRANCH   1  25
TORSDOF 18
ENDMDL
