MODEL 1
REMARK VINA RESULT:     -13.2      0.000      0.000
REMARK SMILES O=C(NCCCCNC(=O)c1ccc(-c2c3nc(c(-c4cccc(S(=O)(=O)[O-])c4F)c4ccc([nH]4)c(-c4cccc(S(=O)(=O)[O-])c4F)c4nc(c(-c5cccc(S(=O)(=O)[O-])c5F)c5ccc2[nH]5)C=C4)C=C3)cc1)c1ccc(/C=C/c2ccc3cccc(O)c3n2)cc1
REMARK SMILES IDX 5 1 4 2 3 3 1 4 2 5 74 7 75 8 92 9 76 10 91 11 77 12 78 13
REMARK SMILES IDX 79 14 80 15 81 16 90 17 82 18 89 19 83 20 87 21 84 22 86 23
REMARK SMILES IDX 85 24 88 25 6 27 7 28 8 29 9 30 10 32 11 33 12 34 73 35
REMARK SMILES IDX 13 36 72 37 14 38 15 39 16 40 66 41 17 42 71 43 65 44 67 45
REMARK SMILES IDX 18 46 70 47 64 48 63 49 19 51 51 52 31 53 50 54 32 55 35 56
REMARK SMILES IDX 49 57 68 58 33 59 34 60 48 62 69 63 36 64 20 65 21 66 29 67
REMARK SMILES IDX 22 68 24 69 30 70 23 71 25 72 26 73 27 74 28 75 52 76 53 77
REMARK SMILES IDX 61 78 54 79 56 80 62 81 55 82 57 83 58 84 59 85 60 86 37 87
REMARK SMILES IDX 38 88 46 89 39 90 41 91 47 92 40 93 42 94 43 95 44 96 45 97
REMARK H PARENT 3 6 88 26 8 31 67 50 35 61
REMARK Flexibility Score: inf
ROOT
ATOM      1  C   UNL A   1      31.095  31.350  25.790  1.00  0.00     0.023 C 
ENDROOT
BRANCH   1   2
ATOM      2  C   UNL A   1      31.318  30.041  25.034  1.00  0.00     0.116 C 
BRANCH   2   3
ATOM      3  N   UNL A   1      30.686  30.043  23.727  1.00  0.00    -0.352 N 
ATOM      4  O   UNL A   1      30.063  29.229  21.723  1.00  0.00    -0.269 OA
ATOM      5  C   UNL A   1      30.475  29.007  22.856  1.00  0.00     0.251 C 
ATOM      6  H   UNL A   1      30.361  30.920  23.421  1.00  0.00     0.163 HD
BRANCH   5   7
ATOM      7  C   UNL A   1      30.765  27.612  23.251  1.00  0.00     0.039 A 
ATOM      8  C   UNL A   1      29.814  26.796  23.878  1.00  0.00     0.014 A 
ATOM      9  C   UNL A   1      32.007  27.089  22.899  1.00  0.00     0.014 A 
ATOM     10  C   UNL A   1      30.124  25.463  24.192  1.00  0.00     0.009 A 
ATOM     11  C   UNL A   1      32.306  25.763  23.206  1.00  0.00     0.009 A 
ATOM     12  C   UNL A   1      31.373  24.932  23.856  1.00  0.00    -0.026 A 
BRANCH  12  13
ATOM     13  C   UNL A   1      31.837  23.585  24.211  1.00  0.00     0.010 C 
ATOM     14  C   UNL A   1      32.182  22.534  23.437  1.00  0.00     0.029 C 
BRANCH  14  15
ATOM     15  C   UNL A   1      32.046  21.225  24.128  1.00  0.00     0.064 A 
ATOM     16  C   UNL A   1      32.722  21.213  25.345  1.00  0.00     0.029 A 
ATOM     17  N   UNL A   1      31.941  20.128  23.336  1.00  0.00    -0.245 NA
ATOM     18  C   UNL A   1      33.658  20.209  25.537  1.00  0.00     0.013 A 
ATOM     19  C   UNL A   1      32.780  19.096  23.598  1.00  0.00     0.113 A 
ATOM     20  C   UNL A   1      33.757  19.171  24.607  1.00  0.00     0.004 A 
ATOM     21  C   UNL A   1      32.750  17.930  22.834  1.00  0.00     0.141 A 
ATOM     22  C   UNL A   1      34.802  18.232  24.656  1.00  0.00     0.010 A 
ATOM     23  C   UNL A   1      33.735  16.948  22.926  1.00  0.00     0.048 A 
ATOM     24  C   UNL A   1      34.803  17.136  23.797  1.00  0.00     0.005 A 
BRANCH  21  25
ATOM     25  O   UNL A   1      31.712  17.718  21.958  1.00  0.00    -0.506 OA
ATOM     26  H   UNL A   1      31.860  17.772  21.034  1.00  0.00     0.293 HD
ENDBRANCH  21  25
ENDBRANCH  14  15
ENDBRANCH  12  13
ENDBRANCH   5   7
ENDBRANCH   2   3
ENDBRANCH   1   2
BRANCH   1  27
ATOM     27  C   UNL A   1      31.804  31.465  27.140  1.00  0.00     0.023 C 
BRANCH  27  28
ATOM     28  C   UNL A   1      32.991  32.421  27.188  1.00  0.00     0.116 C 
BRANCH  28  29
ATOM     29  N   UNL A   1      32.614  33.786  27.531  1.00  0.00    -0.352 N 
ATOM     30  C   UNL A   1      33.121  34.613  28.506  1.00  0.00     0.251 C 
ATOM     31  H   UNL A   1      31.892  34.172  26.986  1.00  0.00     0.163 HD
ATOM     32  O   UNL A   1      32.585  35.696  28.725  1.00  0.00    -0.269 OA
BRANCH  30  33
ATOM     33  C   UNL A   1      34.287  34.184  29.310  1.00  0.00     0.039 A 
ATOM     34  C   UNL A   1      34.066  33.488  30.502  1.00  0.00     0.014 A 
ATOM     35  C   UNL A   1      35.591  34.446  28.883  1.00  0.00     0.014 A 
ATOM     36  C   UNL A   1      35.154  32.991  31.226  1.00  0.00     0.010 A 
ATOM     37  C   UNL A   1      36.668  33.880  29.560  1.00  0.00     0.010 A 
ATOM     38  C   UNL A   1      36.462  33.146  30.738  1.00  0.00    -0.014 A 
BRANCH  38  39
ATOM     39  C   UNL A   1      37.622  32.525  31.431  1.00  0.00     0.031 A 
ATOM     40  C   UNL A   1      38.362  31.375  30.802  1.00  0.00     0.074 A 
ATOM     41  C   UNL A   1      37.951  32.932  32.673  1.00  0.00     0.049 A 
ATOM     42  N   UNL A   1      39.360  30.676  31.280  1.00  0.00    -0.248 NA
ATOM     43  C   UNL A   1      37.903  30.934  29.476  1.00  0.00     0.031 C 
ATOM     44  C   UNL A   1      37.259  33.977  33.431  1.00  0.00     0.029 A 
ATOM     45  N   UNL A   1      38.933  32.498  33.530  1.00  0.00    -0.354 N 
ATOM     46  C   UNL A   1      39.623  29.693  30.334  1.00  0.00     0.074 A 
ATOM     47  C   UNL A   1      38.654  29.862  29.272  1.00  0.00     0.031 C 
ATOM     48  C   UNL A   1      37.837  34.105  34.634  1.00  0.00     0.029 A 
ATOM     49  C   UNL A   1      38.919  33.132  34.751  1.00  0.00     0.049 A 
ATOM     50  H   UNL A   1      39.585  31.800  33.293  1.00  0.00     0.167 HD
ATOM     51  C   UNL A   1      40.597  28.751  30.333  1.00  0.00     0.034 A 
ATOM     52  C   UNL A   1      39.682  32.945  35.846  1.00  0.00     0.034 A 
ATOM     53  C   UNL A   1      41.577  28.605  31.376  1.00  0.00     0.049 A 
ATOM     54  C   UNL A   1      40.780  31.919  35.809  1.00  0.00     0.074 A 
ATOM     55  C   UNL A   1      42.661  27.747  31.424  1.00  0.00     0.029 A 
ATOM     56  N   UNL A   1      41.582  29.321  32.564  1.00  0.00    -0.354 N 
ATOM     57  N   UNL A   1      41.119  31.110  34.836  1.00  0.00    -0.248 NA
ATOM     58  C   UNL A   1      41.624  31.804  37.008  1.00  0.00     0.031 C 
ATOM     59  C   UNL A   1      43.302  27.919  32.655  1.00  0.00     0.029 A 
ATOM     60  C   UNL A   1      42.641  28.913  33.359  1.00  0.00     0.049 A 
ATOM     61  H   UNL A   1      40.931  30.017  32.806  1.00  0.00     0.167 HD
ATOM     62  C   UNL A   1      42.235  30.413  35.288  1.00  0.00     0.074 A 
ATOM     63  C   UNL A   1      42.525  30.912  36.618  1.00  0.00     0.031 C 
ATOM     64  C   UNL A   1      42.947  29.442  34.664  1.00  0.00     0.034 A 
BRANCH  51  65
ATOM     65  C   UNL A   1      40.670  27.828  29.142  1.00  0.00     0.023 A 
ATOM     66  C   UNL A   1      39.819  26.705  29.074  1.00  0.00     0.012 A 
ATOM     67  C   UNL A   1      41.551  28.089  28.075  1.00  0.00     0.148 A 
ATOM     68  C   UNL A   1      39.879  25.831  27.989  1.00  0.00     0.002 A 
ATOM     69  C   UNL A   1      41.569  27.241  26.974  1.00  0.00     0.091 A 
ATOM     70  F   UNL A   1      42.368  29.149  28.163  1.00  0.00    -0.205 F 
ATOM     71  C   UNL A   1      40.746  26.103  26.936  1.00  0.00     0.022 A 
BRANCH  69  72
ATOM     72  S   UNL A   1      42.591  27.554  25.529  1.00  0.00     0.127 S 
ATOM     73  O   UNL A   1      42.028  28.811  25.038  1.00  0.00    -0.237 OA
ATOM     74  O   UNL A   1      43.926  27.672  26.116  1.00  0.00    -0.237 OA
ATOM     75  O   UNL A   1      42.413  26.403  24.655  1.00  0.00    -0.744 OA
ENDBRANCH  69  72
ENDBRANCH  51  65
BRANCH  52  76
ATOM     76  C   UNL A   1      39.464  33.798  37.049  1.00  0.00     0.023 A 
ATOM     77  C   UNL A   1      39.871  35.146  37.026  1.00  0.00     0.012 A 
ATOM     78  C   UNL A   1      38.814  33.294  38.192  1.00  0.00     0.148 A 
ATOM     79  C   UNL A   1      39.656  35.971  38.130  1.00  0.00     0.002 A 
ATOM     80  C   UNL A   1      38.552  34.137  39.266  1.00  0.00     0.091 A 
ATOM     81  F   UNL A   1      38.441  32.007  38.195  1.00  0.00    -0.205 F 
ATOM     82  C   UNL A   1      38.988  35.472  39.244  1.00  0.00     0.022 A 
BRANCH  80  83
ATOM     83  S   UNL A   1      37.579  33.622  40.684  1.00  0.00     0.127 S 
ATOM     84  O   UNL A   1      38.469  32.653  41.322  1.00  0.00    -0.237 OA
ATOM     85  O   UNL A   1      37.418  34.882  41.410  1.00  0.00    -0.237 OA
ATOM     86  O   UNL A   1      36.342  33.077  40.141  1.00  0.00    -0.744 OA
ENDBRANCH  80  83
ENDBRANCH  52  76
BRANCH  64  87
ATOM     87  C   UNL A   1      44.137  28.870  35.389  1.00  0.00     0.023 A 
ATOM     88  C   UNL A   1      45.412  29.448  35.219  1.00  0.00     0.012 A 
ATOM     89  C   UNL A   1      43.978  27.806  36.299  1.00  0.00     0.148 A 
ATOM     90  C   UNL A   1      46.513  28.953  35.916  1.00  0.00     0.002 A 
ATOM     91  C   UNL A   1      45.070  27.351  37.028  1.00  0.00     0.091 A 
ATOM     92  F   UNL A   1      42.761  27.257  36.434  1.00  0.00    -0.205 F 
ATOM     93  C   UNL A   1      46.341  27.914  36.828  1.00  0.00     0.022 A 
BRANCH  91  94
ATOM     94  S   UNL A   1      44.924  26.086  38.295  1.00  0.00     0.127 S 
ATOM     95  O   UNL A   1      44.171  26.788  39.333  1.00  0.00    -0.237 OA
ATOM     96  O   UNL A   1      44.173  25.039  37.601  1.00  0.00    -0.237 OA
ATOM     97  O   UNL A   1      46.285  25.716  38.654  1.00  0.00    -0.744 OA
ENDBRANCH  91  94
ENDBRANCH  64  87
ENDBRANCH  38  39
ENDBRANCH  30  33
ENDBRANCH  28  29
ENDBRANCH  27  28
ENDBRANCH   1  27
TORSDOF 17
ENDMDL
MODEL 2
REMARK VINA RESULT:     -12.8      5.764     12.346
REMARK SMILES O=C(NCCCCNC(=O)c1ccc(-c2c3nc(c(-c4cccc(S(=O)(=O)[O-])c4F)c4ccc([nH]4)c(-c4cccc(S(=O)(=O)[O-])c4F)c4nc(c(-c5cccc(S(=O)(=O)[O-])c5F)c5ccc2[nH]5)C=C4)C=C3)cc1)c1ccc(/C=C/c2ccc3cccc(O)c3n2)cc1
REMARK SMILES IDX 5 1 4 2 3 3 1 4 2 5 74 7 75 8 92 9 76 10 91 11 77 12 78 13
REMARK SMILES IDX 79 14 80 15 81 16 90 17 82 18 89 19 83 20 87 21 84 22 86 23
REMARK SMILES IDX 85 24 88 25 6 27 7 28 8 29 9 30 10 32 11 33 12 34 73 35
REMARK SMILES IDX 13 36 72 37 14 38 15 39 16 40 66 41 17 42 71 43 65 44 67 45
REMARK SMILES IDX 18 46 70 47 64 48 63 49 19 51 51 52 31 53 50 54 32 55 35 56
REMARK SMILES IDX 49 57 68 58 33 59 34 60 48 62 69 63 36 64 20 65 21 66 29 67
REMARK SMILES IDX 22 68 24 69 30 70 23 71 25 72 26 73 27 74 28 75 52 76 53 77
REMARK SMILES IDX 61 78 54 79 56 80 62 81 55 82 57 83 58 84 59 85 60 86 37 87
REMARK SMILES IDX 38 88 46 89 39 90 41 91 47 92 40 93 42 94 43 95 44 96 45 97
REMARK H PARENT 3 6 88 26 8 31 67 50 35 61
REMARK Flexibility Score: inf
ROOT
ATOM      1  C   UNL A   1      37.100  19.776  24.996  1.00  0.00     0.023 C 
ENDROOT
BRANCH   1   2
ATOM      2  C   UNL A   1      35.779  20.527  25.162  1.00  0.00     0.116 C 
BRANCH   2   3
ATOM      3  N   UNL A   1      34.630  19.641  25.115  1.00  0.00    -0.352 N 
ATOM      4  O   UNL A   1      32.456  19.060  25.153  1.00  0.00    -0.269 OA
ATOM      5  C   UNL A   1      33.297  19.942  25.021  1.00  0.00     0.251 C 
ATOM      6  H   UNL A   1      34.841  18.680  25.157  1.00  0.00     0.163 HD
BRANCH   5   7
ATOM      7  C   UNL A   1      32.846  21.330  24.788  1.00  0.00     0.039 A 
ATOM      8  C   UNL A   1      32.737  22.267  25.824  1.00  0.00     0.014 A 
ATOM      9  C   UNL A   1      32.609  21.717  23.472  1.00  0.00     0.014 A 
ATOM     10  C   UNL A   1      32.349  23.588  25.544  1.00  0.00     0.009 A 
ATOM     11  C   UNL A   1      32.231  23.031  23.199  1.00  0.00     0.009 A 
ATOM     12  C   UNL A   1      32.095  23.983  24.228  1.00  0.00    -0.026 A 
BRANCH  12  13
ATOM     13  C   UNL A   1      31.600  25.307  23.828  1.00  0.00     0.010 C 
ATOM     14  C   UNL A   1      30.435  25.935  24.090  1.00  0.00     0.029 C 
BRANCH  14  15
ATOM     15  C   UNL A   1      30.083  26.969  23.082  1.00  0.00     0.064 A 
ATOM     16  C   UNL A   1      31.180  27.761  22.754  1.00  0.00     0.029 A 
ATOM     17  N   UNL A   1      28.815  27.451  23.122  1.00  0.00    -0.245 NA
ATOM     18  C   UNL A   1      31.034  29.132  22.901  1.00  0.00     0.013 A 
ATOM     19  C   UNL A   1      28.669  28.798  23.148  1.00  0.00     0.113 A 
ATOM     20  C   UNL A   1      29.776  29.665  23.190  1.00  0.00     0.004 A 
ATOM     21  C   UNL A   1      27.405  29.385  23.196  1.00  0.00     0.141 A 
ATOM     22  C   UNL A   1      29.606  31.019  23.525  1.00  0.00     0.010 A 
ATOM     23  C   UNL A   1      27.219  30.743  23.449  1.00  0.00     0.048 A 
ATOM     24  C   UNL A   1      28.328  31.550  23.680  1.00  0.00     0.005 A 
BRANCH  21  25
ATOM     25  O   UNL A   1      26.289  28.614  22.979  1.00  0.00    -0.506 OA
ATOM     26  H   UNL A   1      25.470  28.855  23.365  1.00  0.00     0.293 HD
ENDBRANCH  21  25
ENDBRANCH  14  15
ENDBRANCH  12  13
ENDBRANCH   5   7
ENDBRANCH   2   3
ENDBRANCH   1   2
BRANCH   1  27
ATOM     27  C   UNL A   1      38.352  20.650  24.904  1.00  0.00     0.023 C 
BRANCH  27  28
ATOM     28  C   UNL A   1      39.306  20.570  26.091  1.00  0.00     0.116 C 
BRANCH  28  29
ATOM     29  N   UNL A   1      40.264  19.478  25.983  1.00  0.00    -0.352 N 
ATOM     30  C   UNL A   1      41.638  19.513  26.035  1.00  0.00     0.251 C 
ATOM     31  H   UNL A   1      39.870  18.585  25.855  1.00  0.00     0.163 HD
ATOM     32  O   UNL A   1      42.282  18.494  25.800  1.00  0.00    -0.269 OA
BRANCH  30  33
ATOM     33  C   UNL A   1      42.337  20.780  26.342  1.00  0.00     0.039 A 
ATOM     34  C   UNL A   1      42.716  21.614  25.286  1.00  0.00     0.014 A 
ATOM     35  C   UNL A   1      42.598  21.158  27.661  1.00  0.00     0.014 A 
ATOM     36  C   UNL A   1      43.290  22.859  25.558  1.00  0.00     0.010 A 
ATOM     37  C   UNL A   1      43.092  22.431  27.931  1.00  0.00     0.010 A 
ATOM     38  C   UNL A   1      43.444  23.296  26.884  1.00  0.00    -0.014 A 
BRANCH  38  39
ATOM     39  C   UNL A   1      43.943  24.662  27.194  1.00  0.00     0.031 A 
ATOM     40  C   UNL A   1      43.009  25.716  27.725  1.00  0.00     0.074 A 
ATOM     41  C   UNL A   1      45.220  24.984  26.905  1.00  0.00     0.049 A 
ATOM     42  N   UNL A   1      43.253  26.971  28.000  1.00  0.00    -0.248 NA
ATOM     43  C   UNL A   1      41.611  25.314  27.947  1.00  0.00     0.031 C 
ATOM     44  C   UNL A   1      46.205  24.082  26.306  1.00  0.00     0.029 A 
ATOM     45  N   UNL A   1      45.901  26.168  27.049  1.00  0.00    -0.354 N 
ATOM     46  C   UNL A   1      42.037  27.518  28.392  1.00  0.00     0.074 A 
ATOM     47  C   UNL A   1      41.049  26.466  28.281  1.00  0.00     0.031 C 
ATOM     48  C   UNL A   1      47.361  24.740  26.137  1.00  0.00     0.029 A 
ATOM     49  C   UNL A   1      47.195  26.120  26.583  1.00  0.00     0.049 A 
ATOM     50  H   UNL A   1      45.502  26.975  27.449  1.00  0.00     0.167 HD
ATOM     51  C   UNL A   1      41.768  28.772  28.830  1.00  0.00     0.034 A 
ATOM     52  C   UNL A   1      48.139  27.079  26.512  1.00  0.00     0.034 A 
ATOM     53  C   UNL A   1      42.759  29.806  28.968  1.00  0.00     0.049 A 
ATOM     54  C   UNL A   1      47.830  28.454  27.037  1.00  0.00     0.074 A 
ATOM     55  C   UNL A   1      42.608  31.077  29.491  1.00  0.00     0.029 A 
ATOM     56  N   UNL A   1      44.081  29.696  28.562  1.00  0.00    -0.354 N 
ATOM     57  N   UNL A   1      46.717  28.905  27.560  1.00  0.00    -0.248 NA
ATOM     58  C   UNL A   1      48.918  29.442  26.995  1.00  0.00     0.031 C 
ATOM     59  C   UNL A   1      43.829  31.748  29.371  1.00  0.00     0.029 A 
ATOM     60  C   UNL A   1      44.753  30.882  28.808  1.00  0.00     0.049 A 
ATOM     61  H   UNL A   1      44.482  28.893  28.159  1.00  0.00     0.167 HD
ATOM     62  C   UNL A   1      46.976  30.217  27.941  1.00  0.00     0.074 A 
ATOM     63  C   UNL A   1      48.361  30.481  27.605  1.00  0.00     0.031 C 
ATOM     64  C   UNL A   1      46.141  31.123  28.508  1.00  0.00     0.034 A 
BRANCH  51  65
ATOM     65  C   UNL A   1      40.347  29.079  29.229  1.00  0.00     0.023 A 
ATOM     66  C   UNL A   1      39.417  29.486  28.249  1.00  0.00     0.012 A 
ATOM     67  C   UNL A   1      39.920  28.931  30.563  1.00  0.00     0.148 A 
ATOM     68  C   UNL A   1      38.101  29.788  28.598  1.00  0.00     0.002 A 
ATOM     69  C   UNL A   1      38.594  29.186  30.894  1.00  0.00     0.091 A 
ATOM     70  F   UNL A   1      40.819  28.563  31.487  1.00  0.00    -0.205 F 
ATOM     71  C   UNL A   1      37.687  29.630  29.917  1.00  0.00     0.022 A 
BRANCH  69  72
ATOM     72  S   UNL A   1      37.944  28.930  32.549  1.00  0.00     0.127 S 
ATOM     73  O   UNL A   1      38.807  29.803  33.343  1.00  0.00    -0.237 OA
ATOM     74  O   UNL A   1      36.563  29.398  32.414  1.00  0.00    -0.237 OA
ATOM     75  O   UNL A   1      38.076  27.505  32.816  1.00  0.00    -0.744 OA
ENDBRANCH  69  72
ENDBRANCH  51  65
BRANCH  52  76
ATOM     76  C   UNL A   1      49.488  26.746  25.971  1.00  0.00     0.023 A 
ATOM     77  C   UNL A   1      50.374  25.974  26.747  1.00  0.00     0.012 A 
ATOM     78  C   UNL A   1      49.874  27.146  24.678  1.00  0.00     0.148 A 
ATOM     79  C   UNL A   1      51.632  25.628  26.254  1.00  0.00     0.002 A 
ATOM     80  C   UNL A   1      51.106  26.750  24.171  1.00  0.00     0.091 A 
ATOM     81  F   UNL A   1      49.018  27.886  23.960  1.00  0.00    -0.205 F 
ATOM     82  C   UNL A   1      51.994  26.005  24.964  1.00  0.00     0.022 A 
BRANCH  80  83
ATOM     83  S   UNL A   1      51.603  27.070  22.475  1.00  0.00     0.127 S 
ATOM     84  O   UNL A   1      51.809  28.517  22.492  1.00  0.00    -0.237 OA
ATOM     85  O   UNL A   1      52.825  26.274  22.366  1.00  0.00    -0.237 OA
ATOM     86  O   UNL A   1      50.502  26.602  21.644  1.00  0.00    -0.744 OA
ENDBRANCH  80  83
ENDBRANCH  52  76
BRANCH  64  87
ATOM     87  C   UNL A   1      46.703  32.482  28.839  1.00  0.00     0.023 A 
ATOM     88  C   UNL A   1      47.386  32.686  30.055  1.00  0.00     0.012 A 
ATOM     89  C   UNL A   1      46.620  33.537  27.909  1.00  0.00     0.148 A 
ATOM     90  C   UNL A   1      47.944  33.928  30.355  1.00  0.00     0.002 A 
ATOM     91  C   UNL A   1      47.223  34.756  28.192  1.00  0.00     0.091 A 
ATOM     92  F   UNL A   1      45.951  33.330  26.765  1.00  0.00    -0.205 F 
ATOM     93  C   UNL A   1      47.874  34.958  29.420  1.00  0.00     0.022 A 
BRANCH  91  94
ATOM     94  S   UNL A   1      47.269  36.107  27.009  1.00  0.00     0.127 S 
ATOM     95  O   UNL A   1      45.856  36.246  26.660  1.00  0.00    -0.237 OA
ATOM     96  O   UNL A   1      47.809  37.204  27.813  1.00  0.00    -0.237 OA
ATOM     97  O   UNL A   1      48.138  35.666  25.927  1.00  0.00    -0.744 OA
ENDBRANCH  91  94
ENDBRANCH  64  87
ENDBRANCH  38  39
ENDBRANCH  30  33
ENDBRANCH  28  29
ENDBRANCH  27  28
ENDBRANCH   1  27
TORSDOF 17
ENDMDL
MODEL 3
REMARK VINA RESULT:     -12.8      3.386      8.696
REMARK SMILES O=C(NCCCCNC(=O)c1ccc(-c2c3nc(c(-c4cccc(S(=O)(=O)[O-])c4F)c4ccc([nH]4)c(-c4cccc(S(=O)(=O)[O-])c4F)c4nc(c(-c5cccc(S(=O)(=O)[O-])c5F)c5ccc2[nH]5)C=C4)C=C3)cc1)c1ccc(/C=C/c2ccc3cccc(O)c3n2)cc1
REMARK SMILES IDX 5 1 4 2 3 3 1 4 2 5 74 7 75 8 92 9 76 10 91 11 77 12 78 13
REMARK SMILES IDX 79 14 80 15 81 16 90 17 82 18 89 19 83 20 87 21 84 22 86 23
REMARK SMILES IDX 85 24 88 25 6 27 7 28 8 29 9 30 10 32 11 33 12 34 73 35
REMARK SMILES IDX 13 36 72 37 14 38 15 39 16 40 66 41 17 42 71 43 65 44 67 45
REMARK SMILES IDX 18 46 70 47 64 48 63 49 19 51 51 52 31 53 50 54 32 55 35 56
REMARK SMILES IDX 49 57 68 58 33 59 34 60 48 62 69 63 36 64 20 65 21 66 29 67
REMARK SMILES IDX 22 68 24 69 30 70 23 71 25 72 26 73 27 74 28 75 52 76 53 77
REMARK SMILES IDX 61 78 54 79 56 80 62 81 55 82 57 83 58 84 59 85 60 86 37 87
REMARK SMILES IDX 38 88 46 89 39 90 41 91 47 92 40 93 42 94 43 95 44 96 45 97
REMARK H PARENT 3 6 88 26 8 31 67 50 35 61
REMARK Flexibility Score: inf
ROOT
ATOM      1  C   UNL A   1      33.367  26.708  26.011  1.00  0.00     0.023 C 
ENDROOT
BRANCH   1   2
ATOM      2  C   UNL A   1      33.054  26.328  24.564  1.00  0.00     0.116 C 
BRANCH   2   3
ATOM      3  N   UNL A   1      32.213  25.149  24.472  1.00  0.00    -0.352 N 
ATOM      4  O   UNL A   1      31.713  22.976  24.162  1.00  0.00    -0.269 OA
ATOM      5  C   UNL A   1      32.565  23.827  24.393  1.00  0.00     0.251 C 
ATOM      6  H   UNL A   1      31.245  25.326  24.464  1.00  0.00     0.163 HD
BRANCH   5   7
ATOM      7  C   UNL A   1      33.972  23.405  24.556  1.00  0.00     0.039 A 
ATOM      8  C   UNL A   1      34.865  23.338  23.479  1.00  0.00     0.014 A 
ATOM      9  C   UNL A   1      34.422  23.152  25.850  1.00  0.00     0.014 A 
ATOM     10  C   UNL A   1      36.205  22.975  23.693  1.00  0.00     0.009 A 
ATOM     11  C   UNL A   1      35.754  22.800  26.057  1.00  0.00     0.009 A 
ATOM     12  C   UNL A   1      36.664  22.705  24.985  1.00  0.00    -0.026 A 
BRANCH  12  13
ATOM     13  C   UNL A   1      38.015  22.235  25.317  1.00  0.00     0.010 C 
ATOM     14  C   UNL A   1      38.532  20.989  25.370  1.00  0.00     0.029 C 
BRANCH  14  15
ATOM     15  C   UNL A   1      39.715  20.881  26.263  1.00  0.00     0.064 A 
ATOM     16  C   UNL A   1      40.233  22.132  26.586  1.00  0.00     0.029 A 
ATOM     17  N   UNL A   1      40.495  19.781  26.108  1.00  0.00    -0.245 NA
ATOM     18  C   UNL A   1      41.575  22.349  26.313  1.00  0.00     0.013 A 
ATOM     19  C   UNL A   1      41.826  19.987  25.957  1.00  0.00     0.113 A 
ATOM     20  C   UNL A   1      42.377  21.280  25.906  1.00  0.00     0.004 A 
ATOM     21  C   UNL A   1      42.706  18.919  25.785  1.00  0.00     0.141 A 
ATOM     22  C   UNL A   1      43.691  21.476  25.446  1.00  0.00     0.010 A 
ATOM     23  C   UNL A   1      44.036  19.097  25.406  1.00  0.00     0.048 A 
ATOM     24  C   UNL A   1      44.510  20.383  25.171  1.00  0.00     0.005 A 
BRANCH  21  25
ATOM     25  O   UNL A   1      42.267  17.635  26.002  1.00  0.00    -0.506 OA
ATOM     26  H   UNL A   1      42.070  17.078  25.274  1.00  0.00     0.293 HD
ENDBRANCH  21  25
ENDBRANCH  14  15
ENDBRANCH  12  13
ENDBRANCH   5   7
ENDBRANCH   2   3
ENDBRANCH   1   2
BRANCH   1  27
ATOM     27  C   UNL A   1      33.009  28.140  26.412  1.00  0.00     0.023 C 
BRANCH  27  28
ATOM     28  C   UNL A   1      34.014  29.214  26.009  1.00  0.00     0.116 C 
BRANCH  28  29
ATOM     29  N   UNL A   1      33.639  30.547  26.460  1.00  0.00    -0.352 N 
ATOM     30  C   UNL A   1      34.190  31.320  27.455  1.00  0.00     0.251 C 
ATOM     31  H   UNL A   1      32.881  30.954  25.982  1.00  0.00     0.163 HD
ATOM     32  O   UNL A   1      33.653  32.378  27.773  1.00  0.00    -0.269 OA
BRANCH  30  33
ATOM     33  C   UNL A   1      35.406  30.862  28.163  1.00  0.00     0.039 A 
ATOM     34  C   UNL A   1      36.544  31.673  28.143  1.00  0.00     0.014 A 
ATOM     35  C   UNL A   1      35.421  29.652  28.860  1.00  0.00     0.014 A 
ATOM     36  C   UNL A   1      37.671  31.305  28.884  1.00  0.00     0.010 A 
ATOM     37  C   UNL A   1      36.512  29.329  29.663  1.00  0.00     0.010 A 
ATOM     38  C   UNL A   1      37.648  30.151  29.685  1.00  0.00    -0.014 A 
BRANCH  38  39
ATOM     39  C   UNL A   1      38.791  29.804  30.570  1.00  0.00     0.031 A 
ATOM     40  C   UNL A   1      38.934  30.449  31.923  1.00  0.00     0.074 A 
ATOM     41  C   UNL A   1      39.757  28.979  30.118  1.00  0.00     0.049 A 
ATOM     42  N   UNL A   1      39.889  30.311  32.806  1.00  0.00    -0.248 NA
ATOM     43  C   UNL A   1      37.881  31.396  32.322  1.00  0.00     0.031 C 
ATOM     44  C   UNL A   1      39.783  28.357  28.793  1.00  0.00     0.029 A 
ATOM     45  N   UNL A   1      40.917  28.545  30.711  1.00  0.00    -0.354 N 
ATOM     46  C   UNL A   1      39.574  31.176  33.846  1.00  0.00     0.074 A 
ATOM     47  C   UNL A   1      38.359  31.864  33.466  1.00  0.00     0.031 C 
ATOM     48  C   UNL A   1      40.898  27.620  28.675  1.00  0.00     0.029 A 
ATOM     49  C   UNL A   1      41.684  27.742  29.899  1.00  0.00     0.049 A 
ATOM     50  H   UNL A   1      41.175  28.785  31.630  1.00  0.00     0.167 HD
ATOM     51  C   UNL A   1      40.219  31.365  35.023  1.00  0.00     0.034 A 
ATOM     52  C   UNL A   1      42.889  27.175  30.109  1.00  0.00     0.034 A 
ATOM     53  C   UNL A   1      41.410  30.657  35.410  1.00  0.00     0.049 A 
ATOM     54  C   UNL A   1      43.570  27.369  31.435  1.00  0.00     0.074 A 
ATOM     55  C   UNL A   1      42.085  30.705  36.616  1.00  0.00     0.029 A 
ATOM     56  N   UNL A   1      42.116  29.787  34.592  1.00  0.00    -0.354 N 
ATOM     57  N   UNL A   1      43.170  28.062  32.473  1.00  0.00    -0.248 NA
ATOM     58  C   UNL A   1      44.850  26.674  31.634  1.00  0.00     0.031 C 
ATOM     59  C   UNL A   1      43.218  29.891  36.517  1.00  0.00     0.029 A 
ATOM     60  C   UNL A   1      43.229  29.304  35.262  1.00  0.00     0.049 A 
ATOM     61  H   UNL A   1      41.863  29.547  33.672  1.00  0.00     0.167 HD
ATOM     62  C   UNL A   1      44.129  27.861  33.460  1.00  0.00     0.074 A 
ATOM     63  C   UNL A   1      45.120  26.964  32.900  1.00  0.00     0.031 C 
ATOM     64  C   UNL A   1      44.188  28.381  34.711  1.00  0.00     0.034 A 
BRANCH  51  65
ATOM     65  C   UNL A   1      39.622  32.353  35.993  1.00  0.00     0.023 A 
ATOM     66  C   UNL A   1      38.604  31.938  36.876  1.00  0.00     0.012 A 
ATOM     67  C   UNL A   1      40.091  33.680  36.058  1.00  0.00     0.148 A 
ATOM     68  C   UNL A   1      38.028  32.838  37.772  1.00  0.00     0.002 A 
ATOM     69  C   UNL A   1      39.547  34.557  36.988  1.00  0.00     0.091 A 
ATOM     70  F   UNL A   1      41.046  34.065  35.199  1.00  0.00    -0.205 F 
ATOM     71  C   UNL A   1      38.505  34.144  37.835  1.00  0.00     0.022 A 
BRANCH  69  72
ATOM     72  S   UNL A   1      40.153  36.235  37.205  1.00  0.00     0.127 S 
ATOM     73  O   UNL A   1      39.316  36.710  38.306  1.00  0.00    -0.237 OA
ATOM     74  O   UNL A   1      41.556  36.012  37.559  1.00  0.00    -0.237 OA
ATOM     75  O   UNL A   1      39.949  36.903  35.928  1.00  0.00    -0.744 OA
ENDBRANCH  69  72
ENDBRANCH  51  65
BRANCH  52  76
ATOM     76  C   UNL A   1      43.495  26.320  29.049  1.00  0.00     0.023 A 
ATOM     77  C   UNL A   1      43.249  24.933  29.052  1.00  0.00     0.012 A 
ATOM     78  C   UNL A   1      44.269  26.880  28.015  1.00  0.00     0.148 A 
ATOM     79  C   UNL A   1      43.784  24.115  28.057  1.00  0.00     0.002 A 
ATOM     80  C   UNL A   1      44.752  26.067  26.995  1.00  0.00     0.091 A 
ATOM     81  F   UNL A   1      44.496  28.200  28.035  1.00  0.00    -0.205 F 
ATOM     82  C   UNL A   1      44.526  24.682  27.024  1.00  0.00     0.022 A 
BRANCH  80  83
ATOM     83  S   UNL A   1      45.598  26.724  25.554  1.00  0.00     0.127 S 
ATOM     84  O   UNL A   1      45.755  25.528  24.729  1.00  0.00    -0.237 OA
ATOM     85  O   UNL A   1      44.626  27.696  25.054  1.00  0.00    -0.237 OA
ATOM     86  O   UNL A   1      46.835  27.311  26.053  1.00  0.00    -0.744 OA
ENDBRANCH  80  83
ENDBRANCH  52  76
BRANCH  64  87
ATOM     87  C   UNL A   1      45.345  27.970  35.586  1.00  0.00     0.023 A 
ATOM     88  C   UNL A   1      46.529  28.735  35.595  1.00  0.00     0.012 A 
ATOM     89  C   UNL A   1      45.229  26.867  36.454  1.00  0.00     0.148 A 
ATOM     90  C   UNL A   1      47.591  28.387  36.429  1.00  0.00     0.002 A 
ATOM     91  C   UNL A   1      46.271  26.557  37.320  1.00  0.00     0.091 A 
ATOM     92  F   UNL A   1      44.102  26.140  36.419  1.00  0.00    -0.205 F 
ATOM     93  C   UNL A   1      47.458  27.307  37.299  1.00  0.00     0.022 A 
BRANCH  91  94
ATOM     94  S   UNL A   1      46.152  25.247  38.543  1.00  0.00     0.127 S 
ATOM     95  O   UNL A   1      47.559  24.978  38.831  1.00  0.00    -0.237 OA
ATOM     96  O   UNL A   1      45.422  25.903  39.629  1.00  0.00    -0.237 OA
ATOM     97  O   UNL A   1      45.428  24.160  37.900  1.00  0.00    -0.744 OA
ENDBRANCH  91  94
ENDBRANCH  64  87
ENDBRANCH  38  39
ENDBRANCH  30  33
ENDBRANCH  28  29
ENDBRANCH  27  28
ENDBRANCH   1  27
TORSDOF 17
ENDMDL
