MODEL 1
REMARK VINA RESULT:     -12.8      0.000      0.000
REMARK SMILES Nc1nn(-c2ccc(Cl)cc2)nc1C(=O)NCCCCNC(=O)c1ccc(-c2c3nc(c(-c4cccc(S(=O)(=O)[O-])c4F)c4ccc([nH]4)c(-c4cccc(S(=O)(=O)[O-])c4F)c4nc(c(-c5cccc(S(=O)(=O)[O-])c5F)c5ccc2[nH]5)C=C4)C=C3)cc1
REMARK SMILES IDX 19 1 18 2 17 3 16 4 14 5 15 6 13 8 2 9 3 10 4 11 12 12 1 13
REMARK SMILES IDX 5 16 6 17 11 18 7 19 10 20 8 21 9 22 20 23 21 24 22 25 23 27
REMARK SMILES IDX 24 28 25 29 86 30 26 31 85 32 27 33 28 34 29 35 79 36 30 37
REMARK SMILES IDX 84 38 78 39 80 40 31 41 83 42 77 43 76 44 32 46 64 47 44 48
REMARK SMILES IDX 63 49 45 50 48 51 62 52 81 53 46 54 47 55 61 57 82 58 49 59
REMARK SMILES IDX 33 60 34 61 42 62 35 63 37 64 43 65 36 66 38 67 39 68 40 69
REMARK SMILES IDX 41 70 65 71 66 72 74 73 67 74 69 75 75 76 68 77 70 78 71 79
REMARK SMILES IDX 72 80 73 81 50 82 51 83 59 84 52 85 54 86 60 87 53 88 55 89
REMARK SMILES IDX 56 90 57 91 58 92
REMARK H PARENT 16 7 1 14 1 15 21 26 80 45 48 56
REMARK Flexibility Score: inf
ROOT
ATOM      1  C   UNL A   1      37.768  19.937  24.956  1.00  0.00     0.023 C 
ENDROOT
BRANCH   1   2
ATOM      2  C   UNL A   1      36.665  20.985  25.131  1.00  0.00     0.023 C 
BRANCH   2   3
ATOM      3  C   UNL A   1      36.693  22.213  24.216  1.00  0.00     0.116 C 
BRANCH   3   4
ATOM      4  N   UNL A   1      35.767  23.254  24.599  1.00  0.00    -0.351 N 
ATOM      5  C   UNL A   1      34.397  23.337  24.454  1.00  0.00     0.275 C 
ATOM      6  O   UNL A   1      33.909  24.457  24.625  1.00  0.00    -0.267 OA
ATOM      7  H   UNL A   1      36.182  24.033  25.035  1.00  0.00     0.163 HD
BRANCH   5   8
ATOM      8  C   UNL A   1      33.561  22.187  24.079  1.00  0.00     0.194 A 
ATOM      9  C   UNL A   1      32.767  21.885  22.928  1.00  0.00     0.179 A 
ATOM     10  N   UNL A   1      32.304  20.640  23.004  1.00  0.00    -0.130 NA
ATOM     11  N   UNL A   1      32.919  20.183  24.115  1.00  0.00    -0.149 N 
ATOM     12  N   UNL A   1      33.488  21.113  24.905  1.00  0.00    -0.141 NA
BRANCH   9  13
ATOM     13  N   UNL A   1      32.481  22.635  21.855  1.00  0.00    -0.380 N 
ATOM     14  H   UNL A   1      32.085  22.220  21.055  1.00  0.00     0.158 HD
ATOM     15  H   UNL A   1      32.666  23.602  21.868  1.00  0.00     0.158 HD
ENDBRANCH   9  13
BRANCH  11  16
ATOM     16  C   UNL A   1      32.961  18.799  24.417  1.00  0.00     0.086 A 
ATOM     17  C   UNL A   1      33.276  17.864  23.422  1.00  0.00     0.032 A 
ATOM     18  C   UNL A   1      32.639  18.368  25.713  1.00  0.00     0.032 A 
ATOM     19  C   UNL A   1      33.301  16.502  23.737  1.00  0.00     0.023 A 
ATOM     20  C   UNL A   1      32.618  17.004  26.008  1.00  0.00     0.023 A 
ATOM     21  C   UNL A   1      32.963  16.079  25.024  1.00  0.00     0.041 A 
ATOM     22  Cl  UNL A   1      32.970  14.398  25.400  1.00  0.00    -0.084 Cl
ENDBRANCH  11  16
ENDBRANCH   5   8
ENDBRANCH   3   4
ENDBRANCH   2   3
ENDBRANCH   1   2
BRANCH   1  23
ATOM     23  C   UNL A   1      39.113  20.329  25.541  1.00  0.00     0.116 C 
BRANCH  23  24
ATOM     24  N   UNL A   1      40.025  19.199  25.795  1.00  0.00    -0.352 N 
ATOM     25  C   UNL A   1      41.383  19.265  26.098  1.00  0.00     0.251 C 
ATOM     26  H   UNL A   1      39.631  18.298  25.746  1.00  0.00     0.163 HD
ATOM     27  O   UNL A   1      42.118  18.285  25.995  1.00  0.00    -0.269 OA
BRANCH  25  28
ATOM     28  C   UNL A   1      41.903  20.548  26.594  1.00  0.00     0.039 A 
ATOM     29  C   UNL A   1      42.711  21.425  25.860  1.00  0.00     0.014 A 
ATOM     30  C   UNL A   1      41.428  20.903  27.844  1.00  0.00     0.014 A 
ATOM     31  C   UNL A   1      42.969  22.689  26.396  1.00  0.00     0.010 A 
ATOM     32  C   UNL A   1      41.384  22.217  28.169  1.00  0.00     0.010 A 
ATOM     33  C   UNL A   1      42.290  23.067  27.561  1.00  0.00    -0.014 A 
BRANCH  33  34
ATOM     34  C   UNL A   1      42.423  24.353  28.224  1.00  0.00     0.031 A 
ATOM     35  C   UNL A   1      41.267  25.260  28.032  1.00  0.00     0.074 A 
ATOM     36  C   UNL A   1      43.353  24.514  29.198  1.00  0.00     0.049 A 
ATOM     37  N   UNL A   1      41.233  26.362  27.360  1.00  0.00    -0.248 NA
ATOM     38  C   UNL A   1      39.945  24.807  28.499  1.00  0.00     0.031 C 
ATOM     39  C   UNL A   1      44.319  23.517  29.709  1.00  0.00     0.029 A 
ATOM     40  N   UNL A   1      43.528  25.544  30.063  1.00  0.00    -0.354 N 
ATOM     41  C   UNL A   1      39.951  26.870  27.559  1.00  0.00     0.074 A 
ATOM     42  C   UNL A   1      39.151  25.770  28.026  1.00  0.00     0.031 C 
ATOM     43  C   UNL A   1      44.776  23.897  30.921  1.00  0.00     0.029 A 
ATOM     44  C   UNL A   1      44.299  25.238  31.184  1.00  0.00     0.049 A 
ATOM     45  H   UNL A   1      43.140  26.436  29.912  1.00  0.00     0.167 HD
ATOM     46  C   UNL A   1      39.728  28.212  27.632  1.00  0.00     0.034 A 
ATOM     47  C   UNL A   1      44.509  26.030  32.262  1.00  0.00     0.034 A 
ATOM     48  C   UNL A   1      40.896  28.950  27.222  1.00  0.00     0.049 A 
ATOM     49  C   UNL A   1      44.201  27.409  31.831  1.00  0.00     0.074 A 
ATOM     50  C   UNL A   1      41.628  29.087  26.063  1.00  0.00     0.029 A 
ATOM     51  N   UNL A   1      41.704  29.374  28.250  1.00  0.00    -0.354 N 
ATOM     52  N   UNL A   1      44.878  28.035  30.910  1.00  0.00    -0.248 NA
ATOM     53  C   UNL A   1      42.876  27.934  32.104  1.00  0.00     0.031 C 
ATOM     54  C   UNL A   1      42.985  29.202  26.492  1.00  0.00     0.029 A 
ATOM     55  C   UNL A   1      43.012  29.193  27.889  1.00  0.00     0.049 A 
ATOM     56  H   UNL A   1      41.393  29.747  29.106  1.00  0.00     0.167 HD
ATOM     57  C   UNL A   1      43.914  28.714  30.178  1.00  0.00     0.074 A 
ATOM     58  C   UNL A   1      42.734  28.737  31.044  1.00  0.00     0.031 C 
ATOM     59  C   UNL A   1      44.074  28.918  28.837  1.00  0.00     0.034 A 
BRANCH  46  60
ATOM     60  C   UNL A   1      38.651  28.881  28.461  1.00  0.00     0.023 A 
ATOM     61  C   UNL A   1      37.825  29.818  27.801  1.00  0.00     0.012 A 
ATOM     62  C   UNL A   1      38.584  28.859  29.874  1.00  0.00     0.148 A 
ATOM     63  C   UNL A   1      37.013  30.714  28.507  1.00  0.00     0.002 A 
ATOM     64  C   UNL A   1      37.718  29.697  30.569  1.00  0.00     0.091 A 
ATOM     65  F   UNL A   1      39.455  28.131  30.577  1.00  0.00    -0.205 F 
ATOM     66  C   UNL A   1      36.954  30.648  29.893  1.00  0.00     0.022 A 
BRANCH  64  67
ATOM     67  S   UNL A   1      37.573  29.626  32.360  1.00  0.00     0.127 S 
ATOM     68  O   UNL A   1      38.809  30.281  32.777  1.00  0.00    -0.237 OA
ATOM     69  O   UNL A   1      36.351  30.398  32.590  1.00  0.00    -0.237 OA
ATOM     70  O   UNL A   1      37.453  28.210  32.684  1.00  0.00    -0.744 OA
ENDBRANCH  64  67
ENDBRANCH  46  60
BRANCH  47  71
ATOM     71  C   UNL A   1      44.702  25.679  33.688  1.00  0.00     0.023 A 
ATOM     72  C   UNL A   1      45.997  25.445  34.191  1.00  0.00     0.012 A 
ATOM     73  C   UNL A   1      43.651  25.873  34.611  1.00  0.00     0.148 A 
ATOM     74  C   UNL A   1      46.246  25.445  35.570  1.00  0.00     0.002 A 
ATOM     75  C   UNL A   1      43.905  25.875  35.980  1.00  0.00     0.091 A 
ATOM     76  F   UNL A   1      42.428  26.147  34.139  1.00  0.00    -0.205 F 
ATOM     77  C   UNL A   1      45.204  25.674  36.464  1.00  0.00     0.022 A 
BRANCH  75  78
ATOM     78  S   UNL A   1      42.619  26.201  37.194  1.00  0.00     0.127 S 
ATOM     79  O   UNL A   1      41.762  25.025  37.044  1.00  0.00    -0.237 OA
ATOM     80  O   UNL A   1      43.386  26.249  38.436  1.00  0.00    -0.237 OA
ATOM     81  O   UNL A   1      41.998  27.454  36.782  1.00  0.00    -0.744 OA
ENDBRANCH  75  78
ENDBRANCH  47  71
BRANCH  59  82
ATOM     82  C   UNL A   1      45.434  28.620  28.248  1.00  0.00     0.023 A 
ATOM     83  C   UNL A   1      46.559  29.444  28.473  1.00  0.00     0.012 A 
ATOM     84  C   UNL A   1      45.616  27.396  27.589  1.00  0.00     0.148 A 
ATOM     85  C   UNL A   1      47.831  29.065  28.034  1.00  0.00     0.002 A 
ATOM     86  C   UNL A   1      46.889  27.001  27.193  1.00  0.00     0.091 A 
ATOM     87  F   UNL A   1      44.540  26.619  27.396  1.00  0.00    -0.205 F 
ATOM     88  C   UNL A   1      47.997  27.837  27.404  1.00  0.00     0.022 A 
BRANCH  86  89
ATOM     89  S   UNL A   1      47.194  25.381  26.489  1.00  0.00     0.127 S 
ATOM     90  O   UNL A   1      46.442  25.446  25.237  1.00  0.00    -0.237 OA
ATOM     91  O   UNL A   1      48.650  25.382  26.330  1.00  0.00    -0.237 OA
ATOM     92  O   UNL A   1      46.700  24.416  27.463  1.00  0.00    -0.744 OA
ENDBRANCH  86  89
ENDBRANCH  59  82
ENDBRANCH  33  34
ENDBRANCH  25  28
ENDBRANCH  23  24
ENDBRANCH   1  23
TORSDOF 16
ENDMDL
MODEL 2
REMARK VINA RESULT:     -12.8      4.615      9.825
REMARK SMILES Nc1nn(-c2ccc(Cl)cc2)nc1C(=O)NCCCCNC(=O)c1ccc(-c2c3nc(c(-c4cccc(S(=O)(=O)[O-])c4F)c4ccc([nH]4)c(-c4cccc(S(=O)(=O)[O-])c4F)c4nc(c(-c5cccc(S(=O)(=O)[O-])c5F)c5ccc2[nH]5)C=C4)C=C3)cc1
REMARK SMILES IDX 19 1 18 2 17 3 16 4 14 5 15 6 13 8 2 9 3 10 4 11 12 12 1 13
REMARK SMILES IDX 5 16 6 17 11 18 7 19 10 20 8 21 9 22 20 23 21 24 22 25 23 27
REMARK SMILES IDX 24 28 25 29 86 30 26 31 85 32 27 33 28 34 29 35 79 36 30 37
REMARK SMILES IDX 84 38 78 39 80 40 31 41 83 42 77 43 76 44 32 46 64 47 44 48
REMARK SMILES IDX 63 49 45 50 48 51 62 52 81 53 46 54 47 55 61 57 82 58 49 59
REMARK SMILES IDX 33 60 34 61 42 62 35 63 37 64 43 65 36 66 38 67 39 68 40 69
REMARK SMILES IDX 41 70 65 71 66 72 74 73 67 74 69 75 75 76 68 77 70 78 71 79
REMARK SMILES IDX 72 80 73 81 50 82 51 83 59 84 52 85 54 86 60 87 53 88 55 89
REMARK SMILES IDX 56 90 57 91 58 92
REMARK H PARENT 16 7 1 14 1 15 21 26 80 45 48 56
REMARK Flexibility Score: inf
ROOT
ATOM      1  C   UNL A   1      31.547  31.669  26.461  1.00  0.00     0.023 C 
ENDROOT
BRANCH   1   2
ATOM      2  C   UNL A   1      31.807  30.184  26.190  1.00  0.00     0.023 C 
BRANCH   2   3
ATOM      3  C   UNL A   1      31.207  29.572  24.921  1.00  0.00     0.116 C 
BRANCH   3   4
ATOM      4  N   UNL A   1      32.094  29.593  23.781  1.00  0.00    -0.351 N 
ATOM      5  C   UNL A   1      32.959  28.632  23.297  1.00  0.00     0.275 C 
ATOM      6  O   UNL A   1      33.788  29.027  22.473  1.00  0.00    -0.267 OA
ATOM      7  H   UNL A   1      32.080  30.431  23.264  1.00  0.00     0.163 HD
BRANCH   5   8
ATOM      8  C   UNL A   1      32.938  27.234  23.753  1.00  0.00     0.194 A 
ATOM      9  C   UNL A   1      31.964  26.190  23.669  1.00  0.00     0.179 A 
ATOM     10  N   UNL A   1      32.479  25.047  24.113  1.00  0.00    -0.130 NA
ATOM     11  N   UNL A   1      33.765  25.388  24.334  1.00  0.00    -0.149 N 
ATOM     12  N   UNL A   1      34.036  26.707  24.352  1.00  0.00    -0.141 NA
BRANCH   9  13
ATOM     13  N   UNL A   1      30.707  26.217  23.207  1.00  0.00    -0.380 N 
ATOM     14  H   UNL A   1      30.479  26.781  22.433  1.00  0.00     0.158 HD
ATOM     15  H   UNL A   1      30.011  25.672  23.640  1.00  0.00     0.158 HD
ENDBRANCH   9  13
BRANCH  11  16
ATOM     16  C   UNL A   1      34.766  24.404  24.526  1.00  0.00     0.086 A 
ATOM     17  C   UNL A   1      35.417  24.283  25.761  1.00  0.00     0.032 A 
ATOM     18  C   UNL A   1      35.132  23.577  23.452  1.00  0.00     0.032 A 
ATOM     19  C   UNL A   1      36.409  23.312  25.926  1.00  0.00     0.023 A 
ATOM     20  C   UNL A   1      36.158  22.644  23.610  1.00  0.00     0.023 A 
ATOM     21  C   UNL A   1      36.781  22.505  24.850  1.00  0.00     0.041 A 
ATOM     22  Cl  UNL A   1      38.023  21.329  25.052  1.00  0.00    -0.084 Cl
ENDBRANCH  11  16
ENDBRANCH   5   8
ENDBRANCH   3   4
ENDBRANCH   2   3
ENDBRANCH   1   2
BRANCH   1  23
ATOM     23  C   UNL A   1      32.577  32.341  27.352  1.00  0.00     0.116 C 
BRANCH  23  24
ATOM     24  N   UNL A   1      32.377  33.790  27.539  1.00  0.00    -0.352 N 
ATOM     25  C   UNL A   1      33.021  34.617  28.455  1.00  0.00     0.251 C 
ATOM     26  H   UNL A   1      31.715  34.220  26.950  1.00  0.00     0.163 HD
ATOM     27  O   UNL A   1      32.582  35.729  28.744  1.00  0.00    -0.269 OA
BRANCH  25  28
ATOM     28  C   UNL A   1      34.281  34.130  29.036  1.00  0.00     0.039 A 
ATOM     29  C   UNL A   1      34.430  33.645  30.341  1.00  0.00     0.014 A 
ATOM     30  C   UNL A   1      35.331  34.072  28.135  1.00  0.00     0.014 A 
ATOM     31  C   UNL A   1      35.643  33.044  30.687  1.00  0.00     0.010 A 
ATOM     32  C   UNL A   1      36.330  33.188  28.366  1.00  0.00     0.010 A 
ATOM     33  C   UNL A   1      36.587  32.823  29.675  1.00  0.00    -0.014 A 
BRANCH  33  34
ATOM     34  C   UNL A   1      37.878  32.184  29.864  1.00  0.00     0.031 A 
ATOM     35  C   UNL A   1      37.954  30.800  29.339  1.00  0.00     0.074 A 
ATOM     36  C   UNL A   1      38.965  32.939  30.160  1.00  0.00     0.049 A 
ATOM     37  N   UNL A   1      38.062  29.705  30.016  1.00  0.00    -0.248 NA
ATOM     38  C   UNL A   1      37.713  30.590  27.902  1.00  0.00     0.031 C 
ATOM     39  C   UNL A   1      39.033  34.406  30.342  1.00  0.00     0.029 A 
ATOM     40  N   UNL A   1      40.274  32.590  30.195  1.00  0.00    -0.354 N 
ATOM     41  C   UNL A   1      38.179  28.698  29.060  1.00  0.00     0.074 A 
ATOM     42  C   UNL A   1      37.699  29.257  27.826  1.00  0.00     0.031 C 
ATOM     43  C   UNL A   1      40.309  34.827  30.212  1.00  0.00     0.029 A 
ATOM     44  C   UNL A   1      41.165  33.662  30.137  1.00  0.00     0.049 A 
ATOM     45  H   UNL A   1      40.574  31.654  30.256  1.00  0.00     0.167 HD
ATOM     46  C   UNL A   1      38.954  27.600  29.285  1.00  0.00     0.034 A 
ATOM     47  C   UNL A   1      42.512  33.590  30.014  1.00  0.00     0.034 A 
ATOM     48  C   UNL A   1      39.365  27.535  30.665  1.00  0.00     0.049 A 
ATOM     49  C   UNL A   1      42.895  32.229  30.440  1.00  0.00     0.074 A 
ATOM     50  C   UNL A   1      38.736  27.399  31.883  1.00  0.00     0.029 A 
ATOM     51  N   UNL A   1      40.614  28.047  30.923  1.00  0.00    -0.354 N 
ATOM     52  N   UNL A   1      42.719  31.786  31.653  1.00  0.00    -0.248 NA
ATOM     53  C   UNL A   1      43.068  31.212  29.419  1.00  0.00     0.031 C 
ATOM     54  C   UNL A   1      39.485  28.217  32.781  1.00  0.00     0.029 A 
ATOM     55  C   UNL A   1      40.568  28.763  32.087  1.00  0.00     0.049 A 
ATOM     56  H   UNL A   1      41.412  27.918  30.361  1.00  0.00     0.167 HD
ATOM     57  C   UNL A   1      42.296  30.476  31.481  1.00  0.00     0.074 A 
ATOM     58  C   UNL A   1      42.675  30.137  30.109  1.00  0.00     0.031 C 
ATOM     59  C   UNL A   1      41.417  29.906  32.359  1.00  0.00     0.034 A 
BRANCH  46  60
ATOM     60  C   UNL A   1      39.705  26.821  28.224  1.00  0.00     0.023 A 
ATOM     61  C   UNL A   1      39.523  25.420  28.211  1.00  0.00     0.012 A 
ATOM     62  C   UNL A   1      40.767  27.331  27.443  1.00  0.00     0.148 A 
ATOM     63  C   UNL A   1      40.378  24.571  27.499  1.00  0.00     0.002 A 
ATOM     64  C   UNL A   1      41.566  26.492  26.674  1.00  0.00     0.091 A 
ATOM     65  F   UNL A   1      41.114  28.618  27.539  1.00  0.00    -0.205 F 
ATOM     66  C   UNL A   1      41.396  25.108  26.723  1.00  0.00     0.022 A 
BRANCH  64  67
ATOM     67  S   UNL A   1      42.874  27.138  25.621  1.00  0.00     0.127 S 
ATOM     68  O   UNL A   1      43.786  27.706  26.609  1.00  0.00    -0.237 OA
ATOM     69  O   UNL A   1      43.350  25.922  24.959  1.00  0.00    -0.237 OA
ATOM     70  O   UNL A   1      42.219  28.086  24.728  1.00  0.00    -0.744 OA
ENDBRANCH  64  67
ENDBRANCH  46  60
BRANCH  47  71
ATOM     71  C   UNL A   1      43.462  34.493  29.326  1.00  0.00     0.023 A 
ATOM     72  C   UNL A   1      44.181  35.457  30.059  1.00  0.00     0.012 A 
ATOM     73  C   UNL A   1      43.884  34.203  28.010  1.00  0.00     0.148 A 
ATOM     74  C   UNL A   1      45.309  36.085  29.515  1.00  0.00     0.002 A 
ATOM     75  C   UNL A   1      45.008  34.827  27.474  1.00  0.00     0.091 A 
ATOM     76  F   UNL A   1      43.235  33.251  27.326  1.00  0.00    -0.205 F 
ATOM     77  C   UNL A   1      45.731  35.760  28.229  1.00  0.00     0.022 A 
BRANCH  75  78
ATOM     78  S   UNL A   1      45.636  34.433  25.836  1.00  0.00     0.127 S 
ATOM     79  O   UNL A   1      46.607  35.505  25.624  1.00  0.00    -0.237 OA
ATOM     80  O   UNL A   1      46.216  33.110  26.049  1.00  0.00    -0.237 OA
ATOM     81  O   UNL A   1      44.479  34.485  24.950  1.00  0.00    -0.744 OA
ENDBRANCH  75  78
ENDBRANCH  47  71
BRANCH  59  82
ATOM     82  C   UNL A   1      41.140  30.654  33.644  1.00  0.00     0.023 A 
ATOM     83  C   UNL A   1      42.101  30.788  34.670  1.00  0.00     0.012 A 
ATOM     84  C   UNL A   1      39.941  31.373  33.746  1.00  0.00     0.148 A 
ATOM     85  C   UNL A   1      41.864  31.604  35.780  1.00  0.00     0.002 A 
ATOM     86  C   UNL A   1      39.726  32.218  34.829  1.00  0.00     0.091 A 
ATOM     87  F   UNL A   1      39.044  31.246  32.757  1.00  0.00    -0.205 F 
ATOM     88  C   UNL A   1      40.680  32.329  35.853  1.00  0.00     0.022 A 
BRANCH  86  89
ATOM     89  S   UNL A   1      38.280  33.274  34.925  1.00  0.00     0.127 S 
ATOM     90  O   UNL A   1      37.196  32.298  35.033  1.00  0.00    -0.237 OA
ATOM     91  O   UNL A   1      38.537  34.040  36.146  1.00  0.00    -0.237 OA
ATOM     92  O   UNL A   1      38.280  34.073  33.706  1.00  0.00    -0.744 OA
ENDBRANCH  86  89
ENDBRANCH  59  82
ENDBRANCH  33  34
ENDBRANCH  25  28
ENDBRANCH  23  24
ENDBRANCH   1  23
TORSDOF 16
ENDMDL
MODEL 3
REMARK VINA RESULT:     -12.7      2.748      3.888
REMARK SMILES Nc1nn(-c2ccc(Cl)cc2)nc1C(=O)NCCCCNC(=O)c1ccc(-c2c3nc(c(-c4cccc(S(=O)(=O)[O-])c4F)c4ccc([nH]4)c(-c4cccc(S(=O)(=O)[O-])c4F)c4nc(c(-c5cccc(S(=O)(=O)[O-])c5F)c5ccc2[nH]5)C=C4)C=C3)cc1
REMARK SMILES IDX 19 1 18 2 17 3 16 4 14 5 15 6 13 8 2 9 3 10 4 11 12 12 1 13
REMARK SMILES IDX 5 16 6 17 11 18 7 19 10 20 8 21 9 22 20 23 21 24 22 25 23 27
REMARK SMILES IDX 24 28 25 29 86 30 26 31 85 32 27 33 28 34 29 35 79 36 30 37
REMARK SMILES IDX 84 38 78 39 80 40 31 41 83 42 77 43 76 44 32 46 64 47 44 48
REMARK SMILES IDX 63 49 45 50 48 51 62 52 81 53 46 54 47 55 61 57 82 58 49 59
REMARK SMILES IDX 33 60 34 61 42 62 35 63 37 64 43 65 36 66 38 67 39 68 40 69
REMARK SMILES IDX 41 70 65 71 66 72 74 73 67 74 69 75 75 76 68 77 70 78 71 79
REMARK SMILES IDX 72 80 73 81 50 82 51 83 59 84 52 85 54 86 60 87 53 88 55 89
REMARK SMILES IDX 56 90 57 91 58 92
REMARK H PARENT 16 7 1 14 1 15 21 26 80 45 48 56
REMARK Flexibility Score: inf
ROOT
ATOM      1  C   UNL A   1      37.570  19.895  24.919  1.00  0.00     0.023 C 
ENDROOT
BRANCH   1   2
ATOM      2  C   UNL A   1      36.519  20.998  25.071  1.00  0.00     0.023 C 
BRANCH   2   3
ATOM      3  C   UNL A   1      35.044  20.602  24.950  1.00  0.00     0.116 C 
BRANCH   3   4
ATOM      4  N   UNL A   1      34.307  20.690  26.190  1.00  0.00    -0.351 N 
ATOM      5  C   UNL A   1      33.620  21.745  26.754  1.00  0.00     0.275 C 
ATOM      6  O   UNL A   1      33.320  21.613  27.943  1.00  0.00    -0.267 OA
ATOM      7  H   UNL A   1      34.294  19.860  26.720  1.00  0.00     0.163 HD
BRANCH   5   8
ATOM      8  C   UNL A   1      33.292  22.974  26.015  1.00  0.00     0.194 A 
ATOM      9  C   UNL A   1      32.479  23.242  24.869  1.00  0.00     0.179 A 
ATOM     10  N   UNL A   1      32.391  24.554  24.667  1.00  0.00    -0.130 NA
ATOM     11  N   UNL A   1      33.036  25.045  25.745  1.00  0.00    -0.149 N 
ATOM     12  N   UNL A   1      33.775  24.166  26.448  1.00  0.00    -0.141 NA
BRANCH   9  13
ATOM     13  N   UNL A   1      31.823  22.400  24.059  1.00  0.00    -0.380 N 
ATOM     14  H   UNL A   1      31.965  21.429  24.140  1.00  0.00     0.158 HD
ATOM     15  H   UNL A   1      31.199  22.752  23.385  1.00  0.00     0.158 HD
ENDBRANCH   9  13
BRANCH  11  16
ATOM     16  C   UNL A   1      32.927  26.411  26.110  1.00  0.00     0.086 A 
ATOM     17  C   UNL A   1      31.701  26.936  26.541  1.00  0.00     0.032 A 
ATOM     18  C   UNL A   1      34.049  27.245  25.993  1.00  0.00     0.032 A 
ATOM     19  C   UNL A   1      31.613  28.288  26.885  1.00  0.00     0.023 A 
ATOM     20  C   UNL A   1      33.941  28.604  26.291  1.00  0.00     0.023 A 
ATOM     21  C   UNL A   1      32.728  29.116  26.750  1.00  0.00     0.041 A 
ATOM     22  Cl  UNL A   1      32.606  30.786  27.150  1.00  0.00    -0.084 Cl
ENDBRANCH  11  16
ENDBRANCH   5   8
ENDBRANCH   3   4
ENDBRANCH   2   3
ENDBRANCH   1   2
BRANCH   1  23
ATOM     23  C   UNL A   1      38.955  20.267  25.419  1.00  0.00     0.116 C 
BRANCH  23  24
ATOM     24  N   UNL A   1      39.857  19.121  25.641  1.00  0.00    -0.352 N 
ATOM     25  C   UNL A   1      41.216  19.166  25.940  1.00  0.00     0.251 C 
ATOM     26  H   UNL A   1      39.453  18.226  25.571  1.00  0.00     0.163 HD
ATOM     27  O   UNL A   1      41.941  18.181  25.809  1.00  0.00    -0.269 OA
BRANCH  25  28
ATOM     28  C   UNL A   1      41.752  20.431  26.466  1.00  0.00     0.039 A 
ATOM     29  C   UNL A   1      42.573  21.314  25.755  1.00  0.00     0.014 A 
ATOM     30  C   UNL A   1      41.277  20.763  27.723  1.00  0.00     0.014 A 
ATOM     31  C   UNL A   1      42.847  22.561  26.321  1.00  0.00     0.010 A 
ATOM     32  C   UNL A   1      41.249  22.070  28.077  1.00  0.00     0.010 A 
ATOM     33  C   UNL A   1      42.168  22.922  27.492  1.00  0.00    -0.014 A 
BRANCH  33  34
ATOM     34  C   UNL A   1      42.315  24.191  28.184  1.00  0.00     0.031 A 
ATOM     35  C   UNL A   1      41.171  25.117  28.009  1.00  0.00     0.074 A 
ATOM     36  C   UNL A   1      43.244  24.317  29.164  1.00  0.00     0.049 A 
ATOM     37  N   UNL A   1      41.154  26.234  27.362  1.00  0.00    -0.248 NA
ATOM     38  C   UNL A   1      39.843  24.670  28.462  1.00  0.00     0.031 C 
ATOM     39  C   UNL A   1      44.196  23.297  29.655  1.00  0.00     0.029 A 
ATOM     40  N   UNL A   1      43.430  25.325  30.052  1.00  0.00    -0.354 N 
ATOM     41  C   UNL A   1      39.878  26.754  27.569  1.00  0.00     0.074 A 
ATOM     42  C   UNL A   1      39.063  25.654  28.009  1.00  0.00     0.031 C 
ATOM     43  C   UNL A   1      44.654  23.644  30.877  1.00  0.00     0.029 A 
ATOM     44  C   UNL A   1      44.194  24.984  31.168  1.00  0.00     0.049 A 
ATOM     45  H   UNL A   1      43.054  26.226  29.921  1.00  0.00     0.167 HD
ATOM     46  C   UNL A   1      39.672  28.097  27.672  1.00  0.00     0.034 A 
ATOM     47  C   UNL A   1      44.411  25.749  32.265  1.00  0.00     0.034 A 
ATOM     48  C   UNL A   1      40.851  28.829  27.282  1.00  0.00     0.049 A 
ATOM     49  C   UNL A   1      44.122  27.141  31.864  1.00  0.00     0.074 A 
ATOM     50  C   UNL A   1      41.588  28.982  26.128  1.00  0.00     0.029 A 
ATOM     51  N   UNL A   1      41.661  29.219  28.321  1.00  0.00    -0.354 N 
ATOM     52  N   UNL A   1      44.810  27.779  30.960  1.00  0.00    -0.248 NA
ATOM     53  C   UNL A   1      42.803  27.677  32.145  1.00  0.00     0.031 C 
ATOM     54  C   UNL A   1      42.945  29.070  26.563  1.00  0.00     0.029 A 
ATOM     55  C   UNL A   1      42.967  29.029  27.960  1.00  0.00     0.049 A 
ATOM     56  H   UNL A   1      41.352  29.577  29.184  1.00  0.00     0.167 HD
ATOM     57  C   UNL A   1      43.856  28.486  30.240  1.00  0.00     0.074 A 
ATOM     58  C   UNL A   1      42.675  28.505  31.103  1.00  0.00     0.031 C 
ATOM     59  C   UNL A   1      44.023  28.719  28.904  1.00  0.00     0.034 A 
BRANCH  46  60
ATOM     60  C   UNL A   1      38.601  28.761  28.513  1.00  0.00     0.023 A 
ATOM     61  C   UNL A   1      37.735  29.661  27.853  1.00  0.00     0.012 A 
ATOM     62  C   UNL A   1      38.572  28.773  29.927  1.00  0.00     0.148 A 
ATOM     63  C   UNL A   1      36.921  30.554  28.558  1.00  0.00     0.002 A 
ATOM     64  C   UNL A   1      37.705  29.607  30.624  1.00  0.00     0.091 A 
ATOM     65  F   UNL A   1      39.479  28.083  30.624  1.00  0.00    -0.205 F 
ATOM     66  C   UNL A   1      36.899  30.522  29.946  1.00  0.00     0.022 A 
BRANCH  64  67
ATOM     67  S   UNL A   1      37.609  29.578  32.420  1.00  0.00     0.127 S 
ATOM     68  O   UNL A   1      38.860  30.234  32.787  1.00  0.00    -0.237 OA
ATOM     69  O   UNL A   1      36.398  30.364  32.666  1.00  0.00    -0.237 OA
ATOM     70  O   UNL A   1      37.489  28.171  32.779  1.00  0.00    -0.744 OA
ENDBRANCH  64  67
ENDBRANCH  46  60
BRANCH  47  71
ATOM     71  C   UNL A   1      44.594  25.364  33.682  1.00  0.00     0.023 A 
ATOM     72  C   UNL A   1      43.489  24.956  34.454  1.00  0.00     0.012 A 
ATOM     73  C   UNL A   1      45.890  25.106  34.182  1.00  0.00     0.148 A 
ATOM     74  C   UNL A   1      43.666  24.276  35.667  1.00  0.00     0.002 A 
ATOM     75  C   UNL A   1      46.061  24.427  35.386  1.00  0.00     0.091 A 
ATOM     76  F   UNL A   1      46.945  25.446  33.429  1.00  0.00    -0.205 F 
ATOM     77  C   UNL A   1      44.951  23.999  36.126  1.00  0.00     0.022 A 
BRANCH  75  78
ATOM     78  S   UNL A   1      47.687  24.000  36.025  1.00  0.00     0.127 S 
ATOM     79  O   UNL A   1      48.351  23.485  34.829  1.00  0.00    -0.237 OA
ATOM     80  O   UNL A   1      48.174  25.296  36.490  1.00  0.00    -0.237 OA
ATOM     81  O   UNL A   1      47.451  23.001  37.061  1.00  0.00    -0.744 OA
ENDBRANCH  75  78
ENDBRANCH  47  71
BRANCH  59  82
ATOM     82  C   UNL A   1      45.381  28.417  28.313  1.00  0.00     0.023 A 
ATOM     83  C   UNL A   1      46.517  29.217  28.564  1.00  0.00     0.012 A 
ATOM     84  C   UNL A   1      45.548  27.209  27.621  1.00  0.00     0.148 A 
ATOM     85  C   UNL A   1      47.785  28.831  28.120  1.00  0.00     0.002 A 
ATOM     86  C   UNL A   1      46.816  26.806  27.219  1.00  0.00     0.091 A 
ATOM     87  F   UNL A   1      44.461  26.454  27.402  1.00  0.00    -0.205 F 
ATOM     88  C   UNL A   1      47.936  27.619  27.457  1.00  0.00     0.022 A 
BRANCH  86  89
ATOM     89  S   UNL A   1      47.100  25.201  26.472  1.00  0.00     0.127 S 
ATOM     90  O   UNL A   1      46.265  25.271  25.273  1.00  0.00    -0.237 OA
ATOM     91  O   UNL A   1      48.541  25.230  26.216  1.00  0.00    -0.237 OA
ATOM     92  O   UNL A   1      46.687  24.215  27.462  1.00  0.00    -0.744 OA
ENDBRANCH  86  89
ENDBRANCH  59  82
ENDBRANCH  33  34
ENDBRANCH  25  28
ENDBRANCH  23  24
ENDBRANCH   1  23
TORSDOF 16
ENDMDL
