MODEL 1
REMARK VINA RESULT:     -12.4      0.000      0.000
REMARK SMILES C[C@H]1SC[C@H](C(=O)NCCCCNC(=O)c2ccc(-c3c4nc(c(-c5cccc(S(=O)(=O)[O-])c5F)c5ccc([nH]5)c(-c5cccc(S(=O)(=O)[O-])c5F)c5nc(c(-c6cccc(S(=O)(=O)[O-])c6F)c6ccc3[nH]6)C=C5)C=C4)cc2)N1C(=O)[C@@H]1CSc2ccccc21
REMARK SMILES IDX 11 1 10 2 9 3 8 4 6 5 7 6 5 8 1 9 2 10 3 11 79 12 4 13 80 14
REMARK SMILES IDX 81 15 82 16 83 17 90 18 84 19 85 20 89 21 86 22 88 23 87 24
REMARK SMILES IDX 12 25 13 26 14 27 15 29 16 30 17 31 78 32 18 33 77 34 19 35
REMARK SMILES IDX 20 36 21 37 71 38 22 39 76 40 70 41 72 42 23 43 75 44 69 45
REMARK SMILES IDX 68 46 24 48 56 49 36 50 55 51 37 52 40 53 54 54 73 55 38 56
REMARK SMILES IDX 39 57 53 59 74 60 41 61 25 62 26 63 34 64 27 65 29 66 35 67
REMARK SMILES IDX 28 68 30 69 31 70 32 71 33 72 57 73 58 74 66 75 59 76 61 77
REMARK SMILES IDX 67 78 60 79 62 80 63 81 64 82 65 83 42 84 43 85 51 86 44 87
REMARK SMILES IDX 46 88 52 89 45 90 47 91 48 92 49 93 50 94
REMARK H PARENT 8 7 13 28 72 47 40 58
REMARK Flexibility Score: inf
ROOT
ATOM      1  C   UNL A   1      31.726  31.805  26.785  1.00  0.00     0.023 C 
ENDROOT
BRANCH   1   2
ATOM      2  C   UNL A   1      31.934  30.291  26.728  1.00  0.00     0.023 C 
BRANCH   2   3
ATOM      3  C   UNL A   1      33.256  29.847  26.111  1.00  0.00     0.116 C 
BRANCH   3   4
ATOM      4  N   UNL A   1      33.181  29.698  24.673  1.00  0.00    -0.354 N 
ATOM      5  C   UNL A   1      32.435  28.855  23.905  1.00  0.00     0.243 C 
ATOM      6  O   UNL A   1      32.698  28.813  22.699  1.00  0.00    -0.273 OA
ATOM      7  H   UNL A   1      33.765  30.308  24.165  1.00  0.00     0.163 HD
BRANCH   5   8
ATOM      8  C   UNL A   1      31.467  27.823  24.515  1.00  0.00     0.185 C 
ATOM      9  C   UNL A   1      30.256  25.247  25.990  1.00  0.00     0.043 C 
ATOM     10  C   UNL A   1      30.630  25.548  24.536  1.00  0.00     0.141 C 
ATOM     11  S   UNL A   1      29.242  26.476  23.821  1.00  0.00    -0.135 SA
ATOM     12  N   UNL A   1      31.814  26.390  24.420  1.00  0.00    -0.318 N 
ATOM     13  C   UNL A   1      30.113  28.055  23.831  1.00  0.00     0.107 C 
BRANCH  12  14
ATOM     14  C   UNL A   1      33.079  25.992  24.841  1.00  0.00     0.232 C 
ATOM     15  O   UNL A   1      33.474  26.326  25.965  1.00  0.00    -0.274 OA
BRANCH  14  16
ATOM     16  C   UNL A   1      34.089  25.274  23.921  1.00  0.00     0.120 C 
ATOM     17  C   UNL A   1      33.491  24.868  22.569  1.00  0.00     0.093 C 
ATOM     18  C   UNL A   1      34.788  24.058  24.462  1.00  0.00    -0.021 A 
ATOM     19  S   UNL A   1      33.159  23.080  22.625  1.00  0.00    -0.125 SA
ATOM     20  C   UNL A   1      34.337  22.847  23.926  1.00  0.00     0.011 A 
ATOM     21  C   UNL A   1      35.788  24.071  25.427  1.00  0.00     0.006 A 
ATOM     22  C   UNL A   1      34.767  21.637  24.442  1.00  0.00     0.015 A 
ATOM     23  C   UNL A   1      36.254  22.855  25.927  1.00  0.00     0.000 A 
ATOM     24  C   UNL A   1      35.722  21.645  25.460  1.00  0.00     0.001 A 
ENDBRANCH  14  16
ENDBRANCH  12  14
ENDBRANCH   5   8
ENDBRANCH   3   4
ENDBRANCH   2   3
ENDBRANCH   1   2
BRANCH   1  25
ATOM     25  C   UNL A   1      32.914  32.616  27.295  1.00  0.00     0.116 C 
BRANCH  25  26
ATOM     26  N   UNL A   1      32.570  33.992  27.622  1.00  0.00    -0.352 N 
ATOM     27  C   UNL A   1      33.099  34.807  28.595  1.00  0.00     0.251 C 
ATOM     28  H   UNL A   1      31.862  34.396  27.069  1.00  0.00     0.163 HD
ATOM     29  O   UNL A   1      32.599  35.908  28.814  1.00  0.00    -0.269 OA
BRANCH  27  30
ATOM     30  C   UNL A   1      34.249  34.340  29.401  1.00  0.00     0.039 A 
ATOM     31  C   UNL A   1      34.006  33.606  30.564  1.00  0.00     0.014 A 
ATOM     32  C   UNL A   1      35.560  34.601  28.995  1.00  0.00     0.014 A 
ATOM     33  C   UNL A   1      35.080  33.072  31.282  1.00  0.00     0.010 A 
ATOM     34  C   UNL A   1      36.623  34.000  29.666  1.00  0.00     0.010 A 
ATOM     35  C   UNL A   1      36.397  33.232  30.818  1.00  0.00    -0.014 A 
BRANCH  35  36
ATOM     36  C   UNL A   1      37.544  32.592  31.513  1.00  0.00     0.031 A 
ATOM     37  C   UNL A   1      38.273  31.438  30.876  1.00  0.00     0.074 A 
ATOM     38  C   UNL A   1      37.877  32.989  32.758  1.00  0.00     0.049 A 
ATOM     39  N   UNL A   1      39.259  30.722  31.352  1.00  0.00    -0.248 NA
ATOM     40  C   UNL A   1      37.818  31.015  29.542  1.00  0.00     0.031 C 
ATOM     41  C   UNL A   1      37.197  34.038  33.522  1.00  0.00     0.029 A 
ATOM     42  N   UNL A   1      38.854  32.539  33.612  1.00  0.00    -0.354 N 
ATOM     43  C   UNL A   1      39.515  29.744  30.398  1.00  0.00     0.074 A 
ATOM     44  C   UNL A   1      38.557  29.936  29.331  1.00  0.00     0.031 C 
ATOM     45  C   UNL A   1      37.778  34.153  34.727  1.00  0.00     0.029 A 
ATOM     46  C   UNL A   1      38.851  33.169  34.837  1.00  0.00     0.049 A 
ATOM     47  H   UNL A   1      39.495  31.833  33.373  1.00  0.00     0.167 HD
ATOM     48  C   UNL A   1      40.476  28.790  30.394  1.00  0.00     0.034 A 
ATOM     49  C   UNL A   1      39.618  32.973  35.927  1.00  0.00     0.034 A 
ATOM     50  C   UNL A   1      41.454  28.627  31.436  1.00  0.00     0.049 A 
ATOM     51  C   UNL A   1      40.710  31.937  35.878  1.00  0.00     0.074 A 
ATOM     52  C   UNL A   1      42.525  27.753  31.479  1.00  0.00     0.029 A 
ATOM     53  N   UNL A   1      41.477  29.346  32.621  1.00  0.00    -0.354 N 
ATOM     54  N   UNL A   1      41.040  31.133  34.897  1.00  0.00    -0.248 NA
ATOM     55  C   UNL A   1      41.558  31.808  37.071  1.00  0.00     0.031 C 
ATOM     56  C   UNL A   1      43.181  27.923  32.703  1.00  0.00     0.029 A 
ATOM     57  C   UNL A   1      42.537  28.928  33.407  1.00  0.00     0.049 A 
ATOM     58  H   UNL A   1      40.834  30.049  32.867  1.00  0.00     0.167 HD
ATOM     59  C   UNL A   1      42.156  30.430  35.340  1.00  0.00     0.074 A 
ATOM     60  C   UNL A   1      42.457  30.920  36.669  1.00  0.00     0.031 C 
ATOM     61  C   UNL A   1      42.860  29.459  34.707  1.00  0.00     0.034 A 
BRANCH  48  62
ATOM     62  C   UNL A   1      40.549  27.874  29.199  1.00  0.00     0.023 A 
ATOM     63  C   UNL A   1      39.674  26.770  29.114  1.00  0.00     0.012 A 
ATOM     64  C   UNL A   1      41.433  28.137  28.135  1.00  0.00     0.148 A 
ATOM     65  C   UNL A   1      39.706  25.921  28.008  1.00  0.00     0.002 A 
ATOM     66  C   UNL A   1      41.425  27.314  27.015  1.00  0.00     0.091 A 
ATOM     67  F   UNL A   1      42.269  29.179  28.242  1.00  0.00    -0.205 F 
ATOM     68  C   UNL A   1      40.573  26.200  26.956  1.00  0.00     0.022 A 
BRANCH  66  69
ATOM     69  S   UNL A   1      42.444  27.635  25.570  1.00  0.00     0.127 S 
ATOM     70  O   UNL A   1      43.780  27.693  26.159  1.00  0.00    -0.237 OA
ATOM     71  O   UNL A   1      42.192  26.450  24.748  1.00  0.00    -0.237 OA
ATOM     72  O   UNL A   1      41.956  28.883  25.002  1.00  0.00    -0.744 OA
ENDBRANCH  66  69
ENDBRANCH  48  62
BRANCH  49  73
ATOM     73  C   UNL A   1      39.425  33.821  37.137  1.00  0.00     0.023 A 
ATOM     74  C   UNL A   1      39.896  35.149  37.135  1.00  0.00     0.012 A 
ATOM     75  C   UNL A   1      38.758  33.331  38.276  1.00  0.00     0.148 A 
ATOM     76  C   UNL A   1      39.739  35.961  38.258  1.00  0.00     0.002 A 
ATOM     77  C   UNL A   1      38.554  34.164  39.370  1.00  0.00     0.091 A 
ATOM     78  F   UNL A   1      38.326  32.063  38.262  1.00  0.00    -0.205 F 
ATOM     79  C   UNL A   1      39.061  35.474  39.371  1.00  0.00     0.022 A 
BRANCH  77  80
ATOM     80  S   UNL A   1      37.577  33.665  40.792  1.00  0.00     0.127 S 
ATOM     81  O   UNL A   1      36.397  33.085  40.156  1.00  0.00    -0.237 OA
ATOM     82  O   UNL A   1      38.465  32.700  41.443  1.00  0.00    -0.237 OA
ATOM     83  O   UNL A   1      37.350  34.882  41.560  1.00  0.00    -0.744 OA
ENDBRANCH  77  80
ENDBRANCH  49  73
BRANCH  61  84
ATOM     84  C   UNL A   1      44.056  28.883  35.419  1.00  0.00     0.023 A 
ATOM     85  C   UNL A   1      45.325  29.471  35.255  1.00  0.00     0.012 A 
ATOM     86  C   UNL A   1      43.906  27.801  36.309  1.00  0.00     0.148 A 
ATOM     87  C   UNL A   1      46.433  28.970  35.937  1.00  0.00     0.002 A 
ATOM     88  C   UNL A   1      45.004  27.340  37.026  1.00  0.00     0.091 A 
ATOM     89  F   UNL A   1      42.694  27.242  36.439  1.00  0.00    -0.205 F 
ATOM     90  C   UNL A   1      46.270  27.914  36.831  1.00  0.00     0.022 A 
BRANCH  88  91
ATOM     91  S   UNL A   1      44.869  26.051  38.270  1.00  0.00     0.127 S 
ATOM     92  O   UNL A   1      46.273  25.744  38.535  1.00  0.00    -0.237 OA
ATOM     93  O   UNL A   1      44.180  26.744  39.360  1.00  0.00    -0.237 OA
ATOM     94  O   UNL A   1      44.099  24.978  37.656  1.00  0.00    -0.744 OA
ENDBRANCH  88  91
ENDBRANCH  61  84
ENDBRANCH  35  36
ENDBRANCH  27  30
ENDBRANCH  25  26
ENDBRANCH   1  25
TORSDOF 16
ENDMDL
MODEL 2
REMARK VINA RESULT:     -12.3      6.339     11.623
REMARK SMILES C[C@H]1SC[C@H](C(=O)NCCCCNC(=O)c2ccc(-c3c4nc(c(-c5cccc(S(=O)(=O)[O-])c5F)c5ccc([nH]5)c(-c5cccc(S(=O)(=O)[O-])c5F)c5nc(c(-c6cccc(S(=O)(=O)[O-])c6F)c6ccc3[nH]6)C=C5)C=C4)cc2)N1C(=O)[C@@H]1CSc2ccccc21
REMARK SMILES IDX 11 1 10 2 9 3 8 4 6 5 7 6 5 8 1 9 2 10 3 11 79 12 4 13 80 14
REMARK SMILES IDX 81 15 82 16 83 17 90 18 84 19 85 20 89 21 86 22 88 23 87 24
REMARK SMILES IDX 12 25 13 26 14 27 15 29 16 30 17 31 78 32 18 33 77 34 19 35
REMARK SMILES IDX 20 36 21 37 71 38 22 39 76 40 70 41 72 42 23 43 75 44 69 45
REMARK SMILES IDX 68 46 24 48 56 49 36 50 55 51 37 52 40 53 54 54 73 55 38 56
REMARK SMILES IDX 39 57 53 59 74 60 41 61 25 62 26 63 34 64 27 65 29 66 35 67
REMARK SMILES IDX 28 68 30 69 31 70 32 71 33 72 57 73 58 74 66 75 59 76 61 77
REMARK SMILES IDX 67 78 60 79 62 80 63 81 64 82 65 83 42 84 43 85 51 86 44 87
REMARK SMILES IDX 46 88 52 89 45 90 47 91 48 92 49 93 50 94
REMARK H PARENT 8 7 13 28 72 47 40 58
REMARK Flexibility Score: inf
ROOT
ATOM      1  C   UNL A   1      38.046  19.664  24.848  1.00  0.00     0.023 C 
ENDROOT
BRANCH   1   2
ATOM      2  C   UNL A   1      37.234  20.922  24.535  1.00  0.00     0.023 C 
BRANCH   2   3
ATOM      3  C   UNL A   1      37.042  21.872  25.713  1.00  0.00     0.116 C 
BRANCH   3   4
ATOM      4  N   UNL A   1      35.844  21.587  26.472  1.00  0.00    -0.354 N 
ATOM      5  C   UNL A   1      34.531  21.626  26.108  1.00  0.00     0.243 C 
ATOM      6  O   UNL A   1      33.694  21.510  27.010  1.00  0.00    -0.273 OA
ATOM      7  H   UNL A   1      36.003  21.322  27.408  1.00  0.00     0.163 HD
BRANCH   5   8
ATOM      8  C   UNL A   1      34.080  22.026  24.690  1.00  0.00     0.185 C 
ATOM      9  C   UNL A   1      33.328  23.711  22.069  1.00  0.00     0.043 C 
ATOM     10  C   UNL A   1      32.530  23.262  23.296  1.00  0.00     0.141 C 
ATOM     11  S   UNL A   1      32.042  21.539  23.001  1.00  0.00    -0.135 SA
ATOM     12  N   UNL A   1      33.319  23.281  24.522  1.00  0.00    -0.318 N 
ATOM     13  C   UNL A   1      33.235  20.856  24.168  1.00  0.00     0.107 C 
BRANCH  12  14
ATOM     14  C   UNL A   1      33.842  24.445  25.076  1.00  0.00     0.232 C 
ATOM     15  O   UNL A   1      35.027  24.735  24.867  1.00  0.00    -0.274 OA
BRANCH  14  16
ATOM     16  C   UNL A   1      33.062  25.331  26.071  1.00  0.00     0.120 C 
ATOM     17  C   UNL A   1      31.717  24.728  26.490  1.00  0.00     0.093 C 
ATOM     18  C   UNL A   1      32.788  26.754  25.674  1.00  0.00    -0.021 A 
ATOM     19  S   UNL A   1      30.409  25.608  25.583  1.00  0.00    -0.125 SA
ATOM     20  C   UNL A   1      31.459  27.009  25.319  1.00  0.00     0.011 A 
ATOM     21  C   UNL A   1      33.736  27.770  25.625  1.00  0.00     0.006 A 
ATOM     22  C   UNL A   1      31.089  28.226  24.775  1.00  0.00     0.015 A 
ATOM     23  C   UNL A   1      33.362  29.013  25.113  1.00  0.00     0.000 A 
ATOM     24  C   UNL A   1      32.053  29.229  24.660  1.00  0.00     0.001 A 
ENDBRANCH  14  16
ENDBRANCH  12  14
ENDBRANCH   5   8
ENDBRANCH   3   4
ENDBRANCH   2   3
ENDBRANCH   1   2
BRANCH   1  25
ATOM     25  C   UNL A   1      38.901  19.728  26.111  1.00  0.00     0.116 C 
BRANCH  25  26
ATOM     26  N   UNL A   1      40.138  18.967  26.005  1.00  0.00    -0.352 N 
ATOM     27  C   UNL A   1      41.436  19.410  26.106  1.00  0.00     0.251 C 
ATOM     28  H   UNL A   1      40.030  18.003  25.840  1.00  0.00     0.163 HD
ATOM     29  O   UNL A   1      42.366  18.645  25.864  1.00  0.00    -0.269 OA
BRANCH  27  30
ATOM     30  C   UNL A   1      41.707  20.818  26.472  1.00  0.00     0.039 A 
ATOM     31  C   UNL A   1      42.358  21.090  27.677  1.00  0.00     0.014 A 
ATOM     32  C   UNL A   1      41.345  21.862  25.617  1.00  0.00     0.014 A 
ATOM     33  C   UNL A   1      42.712  22.405  27.990  1.00  0.00     0.010 A 
ATOM     34  C   UNL A   1      41.770  23.160  25.894  1.00  0.00     0.010 A 
ATOM     35  C   UNL A   1      42.455  23.447  27.084  1.00  0.00    -0.014 A 
BRANCH  35  36
ATOM     36  C   UNL A   1      42.907  24.837  27.355  1.00  0.00     0.031 A 
ATOM     37  C   UNL A   1      41.977  25.828  28.004  1.00  0.00     0.074 A 
ATOM     38  C   UNL A   1      44.126  25.237  26.937  1.00  0.00     0.049 A 
ATOM     39  N   UNL A   1      42.176  27.094  28.270  1.00  0.00    -0.248 NA
ATOM     40  C   UNL A   1      40.639  25.342  28.378  1.00  0.00     0.031 C 
ATOM     41  C   UNL A   1      45.091  24.400  26.220  1.00  0.00     0.029 A 
ATOM     42  N   UNL A   1      44.750  26.456  27.030  1.00  0.00    -0.354 N 
ATOM     43  C   UNL A   1      40.981  27.562  28.804  1.00  0.00     0.074 A 
ATOM     44  C   UNL A   1      40.051  26.454  28.792  1.00  0.00     0.031 C 
ATOM     45  C   UNL A   1      46.184  25.127  25.943  1.00  0.00     0.029 A 
ATOM     46  C   UNL A   1      45.990  26.489  26.432  1.00  0.00     0.049 A 
ATOM     47  H   UNL A   1      44.350  27.234  27.481  1.00  0.00     0.167 HD
ATOM     48  C   UNL A   1      40.690  28.794  29.287  1.00  0.00     0.034 A 
ATOM     49  C   UNL A   1      46.869  27.501  26.287  1.00  0.00     0.034 A 
ATOM     50  C   UNL A   1      41.629  29.882  29.337  1.00  0.00     0.049 A 
ATOM     51  C   UNL A   1      46.539  28.847  26.874  1.00  0.00     0.074 A 
ATOM     52  C   UNL A   1      41.460  31.137  29.894  1.00  0.00     0.029 A 
ATOM     53  N   UNL A   1      42.908  29.850  28.805  1.00  0.00    -0.354 N 
ATOM     54  N   UNL A   1      45.464  29.223  27.524  1.00  0.00    -0.248 NA
ATOM     55  C   UNL A   1      47.559  29.898  26.743  1.00  0.00     0.031 C 
ATOM     56  C   UNL A   1      42.628  31.875  29.673  1.00  0.00     0.029 A 
ATOM     57  C   UNL A   1      43.537  31.066  29.010  1.00  0.00     0.049 A 
ATOM     58  H   UNL A   1      43.311  29.076  28.349  1.00  0.00     0.167 HD
ATOM     59  C   UNL A   1      45.694  30.539  27.912  1.00  0.00     0.074 A 
ATOM     60  C   UNL A   1      47.019  30.887  27.440  1.00  0.00     0.031 C 
ATOM     61  C   UNL A   1      44.876  31.386  28.584  1.00  0.00     0.034 A 
BRANCH  48  62
ATOM     62  C   UNL A   1      39.309  29.018  29.848  1.00  0.00     0.023 A 
ATOM     63  C   UNL A   1      39.004  28.565  31.148  1.00  0.00     0.012 A 
ATOM     64  C   UNL A   1      38.336  29.729  29.119  1.00  0.00     0.148 A 
ATOM     65  C   UNL A   1      37.741  28.780  31.699  1.00  0.00     0.002 A 
ATOM     66  C   UNL A   1      37.095  29.981  29.692  1.00  0.00     0.091 A 
ATOM     67  F   UNL A   1      38.637  30.136  27.877  1.00  0.00    -0.205 F 
ATOM     68  C   UNL A   1      36.792  29.497  30.976  1.00  0.00     0.022 A 
BRANCH  66  69
ATOM     69  S   UNL A   1      35.833  30.966  28.877  1.00  0.00     0.127 S 
ATOM     70  O   UNL A   1      35.093  29.944  28.139  1.00  0.00    -0.237 OA
ATOM     71  O   UNL A   1      35.110  31.539  30.014  1.00  0.00    -0.237 OA
ATOM     72  O   UNL A   1      36.545  31.937  28.059  1.00  0.00    -0.744 OA
ENDBRANCH  66  69
ENDBRANCH  48  62
BRANCH  49  73
ATOM     73  C   UNL A   1      48.175  27.262  25.609  1.00  0.00     0.023 A 
ATOM     74  C   UNL A   1      49.267  26.785  26.360  1.00  0.00     0.012 A 
ATOM     75  C   UNL A   1      48.334  27.483  24.228  1.00  0.00     0.148 A 
ATOM     76  C   UNL A   1      50.505  26.565  25.753  1.00  0.00     0.002 A 
ATOM     77  C   UNL A   1      49.553  27.206  23.619  1.00  0.00     0.091 A 
ATOM     78  F   UNL A   1      47.286  27.947  23.534  1.00  0.00    -0.205 F 
ATOM     79  C   UNL A   1      50.645  26.765  24.384  1.00  0.00     0.022 A 
BRANCH  77  80
ATOM     80  S   UNL A   1      49.789  27.309  21.842  1.00  0.00     0.127 S 
ATOM     81  O   UNL A   1      49.624  28.740  21.600  1.00  0.00    -0.237 OA
ATOM     82  O   UNL A   1      51.157  26.811  21.691  1.00  0.00    -0.237 OA
ATOM     83  O   UNL A   1      48.770  26.446  21.260  1.00  0.00    -0.744 OA
ENDBRANCH  77  80
ENDBRANCH  49  73
BRANCH  61  84
ATOM     84  C   UNL A   1      45.398  32.763  28.898  1.00  0.00     0.023 A 
ATOM     85  C   UNL A   1      46.085  33.001  30.104  1.00  0.00     0.012 A 
ATOM     86  C   UNL A   1      45.270  33.808  27.960  1.00  0.00     0.148 A 
ATOM     87  C   UNL A   1      46.604  34.263  30.389  1.00  0.00     0.002 A 
ATOM     88  C   UNL A   1      45.836  35.048  28.226  1.00  0.00     0.091 A 
ATOM     89  F   UNL A   1      44.598  33.568  26.824  1.00  0.00    -0.205 F 
ATOM     90  C   UNL A   1      46.491  35.282  29.445  1.00  0.00     0.022 A 
BRANCH  88  91
ATOM     91  S   UNL A   1      45.825  36.388  27.030  1.00  0.00     0.127 S 
ATOM     92  O   UNL A   1      44.401  36.709  26.954  1.00  0.00    -0.237 OA
ATOM     93  O   UNL A   1      46.645  37.403  27.693  1.00  0.00    -0.237 OA
ATOM     94  O   UNL A   1      46.409  35.844  25.811  1.00  0.00    -0.744 OA
ENDBRANCH  88  91
ENDBRANCH  61  84
ENDBRANCH  35  36
ENDBRANCH  27  30
ENDBRANCH  25  26
ENDBRANCH   1  25
TORSDOF 16
ENDMDL
MODEL 3
REMARK VINA RESULT:     -12.1      2.428      7.977
REMARK SMILES C[C@H]1SC[C@H](C(=O)NCCCCNC(=O)c2ccc(-c3c4nc(c(-c5cccc(S(=O)(=O)[O-])c5F)c5ccc([nH]5)c(-c5cccc(S(=O)(=O)[O-])c5F)c5nc(c(-c6cccc(S(=O)(=O)[O-])c6F)c6ccc3[nH]6)C=C5)C=C4)cc2)N1C(=O)[C@@H]1CSc2ccccc21
REMARK SMILES IDX 11 1 10 2 9 3 8 4 6 5 7 6 5 8 1 9 2 10 3 11 79 12 4 13 80 14
REMARK SMILES IDX 81 15 82 16 83 17 90 18 84 19 85 20 89 21 86 22 88 23 87 24
REMARK SMILES IDX 12 25 13 26 14 27 15 29 16 30 17 31 78 32 18 33 77 34 19 35
REMARK SMILES IDX 20 36 21 37 71 38 22 39 76 40 70 41 72 42 23 43 75 44 69 45
REMARK SMILES IDX 68 46 24 48 56 49 36 50 55 51 37 52 40 53 54 54 73 55 38 56
REMARK SMILES IDX 39 57 53 59 74 60 41 61 25 62 26 63 34 64 27 65 29 66 35 67
REMARK SMILES IDX 28 68 30 69 31 70 32 71 33 72 57 73 58 74 66 75 59 76 61 77
REMARK SMILES IDX 67 78 60 79 62 80 63 81 64 82 65 83 42 84 43 85 51 86 44 87
REMARK SMILES IDX 46 88 52 89 45 90 47 91 48 92 49 93 50 94
REMARK H PARENT 8 7 13 28 72 47 40 58
REMARK Flexibility Score: inf
ROOT
ATOM      1  C   UNL A   1      31.450  29.214  26.128  1.00  0.00     0.023 C 
ENDROOT
BRANCH   1   2
ATOM      2  C   UNL A   1      31.604  28.079  27.142  1.00  0.00     0.023 C 
BRANCH   2   3
ATOM      3  C   UNL A   1      32.429  26.892  26.655  1.00  0.00     0.116 C 
BRANCH   3   4
ATOM      4  N   UNL A   1      31.689  25.648  26.681  1.00  0.00    -0.354 N 
ATOM      5  C   UNL A   1      31.194  24.888  25.663  1.00  0.00     0.243 C 
ATOM      6  O   UNL A   1      30.439  23.960  25.972  1.00  0.00    -0.273 OA
ATOM      7  H   UNL A   1      31.515  25.292  27.583  1.00  0.00     0.163 HD
BRANCH   5   8
ATOM      8  C   UNL A   1      31.358  25.283  24.183  1.00  0.00     0.185 C 
ATOM      9  C   UNL A   1      32.513  25.662  21.217  1.00  0.00     0.043 C 
ATOM     10  C   UNL A   1      32.622  26.487  22.503  1.00  0.00     0.141 C 
ATOM     11  S   UNL A   1      31.097  27.464  22.628  1.00  0.00    -0.135 SA
ATOM     12  N   UNL A   1      32.702  25.659  23.700  1.00  0.00    -0.318 N 
ATOM     13  C   UNL A   1      30.396  26.454  23.947  1.00  0.00     0.107 C 
BRANCH  12  14
ATOM     14  C   UNL A   1      33.760  24.795  23.963  1.00  0.00     0.232 C 
ATOM     15  O   UNL A   1      34.673  25.168  24.710  1.00  0.00    -0.274 OA
BRANCH  14  16
ATOM     16  C   UNL A   1      33.938  23.436  23.251  1.00  0.00     0.120 C 
ATOM     17  C   UNL A   1      32.652  22.605  23.208  1.00  0.00     0.093 C 
ATOM     18  C   UNL A   1      35.022  22.522  23.750  1.00  0.00    -0.021 A 
ATOM     19  S   UNL A   1      32.791  21.302  24.471  1.00  0.00    -0.125 SA
ATOM     20  C   UNL A   1      34.558  21.416  24.470  1.00  0.00     0.011 A 
ATOM     21  C   UNL A   1      36.386  22.718  23.561  1.00  0.00     0.006 A 
ATOM     22  C   UNL A   1      35.439  20.577  25.130  1.00  0.00     0.015 A 
ATOM     23  C   UNL A   1      37.281  21.854  24.193  1.00  0.00     0.000 A 
ATOM     24  C   UNL A   1      36.810  20.809  25.000  1.00  0.00     0.001 A 
ENDBRANCH  14  16
ENDBRANCH  12  14
ENDBRANCH   5   8
ENDBRANCH   3   4
ENDBRANCH   2   3
ENDBRANCH   1   2
BRANCH   1  25
ATOM     25  C   UNL A   1      32.679  30.097  25.934  1.00  0.00     0.116 C 
BRANCH  25  26
ATOM     26  N   UNL A   1      32.477  31.468  26.382  1.00  0.00    -0.352 N 
ATOM     27  C   UNL A   1      33.221  32.203  27.274  1.00  0.00     0.251 C 
ATOM     28  H   UNL A   1      31.701  31.931  25.992  1.00  0.00     0.163 HD
ATOM     29  O   UNL A   1      32.830  33.311  27.633  1.00  0.00    -0.269 OA
BRANCH  27  30
ATOM     30  C   UNL A   1      34.474  31.642  27.826  1.00  0.00     0.039 A 
ATOM     31  C   UNL A   1      35.551  32.499  28.065  1.00  0.00     0.014 A 
ATOM     32  C   UNL A   1      34.576  30.283  28.132  1.00  0.00     0.014 A 
ATOM     33  C   UNL A   1      36.705  32.005  28.679  1.00  0.00     0.010 A 
ATOM     34  C   UNL A   1      35.694  29.812  28.817  1.00  0.00     0.010 A 
ATOM     35  C   UNL A   1      36.772  30.665  29.096  1.00  0.00    -0.014 A 
BRANCH  35  36
ATOM     36  C   UNL A   1      37.952  30.143  29.835  1.00  0.00     0.031 A 
ATOM     37  C   UNL A   1      38.237  30.610  31.238  1.00  0.00     0.074 A 
ATOM     38  C   UNL A   1      38.817  29.316  29.214  1.00  0.00     0.049 A 
ATOM     39  N   UNL A   1      39.244  30.308  32.018  1.00  0.00    -0.248 NA
ATOM     40  C   UNL A   1      37.285  31.562  31.833  1.00  0.00     0.031 C 
ATOM     41  C   UNL A   1      38.701  28.855  27.829  1.00  0.00     0.029 A 
ATOM     42  N   UNL A   1      39.980  28.738  29.659  1.00  0.00    -0.354 N 
ATOM     43  C   UNL A   1      39.067  31.058  33.175  1.00  0.00     0.074 A 
ATOM     44  C   UNL A   1      37.877  31.857  32.981  1.00  0.00     0.031 C 
ATOM     45  C   UNL A   1      39.746  28.064  27.538  1.00  0.00     0.029 A 
ATOM     46  C   UNL A   1      40.624  27.984  28.703  1.00  0.00     0.049 A 
ATOM     47  H   UNL A   1      40.324  28.852  30.574  1.00  0.00     0.167 HD
ATOM     48  C   UNL A   1      39.811  31.063  34.307  1.00  0.00     0.034 A 
ATOM     49  C   UNL A   1      41.790  27.311  28.753  1.00  0.00     0.034 A 
ATOM     50  C   UNL A   1      40.969  30.237  34.514  1.00  0.00     0.049 A 
ATOM     51  C   UNL A   1      42.572  27.296  30.040  1.00  0.00     0.074 A 
ATOM     52  C   UNL A   1      41.733  30.100  35.660  1.00  0.00     0.029 A 
ATOM     53  N   UNL A   1      41.538  29.415  33.554  1.00  0.00    -0.354 N 
ATOM     54  N   UNL A   1      42.297  27.883  31.179  1.00  0.00    -0.248 NA
ATOM     55  C   UNL A   1      43.804  26.494  30.060  1.00  0.00     0.031 C 
ATOM     56  C   UNL A   1      42.781  29.216  35.384  1.00  0.00     0.029 A 
ATOM     57  C   UNL A   1      42.649  28.776  34.077  1.00  0.00     0.049 A 
ATOM     58  H   UNL A   1      41.202  29.303  32.636  1.00  0.00     0.167 HD
ATOM     59  C   UNL A   1      43.299  27.492  32.061  1.00  0.00     0.074 A 
ATOM     60  C   UNL A   1      44.175  26.601  31.328  1.00  0.00     0.031 C 
ATOM     61  C   UNL A   1      43.484  27.849  33.355  1.00  0.00     0.034 A 
BRANCH  48  62
ATOM     62  C   UNL A   1      39.363  31.958  35.434  1.00  0.00     0.023 A 
ATOM     63  C   UNL A   1      38.476  31.458  36.410  1.00  0.00     0.012 A 
ATOM     64  C   UNL A   1      39.866  33.267  35.565  1.00  0.00     0.148 A 
ATOM     65  C   UNL A   1      38.064  32.259  37.475  1.00  0.00     0.002 A 
ATOM     66  C   UNL A   1      39.489  34.043  36.656  1.00  0.00     0.091 A 
ATOM     67  F   UNL A   1      40.693  33.732  34.619  1.00  0.00    -0.205 F 
ATOM     68  C   UNL A   1      38.580  33.545  37.603  1.00  0.00     0.022 A 
BRANCH  66  69
ATOM     69  S   UNL A   1      40.159  35.682  36.957  1.00  0.00     0.127 S 
ATOM     70  O   UNL A   1      39.644  36.427  35.809  1.00  0.00    -0.237 OA
ATOM     71  O   UNL A   1      39.543  36.035  38.237  1.00  0.00    -0.237 OA
ATOM     72  O   UNL A   1      41.606  35.524  37.001  1.00  0.00    -0.744 OA
ENDBRANCH  66  69
ENDBRANCH  48  62
BRANCH  49  73
ATOM     73  C   UNL A   1      42.258  26.540  27.567  1.00  0.00     0.023 A 
ATOM     74  C   UNL A   1      43.014  27.191  26.572  1.00  0.00     0.012 A 
ATOM     75  C   UNL A   1      41.980  25.167  27.429  1.00  0.00     0.148 A 
ATOM     76  C   UNL A   1      43.454  26.497  25.445  1.00  0.00     0.002 A 
ATOM     77  C   UNL A   1      42.471  24.467  26.332  1.00  0.00     0.091 A 
ATOM     78  F   UNL A   1      41.251  24.567  28.380  1.00  0.00    -0.205 F 
ATOM     79  C   UNL A   1      43.193  25.135  25.329  1.00  0.00     0.022 A 
BRANCH  77  80
ATOM     80  S   UNL A   1      42.296  22.688  26.166  1.00  0.00     0.127 S 
ATOM     81  O   UNL A   1      40.845  22.525  26.207  1.00  0.00    -0.237 OA
ATOM     82  O   UNL A   1      42.907  22.447  24.857  1.00  0.00    -0.237 OA
ATOM     83  O   UNL A   1      43.031  22.114  27.285  1.00  0.00    -0.744 OA
ENDBRANCH  77  80
ENDBRANCH  49  73
BRANCH  61  84
ATOM     84  C   UNL A   1      44.654  27.247  34.089  1.00  0.00     0.023 A 
ATOM     85  C   UNL A   1      45.890  27.920  34.121  1.00  0.00     0.012 A 
ATOM     86  C   UNL A   1      44.504  26.045  34.810  1.00  0.00     0.148 A 
ATOM     87  C   UNL A   1      46.969  27.390  34.828  1.00  0.00     0.002 A 
ATOM     88  C   UNL A   1      45.566  25.550  35.556  1.00  0.00     0.091 A 
ATOM     89  F   UNL A   1      43.324  25.408  34.754  1.00  0.00    -0.205 F 
ATOM     90  C   UNL A   1      46.804  26.213  35.555  1.00  0.00     0.022 A 
BRANCH  88  91
ATOM     91  S   UNL A   1      45.415  24.096  36.600  1.00  0.00     0.127 S 
ATOM     92  O   UNL A   1      46.816  23.741  36.820  1.00  0.00    -0.237 OA
ATOM     93  O   UNL A   1      44.729  24.630  37.777  1.00  0.00    -0.237 OA
ATOM     94  O   UNL A   1      44.638  23.130  35.835  1.00  0.00    -0.744 OA
ENDBRANCH  88  91
ENDBRANCH  61  84
ENDBRANCH  35  36
ENDBRANCH  27  30
ENDBRANCH  25  26
ENDBRANCH   1  25
TORSDOF 16
ENDMDL
