MODEL 1
REMARK VINA RESULT:     -10.8      0.000      0.000
REMARK SMILES C[C@]12C[C@@H](O)[C@H]3[C@@H](CCC4=CC(=O)C=C[C@]43C)[C@H]1CC[C@@]2(O)C(=O)COC(=O)CCC(=O)NCCCCNC(=O)c1ccc(-c2c3nc(c(-c4cccc(S(=O)(=O)[O-])c4F)c4ccc([nH]4)c(-c4cccc(S(=O)(=O)[O-])c4F)c4nc(c(-c5cccc(S(=O)(=O)[O-])c5F)c5ccc2[nH]5)C=C4)C=C3)cc1
REMARK SMILES IDX 31 1 32 2 33 3 30 5 29 6 27 7 28 8 26 9 25 10 23 11 24 12
REMARK SMILES IDX 21 13 17 14 16 15 15 16 10 17 6 18 14 19 11 20 9 21 7 22
REMARK SMILES IDX 4 23 12 24 8 25 18 26 3 27 13 28 2 29 19 30 1 31 20 32 5 33
REMARK SMILES IDX 22 35 34 37 35 38 36 39 37 40 38 41 39 42 40 44 41 45 42 46
REMARK SMILES IDX 103 47 43 48 102 49 44 50 45 51 46 52 96 53 47 54 101 55
REMARK SMILES IDX 95 56 97 57 48 58 100 59 94 60 93 61 49 63 81 64 61 65 80 66
REMARK SMILES IDX 62 67 65 68 79 69 98 70 63 71 64 72 78 74 99 75 66 76 50 77
REMARK SMILES IDX 51 78 59 79 52 80 54 81 60 82 53 83 55 84 56 85 57 86 58 87
REMARK SMILES IDX 82 88 83 89 91 90 84 91 86 92 92 93 85 94 87 95 88 96 89 97
REMARK SMILES IDX 90 98 67 99 68 100 76 101 69 102 71 103 77 104 70 105 72 106
REMARK SMILES IDX 73 107 74 108 75 109
REMARK H PARENT 33 4 5 34 22 36 38 43 97 62 65 73
REMARK Flexibility Score: inf
ROOT
ATOM      1  C   UNL A   1      36.832  29.742  30.350  1.00  0.00     0.220 C 
ATOM      2  O   UNL A   1      36.154  29.839  31.375  1.00  0.00    -0.275 OA
ATOM      3  N   UNL A   1      37.747  28.740  30.271  1.00  0.00    -0.356 N 
ATOM      4  H   UNL A   1      37.903  28.276  31.126  1.00  0.00     0.163 HD
ENDROOT
BRANCH   1   5
ATOM      5  C   UNL A   1      36.635  30.737  29.230  1.00  0.00     0.111 C 
BRANCH   5   6
ATOM      6  C   UNL A   1      35.763  30.177  28.112  1.00  0.00     0.132 C 
BRANCH   6   7
ATOM      7  C   UNL A   1      34.504  30.990  27.966  1.00  0.00     0.306 C 
ATOM      8  O   UNL A   1      34.171  31.894  28.717  1.00  0.00    -0.252 OA
BRANCH   7   9
ATOM      9  O   UNL A   1      33.838  30.580  26.860  1.00  0.00    -0.458 OA
BRANCH   9  10
ATOM     10  C   UNL A   1      32.448  30.815  26.742  1.00  0.00     0.311 C 
BRANCH  10  11
ATOM     11  C   UNL A   1      31.787  30.137  25.584  1.00  0.00     0.202 C 
ATOM     12  O   UNL A   1      30.785  30.682  25.092  1.00  0.00    -0.293 OA
BRANCH  11  13
ATOM     13  C   UNL A   1      32.347  28.844  24.937  1.00  0.00     0.132 C 
ATOM     14  C   UNL A   1      31.084  22.033  25.270  1.00  0.00     0.021 C 
ATOM     15  C   UNL A   1      32.430  22.777  24.997  1.00  0.00     0.013 C 
ATOM     16  C   UNL A   1      33.396  22.237  26.059  1.00  0.00    -0.012 C 
ATOM     17  C   UNL A   1      32.962  22.284  23.622  1.00  0.00    -0.056 C 
ATOM     18  C   UNL A   1      32.119  24.352  25.044  1.00  0.00     0.035 C 
ATOM     19  C   UNL A   1      33.998  21.037  25.933  1.00  0.00     0.048 C 
ATOM     20  C   UNL A   1      33.517  21.062  23.487  1.00  0.00     0.052 C 
ATOM     21  C   UNL A   1      33.127  23.187  22.437  1.00  0.00     0.032 C 
ATOM     22  C   UNL A   1      33.011  25.134  24.069  1.00  0.00    -0.000 C 
ATOM     23  C   UNL A   1      32.086  25.052  26.427  1.00  0.00     0.119 C 
ATOM     24  C   UNL A   1      33.824  20.256  24.684  1.00  0.00     0.178 C 
ATOM     25  C   UNL A   1      32.721  24.622  22.649  1.00  0.00     0.009 C 
ATOM     26  C   UNL A   1      32.801  26.659  24.082  1.00  0.00     0.002 C 
ATOM     27  C   UNL A   1      31.791  26.589  26.362  1.00  0.00     0.042 C 
ATOM     28  O   UNL A   1      34.001  19.049  24.615  1.00  0.00    -0.290 OA
ATOM     29  C   UNL A   1      32.755  27.393  25.456  1.00  0.00     0.009 C 
ATOM     30  C   UNL A   1      31.488  27.108  23.427  1.00  0.00     0.008 C 
ATOM     31  C   UNL A   1      34.138  27.383  26.134  1.00  0.00     0.015 C 
ATOM     32  C   UNL A   1      31.360  28.572  23.779  1.00  0.00     0.044 C 
BRANCH  23  33
ATOM     33  O   UNL A   1      31.105  24.467  27.280  1.00  0.00    -0.393 OA
ATOM     34  H   UNL A   1      30.884  25.087  27.992  1.00  0.00     0.210 HD
ENDBRANCH  23  33
BRANCH  13  35
ATOM     35  O   UNL A   1      33.555  29.379  24.310  1.00  0.00    -0.381 OA
ATOM     36  H   UNL A   1      34.005  28.673  23.821  1.00  0.00     0.212 HD
ENDBRANCH  13  35
ENDBRANCH  11  13
ENDBRANCH  10  11
ENDBRANCH   9  10
ENDBRANCH   7   9
ENDBRANCH   6   7
ENDBRANCH   5   6
ENDBRANCH   1   5
BRANCH   3  37
ATOM     37  C   UNL A   1      38.541  28.222  29.169  1.00  0.00     0.116 C 
BRANCH  37  38
ATOM     38  C   UNL A   1      39.588  27.186  29.596  1.00  0.00     0.023 C 
BRANCH  38  39
ATOM     39  C   UNL A   1      39.941  26.146  28.520  1.00  0.00     0.023 C 
BRANCH  39  40
ATOM     40  C   UNL A   1      40.090  26.627  27.079  1.00  0.00     0.116 C 
BRANCH  40  41
ATOM     41  N   UNL A   1      41.034  25.865  26.271  1.00  0.00    -0.352 N 
ATOM     42  C   UNL A   1      42.385  26.107  26.102  1.00  0.00     0.251 C 
ATOM     43  H   UNL A   1      40.667  25.089  25.790  1.00  0.00     0.163 HD
ATOM     44  O   UNL A   1      43.091  25.308  25.496  1.00  0.00    -0.269 OA
BRANCH  42  45
ATOM     45  C   UNL A   1      42.944  27.384  26.599  1.00  0.00     0.039 A 
ATOM     46  C   UNL A   1      42.571  28.569  25.955  1.00  0.00     0.014 A 
ATOM     47  C   UNL A   1      43.676  27.425  27.785  1.00  0.00     0.014 A 
ATOM     48  C   UNL A   1      42.820  29.797  26.573  1.00  0.00     0.010 A 
ATOM     49  C   UNL A   1      43.874  28.643  28.424  1.00  0.00     0.010 A 
ATOM     50  C   UNL A   1      43.410  29.836  27.847  1.00  0.00    -0.014 A 
BRANCH  50  51
ATOM     51  C   UNL A   1      43.460  31.076  28.662  1.00  0.00     0.031 A 
ATOM     52  C   UNL A   1      44.697  31.927  28.660  1.00  0.00     0.074 A 
ATOM     53  C   UNL A   1      42.467  31.322  29.543  1.00  0.00     0.049 A 
ATOM     54  N   UNL A   1      45.016  32.920  29.446  1.00  0.00    -0.248 NA
ATOM     55  C   UNL A   1      45.731  31.585  27.668  1.00  0.00     0.031 C 
ATOM     56  C   UNL A   1      41.257  30.511  29.704  1.00  0.00     0.029 A 
ATOM     57  N   UNL A   1      42.339  32.295  30.503  1.00  0.00    -0.354 N 
ATOM     58  C   UNL A   1      46.305  33.291  29.082  1.00  0.00     0.074 A 
ATOM     59  C   UNL A   1      46.716  32.399  28.020  1.00  0.00     0.031 C 
ATOM     60  C   UNL A   1      40.518  31.012  30.708  1.00  0.00     0.029 A 
ATOM     61  C   UNL A   1      41.214  32.157  31.285  1.00  0.00     0.049 A 
ATOM     62  H   UNL A   1      42.991  33.024  30.622  1.00  0.00     0.167 HD
ATOM     63  C   UNL A   1      47.066  34.297  29.575  1.00  0.00     0.034 A 
ATOM     64  C   UNL A   1      40.795  32.861  32.355  1.00  0.00     0.034 A 
ATOM     65  C   UNL A   1      46.624  35.213  30.590  1.00  0.00     0.049 A 
ATOM     66  C   UNL A   1      41.624  34.024  32.828  1.00  0.00     0.074 A 
ATOM     67  C   UNL A   1      47.280  36.323  31.091  1.00  0.00     0.029 A 
ATOM     68  N   UNL A   1      45.412  35.128  31.257  1.00  0.00    -0.354 N 
ATOM     69  N   UNL A   1      42.775  34.453  32.370  1.00  0.00    -0.248 NA
ATOM     70  C   UNL A   1      41.084  34.823  33.939  1.00  0.00     0.031 C 
ATOM     71  C   UNL A   1      46.465  36.908  32.065  1.00  0.00     0.029 A 
ATOM     72  C   UNL A   1      45.294  36.170  32.158  1.00  0.00     0.049 A 
ATOM     73  H   UNL A   1      44.734  34.429  31.111  1.00  0.00     0.167 HD
ATOM     74  C   UNL A   1      43.075  35.596  33.102  1.00  0.00     0.074 A 
ATOM     75  C   UNL A   1      41.981  35.798  34.030  1.00  0.00     0.031 C 
ATOM     76  C   UNL A   1      44.163  36.398  33.019  1.00  0.00     0.034 A 
BRANCH  63  77
ATOM     77  C   UNL A   1      48.432  34.501  28.974  1.00  0.00     0.023 A 
ATOM     78  C   UNL A   1      49.542  33.844  29.542  1.00  0.00     0.012 A 
ATOM     79  C   UNL A   1      48.611  35.290  27.821  1.00  0.00     0.148 A 
ATOM     80  C   UNL A   1      50.816  33.999  28.998  1.00  0.00     0.002 A 
ATOM     81  C   UNL A   1      49.877  35.403  27.256  1.00  0.00     0.091 A 
ATOM     82  F   UNL A   1      47.548  35.925  27.307  1.00  0.00    -0.205 F 
ATOM     83  C   UNL A   1      50.981  34.769  27.849  1.00  0.00     0.022 A 
BRANCH  81  84
ATOM     84  S   UNL A   1      50.179  36.307  25.734  1.00  0.00     0.127 S 
ATOM     85  O   UNL A   1      49.214  35.686  24.829  1.00  0.00    -0.237 OA
ATOM     86  O   UNL A   1      49.856  37.681  26.121  1.00  0.00    -0.237 OA
ATOM     87  O   UNL A   1      51.581  36.083  25.411  1.00  0.00    -0.744 OA
ENDBRANCH  81  84
ENDBRANCH  63  77
BRANCH  64  88
ATOM     88  C   UNL A   1      39.489  32.536  32.995  1.00  0.00     0.023 A 
ATOM     89  C   UNL A   1      39.449  31.567  34.018  1.00  0.00     0.012 A 
ATOM     90  C   UNL A   1      38.301  33.204  32.638  1.00  0.00     0.148 A 
ATOM     91  C   UNL A   1      38.247  31.249  34.652  1.00  0.00     0.002 A 
ATOM     92  C   UNL A   1      37.118  32.920  33.312  1.00  0.00     0.091 A 
ATOM     93  F   UNL A   1      38.355  34.116  31.657  1.00  0.00    -0.205 F 
ATOM     94  C   UNL A   1      37.085  31.931  34.307  1.00  0.00     0.022 A 
BRANCH  92  95
ATOM     95  S   UNL A   1      35.607  33.852  33.028  1.00  0.00     0.127 S 
ATOM     96  O   UNL A   1      35.218  33.394  31.697  1.00  0.00    -0.237 OA
ATOM     97  O   UNL A   1      34.750  33.382  34.117  1.00  0.00    -0.237 OA
ATOM     98  O   UNL A   1      35.989  35.253  33.135  1.00  0.00    -0.744 OA
ENDBRANCH  92  95
ENDBRANCH  64  88
BRANCH  76  99
ATOM     99  C   UNL A   1      44.213  37.613  33.906  1.00  0.00     0.023 A 
ATOM    100  C   UNL A   1      44.894  37.553  35.137  1.00  0.00     0.012 A 
ATOM    101  C   UNL A   1      43.686  38.840  33.459  1.00  0.00     0.148 A 
ATOM    102  C   UNL A   1      45.038  38.700  35.918  1.00  0.00     0.002 A 
ATOM    103  C   UNL A   1      43.872  39.986  34.222  1.00  0.00     0.091 A 
ATOM    104  F   UNL A   1      43.025  38.865  32.294  1.00  0.00    -0.205 F 
ATOM    105  C   UNL A   1      44.541  39.916  35.455  1.00  0.00     0.022 A 
BRANCH 103 106
ATOM    106  S   UNL A   1      43.352  41.612  33.660  1.00  0.00     0.127 S 
ATOM    107  O   UNL A   1      44.041  41.716  32.375  1.00  0.00    -0.237 OA
ATOM    108  O   UNL A   1      41.901  41.458  33.565  1.00  0.00    -0.237 OA
ATOM    109  O   UNL A   1      43.796  42.550  34.683  1.00  0.00    -0.744 OA
ENDBRANCH 103 106
ENDBRANCH  76  99
ENDBRANCH  50  51
ENDBRANCH  42  45
ENDBRANCH  40  41
ENDBRANCH  39  40
ENDBRANCH  38  39
ENDBRANCH  37  38
ENDBRANCH   3  37
TORSDOF 22
ENDMDL
MODEL 2
REMARK VINA RESULT:     -10.5      1.151      7.183
REMARK SMILES C[C@]12C[C@@H](O)[C@H]3[C@@H](CCC4=CC(=O)C=C[C@]43C)[C@H]1CC[C@@]2(O)C(=O)COC(=O)CCC(=O)NCCCCNC(=O)c1ccc(-c2c3nc(c(-c4cccc(S(=O)(=O)[O-])c4F)c4ccc([nH]4)c(-c4cccc(S(=O)(=O)[O-])c4F)c4nc(c(-c5cccc(S(=O)(=O)[O-])c5F)c5ccc2[nH]5)C=C4)C=C3)cc1
REMARK SMILES IDX 31 1 32 2 33 3 30 5 29 6 27 7 28 8 26 9 25 10 23 11 24 12
REMARK SMILES IDX 21 13 17 14 16 15 15 16 10 17 6 18 14 19 11 20 9 21 7 22
REMARK SMILES IDX 4 23 12 24 8 25 18 26 3 27 13 28 2 29 19 30 1 31 20 32 5 33
REMARK SMILES IDX 22 35 34 37 35 38 36 39 37 40 38 41 39 42 40 44 41 45 42 46
REMARK SMILES IDX 103 47 43 48 102 49 44 50 45 51 46 52 96 53 47 54 101 55
REMARK SMILES IDX 95 56 97 57 48 58 100 59 94 60 93 61 49 63 81 64 61 65 80 66
REMARK SMILES IDX 62 67 65 68 79 69 98 70 63 71 64 72 78 74 99 75 66 76 50 77
REMARK SMILES IDX 51 78 59 79 52 80 54 81 60 82 53 83 55 84 56 85 57 86 58 87
REMARK SMILES IDX 82 88 83 89 91 90 84 91 86 92 92 93 85 94 87 95 88 96 89 97
REMARK SMILES IDX 90 98 67 99 68 100 76 101 69 102 71 103 77 104 70 105 72 106
REMARK SMILES IDX 73 107 74 108 75 109
REMARK H PARENT 33 4 5 34 22 36 38 43 97 62 65 73
REMARK Flexibility Score: inf
ROOT
ATOM      1  C   UNL A   1      36.959  29.794  29.871  1.00  0.00     0.220 C 
ATOM      2  O   UNL A   1      36.233  30.021  30.841  1.00  0.00    -0.275 OA
ATOM      3  N   UNL A   1      37.777  28.710  29.914  1.00  0.00    -0.356 N 
ATOM      4  H   UNL A   1      37.836  28.293  30.804  1.00  0.00     0.163 HD
ENDROOT
BRANCH   1   5
ATOM      5  C   UNL A   1      36.924  30.726  28.681  1.00  0.00     0.111 C 
BRANCH   5   6
ATOM      6  C   UNL A   1      35.924  30.270  27.625  1.00  0.00     0.132 C 
BRANCH   6   7
ATOM      7  C   UNL A   1      34.633  31.034  27.756  1.00  0.00     0.306 C 
ATOM      8  O   UNL A   1      34.546  32.187  28.151  1.00  0.00    -0.252 OA
BRANCH   7   9
ATOM      9  O   UNL A   1      33.611  30.252  27.333  1.00  0.00    -0.458 OA
BRANCH   9  10
ATOM     10  C   UNL A   1      32.409  30.843  26.876  1.00  0.00     0.311 C 
BRANCH  10  11
ATOM     11  C   UNL A   1      31.797  30.188  25.678  1.00  0.00     0.202 C 
ATOM     12  O   UNL A   1      30.820  30.747  25.152  1.00  0.00    -0.293 OA
BRANCH  11  13
ATOM     13  C   UNL A   1      32.379  28.903  25.036  1.00  0.00     0.132 C 
ATOM     14  C   UNL A   1      31.076  22.094  25.203  1.00  0.00     0.021 C 
ATOM     15  C   UNL A   1      32.436  22.835  25.000  1.00  0.00     0.013 C 
ATOM     16  C   UNL A   1      33.353  22.274  26.093  1.00  0.00    -0.012 C 
ATOM     17  C   UNL A   1      33.024  22.362  23.641  1.00  0.00    -0.056 C 
ATOM     18  C   UNL A   1      32.129  24.411  25.059  1.00  0.00     0.035 C 
ATOM     19  C   UNL A   1      33.956  21.074  25.973  1.00  0.00     0.048 C 
ATOM     20  C   UNL A   1      33.580  21.140  23.510  1.00  0.00     0.052 C 
ATOM     21  C   UNL A   1      33.244  23.284  22.479  1.00  0.00     0.032 C 
ATOM     22  C   UNL A   1      33.065  25.204  24.136  1.00  0.00    -0.000 C 
ATOM     23  C   UNL A   1      32.040  25.089  26.451  1.00  0.00     0.119 C 
ATOM     24  C   UNL A   1      33.832  20.313  24.706  1.00  0.00     0.178 C 
ATOM     25  C   UNL A   1      32.834  24.716  22.697  1.00  0.00     0.009 C 
ATOM     26  C   UNL A   1      32.861  26.729  24.164  1.00  0.00     0.002 C 
ATOM     27  C   UNL A   1      31.754  26.628  26.398  1.00  0.00     0.042 C 
ATOM     28  O   UNL A   1      34.007  19.107  24.625  1.00  0.00    -0.290 OA
ATOM     29  C   UNL A   1      32.759  27.442  25.547  1.00  0.00     0.009 C 
ATOM     30  C   UNL A   1      31.579  27.195  23.461  1.00  0.00     0.008 C 
ATOM     31  C   UNL A   1      34.112  27.415  26.284  1.00  0.00     0.015 C 
ATOM     32  C   UNL A   1      31.442  28.654  23.832  1.00  0.00     0.044 C 
BRANCH  23  33
ATOM     33  O   UNL A   1      31.021  24.494  27.252  1.00  0.00    -0.393 OA
ATOM     34  H   UNL A   1      31.186  23.541  27.331  1.00  0.00     0.210 HD
ENDBRANCH  23  33
BRANCH  13  35
ATOM     35  O   UNL A   1      33.615  29.442  24.469  1.00  0.00    -0.381 OA
ATOM     36  H   UNL A   1      34.295  29.485  25.158  1.00  0.00     0.212 HD
ENDBRANCH  13  35
ENDBRANCH  11  13
ENDBRANCH  10  11
ENDBRANCH   9  10
ENDBRANCH   7   9
ENDBRANCH   6   7
ENDBRANCH   5   6
ENDBRANCH   1   5
BRANCH   3  37
ATOM     37  C   UNL A   1      38.583  28.048  28.901  1.00  0.00     0.116 C 
BRANCH  37  38
ATOM     38  C   UNL A   1      39.502  26.956  29.459  1.00  0.00     0.023 C 
BRANCH  38  39
ATOM     39  C   UNL A   1      39.981  25.926  28.423  1.00  0.00     0.023 C 
BRANCH  39  40
ATOM     40  C   UNL A   1      39.803  26.261  26.944  1.00  0.00     0.116 C 
BRANCH  40  41
ATOM     41  N   UNL A   1      40.607  25.458  26.031  1.00  0.00    -0.352 N 
ATOM     42  C   UNL A   1      41.931  25.655  25.680  1.00  0.00     0.251 C 
ATOM     43  H   UNL A   1      40.157  24.688  25.617  1.00  0.00     0.163 HD
ATOM     44  O   UNL A   1      42.526  24.826  25.000  1.00  0.00    -0.269 OA
BRANCH  42  45
ATOM     45  C   UNL A   1      42.588  26.921  26.076  1.00  0.00     0.039 A 
ATOM     46  C   UNL A   1      41.991  28.128  25.697  1.00  0.00     0.014 A 
ATOM     47  C   UNL A   1      43.671  26.913  26.956  1.00  0.00     0.014 A 
ATOM     48  C   UNL A   1      42.398  29.319  26.304  1.00  0.00     0.010 A 
ATOM     49  C   UNL A   1      44.036  28.089  27.599  1.00  0.00     0.010 A 
ATOM     50  C   UNL A   1      43.375  29.295  27.313  1.00  0.00    -0.014 A 
BRANCH  50  51
ATOM     51  C   UNL A   1      43.659  30.472  28.171  1.00  0.00     0.031 A 
ATOM     52  C   UNL A   1      42.697  30.861  29.257  1.00  0.00     0.074 A 
ATOM     53  C   UNL A   1      44.681  31.292  27.843  1.00  0.00     0.049 A 
ATOM     54  N   UNL A   1      42.656  31.955  29.970  1.00  0.00    -0.248 NA
ATOM     55  C   UNL A   1      41.611  29.910  29.547  1.00  0.00     0.031 C 
ATOM     56  C   UNL A   1      45.627  31.068  26.746  1.00  0.00     0.029 A 
ATOM     57  N   UNL A   1      45.065  32.502  28.366  1.00  0.00    -0.354 N 
ATOM     58  C   UNL A   1      41.515  31.851  30.756  1.00  0.00     0.074 A 
ATOM     59  C   UNL A   1      40.881  30.597  30.414  1.00  0.00     0.031 C 
ATOM     60  C   UNL A   1      46.473  32.109  26.671  1.00  0.00     0.029 A 
ATOM     61  C   UNL A   1      46.110  33.091  27.688  1.00  0.00     0.049 A 
ATOM     62  H   UNL A   1      44.634  32.912  29.150  1.00  0.00     0.167 HD
ATOM     63  C   UNL A   1      41.053  32.713  31.693  1.00  0.00     0.034 A 
ATOM     64  C   UNL A   1      46.702  34.290  27.856  1.00  0.00     0.034 A 
ATOM     65  C   UNL A   1      41.724  33.928  32.065  1.00  0.00     0.049 A 
ATOM     66  C   UNL A   1      46.216  35.191  28.959  1.00  0.00     0.074 A 
ATOM     67  C   UNL A   1      41.391  34.822  33.066  1.00  0.00     0.029 A 
ATOM     68  N   UNL A   1      42.867  34.417  31.454  1.00  0.00    -0.354 N 
ATOM     69  N   UNL A   1      45.224  35.005  29.795  1.00  0.00    -0.248 NA
ATOM     70  C   UNL A   1      46.950  36.448  29.168  1.00  0.00     0.031 C 
ATOM     71  C   UNL A   1      42.332  35.856  33.058  1.00  0.00     0.029 A 
ATOM     72  C   UNL A   1      43.260  35.596  32.061  1.00  0.00     0.049 A 
ATOM     73  H   UNL A   1      43.333  33.990  30.698  1.00  0.00     0.167 HD
ATOM     74  C   UNL A   1      45.242  36.095  30.657  1.00  0.00     0.074 A 
ATOM     75  C   UNL A   1      46.349  36.935  30.247  1.00  0.00     0.031 C 
ATOM     76  C   UNL A   1      44.411  36.378  31.688  1.00  0.00     0.034 A 
BRANCH  63  77
ATOM     77  C   UNL A   1      39.794  32.338  32.428  1.00  0.00     0.023 A 
ATOM     78  C   UNL A   1      39.845  31.342  33.425  1.00  0.00     0.012 A 
ATOM     79  C   UNL A   1      38.578  33.004  32.179  1.00  0.00     0.148 A 
ATOM     80  C   UNL A   1      38.699  30.986  34.134  1.00  0.00     0.002 A 
ATOM     81  C   UNL A   1      37.449  32.675  32.923  1.00  0.00     0.091 A 
ATOM     82  F   UNL A   1      38.542  33.932  31.212  1.00  0.00    -0.205 F 
ATOM     83  C   UNL A   1      37.505  31.660  33.892  1.00  0.00     0.022 A 
BRANCH  81  84
ATOM     84  S   UNL A   1      35.886  33.539  32.740  1.00  0.00     0.127 S 
ATOM     85  O   UNL A   1      36.292  34.928  32.954  1.00  0.00    -0.237 OA
ATOM     86  O   UNL A   1      35.515  33.218  31.361  1.00  0.00    -0.237 OA
ATOM     87  O   UNL A   1      35.001  32.979  33.751  1.00  0.00    -0.744 OA
ENDBRANCH  81  84
ENDBRANCH  63  77
BRANCH  64  88
ATOM     88  C   UNL A   1      47.872  34.667  27.013  1.00  0.00     0.023 A 
ATOM     89  C   UNL A   1      47.651  35.362  25.807  1.00  0.00     0.012 A 
ATOM     90  C   UNL A   1      49.194  34.389  27.412  1.00  0.00     0.148 A 
ATOM     91  C   UNL A   1      48.722  35.746  24.999  1.00  0.00     0.002 A 
ATOM     92  C   UNL A   1      50.259  34.824  26.629  1.00  0.00     0.091 A 
ATOM     93  F   UNL A   1      49.385  33.720  28.557  1.00  0.00    -0.205 F 
ATOM     94  C   UNL A   1      50.025  35.487  25.414  1.00  0.00     0.022 A 
BRANCH  92  95
ATOM     95  S   UNL A   1      51.968  34.657  27.159  1.00  0.00     0.127 S 
ATOM     96  O   UNL A   1      51.960  35.376  28.430  1.00  0.00    -0.237 OA
ATOM     97  O   UNL A   1      52.112  33.205  27.271  1.00  0.00    -0.237 OA
ATOM     98  O   UNL A   1      52.764  35.253  26.094  1.00  0.00    -0.744 OA
ENDBRANCH  92  95
ENDBRANCH  64  88
BRANCH  76  99
ATOM     99  C   UNL A   1      44.688  37.615  32.499  1.00  0.00     0.023 A 
ATOM    100  C   UNL A   1      45.523  37.539  33.629  1.00  0.00     0.012 A 
ATOM    101  C   UNL A   1      44.213  38.868  32.065  1.00  0.00     0.148 A 
ATOM    102  C   UNL A   1      45.872  38.696  34.326  1.00  0.00     0.002 A 
ATOM    103  C   UNL A   1      44.600  40.020  32.738  1.00  0.00     0.091 A 
ATOM    104  F   UNL A   1      43.403  38.910  30.998  1.00  0.00    -0.205 F 
ATOM    105  C   UNL A   1      45.424  39.935  33.873  1.00  0.00     0.022 A 
BRANCH 103 106
ATOM    106  S   UNL A   1      44.151  41.665  32.170  1.00  0.00     0.127 S 
ATOM    107  O   UNL A   1      44.848  42.513  33.137  1.00  0.00    -0.237 OA
ATOM    108  O   UNL A   1      44.711  41.690  30.819  1.00  0.00    -0.237 OA
ATOM    109  O   UNL A   1      42.696  41.724  32.223  1.00  0.00    -0.744 OA
ENDBRANCH 103 106
ENDBRANCH  76  99
ENDBRANCH  50  51
ENDBRANCH  42  45
ENDBRANCH  40  41
ENDBRANCH  39  40
ENDBRANCH  38  39
ENDBRANCH  37  38
ENDBRANCH   3  37
TORSDOF 22
ENDMDL
MODEL 3
REMARK VINA RESULT:     -10.1      4.936      9.167
REMARK SMILES C[C@]12C[C@@H](O)[C@H]3[C@@H](CCC4=CC(=O)C=C[C@]43C)[C@H]1CC[C@@]2(O)C(=O)COC(=O)CCC(=O)NCCCCNC(=O)c1ccc(-c2c3nc(c(-c4cccc(S(=O)(=O)[O-])c4F)c4ccc([nH]4)c(-c4cccc(S(=O)(=O)[O-])c4F)c4nc(c(-c5cccc(S(=O)(=O)[O-])c5F)c5ccc2[nH]5)C=C4)C=C3)cc1
REMARK SMILES IDX 31 1 32 2 33 3 30 5 29 6 27 7 28 8 26 9 25 10 23 11 24 12
REMARK SMILES IDX 21 13 17 14 16 15 15 16 10 17 6 18 14 19 11 20 9 21 7 22
REMARK SMILES IDX 4 23 12 24 8 25 18 26 3 27 13 28 2 29 19 30 1 31 20 32 5 33
REMARK SMILES IDX 22 35 34 37 35 38 36 39 37 40 38 41 39 42 40 44 41 45 42 46
REMARK SMILES IDX 103 47 43 48 102 49 44 50 45 51 46 52 96 53 47 54 101 55
REMARK SMILES IDX 95 56 97 57 48 58 100 59 94 60 93 61 49 63 81 64 61 65 80 66
REMARK SMILES IDX 62 67 65 68 79 69 98 70 63 71 64 72 78 74 99 75 66 76 50 77
REMARK SMILES IDX 51 78 59 79 52 80 54 81 60 82 53 83 55 84 56 85 57 86 58 87
REMARK SMILES IDX 82 88 83 89 91 90 84 91 86 92 92 93 85 94 87 95 88 96 89 97
REMARK SMILES IDX 90 98 67 99 68 100 76 101 69 102 71 103 77 104 70 105 72 106
REMARK SMILES IDX 73 107 74 108 75 109
REMARK H PARENT 33 4 5 34 22 36 38 43 97 62 65 73
REMARK Flexibility Score: inf
ROOT
ATOM      1  C   UNL A   1      40.485  25.152  27.741  1.00  0.00     0.220 C 
ATOM      2  O   UNL A   1      40.522  26.364  27.513  1.00  0.00    -0.275 OA
ATOM      3  N   UNL A   1      41.600  24.552  28.232  1.00  0.00    -0.356 N 
ATOM      4  H   UNL A   1      42.404  25.121  28.201  1.00  0.00     0.163 HD
ENDROOT
BRANCH   1   5
ATOM      5  C   UNL A   1      39.216  24.380  27.460  1.00  0.00     0.111 C 
BRANCH   5   6
ATOM      6  C   UNL A   1      39.220  23.759  26.069  1.00  0.00     0.132 C 
BRANCH   6   7
ATOM      7  C   UNL A   1      38.896  22.290  26.145  1.00  0.00     0.306 C 
ATOM      8  O   UNL A   1      39.486  21.485  26.849  1.00  0.00    -0.252 OA
BRANCH   7   9
ATOM      9  O   UNL A   1      37.834  22.030  25.344  1.00  0.00    -0.458 OA
BRANCH   9  10
ATOM     10  C   UNL A   1      37.384  20.699  25.175  1.00  0.00     0.311 C 
BRANCH  10  11
ATOM     11  C   UNL A   1      35.901  20.541  25.064  1.00  0.00     0.202 C 
ATOM     12  O   UNL A   1      35.464  19.430  24.722  1.00  0.00    -0.293 OA
BRANCH  11  13
ATOM     13  C   UNL A   1      34.907  21.671  25.433  1.00  0.00     0.132 C 
ATOM     14  C   UNL A   1      31.064  26.362  22.069  1.00  0.00     0.021 C 
ATOM     15  C   UNL A   1      31.725  26.456  23.481  1.00  0.00     0.013 C 
ATOM     16  C   UNL A   1      32.589  27.721  23.425  1.00  0.00    -0.012 C 
ATOM     17  C   UNL A   1      30.592  26.737  24.507  1.00  0.00    -0.056 C 
ATOM     18  C   UNL A   1      32.498  25.070  23.734  1.00  0.00     0.035 C 
ATOM     19  C   UNL A   1      32.059  28.954  23.558  1.00  0.00     0.048 C 
ATOM     20  C   UNL A   1      30.026  27.959  24.603  1.00  0.00     0.052 C 
ATOM     21  C   UNL A   1      30.225  25.783  25.604  1.00  0.00     0.032 C 
ATOM     22  C   UNL A   1      32.481  24.676  25.219  1.00  0.00    -0.000 C 
ATOM     23  C   UNL A   1      33.923  24.908  23.147  1.00  0.00     0.119 C 
ATOM     24  C   UNL A   1      30.620  29.103  23.886  1.00  0.00     0.178 C 
ATOM     25  C   UNL A   1      31.015  24.502  25.645  1.00  0.00     0.009 C 
ATOM     26  C   UNL A   1      33.236  23.377  25.551  1.00  0.00     0.002 C 
ATOM     27  C   UNL A   1      34.595  23.529  23.464  1.00  0.00     0.042 C 
ATOM     28  O   UNL A   1      29.981  30.121  23.665  1.00  0.00    -0.290 OA
ATOM     29  C   UNL A   1      34.669  23.178  24.970  1.00  0.00     0.009 C 
ATOM     30  C   UNL A   1      32.514  22.106  25.084  1.00  0.00     0.008 C 
ATOM     31  C   UNL A   1      35.669  24.153  25.620  1.00  0.00     0.015 C 
ATOM     32  C   UNL A   1      33.526  20.998  25.264  1.00  0.00     0.044 C 
BRANCH  23  33
ATOM     33  O   UNL A   1      33.920  25.063  21.730  1.00  0.00    -0.393 OA
ATOM     34  H   UNL A   1      33.069  25.432  21.447  1.00  0.00     0.210 HD
ENDBRANCH  23  33
BRANCH  13  35
ATOM     35  O   UNL A   1      35.136  21.747  26.876  1.00  0.00    -0.381 OA
ATOM     36  H   UNL A   1      35.981  21.325  27.092  1.00  0.00     0.212 HD
ENDBRANCH  13  35
ENDBRANCH  11  13
ENDBRANCH  10  11
ENDBRANCH   9  10
ENDBRANCH   7   9
ENDBRANCH   6   7
ENDBRANCH   5   6
ENDBRANCH   1   5
BRANCH   3  37
ATOM     37  C   UNL A   1      41.838  23.231  28.791  1.00  0.00     0.116 C 
BRANCH  37  38
ATOM     38  C   UNL A   1      43.066  22.524  28.207  1.00  0.00     0.023 C 
BRANCH  38  39
ATOM     39  C   UNL A   1      42.798  21.722  26.923  1.00  0.00     0.023 C 
BRANCH  39  40
ATOM     40  C   UNL A   1      44.001  21.214  26.131  1.00  0.00     0.116 C 
BRANCH  40  41
ATOM     41  N   UNL A   1      43.893  21.365  24.685  1.00  0.00    -0.352 N 
ATOM     42  C   UNL A   1      44.338  22.424  23.915  1.00  0.00     0.251 C 
ATOM     43  H   UNL A   1      43.454  20.630  24.202  1.00  0.00     0.163 HD
ATOM     44  O   UNL A   1      44.300  22.364  22.691  1.00  0.00    -0.269 OA
BRANCH  42  45
ATOM     45  C   UNL A   1      44.787  23.658  24.597  1.00  0.00     0.039 A 
ATOM     46  C   UNL A   1      43.819  24.587  24.996  1.00  0.00     0.014 A 
ATOM     47  C   UNL A   1      46.115  23.807  24.994  1.00  0.00     0.014 A 
ATOM     48  C   UNL A   1      44.163  25.594  25.902  1.00  0.00     0.010 A 
ATOM     49  C   UNL A   1      46.442  24.774  25.937  1.00  0.00     0.010 A 
ATOM     50  C   UNL A   1      45.461  25.648  26.433  1.00  0.00    -0.014 A 
BRANCH  50  51
ATOM     51  C   UNL A   1      45.814  26.517  27.584  1.00  0.00     0.031 A 
ATOM     52  C   UNL A   1      45.645  26.012  28.988  1.00  0.00     0.074 A 
ATOM     53  C   UNL A   1      46.099  27.818  27.359  1.00  0.00     0.049 A 
ATOM     54  N   UNL A   1      45.699  26.672  30.114  1.00  0.00    -0.248 NA
ATOM     55  C   UNL A   1      45.331  24.581  29.141  1.00  0.00     0.031 C 
ATOM     56  C   UNL A   1      46.196  28.448  26.040  1.00  0.00     0.029 A 
ATOM     57  N   UNL A   1      46.310  28.855  28.234  1.00  0.00    -0.354 N 
ATOM     58  C   UNL A   1      45.376  25.754  31.106  1.00  0.00     0.074 A 
ATOM     59  C   UNL A   1      45.106  24.496  30.444  1.00  0.00     0.031 C 
ATOM     60  C   UNL A   1      46.436  29.761  26.192  1.00  0.00     0.029 A 
ATOM     61  C   UNL A   1      46.475  30.075  27.616  1.00  0.00     0.049 A 
ATOM     62  H   UNL A   1      46.340  28.738  29.211  1.00  0.00     0.167 HD
ATOM     63  C   UNL A   1      45.332  25.938  32.446  1.00  0.00     0.034 A 
ATOM     64  C   UNL A   1      46.626  31.309  28.135  1.00  0.00     0.034 A 
ATOM     65  C   UNL A   1      45.660  27.177  33.096  1.00  0.00     0.049 A 
ATOM     66  C   UNL A   1      46.653  31.470  29.631  1.00  0.00     0.074 A 
ATOM     67  C   UNL A   1      45.738  27.443  34.452  1.00  0.00     0.029 A 
ATOM     68  N   UNL A   1      45.968  28.357  32.438  1.00  0.00    -0.354 N 
ATOM     69  N   UNL A   1      46.495  30.557  30.558  1.00  0.00    -0.248 NA
ATOM     70  C   UNL A   1      46.914  32.819  30.155  1.00  0.00     0.031 C 
ATOM     71  C   UNL A   1      46.090  28.787  34.613  1.00  0.00     0.029 A 
ATOM     72  C   UNL A   1      46.247  29.352  33.356  1.00  0.00     0.049 A 
ATOM     73  H   UNL A   1      45.986  28.471  31.460  1.00  0.00     0.167 HD
ATOM     74  C   UNL A   1      46.683  31.208  31.771  1.00  0.00     0.074 A 
ATOM     75  C   UNL A   1      46.975  32.593  31.462  1.00  0.00     0.031 C 
ATOM     76  C   UNL A   1      46.611  30.706  33.027  1.00  0.00     0.034 A 
BRANCH  63  77
ATOM     77  C   UNL A   1      44.977  24.753  33.305  1.00  0.00     0.023 A 
ATOM     78  C   UNL A   1      43.623  24.396  33.467  1.00  0.00     0.012 A 
ATOM     79  C   UNL A   1      45.977  23.961  33.904  1.00  0.00     0.148 A 
ATOM     80  C   UNL A   1      43.266  23.293  34.241  1.00  0.00     0.002 A 
ATOM     81  C   UNL A   1      45.614  22.836  34.637  1.00  0.00     0.091 A 
ATOM     82  F   UNL A   1      47.258  24.328  33.759  1.00  0.00    -0.205 F 
ATOM     83  C   UNL A   1      44.260  22.508  34.816  1.00  0.00     0.022 A 
BRANCH  81  84
ATOM     84  S   UNL A   1      46.824  21.717  35.351  1.00  0.00     0.127 S 
ATOM     85  O   UNL A   1      47.465  22.575  36.346  1.00  0.00    -0.237 OA
ATOM     86  O   UNL A   1      45.977  20.662  35.910  1.00  0.00    -0.237 OA
ATOM     87  O   UNL A   1      47.671  21.290  34.246  1.00  0.00    -0.744 OA
ENDBRANCH  81  84
ENDBRANCH  63  77
BRANCH  64  88
ATOM     88  C   UNL A   1      46.849  32.475  27.233  1.00  0.00     0.023 A 
ATOM     89  C   UNL A   1      45.745  33.257  26.838  1.00  0.00     0.012 A 
ATOM     90  C   UNL A   1      48.138  32.842  26.800  1.00  0.00     0.148 A 
ATOM     91  C   UNL A   1      45.916  34.365  26.008  1.00  0.00     0.002 A 
ATOM     92  C   UNL A   1      48.308  33.979  26.017  1.00  0.00     0.091 A 
ATOM     93  F   UNL A   1      49.176  32.082  27.177  1.00  0.00    -0.205 F 
ATOM     94  C   UNL A   1      47.197  34.732  25.605  1.00  0.00     0.022 A 
BRANCH  92  95
ATOM     95  S   UNL A   1      49.934  34.604  25.573  1.00  0.00     0.127 S 
ATOM     96  O   UNL A   1      50.534  33.442  24.924  1.00  0.00    -0.237 OA
ATOM     97  O   UNL A   1      49.601  35.710  24.675  1.00  0.00    -0.237 OA
ATOM     98  O   UNL A   1      50.545  35.021  26.828  1.00  0.00    -0.744 OA
ENDBRANCH  92  95
ENDBRANCH  64  88
BRANCH  76  99
ATOM     99  C   UNL A   1      46.910  31.631  34.176  1.00  0.00     0.023 A 
ATOM    100  C   UNL A   1      48.235  31.783  34.626  1.00  0.00     0.012 A 
ATOM    101  C   UNL A   1      45.890  32.435  34.723  1.00  0.00     0.148 A 
ATOM    102  C   UNL A   1      48.539  32.715  35.619  1.00  0.00     0.002 A 
ATOM    103  C   UNL A   1      46.208  33.391  35.679  1.00  0.00     0.091 A 
ATOM    104  F   UNL A   1      44.634  32.257  34.291  1.00  0.00    -0.205 F 
ATOM    105  C   UNL A   1      47.531  33.528  36.133  1.00  0.00     0.022 A 
BRANCH 103 106
ATOM    106  S   UNL A   1      44.994  34.547  36.327  1.00  0.00     0.127 S 
ATOM    107  O   UNL A   1      45.813  35.370  37.216  1.00  0.00    -0.237 OA
ATOM    108  O   UNL A   1      44.535  35.226  35.115  1.00  0.00    -0.237 OA
ATOM    109  O   UNL A   1      43.980  33.734  36.986  1.00  0.00    -0.744 OA
ENDBRANCH 103 106
ENDBRANCH  76  99
ENDBRANCH  50  51
ENDBRANCH  42  45
ENDBRANCH  40  41
ENDBRANCH  39  40
ENDBRANCH  38  39
ENDBRANCH  37  38
ENDBRANCH   3  37
TORSDOF 22
ENDMDL
