MODEL 1
REMARK VINA RESULT:     -11.5      0.000      0.000
REMARK SMILES CCOC(=O)c1cc(C[NH2+]CC(=O)NCCCCNC(=O)c2ccc(-c3c4nc(c(-c5cccc(S(=O)(=O)[O-])c5F)c5ccc([nH]5)c(-c5cccc(S(=O)(=O)[O-])c5F)c5nc(c(-c6cccc(S(=O)(=O)[O-])c6F)c6ccc3[nH]6)C=C5)C=C4)cc2)c(C)o1
REMARK SMILES IDX 15 1 14 2 12 3 13 4 11 6 10 7 9 10 8 11 6 12 7 13 87 14
REMARK SMILES IDX 85 15 86 16 4 17 5 18 3 19 2 20 1 21 16 22 17 23 18 24 19 25
REMARK SMILES IDX 20 26 21 28 22 29 23 30 84 31 24 32 83 33 25 34 26 35 27 36
REMARK SMILES IDX 77 37 28 38 82 39 76 40 78 41 29 42 81 43 75 44 74 45 30 47
REMARK SMILES IDX 62 48 42 49 61 50 43 51 46 52 60 53 79 54 44 55 45 56 59 58
REMARK SMILES IDX 80 59 47 60 31 61 32 62 40 63 33 64 35 65 41 66 34 67 36 68
REMARK SMILES IDX 37 69 38 70 39 71 63 72 64 73 72 74 65 75 67 76 73 77 66 78
REMARK SMILES IDX 68 79 69 80 70 81 71 82 48 83 49 84 57 85 50 86 52 87 58 88
REMARK SMILES IDX 51 89 53 90 54 91 55 92 56 93
REMARK H PARENT 14 5 10 8 10 9 19 27 78 46 46 57
REMARK Flexibility Score: inf
ROOT
ATOM      1  C   UNL A   1      32.396  21.141  24.869  1.00  0.00     0.116 C 
ENDROOT
BRANCH   1   2
ATOM      2  N   UNL A   1      31.875  21.772  26.074  1.00  0.00    -0.351 N 
ATOM      3  C   UNL A   1      31.533  23.073  26.338  1.00  0.00     0.275 C 
ATOM      4  O   UNL A   1      31.217  23.362  27.496  1.00  0.00    -0.269 OA
ATOM      5  H   UNL A   1      31.745  21.157  26.831  1.00  0.00     0.163 HD
BRANCH   3   6
ATOM      6  C   UNL A   1      31.579  24.164  25.245  1.00  0.00     0.362 C 
BRANCH   6   7
ATOM      7  N   UNL A   1      30.261  24.834  25.017  1.00  0.00    -0.335 N 
ATOM      8  H   UNL A   1      30.006  24.776  24.031  1.00  0.00     0.347 HD
ATOM      9  H   UNL A   1      29.528  24.381  25.563  1.00  0.00     0.347 HD
BRANCH   7  10
ATOM     10  C   UNL A   1      30.403  26.221  25.409  1.00  0.00     0.301 C 
BRANCH  10  11
ATOM     11  C   UNL A   1      30.306  27.254  24.357  1.00  0.00     0.048 A 
ATOM     12  C   UNL A   1      29.115  28.666  23.076  1.00  0.00     0.212 A 
ATOM     13  C   UNL A   1      29.197  27.345  23.468  1.00  0.00     0.068 A 
ATOM     14  O   UNL A   1      30.262  29.315  23.447  1.00  0.00    -0.454 OA
ATOM     15  C   UNL A   1      30.979  28.454  24.233  1.00  0.00     0.110 A 
ATOM     16  C   UNL A   1      32.171  29.023  24.893  1.00  0.00     0.088 C 
BRANCH  12  17
ATOM     17  C   UNL A   1      27.983  29.410  22.568  1.00  0.00     0.374 C 
ATOM     18  O   UNL A   1      26.836  29.393  22.995  1.00  0.00    -0.242 OA
BRANCH  17  19
ATOM     19  O   UNL A   1      28.361  30.007  21.399  1.00  0.00    -0.460 OA
BRANCH  19  20
ATOM     20  C   UNL A   1      28.571  31.424  21.461  1.00  0.00     0.230 C 
ATOM     21  C   UNL A   1      27.873  32.028  20.250  1.00  0.00     0.049 C 
ENDBRANCH  19  20
ENDBRANCH  17  19
ENDBRANCH  12  17
ENDBRANCH  10  11
ENDBRANCH   7  10
ENDBRANCH   6   7
ENDBRANCH   3   6
ENDBRANCH   1   2
BRANCH   1  22
ATOM     22  C   UNL A   1      33.888  20.792  24.994  1.00  0.00     0.023 C 
BRANCH  22  23
ATOM     23  C   UNL A   1      34.849  21.928  24.675  1.00  0.00     0.023 C 
BRANCH  23  24
ATOM     24  C   UNL A   1      36.034  22.021  25.616  1.00  0.00     0.116 C 
BRANCH  24  25
ATOM     25  N   UNL A   1      37.006  20.949  25.427  1.00  0.00    -0.352 N 
ATOM     26  C   UNL A   1      38.360  20.960  25.667  1.00  0.00     0.251 C 
ATOM     27  H   UNL A   1      36.643  20.103  25.078  1.00  0.00     0.163 HD
ATOM     28  O   UNL A   1      39.053  20.000  25.346  1.00  0.00    -0.269 OA
BRANCH  26  29
ATOM     29  C   UNL A   1      38.971  22.158  26.279  1.00  0.00     0.039 A 
ATOM     30  C   UNL A   1      40.039  22.004  27.164  1.00  0.00     0.014 A 
ATOM     31  C   UNL A   1      38.536  23.431  25.909  1.00  0.00     0.014 A 
ATOM     32  C   UNL A   1      40.728  23.132  27.610  1.00  0.00     0.010 A 
ATOM     33  C   UNL A   1      39.292  24.540  26.259  1.00  0.00     0.010 A 
ATOM     34  C   UNL A   1      40.390  24.407  27.122  1.00  0.00    -0.014 A 
BRANCH  34  35
ATOM     35  C   UNL A   1      41.151  25.621  27.506  1.00  0.00     0.031 A 
ATOM     36  C   UNL A   1      40.475  26.699  28.311  1.00  0.00     0.074 A 
ATOM     37  C   UNL A   1      42.407  25.800  27.048  1.00  0.00     0.049 A 
ATOM     38  N   UNL A   1      40.926  27.877  28.656  1.00  0.00    -0.248 NA
ATOM     39  C   UNL A   1      39.093  26.436  28.755  1.00  0.00     0.031 C 
ATOM     40  C   UNL A   1      43.140  24.869  26.184  1.00  0.00     0.029 A 
ATOM     41  N   UNL A   1      43.283  26.843  27.223  1.00  0.00    -0.354 N 
ATOM     42  C   UNL A   1      39.877  28.504  29.318  1.00  0.00     0.074 A 
ATOM     43  C   UNL A   1      38.749  27.601  29.282  1.00  0.00     0.031 C 
ATOM     44  C   UNL A   1      44.356  25.376  25.917  1.00  0.00     0.029 A 
ATOM     45  C   UNL A   1      44.479  26.678  26.563  1.00  0.00     0.049 A 
ATOM     46  H   UNL A   1      43.074  27.634  27.770  1.00  0.00     0.167 HD
ATOM     47  C   UNL A   1      39.863  29.705  29.941  1.00  0.00     0.034 A 
ATOM     48  C   UNL A   1      45.553  27.490  26.487  1.00  0.00     0.034 A 
ATOM     49  C   UNL A   1      41.006  30.569  30.034  1.00  0.00     0.049 A 
ATOM     50  C   UNL A   1      45.529  28.795  27.238  1.00  0.00     0.074 A 
ATOM     51  C   UNL A   1      41.123  31.771  30.707  1.00  0.00     0.029 A 
ATOM     52  N   UNL A   1      42.236  30.317  29.446  1.00  0.00    -0.354 N 
ATOM     53  N   UNL A   1      44.576  29.303  27.980  1.00  0.00    -0.248 NA
ATOM     54  C   UNL A   1      46.743  29.622  27.173  1.00  0.00     0.031 C 
ATOM     55  C   UNL A   1      42.424  32.250  30.521  1.00  0.00     0.029 A 
ATOM     56  C   UNL A   1      43.120  31.336  29.747  1.00  0.00     0.049 A 
ATOM     57  H   UNL A   1      42.447  29.528  28.896  1.00  0.00     0.167 HD
ATOM     58  C   UNL A   1      45.089  30.485  28.504  1.00  0.00     0.074 A 
ATOM     59  C   UNL A   1      46.446  30.605  28.012  1.00  0.00     0.031 C 
ATOM     60  C   UNL A   1      44.489  31.398  29.305  1.00  0.00     0.034 A 
BRANCH  47  61
ATOM     61  C   UNL A   1      38.598  30.116  30.645  1.00  0.00     0.023 A 
ATOM     62  C   UNL A   1      38.403  29.736  31.989  1.00  0.00     0.012 A 
ATOM     63  C   UNL A   1      37.636  30.924  30.008  1.00  0.00     0.148 A 
ATOM     64  C   UNL A   1      37.258  30.127  32.680  1.00  0.00     0.002 A 
ATOM     65  C   UNL A   1      36.519  31.347  30.717  1.00  0.00     0.091 A 
ATOM     66  F   UNL A   1      37.829  31.257  28.725  1.00  0.00    -0.205 F 
ATOM     67  C   UNL A   1      36.323  30.942  32.049  1.00  0.00     0.022 A 
BRANCH  65  68
ATOM     68  S   UNL A   1      35.290  32.460  30.024  1.00  0.00     0.127 S 
ATOM     69  O   UNL A   1      34.382  32.638  31.158  1.00  0.00    -0.237 OA
ATOM     70  O   UNL A   1      36.094  33.637  29.695  1.00  0.00    -0.237 OA
ATOM     71  O   UNL A   1      34.721  31.768  28.877  1.00  0.00    -0.744 OA
ENDBRANCH  65  68
ENDBRANCH  47  61
BRANCH  48  72
ATOM     72  C   UNL A   1      46.772  27.066  25.738  1.00  0.00     0.023 A 
ATOM     73  C   UNL A   1      47.681  26.179  26.349  1.00  0.00     0.012 A 
ATOM     74  C   UNL A   1      47.038  27.531  24.437  1.00  0.00     0.148 A 
ATOM     75  C   UNL A   1      48.855  25.800  25.697  1.00  0.00     0.002 A 
ATOM     76  C   UNL A   1      48.183  27.106  23.771  1.00  0.00     0.091 A 
ATOM     77  F   UNL A   1      46.172  28.385  23.874  1.00  0.00    -0.205 F 
ATOM     78  C   UNL A   1      49.102  26.257  24.404  1.00  0.00     0.022 A 
BRANCH  76  79
ATOM     79  S   UNL A   1      48.505  27.541  22.058  1.00  0.00     0.127 S 
ATOM     80  O   UNL A   1      49.651  28.437  22.186  1.00  0.00    -0.237 OA
ATOM     81  O   UNL A   1      48.804  26.240  21.459  1.00  0.00    -0.237 OA
ATOM     82  O   UNL A   1      47.270  28.147  21.577  1.00  0.00    -0.744 OA
ENDBRANCH  76  79
ENDBRANCH  48  72
BRANCH  60  83
ATOM     83  C   UNL A   1      45.303  32.585  29.744  1.00  0.00     0.023 A 
ATOM     84  C   UNL A   1      46.083  32.505  30.913  1.00  0.00     0.012 A 
ATOM     85  C   UNL A   1      45.358  33.747  28.951  1.00  0.00     0.148 A 
ATOM     86  C   UNL A   1      46.883  33.576  31.304  1.00  0.00     0.002 A 
ATOM     87  C   UNL A   1      46.194  34.793  29.321  1.00  0.00     0.091 A 
ATOM     88  F   UNL A   1      44.593  33.809  27.851  1.00  0.00    -0.205 F 
ATOM     89  C   UNL A   1      46.948  34.714  30.503  1.00  0.00     0.022 A 
BRANCH  87  90
ATOM     90  S   UNL A   1      46.417  36.252  28.298  1.00  0.00     0.127 S 
ATOM     91  O   UNL A   1      47.869  36.426  28.340  1.00  0.00    -0.237 OA
ATOM     92  O   UNL A   1      45.893  35.810  27.005  1.00  0.00    -0.237 OA
ATOM     93  O   UNL A   1      45.640  37.309  28.933  1.00  0.00    -0.744 OA
ENDBRANCH  87  90
ENDBRANCH  60  83
ENDBRANCH  34  35
ENDBRANCH  26  29
ENDBRANCH  24  25
ENDBRANCH  23  24
ENDBRANCH  22  23
ENDBRANCH   1  22
TORSDOF 20
ENDMDL
MODEL 2
REMARK VINA RESULT:     -11.3      5.414      8.621
REMARK SMILES CCOC(=O)c1cc(C[NH2+]CC(=O)NCCCCNC(=O)c2ccc(-c3c4nc(c(-c5cccc(S(=O)(=O)[O-])c5F)c5ccc([nH]5)c(-c5cccc(S(=O)(=O)[O-])c5F)c5nc(c(-c6cccc(S(=O)(=O)[O-])c6F)c6ccc3[nH]6)C=C5)C=C4)cc2)c(C)o1
REMARK SMILES IDX 15 1 14 2 12 3 13 4 11 6 10 7 9 10 8 11 6 12 7 13 87 14
REMARK SMILES IDX 85 15 86 16 4 17 5 18 3 19 2 20 1 21 16 22 17 23 18 24 19 25
REMARK SMILES IDX 20 26 21 28 22 29 23 30 84 31 24 32 83 33 25 34 26 35 27 36
REMARK SMILES IDX 77 37 28 38 82 39 76 40 78 41 29 42 81 43 75 44 74 45 30 47
REMARK SMILES IDX 62 48 42 49 61 50 43 51 46 52 60 53 79 54 44 55 45 56 59 58
REMARK SMILES IDX 80 59 47 60 31 61 32 62 40 63 33 64 35 65 41 66 34 67 36 68
REMARK SMILES IDX 37 69 38 70 39 71 63 72 64 73 72 74 65 75 67 76 73 77 66 78
REMARK SMILES IDX 68 79 69 80 70 81 71 82 48 83 49 84 57 85 50 86 52 87 58 88
REMARK SMILES IDX 51 89 53 90 54 91 55 92 56 93
REMARK H PARENT 14 5 10 8 10 9 19 27 78 46 46 57
REMARK Flexibility Score: inf
ROOT
ATOM      1  C   UNL A   1      32.789  27.887  25.026  1.00  0.00     0.116 C 
ENDROOT
BRANCH   1   2
ATOM      2  N   UNL A   1      33.287  27.619  23.683  1.00  0.00    -0.351 N 
ATOM      3  C   UNL A   1      33.280  26.476  22.927  1.00  0.00     0.275 C 
ATOM      4  O   UNL A   1      33.876  26.496  21.847  1.00  0.00    -0.269 OA
ATOM      5  H   UNL A   1      33.700  28.396  23.241  1.00  0.00     0.163 HD
BRANCH   3   6
ATOM      6  C   UNL A   1      32.590  25.183  23.415  1.00  0.00     0.362 C 
BRANCH   6   7
ATOM      7  N   UNL A   1      33.456  24.343  24.300  1.00  0.00    -0.335 N 
ATOM      8  H   UNL A   1      34.305  24.854  24.544  1.00  0.00     0.347 HD
ATOM      9  H   UNL A   1      32.966  24.107  25.163  1.00  0.00     0.347 HD
BRANCH   7  10
ATOM     10  C   UNL A   1      33.797  23.143  23.564  1.00  0.00     0.301 C 
BRANCH  10  11
ATOM     11  C   UNL A   1      33.455  21.838  24.166  1.00  0.00     0.048 A 
ATOM     12  C   UNL A   1      32.861  19.676  23.994  1.00  0.00     0.212 A 
ATOM     13  C   UNL A   1      32.510  20.946  23.583  1.00  0.00     0.068 A 
ATOM     14  O   UNL A   1      33.780  19.772  25.006  1.00  0.00    -0.454 OA
ATOM     15  C   UNL A   1      34.144  21.088  25.100  1.00  0.00     0.110 A 
ATOM     16  C   UNL A   1      35.267  21.384  26.012  1.00  0.00     0.088 C 
BRANCH  12  17
ATOM     17  C   UNL A   1      32.565  18.394  23.392  1.00  0.00     0.374 C 
ATOM     18  O   UNL A   1      32.122  18.189  22.271  1.00  0.00    -0.242 OA
BRANCH  17  19
ATOM     19  O   UNL A   1      32.687  17.437  24.360  1.00  0.00    -0.460 OA
BRANCH  19  20
ATOM     20  C   UNL A   1      33.471  16.289  24.006  1.00  0.00     0.230 C 
ATOM     21  C   UNL A   1      34.503  16.102  25.109  1.00  0.00     0.049 C 
ENDBRANCH  19  20
ENDBRANCH  17  19
ENDBRANCH  12  17
ENDBRANCH  10  11
ENDBRANCH   7  10
ENDBRANCH   6   7
ENDBRANCH   3   6
ENDBRANCH   1   2
BRANCH   1  22
ATOM     22  C   UNL A   1      31.409  28.564  25.011  1.00  0.00     0.023 C 
BRANCH  22  23
ATOM     23  C   UNL A   1      31.416  30.059  25.293  1.00  0.00     0.023 C 
BRANCH  23  24
ATOM     24  C   UNL A   1      32.305  30.468  26.451  1.00  0.00     0.116 C 
BRANCH  24  25
ATOM     25  N   UNL A   1      32.245  31.895  26.749  1.00  0.00    -0.352 N 
ATOM     26  C   UNL A   1      33.146  32.671  27.440  1.00  0.00     0.251 C 
ATOM     27  H   UNL A   1      31.450  32.366  26.411  1.00  0.00     0.163 HD
ATOM     28  O   UNL A   1      32.885  33.841  27.698  1.00  0.00    -0.269 OA
BRANCH  26  29
ATOM     29  C   UNL A   1      34.411  32.063  27.902  1.00  0.00     0.039 A 
ATOM     30  C   UNL A   1      35.546  32.864  28.036  1.00  0.00     0.014 A 
ATOM     31  C   UNL A   1      34.445  30.719  28.280  1.00  0.00     0.014 A 
ATOM     32  C   UNL A   1      36.691  32.336  28.631  1.00  0.00     0.010 A 
ATOM     33  C   UNL A   1      35.541  30.232  28.975  1.00  0.00     0.010 A 
ATOM     34  C   UNL A   1      36.682  31.029  29.150  1.00  0.00    -0.014 A 
BRANCH  34  35
ATOM     35  C   UNL A   1      37.851  30.460  29.865  1.00  0.00     0.031 A 
ATOM     36  C   UNL A   1      38.157  30.914  31.268  1.00  0.00     0.074 A 
ATOM     37  C   UNL A   1      38.688  29.620  29.223  1.00  0.00     0.049 A 
ATOM     38  N   UNL A   1      39.184  30.624  32.023  1.00  0.00    -0.248 NA
ATOM     39  C   UNL A   1      37.204  31.851  31.892  1.00  0.00     0.031 C 
ATOM     40  C   UNL A   1      38.549  29.176  27.833  1.00  0.00     0.029 A 
ATOM     41  N   UNL A   1      39.842  29.009  29.648  1.00  0.00    -0.354 N 
ATOM     42  C   UNL A   1      39.020  31.367  33.186  1.00  0.00     0.074 A 
ATOM     43  C   UNL A   1      37.826  32.163  33.019  1.00  0.00     0.031 C 
ATOM     44  C   UNL A   1      39.568  28.355  27.526  1.00  0.00     0.029 A 
ATOM     45  C   UNL A   1      40.449  28.238  28.683  1.00  0.00     0.049 A 
ATOM     46  H   UNL A   1      40.202  29.114  30.559  1.00  0.00     0.167 HD
ATOM     47  C   UNL A   1      39.769  31.357  34.313  1.00  0.00     0.034 A 
ATOM     48  C   UNL A   1      41.589  27.519  28.729  1.00  0.00     0.034 A 
ATOM     49  C   UNL A   1      40.916  30.513  34.501  1.00  0.00     0.049 A 
ATOM     50  C   UNL A   1      42.370  27.483  30.016  1.00  0.00     0.074 A 
ATOM     51  C   UNL A   1      41.700  30.368  35.631  1.00  0.00     0.029 A 
ATOM     52  N   UNL A   1      41.435  29.661  33.540  1.00  0.00    -0.354 N 
ATOM     53  N   UNL A   1      42.116  28.081  31.154  1.00  0.00    -0.248 NA
ATOM     54  C   UNL A   1      43.576  26.641  30.038  1.00  0.00     0.031 C 
ATOM     55  C   UNL A   1      42.699  29.431  35.350  1.00  0.00     0.029 A 
ATOM     56  C   UNL A   1      42.524  28.981  34.051  1.00  0.00     0.049 A 
ATOM     57  H   UNL A   1      41.080  29.556  32.627  1.00  0.00     0.167 HD
ATOM     58  C   UNL A   1      43.102  27.656  32.037  1.00  0.00     0.074 A 
ATOM     59  C   UNL A   1      43.945  26.732  31.308  1.00  0.00     0.031 C 
ATOM     60  C   UNL A   1      43.305  28.011  33.330  1.00  0.00     0.034 A 
BRANCH  47  61
ATOM     61  C   UNL A   1      39.322  32.222  35.460  1.00  0.00     0.023 A 
ATOM     62  C   UNL A   1      38.441  31.687  36.423  1.00  0.00     0.012 A 
ATOM     63  C   UNL A   1      39.814  33.531  35.625  1.00  0.00     0.148 A 
ATOM     64  C   UNL A   1      38.033  32.449  37.515  1.00  0.00     0.002 A 
ATOM     65  C   UNL A   1      39.438  34.269  36.740  1.00  0.00     0.091 A 
ATOM     66  F   UNL A   1      40.633  34.028  34.688  1.00  0.00    -0.205 F 
ATOM     67  C   UNL A   1      38.540  33.735  37.680  1.00  0.00     0.022 A 
BRANCH  65  68
ATOM     68  S   UNL A   1      40.090  35.907  37.089  1.00  0.00     0.127 S 
ATOM     69  O   UNL A   1      41.517  35.628  37.247  1.00  0.00    -0.237 OA
ATOM     70  O   UNL A   1      39.742  36.640  35.871  1.00  0.00    -0.237 OA
ATOM     71  O   UNL A   1      39.410  36.364  38.292  1.00  0.00    -0.744 OA
ENDBRANCH  65  68
ENDBRANCH  47  61
BRANCH  48  72
ATOM     72  C   UNL A   1      42.023  26.712  27.552  1.00  0.00     0.023 A 
ATOM     73  C   UNL A   1      42.684  27.351  26.485  1.00  0.00     0.012 A 
ATOM     74  C   UNL A   1      41.786  25.327  27.480  1.00  0.00     0.148 A 
ATOM     75  C   UNL A   1      43.060  26.636  25.348  1.00  0.00     0.002 A 
ATOM     76  C   UNL A   1      42.213  24.609  26.367  1.00  0.00     0.091 A 
ATOM     77  F   UNL A   1      41.144  24.735  28.496  1.00  0.00    -0.205 F 
ATOM     78  C   UNL A   1      42.833  25.263  25.292  1.00  0.00     0.022 A 
BRANCH  76  79
ATOM     79  S   UNL A   1      42.078  22.820  26.279  1.00  0.00     0.127 S 
ATOM     80  O   UNL A   1      42.792  22.405  27.482  1.00  0.00    -0.237 OA
ATOM     81  O   UNL A   1      40.629  22.617  26.321  1.00  0.00    -0.237 OA
ATOM     82  O   UNL A   1      42.692  22.450  25.010  1.00  0.00    -0.744 OA
ENDBRANCH  76  79
ENDBRANCH  48  72
BRANCH  60  83
ATOM     83  C   UNL A   1      44.451  27.365  34.059  1.00  0.00     0.023 A 
ATOM     84  C   UNL A   1      45.729  27.954  34.016  1.00  0.00     0.012 A 
ATOM     85  C   UNL A   1      44.240  26.221  34.853  1.00  0.00     0.148 A 
ATOM     86  C   UNL A   1      46.789  27.396  34.728  1.00  0.00     0.002 A 
ATOM     87  C   UNL A   1      45.289  25.699  35.599  1.00  0.00     0.091 A 
ATOM     88  F   UNL A   1      43.019  25.666  34.865  1.00  0.00    -0.205 F 
ATOM     89  C   UNL A   1      46.566  26.278  35.528  1.00  0.00     0.022 A 
BRANCH  87  90
ATOM     90  S   UNL A   1      45.070  24.323  36.732  1.00  0.00     0.127 S 
ATOM     91  O   UNL A   1      46.406  24.203  37.316  1.00  0.00    -0.237 OA
ATOM     92  O   UNL A   1      44.048  24.832  37.647  1.00  0.00    -0.237 OA
ATOM     93  O   UNL A   1      44.640  23.195  35.915  1.00  0.00    -0.744 OA
ENDBRANCH  87  90
ENDBRANCH  60  83
ENDBRANCH  34  35
ENDBRANCH  26  29
ENDBRANCH  24  25
ENDBRANCH  23  24
ENDBRANCH  22  23
ENDBRANCH   1  22
TORSDOF 20
ENDMDL
MODEL 3
REMARK VINA RESULT:     -11.1      1.735      7.853
REMARK SMILES CCOC(=O)c1cc(C[NH2+]CC(=O)NCCCCNC(=O)c2ccc(-c3c4nc(c(-c5cccc(S(=O)(=O)[O-])c5F)c5ccc([nH]5)c(-c5cccc(S(=O)(=O)[O-])c5F)c5nc(c(-c6cccc(S(=O)(=O)[O-])c6F)c6ccc3[nH]6)C=C5)C=C4)cc2)c(C)o1
REMARK SMILES IDX 15 1 14 2 12 3 13 4 11 6 10 7 9 10 8 11 6 12 7 13 87 14
REMARK SMILES IDX 85 15 86 16 4 17 5 18 3 19 2 20 1 21 16 22 17 23 18 24 19 25
REMARK SMILES IDX 20 26 21 28 22 29 23 30 84 31 24 32 83 33 25 34 26 35 27 36
REMARK SMILES IDX 77 37 28 38 82 39 76 40 78 41 29 42 81 43 75 44 74 45 30 47
REMARK SMILES IDX 62 48 42 49 61 50 43 51 46 52 60 53 79 54 44 55 45 56 59 58
REMARK SMILES IDX 80 59 47 60 31 61 32 62 40 63 33 64 35 65 41 66 34 67 36 68
REMARK SMILES IDX 37 69 38 70 39 71 63 72 64 73 72 74 65 75 67 76 73 77 66 78
REMARK SMILES IDX 68 79 69 80 70 81 71 82 48 83 49 84 57 85 50 86 52 87 58 88
REMARK SMILES IDX 51 89 53 90 54 91 55 92 56 93
REMARK H PARENT 14 5 10 8 10 9 19 27 78 46 46 57
REMARK Flexibility Score: inf
ROOT
ATOM      1  C   UNL A   1      33.159  21.181  24.763  1.00  0.00     0.116 C 
ENDROOT
BRANCH   1   2
ATOM      2  N   UNL A   1      32.397  21.645  25.916  1.00  0.00    -0.351 N 
ATOM      3  C   UNL A   1      32.372  22.857  26.555  1.00  0.00     0.275 C 
ATOM      4  O   UNL A   1      31.708  22.948  27.592  1.00  0.00    -0.269 OA
ATOM      5  H   UNL A   1      31.796  20.969  26.303  1.00  0.00     0.163 HD
BRANCH   3   6
ATOM      6  C   UNL A   1      33.178  24.068  26.034  1.00  0.00     0.362 C 
BRANCH   6   7
ATOM      7  N   UNL A   1      32.883  24.410  24.607  1.00  0.00    -0.335 N 
ATOM      8  H   UNL A   1      33.403  25.244  24.334  1.00  0.00     0.347 HD
ATOM      9  H   UNL A   1      33.160  23.646  23.990  1.00  0.00     0.347 HD
BRANCH   7  10
ATOM     10  C   UNL A   1      31.460  24.658  24.503  1.00  0.00     0.301 C 
BRANCH  10  11
ATOM     11  C   UNL A   1      31.015  25.841  23.738  1.00  0.00     0.048 A 
ATOM     12  C   UNL A   1      30.582  28.040  23.572  1.00  0.00     0.212 A 
ATOM     13  C   UNL A   1      30.311  26.924  24.338  1.00  0.00     0.068 A 
ATOM     14  O   UNL A   1      31.170  27.646  22.399  1.00  0.00    -0.454 OA
ATOM     15  C   UNL A   1      31.438  26.309  22.509  1.00  0.00     0.110 A 
ATOM     16  C   UNL A   1      32.243  25.720  21.420  1.00  0.00     0.088 C 
BRANCH  12  17
ATOM     17  C   UNL A   1      30.521  29.442  23.927  1.00  0.00     0.374 C 
ATOM     18  O   UNL A   1      31.220  30.028  24.742  1.00  0.00    -0.242 OA
BRANCH  17  19
ATOM     19  O   UNL A   1      29.415  29.979  23.331  1.00  0.00    -0.460 OA
BRANCH  19  20
ATOM     20  C   UNL A   1      28.954  31.222  23.878  1.00  0.00     0.230 C 
ATOM     21  C   UNL A   1      28.028  31.844  22.843  1.00  0.00     0.049 C 
ENDBRANCH  19  20
ENDBRANCH  17  19
ENDBRANCH  12  17
ENDBRANCH  10  11
ENDBRANCH   7  10
ENDBRANCH   6   7
ENDBRANCH   3   6
ENDBRANCH   1   2
BRANCH   1  22
ATOM     22  C   UNL A   1      34.563  20.690  25.153  1.00  0.00     0.023 C 
BRANCH  22  23
ATOM     23  C   UNL A   1      35.714  21.546  24.643  1.00  0.00     0.023 C 
BRANCH  23  24
ATOM     24  C   UNL A   1      36.766  21.856  25.690  1.00  0.00     0.116 C 
BRANCH  24  25
ATOM     25  N   UNL A   1      37.838  20.868  25.740  1.00  0.00    -0.352 N 
ATOM     26  C   UNL A   1      39.149  21.036  26.121  1.00  0.00     0.251 C 
ATOM     27  H   UNL A   1      37.589  19.957  25.463  1.00  0.00     0.163 HD
ATOM     28  O   UNL A   1      39.951  20.116  25.997  1.00  0.00    -0.269 OA
BRANCH  26  29
ATOM     29  C   UNL A   1      39.584  22.348  26.640  1.00  0.00     0.039 A 
ATOM     30  C   UNL A   1      40.595  22.403  27.600  1.00  0.00     0.014 A 
ATOM     31  C   UNL A   1      39.044  23.523  26.112  1.00  0.00     0.014 A 
ATOM     32  C   UNL A   1      41.126  23.640  27.966  1.00  0.00     0.010 A 
ATOM     33  C   UNL A   1      39.651  24.739  26.390  1.00  0.00     0.010 A 
ATOM     34  C   UNL A   1      40.691  24.814  27.328  1.00  0.00    -0.014 A 
BRANCH  34  35
ATOM     35  C   UNL A   1      41.290  26.139  27.629  1.00  0.00     0.031 A 
ATOM     36  C   UNL A   1      42.707  26.426  27.210  1.00  0.00     0.074 A 
ATOM     37  C   UNL A   1      40.600  27.037  28.361  1.00  0.00     0.049 A 
ATOM     38  N   UNL A   1      43.448  27.472  27.469  1.00  0.00    -0.248 NA
ATOM     39  C   UNL A   1      43.400  25.382  26.431  1.00  0.00     0.031 C 
ATOM     40  C   UNL A   1      39.252  26.842  28.902  1.00  0.00     0.029 A 
ATOM     41  N   UNL A   1      40.951  28.290  28.801  1.00  0.00    -0.354 N 
ATOM     42  C   UNL A   1      44.696  27.196  26.921  1.00  0.00     0.074 A 
ATOM     43  C   UNL A   1      44.632  25.865  26.363  1.00  0.00     0.031 C 
ATOM     44  C   UNL A   1      38.886  27.938  29.588  1.00  0.00     0.029 A 
ATOM     45  C   UNL A   1      39.981  28.901  29.563  1.00  0.00     0.049 A 
ATOM     46  H   UNL A   1      41.816  28.711  28.591  1.00  0.00     0.167 HD
ATOM     47  C   UNL A   1      45.786  27.994  26.848  1.00  0.00     0.034 A 
ATOM     48  C   UNL A   1      39.980  30.103  30.173  1.00  0.00     0.034 A 
ATOM     49  C   UNL A   1      45.823  29.342  27.342  1.00  0.00     0.049 A 
ATOM     50  C   UNL A   1      41.186  30.992  30.025  1.00  0.00     0.074 A 
ATOM     51  C   UNL A   1      46.850  30.263  27.251  1.00  0.00     0.029 A 
ATOM     52  N   UNL A   1      44.782  29.966  28.011  1.00  0.00    -0.354 N 
ATOM     53  N   UNL A   1      42.303  30.768  29.377  1.00  0.00    -0.248 NA
ATOM     54  C   UNL A   1      41.118  32.317  30.660  1.00  0.00     0.031 C 
ATOM     55  C   UNL A   1      46.431  31.445  27.869  1.00  0.00     0.029 A 
ATOM     56  C   UNL A   1      45.137  31.263  28.330  1.00  0.00     0.049 A 
ATOM     57  H   UNL A   1      43.916  29.547  28.225  1.00  0.00     0.167 HD
ATOM     58  C   UNL A   1      43.051  31.934  29.489  1.00  0.00     0.074 A 
ATOM     59  C   UNL A   1      42.250  32.872  30.249  1.00  0.00     0.031 C 
ATOM     60  C   UNL A   1      44.295  32.202  29.023  1.00  0.00     0.034 A 
BRANCH  47  61
ATOM     61  C   UNL A   1      46.998  27.461  26.133  1.00  0.00     0.023 A 
ATOM     62  C   UNL A   1      47.129  27.678  24.746  1.00  0.00     0.012 A 
ATOM     63  C   UNL A   1      48.031  26.808  26.832  1.00  0.00     0.148 A 
ATOM     64  C   UNL A   1      48.255  27.227  24.059  1.00  0.00     0.002 A 
ATOM     65  C   UNL A   1      49.170  26.401  26.148  1.00  0.00     0.091 A 
ATOM     66  F   UNL A   1      47.878  26.594  28.146  1.00  0.00    -0.205 F 
ATOM     67  C   UNL A   1      49.279  26.599  24.761  1.00  0.00     0.022 A 
BRANCH  65  68
ATOM     68  S   UNL A   1      50.582  25.651  26.969  1.00  0.00     0.127 S 
ATOM     69  O   UNL A   1      51.484  25.412  25.842  1.00  0.00    -0.237 OA
ATOM     70  O   UNL A   1      51.008  26.715  27.878  1.00  0.00    -0.237 OA
ATOM     71  O   UNL A   1      50.077  24.453  27.624  1.00  0.00    -0.744 OA
ENDBRANCH  65  68
ENDBRANCH  47  61
BRANCH  48  72
ATOM     72  C   UNL A   1      38.774  30.575  30.913  1.00  0.00     0.023 A 
ATOM     73  C   UNL A   1      38.679  30.339  32.299  1.00  0.00     0.012 A 
ATOM     74  C   UNL A   1      37.724  31.249  30.261  1.00  0.00     0.148 A 
ATOM     75  C   UNL A   1      37.544  30.723  33.013  1.00  0.00     0.002 A 
ATOM     76  C   UNL A   1      36.619  31.679  30.989  1.00  0.00     0.091 A 
ATOM     77  F   UNL A   1      37.821  31.454  28.940  1.00  0.00    -0.205 F 
ATOM     78  C   UNL A   1      36.517  31.401  32.360  1.00  0.00     0.022 A 
BRANCH  76  79
ATOM     79  S   UNL A   1      35.320  32.674  30.249  1.00  0.00     0.127 S 
ATOM     80  O   UNL A   1      36.055  33.861  29.825  1.00  0.00    -0.237 OA
ATOM     81  O   UNL A   1      34.856  31.815  29.159  1.00  0.00    -0.237 OA
ATOM     82  O   UNL A   1      34.338  32.873  31.307  1.00  0.00    -0.744 OA
ENDBRANCH  76  79
ENDBRANCH  48  72
BRANCH  60  83
ATOM     83  C   UNL A   1      44.853  33.577  29.274  1.00  0.00     0.023 A 
ATOM     84  C   UNL A   1      45.517  33.853  30.484  1.00  0.00     0.012 A 
ATOM     85  C   UNL A   1      44.791  34.567  28.275  1.00  0.00     0.148 A 
ATOM     86  C   UNL A   1      46.085  35.105  30.710  1.00  0.00     0.002 A 
ATOM     87  C   UNL A   1      45.400  35.797  28.487  1.00  0.00     0.091 A 
ATOM     88  F   UNL A   1      44.137  34.289  27.137  1.00  0.00    -0.205 F 
ATOM     89  C   UNL A   1      46.037  36.072  29.708  1.00  0.00     0.022 A 
BRANCH  87  90
ATOM     90  S   UNL A   1      45.475  37.065  27.216  1.00  0.00     0.127 S 
ATOM     91  O   UNL A   1      44.058  37.360  27.007  1.00  0.00    -0.237 OA
ATOM     92  O   UNL A   1      46.228  38.128  27.880  1.00  0.00    -0.237 OA
ATOM     93  O   UNL A   1      46.161  36.456  26.084  1.00  0.00    -0.744 OA
ENDBRANCH  87  90
ENDBRANCH  60  83
ENDBRANCH  34  35
ENDBRANCH  26  29
ENDBRANCH  24  25
ENDBRANCH  23  24
ENDBRANCH  22  23
ENDBRANCH   1  22
TORSDOF 20
ENDMDL
