MODEL 1
REMARK VINA RESULT:      -6.9      0.000      0.000
REMARK SMILES CC(C)C[C@H](NC(=O)CNC(=O)[C@@H](NC(=O)OCc1ccccc1)C(C)C)C(=O)NCCCCNC(=O)c1ccc(-c2c3nc(c(-c4cccc(S(=O)(=O)[O-])c4F)c4ccc([nH]4)c(-c4cccc(S(=O)(=O)[O-])c4F)c4nc(c(-c5cccc(S(=O)(=O)[O-])c5F)c5ccc2[nH]5)C=C4)C=C3)cc1
REMARK SMILES IDX 28 1 29 2 30 3 5 5 4 6 2 7 1 8 3 9 6 10 7 11 8 13 9 14 10 15
REMARK SMILES IDX 11 16 12 18 13 19 14 20 15 21 16 23 17 24 18 25 19 26 20 27
REMARK SMILES IDX 24 28 21 29 23 30 22 31 25 32 26 33 27 34 31 35 32 36 33 37
REMARK SMILES IDX 34 38 35 39 36 40 37 42 38 43 39 44 100 45 40 46 99 47 41 48
REMARK SMILES IDX 42 49 43 50 93 51 44 52 98 53 92 54 94 55 45 56 97 57 91 58
REMARK SMILES IDX 90 59 46 61 78 62 58 63 77 64 59 65 62 66 76 67 95 68 60 69
REMARK SMILES IDX 61 70 75 72 96 73 63 74 47 75 48 76 56 77 49 78 51 79 57 80
REMARK SMILES IDX 50 81 52 82 53 83 54 84 55 85 79 86 80 87 88 88 81 89 83 90
REMARK SMILES IDX 89 91 82 92 84 93 85 94 86 95 87 96 64 97 65 98 73 99 66 100
REMARK SMILES IDX 68 101 74 102 67 103 69 104 70 105 71 106 72 107
REMARK H PARENT 30 4 6 12 10 17 14 22 35 41 94 60 62 71
REMARK Flexibility Score: inf
ROOT
ATOM      1  C   UNL A   1      37.906  31.637  35.457  1.00  0.00     0.242 C 
ATOM      2  O   UNL A   1      37.666  31.436  36.647  1.00  0.00    -0.273 OA
ATOM      3  N   UNL A   1      37.168  32.565  34.775  1.00  0.00    -0.354 N 
ATOM      4  H   UNL A   1      36.432  32.984  35.277  1.00  0.00     0.163 HD
ENDROOT
BRANCH   1   5
ATOM      5  C   UNL A   1      39.037  30.889  34.722  1.00  0.00     0.171 C 
BRANCH   5   6
ATOM      6  C   UNL A   1      38.481  29.689  33.960  1.00  0.00     0.038 C 
BRANCH   6   7
ATOM      7  C   UNL A   1      39.317  29.061  32.827  1.00  0.00    -0.015 C 
ATOM      8  C   UNL A   1      40.507  28.251  33.341  1.00  0.00     0.007 C 
ATOM      9  C   UNL A   1      38.398  28.144  32.005  1.00  0.00     0.007 C 
ENDBRANCH   6   7
ENDBRANCH   5   6
BRANCH   5  10
ATOM     10  N   UNL A   1      40.076  30.651  35.755  1.00  0.00    -0.343 N 
ATOM     11  C   UNL A   1      41.398  30.762  35.977  1.00  0.00     0.240 C 
ATOM     12  H   UNL A   1      39.647  30.283  36.561  1.00  0.00     0.164 HD
ATOM     13  O   UNL A   1      41.747  30.511  37.143  1.00  0.00    -0.273 OA
BRANCH  11  14
ATOM     14  C   UNL A   1      42.492  31.236  35.013  1.00  0.00     0.216 C 
BRANCH  14  15
ATOM     15  N   UNL A   1      43.203  30.346  34.133  1.00  0.00    -0.345 N 
ATOM     16  C   UNL A   1      44.042  29.310  34.385  1.00  0.00     0.243 C 
ATOM     17  H   UNL A   1      43.053  30.520  33.176  1.00  0.00     0.164 HD
ATOM     18  O   UNL A   1      44.310  28.590  33.417  1.00  0.00    -0.273 OA
BRANCH  16  19
ATOM     19  C   UNL A   1      44.628  28.979  35.788  1.00  0.00     0.177 C 
BRANCH  19  20
ATOM     20  N   UNL A   1      43.694  28.250  36.658  1.00  0.00    -0.309 N 
ATOM     21  C   UNL A   1      42.788  27.264  36.441  1.00  0.00     0.408 C 
ATOM     22  H   UNL A   1      43.735  28.540  37.597  1.00  0.00     0.167 HD
ATOM     23  O   UNL A   1      41.954  27.003  37.290  1.00  0.00    -0.225 OA
BRANCH  21  24
ATOM     24  O   UNL A   1      42.968  26.598  35.281  1.00  0.00    -0.445 OA
BRANCH  24  25
ATOM     25  C   UNL A   1      42.498  25.242  35.285  1.00  0.00     0.270 C 
BRANCH  25  26
ATOM     26  C   UNL A   1      43.589  24.219  35.029  1.00  0.00    -0.011 A 
ATOM     27  C   UNL A   1      44.351  23.644  36.060  1.00  0.00     0.007 A 
ATOM     28  C   UNL A   1      43.794  23.751  33.723  1.00  0.00     0.007 A 
ATOM     29  C   UNL A   1      45.287  22.645  35.802  1.00  0.00     0.000 A 
ATOM     30  C   UNL A   1      44.735  22.750  33.463  1.00  0.00     0.000 A 
ATOM     31  C   UNL A   1      45.480  22.197  34.501  1.00  0.00     0.000 A 
ENDBRANCH  25  26
ENDBRANCH  24  25
ENDBRANCH  21  24
ENDBRANCH  19  20
BRANCH  19  32
ATOM     32  C   UNL A   1      46.089  28.480  35.736  1.00  0.00     0.015 C 
ATOM     33  C   UNL A   1      46.900  28.960  36.950  1.00  0.00     0.010 C 
ATOM     34  C   UNL A   1      46.148  26.946  35.723  1.00  0.00     0.010 C 
ENDBRANCH  19  32
ENDBRANCH  16  19
ENDBRANCH  14  15
ENDBRANCH  11  14
ENDBRANCH   5  10
ENDBRANCH   1   5
BRANCH   3  35
ATOM     35  C   UNL A   1      37.335  33.006  33.404  1.00  0.00     0.116 C 
BRANCH  35  36
ATOM     36  C   UNL A   1      36.972  34.469  33.217  1.00  0.00     0.023 C 
BRANCH  36  37
ATOM     37  C   UNL A   1      35.530  34.692  32.780  1.00  0.00     0.023 C 
BRANCH  37  38
ATOM     38  C   UNL A   1      34.760  33.414  32.476  1.00  0.00     0.116 C 
BRANCH  38  39
ATOM     39  N   UNL A   1      34.042  33.476  31.208  1.00  0.00    -0.352 N 
ATOM     40  C   UNL A   1      34.534  33.250  29.945  1.00  0.00     0.251 C 
ATOM     41  H   UNL A   1      33.087  33.710  31.264  1.00  0.00     0.163 HD
ATOM     42  O   UNL A   1      33.857  33.486  28.952  1.00  0.00    -0.269 OA
BRANCH  40  43
ATOM     43  C   UNL A   1      35.912  32.742  29.821  1.00  0.00     0.039 A 
ATOM     44  C   UNL A   1      36.905  33.580  29.314  1.00  0.00     0.014 A 
ATOM     45  C   UNL A   1      36.224  31.473  30.318  1.00  0.00     0.014 A 
ATOM     46  C   UNL A   1      38.236  33.167  29.369  1.00  0.00     0.010 A 
ATOM     47  C   UNL A   1      37.556  31.103  30.450  1.00  0.00     0.010 A 
ATOM     48  C   UNL A   1      38.574  31.943  29.972  1.00  0.00    -0.014 A 
BRANCH  48  49
ATOM     49  C   UNL A   1      39.988  31.519  30.120  1.00  0.00     0.031 A 
ATOM     50  C   UNL A   1      40.947  32.374  30.901  1.00  0.00     0.074 A 
ATOM     51  C   UNL A   1      40.428  30.420  29.474  1.00  0.00     0.049 A 
ATOM     52  N   UNL A   1      42.228  32.205  31.097  1.00  0.00    -0.248 NA
ATOM     53  C   UNL A   1      40.404  33.598  31.514  1.00  0.00     0.031 C 
ATOM     54  C   UNL A   1      39.613  29.558  28.614  1.00  0.00     0.029 A 
ATOM     55  N   UNL A   1      41.677  29.854  29.422  1.00  0.00    -0.354 N 
ATOM     56  C   UNL A   1      42.650  33.316  31.815  1.00  0.00     0.074 A 
ATOM     57  C   UNL A   1      41.498  34.173  31.990  1.00  0.00     0.031 C 
ATOM     58  C   UNL A   1      40.380  28.565  28.133  1.00  0.00     0.029 A 
ATOM     59  C   UNL A   1      41.743  28.734  28.626  1.00  0.00     0.049 A 
ATOM     60  H   UNL A   1      42.452  30.215  29.909  1.00  0.00     0.167 HD
ATOM     61  C   UNL A   1      43.880  33.586  32.313  1.00  0.00     0.034 A 
ATOM     62  C   UNL A   1      42.786  27.934  28.327  1.00  0.00     0.034 A 
ATOM     63  C   UNL A   1      45.006  32.704  32.189  1.00  0.00     0.049 A 
ATOM     64  C   UNL A   1      44.128  28.227  28.941  1.00  0.00     0.074 A 
ATOM     65  C   UNL A   1      46.264  32.831  32.749  1.00  0.00     0.029 A 
ATOM     66  N   UNL A   1      45.014  31.532  31.449  1.00  0.00    -0.354 N 
ATOM     67  N   UNL A   1      44.468  29.193  29.761  1.00  0.00    -0.248 NA
ATOM     68  C   UNL A   1      45.223  27.300  28.620  1.00  0.00     0.031 C 
ATOM     69  C   UNL A   1      47.040  31.747  32.330  1.00  0.00     0.029 A 
ATOM     70  C   UNL A   1      46.257  30.930  31.529  1.00  0.00     0.049 A 
ATOM     71  H   UNL A   1      44.247  31.178  30.941  1.00  0.00     0.167 HD
ATOM     72  C   UNL A   1      45.801  28.969  30.082  1.00  0.00     0.074 A 
ATOM     73  C   UNL A   1      46.202  27.765  29.384  1.00  0.00     0.031 C 
ATOM     74  C   UNL A   1      46.623  29.701  30.873  1.00  0.00     0.034 A 
BRANCH  61  75
ATOM     75  C   UNL A   1      44.055  34.865  33.089  1.00  0.00     0.023 A 
ATOM     76  C   UNL A   1      43.932  34.849  34.493  1.00  0.00     0.012 A 
ATOM     77  C   UNL A   1      44.398  36.065  32.437  1.00  0.00     0.148 A 
ATOM     78  C   UNL A   1      44.113  36.016  35.235  1.00  0.00     0.002 A 
ATOM     79  C   UNL A   1      44.623  37.213  33.188  1.00  0.00     0.091 A 
ATOM     80  F   UNL A   1      44.487  36.065  31.100  1.00  0.00    -0.205 F 
ATOM     81  C   UNL A   1      44.469  37.193  34.584  1.00  0.00     0.022 A 
BRANCH  79  82
ATOM     82  S   UNL A   1      45.163  38.760  32.453  1.00  0.00     0.127 S 
ATOM     83  O   UNL A   1      46.400  38.355  31.787  1.00  0.00    -0.237 OA
ATOM     84  O   UNL A   1      44.057  39.073  31.547  1.00  0.00    -0.237 OA
ATOM     85  O   UNL A   1      45.326  39.694  33.559  1.00  0.00    -0.744 OA
ENDBRANCH  79  82
ENDBRANCH  61  75
BRANCH  62  86
ATOM     86  C   UNL A   1      42.583  26.731  27.471  1.00  0.00     0.023 A 
ATOM     87  C   UNL A   1      42.633  26.869  26.071  1.00  0.00     0.012 A 
ATOM     88  C   UNL A   1      42.372  25.456  28.028  1.00  0.00     0.148 A 
ATOM     89  C   UNL A   1      42.447  25.765  25.238  1.00  0.00     0.002 A 
ATOM     90  C   UNL A   1      42.240  24.350  27.195  1.00  0.00     0.091 A 
ATOM     91  F   UNL A   1      42.317  25.346  29.363  1.00  0.00    -0.205 F 
ATOM     92  C   UNL A   1      42.259  24.505  25.799  1.00  0.00     0.022 A 
BRANCH  90  93
ATOM     93  S   UNL A   1      42.123  22.673  27.827  1.00  0.00     0.127 S 
ATOM     94  O   UNL A   1      40.711  22.369  27.609  1.00  0.00    -0.237 OA
ATOM     95  O   UNL A   1      43.051  21.956  26.951  1.00  0.00    -0.237 OA
ATOM     96  O   UNL A   1      42.548  22.747  29.218  1.00  0.00    -0.744 OA
ENDBRANCH  90  93
ENDBRANCH  62  86
BRANCH  74  97
ATOM     97  C   UNL A   1      48.034  29.209  31.064  1.00  0.00     0.023 A 
ATOM     98  C   UNL A   1      49.070  29.722  30.258  1.00  0.00     0.012 A 
ATOM     99  C   UNL A   1      48.344  28.303  32.097  1.00  0.00     0.148 A 
ATOM    100  C   UNL A   1      50.389  29.316  30.458  1.00  0.00     0.002 A 
ATOM    101  C   UNL A   1      49.666  27.942  32.323  1.00  0.00     0.091 A 
ATOM    102  F   UNL A   1      47.341  27.813  32.841  1.00  0.00    -0.205 F 
ATOM    103  C   UNL A   1      50.688  28.439  31.498  1.00  0.00     0.022 A 
BRANCH 101 104
ATOM    104  S   UNL A   1      50.155  26.896  33.700  1.00  0.00     0.127 S 
ATOM    105  O   UNL A   1      49.628  27.641  34.841  1.00  0.00    -0.237 OA
ATOM    106  O   UNL A   1      49.451  25.647  33.408  1.00  0.00    -0.237 OA
ATOM    107  O   UNL A   1      51.607  26.799  33.632  1.00  0.00    -0.744 OA
ENDBRANCH 101 104
ENDBRANCH  74  97
ENDBRANCH  48  49
ENDBRANCH  40  43
ENDBRANCH  38  39
ENDBRANCH  37  38
ENDBRANCH  36  37
ENDBRANCH  35  36
ENDBRANCH   3  35
TORSDOF 25
ENDMDL
MODEL 2
REMARK VINA RESULT:      -6.6      8.616     14.928
REMARK SMILES CC(C)C[C@H](NC(=O)CNC(=O)[C@@H](NC(=O)OCc1ccccc1)C(C)C)C(=O)NCCCCNC(=O)c1ccc(-c2c3nc(c(-c4cccc(S(=O)(=O)[O-])c4F)c4ccc([nH]4)c(-c4cccc(S(=O)(=O)[O-])c4F)c4nc(c(-c5cccc(S(=O)(=O)[O-])c5F)c5ccc2[nH]5)C=C4)C=C3)cc1
REMARK SMILES IDX 28 1 29 2 30 3 5 5 4 6 2 7 1 8 3 9 6 10 7 11 8 13 9 14 10 15
REMARK SMILES IDX 11 16 12 18 13 19 14 20 15 21 16 23 17 24 18 25 19 26 20 27
REMARK SMILES IDX 24 28 21 29 23 30 22 31 25 32 26 33 27 34 31 35 32 36 33 37
REMARK SMILES IDX 34 38 35 39 36 40 37 42 38 43 39 44 100 45 40 46 99 47 41 48
REMARK SMILES IDX 42 49 43 50 93 51 44 52 98 53 92 54 94 55 45 56 97 57 91 58
REMARK SMILES IDX 90 59 46 61 78 62 58 63 77 64 59 65 62 66 76 67 95 68 60 69
REMARK SMILES IDX 61 70 75 72 96 73 63 74 47 75 48 76 56 77 49 78 51 79 57 80
REMARK SMILES IDX 50 81 52 82 53 83 54 84 55 85 79 86 80 87 88 88 81 89 83 90
REMARK SMILES IDX 89 91 82 92 84 93 85 94 86 95 87 96 64 97 65 98 73 99 66 100
REMARK SMILES IDX 68 101 74 102 67 103 69 104 70 105 71 106 72 107
REMARK H PARENT 30 4 6 12 10 17 14 22 35 41 94 60 62 71
REMARK Flexibility Score: inf
ROOT
ATOM      1  C   UNL A   1      45.658  44.201  27.309  1.00  0.00     0.242 C 
ATOM      2  O   UNL A   1      45.762  45.196  28.026  1.00  0.00    -0.273 OA
ATOM      3  N   UNL A   1      44.780  43.213  27.661  1.00  0.00    -0.354 N 
ATOM      4  H   UNL A   1      44.315  43.336  28.520  1.00  0.00     0.163 HD
ENDROOT
BRANCH   1   5
ATOM      5  C   UNL A   1      46.473  44.052  26.008  1.00  0.00     0.171 C 
BRANCH   5   6
ATOM      6  C   UNL A   1      47.938  44.410  26.248  1.00  0.00     0.038 C 
BRANCH   6   7
ATOM      7  C   UNL A   1      48.512  45.697  25.622  1.00  0.00    -0.015 C 
ATOM      8  C   UNL A   1      48.863  46.762  26.660  1.00  0.00     0.007 C 
ATOM      9  C   UNL A   1      49.778  45.322  24.835  1.00  0.00     0.007 C 
ENDBRANCH   6   7
ENDBRANCH   5   6
BRANCH   5  10
ATOM     10  N   UNL A   1      45.715  44.820  24.988  1.00  0.00    -0.343 N 
ATOM     11  C   UNL A   1      45.237  44.735  23.734  1.00  0.00     0.240 C 
ATOM     12  H   UNL A   1      45.479  45.700  25.361  1.00  0.00     0.164 HD
ATOM     13  O   UNL A   1      44.523  45.693  23.390  1.00  0.00    -0.273 OA
BRANCH  11  14
ATOM     14  C   UNL A   1      45.388  43.587  22.729  1.00  0.00     0.216 C 
BRANCH  14  15
ATOM     15  N   UNL A   1      44.285  42.768  22.300  1.00  0.00    -0.345 N 
ATOM     16  C   UNL A   1      43.631  42.687  21.114  1.00  0.00     0.243 C 
ATOM     17  H   UNL A   1      43.944  42.157  22.992  1.00  0.00     0.164 HD
ATOM     18  O   UNL A   1      42.875  41.718  20.984  1.00  0.00    -0.273 OA
BRANCH  16  19
ATOM     19  C   UNL A   1      43.811  43.696  19.943  1.00  0.00     0.177 C 
BRANCH  19  20
ATOM     20  N   UNL A   1      45.214  43.898  19.553  1.00  0.00    -0.309 N 
ATOM     21  C   UNL A   1      46.042  44.972  19.558  1.00  0.00     0.408 C 
ATOM     22  H   UNL A   1      45.643  43.079  19.215  1.00  0.00     0.167 HD
ATOM     23  O   UNL A   1      47.094  44.936  18.944  1.00  0.00    -0.225 OA
BRANCH  21  24
ATOM     24  O   UNL A   1      45.621  45.987  20.343  1.00  0.00    -0.445 OA
BRANCH  24  25
ATOM     25  C   UNL A   1      45.944  47.298  19.858  1.00  0.00     0.270 C 
BRANCH  25  26
ATOM     26  C   UNL A   1      44.767  48.023  19.233  1.00  0.00    -0.011 A 
ATOM     27  C   UNL A   1      44.527  49.394  19.426  1.00  0.00     0.007 A 
ATOM     28  C   UNL A   1      43.926  47.329  18.352  1.00  0.00     0.007 A 
ATOM     29  C   UNL A   1      43.486  50.050  18.771  1.00  0.00     0.000 A 
ATOM     30  C   UNL A   1      42.880  47.985  17.696  1.00  0.00     0.000 A 
ATOM     31  C   UNL A   1      42.661  49.344  17.904  1.00  0.00     0.000 A 
ENDBRANCH  25  26
ENDBRANCH  24  25
ENDBRANCH  21  24
ENDBRANCH  19  20
BRANCH  19  32
ATOM     32  C   UNL A   1      42.778  43.508  18.812  1.00  0.00     0.015 C 
ATOM     33  C   UNL A   1      41.600  44.485  18.947  1.00  0.00     0.010 C 
ATOM     34  C   UNL A   1      43.417  43.747  17.436  1.00  0.00     0.010 C 
ENDBRANCH  19  32
ENDBRANCH  16  19
ENDBRANCH  14  15
ENDBRANCH  11  14
ENDBRANCH   5  10
ENDBRANCH   1   5
BRANCH   3  35
ATOM     35  C   UNL A   1      44.450  42.007  26.927  1.00  0.00     0.116 C 
BRANCH  35  36
ATOM     36  C   UNL A   1      43.944  40.897  27.831  1.00  0.00     0.023 C 
BRANCH  36  37
ATOM     37  C   UNL A   1      42.996  39.926  27.139  1.00  0.00     0.023 C 
BRANCH  37  38
ATOM     38  C   UNL A   1      43.486  38.484  27.107  1.00  0.00     0.116 C 
BRANCH  38  39
ATOM     39  N   UNL A   1      44.793  38.346  26.474  1.00  0.00    -0.352 N 
ATOM     40  C   UNL A   1      45.724  37.352  26.665  1.00  0.00     0.251 C 
ATOM     41  H   UNL A   1      45.039  39.051  25.834  1.00  0.00     0.163 HD
ATOM     42  O   UNL A   1      46.847  37.440  26.183  1.00  0.00    -0.269 OA
BRANCH  40  43
ATOM     43  C   UNL A   1      45.340  36.193  27.489  1.00  0.00     0.039 A 
ATOM     44  C   UNL A   1      44.748  35.088  26.877  1.00  0.00     0.014 A 
ATOM     45  C   UNL A   1      45.678  36.172  28.845  1.00  0.00     0.014 A 
ATOM     46  C   UNL A   1      44.554  33.924  27.620  1.00  0.00     0.010 A 
ATOM     47  C   UNL A   1      45.564  34.984  29.555  1.00  0.00     0.010 A 
ATOM     48  C   UNL A   1      44.996  33.851  28.953  1.00  0.00    -0.014 A 
BRANCH  48  49
ATOM     49  C   UNL A   1      44.880  32.598  29.738  1.00  0.00     0.031 A 
ATOM     50  C   UNL A   1      45.966  31.561  29.657  1.00  0.00     0.074 A 
ATOM     51  C   UNL A   1      43.758  32.353  30.445  1.00  0.00     0.049 A 
ATOM     52  N   UNL A   1      46.024  30.383  30.220  1.00  0.00    -0.248 NA
ATOM     53  C   UNL A   1      47.125  31.873  28.803  1.00  0.00     0.031 C 
ATOM     54  C   UNL A   1      42.597  33.243  30.531  1.00  0.00     0.029 A 
ATOM     55  N   UNL A   1      43.401  31.270  31.208  1.00  0.00    -0.354 N 
ATOM     56  C   UNL A   1      47.195  29.800  29.758  1.00  0.00     0.074 A 
ATOM     57  C   UNL A   1      47.803  30.736  28.839  1.00  0.00     0.031 C 
ATOM     58  C   UNL A   1      41.665  32.676  31.314  1.00  0.00     0.029 A 
ATOM     59  C   UNL A   1      42.147  31.374  31.763  1.00  0.00     0.049 A 
ATOM     60  H   UNL A   1      43.988  30.492  31.345  1.00  0.00     0.167 HD
ATOM     61  C   UNL A   1      47.736  28.605  30.092  1.00  0.00     0.034 A 
ATOM     62  C   UNL A   1      41.463  30.516  32.547  1.00  0.00     0.034 A 
ATOM     63  C   UNL A   1      47.160  27.705  31.051  1.00  0.00     0.049 A 
ATOM     64  C   UNL A   1      42.114  29.219  32.948  1.00  0.00     0.074 A 
ATOM     65  C   UNL A   1      47.681  26.521  31.541  1.00  0.00     0.029 A 
ATOM     66  N   UNL A   1      45.928  27.883  31.662  1.00  0.00    -0.354 N 
ATOM     67  N   UNL A   1      43.301  28.761  32.635  1.00  0.00    -0.248 NA
ATOM     68  C   UNL A   1      41.345  28.338  33.839  1.00  0.00     0.031 C 
ATOM     69  C   UNL A   1      46.755  25.974  32.434  1.00  0.00     0.029 A 
ATOM     70  C   UNL A   1      45.668  26.829  32.518  1.00  0.00     0.049 A 
ATOM     71  H   UNL A   1      45.328  28.649  31.510  1.00  0.00     0.167 HD
ATOM     72  C   UNL A   1      43.438  27.558  33.319  1.00  0.00     0.074 A 
ATOM     73  C   UNL A   1      42.219  27.370  34.078  1.00  0.00     0.031 C 
ATOM     74  C   UNL A   1      44.474  26.684  33.310  1.00  0.00     0.034 A 
BRANCH  61  75
ATOM     75  C   UNL A   1      49.048  28.227  29.456  1.00  0.00     0.023 A 
ATOM     76  C   UNL A   1      50.243  28.811  29.927  1.00  0.00     0.012 A 
ATOM     77  C   UNL A   1      49.106  27.258  28.437  1.00  0.00     0.148 A 
ATOM     78  C   UNL A   1      51.472  28.460  29.370  1.00  0.00     0.002 A 
ATOM     79  C   UNL A   1      50.339  26.879  27.919  1.00  0.00     0.091 A 
ATOM     80  F   UNL A   1      47.958  26.733  27.986  1.00  0.00    -0.205 F 
ATOM     81  C   UNL A   1      51.521  27.487  28.375  1.00  0.00     0.022 A 
BRANCH  79  82
ATOM     82  S   UNL A   1      50.517  25.579  26.692  1.00  0.00     0.127 S 
ATOM     83  O   UNL A   1      50.211  24.386  27.480  1.00  0.00    -0.237 OA
ATOM     84  O   UNL A   1      49.493  25.941  25.711  1.00  0.00    -0.237 OA
ATOM     85  O   UNL A   1      51.886  25.673  26.204  1.00  0.00    -0.744 OA
ENDBRANCH  79  82
ENDBRANCH  61  75
BRANCH  62  86
ATOM     86  C   UNL A   1      40.121  30.894  33.073  1.00  0.00     0.023 A 
ATOM     87  C   UNL A   1      38.970  30.503  32.362  1.00  0.00     0.012 A 
ATOM     88  C   UNL A   1      39.974  31.604  34.279  1.00  0.00     0.148 A 
ATOM     89  C   UNL A   1      37.697  30.839  32.824  1.00  0.00     0.002 A 
ATOM     90  C   UNL A   1      38.702  31.890  34.762  1.00  0.00     0.091 A 
ATOM     91  F   UNL A   1      41.081  31.976  34.937  1.00  0.00    -0.205 F 
ATOM     92  C   UNL A   1      37.562  31.525  34.028  1.00  0.00     0.022 A 
BRANCH  90  93
ATOM     93  S   UNL A   1      38.427  32.655  36.364  1.00  0.00     0.127 S 
ATOM     94  O   UNL A   1      39.051  31.691  37.267  1.00  0.00    -0.237 OA
ATOM     95  O   UNL A   1      39.147  33.922  36.221  1.00  0.00    -0.237 OA
ATOM     96  O   UNL A   1      36.982  32.797  36.489  1.00  0.00    -0.744 OA
ENDBRANCH  90  93
ENDBRANCH  62  86
BRANCH  74  97
ATOM     97  C   UNL A   1      44.359  25.454  34.173  1.00  0.00     0.023 A 
ATOM     98  C   UNL A   1      43.829  24.266  33.632  1.00  0.00     0.012 A 
ATOM     99  C   UNL A   1      44.858  25.454  35.490  1.00  0.00     0.148 A 
ATOM    100  C   UNL A   1      43.767  23.105  34.401  1.00  0.00     0.002 A 
ATOM    101  C   UNL A   1      44.839  24.280  36.234  1.00  0.00     0.091 A 
ATOM    102  F   UNL A   1      45.342  26.600  35.991  1.00  0.00    -0.205 F 
ATOM    103  C   UNL A   1      44.284  23.108  35.695  1.00  0.00     0.022 A 
BRANCH 101 104
ATOM    104  S   UNL A   1      45.572  24.167  37.870  1.00  0.00     0.127 S 
ATOM    105  O   UNL A   1      45.519  22.729  38.121  1.00  0.00    -0.237 OA
ATOM    106  O   UNL A   1      46.916  24.699  37.647  1.00  0.00    -0.237 OA
ATOM    107  O   UNL A   1      44.738  24.985  38.739  1.00  0.00    -0.744 OA
ENDBRANCH 101 104
ENDBRANCH  74  97
ENDBRANCH  48  49
ENDBRANCH  40  43
ENDBRANCH  38  39
ENDBRANCH  37  38
ENDBRANCH  36  37
ENDBRANCH  35  36
ENDBRANCH   3  35
TORSDOF 25
ENDMDL
MODEL 3
REMARK VINA RESULT:      -6.5      5.317     12.664
REMARK SMILES CC(C)C[C@H](NC(=O)CNC(=O)[C@@H](NC(=O)OCc1ccccc1)C(C)C)C(=O)NCCCCNC(=O)c1ccc(-c2c3nc(c(-c4cccc(S(=O)(=O)[O-])c4F)c4ccc([nH]4)c(-c4cccc(S(=O)(=O)[O-])c4F)c4nc(c(-c5cccc(S(=O)(=O)[O-])c5F)c5ccc2[nH]5)C=C4)C=C3)cc1
REMARK SMILES IDX 28 1 29 2 30 3 5 5 4 6 2 7 1 8 3 9 6 10 7 11 8 13 9 14 10 15
REMARK SMILES IDX 11 16 12 18 13 19 14 20 15 21 16 23 17 24 18 25 19 26 20 27
REMARK SMILES IDX 24 28 21 29 23 30 22 31 25 32 26 33 27 34 31 35 32 36 33 37
REMARK SMILES IDX 34 38 35 39 36 40 37 42 38 43 39 44 100 45 40 46 99 47 41 48
REMARK SMILES IDX 42 49 43 50 93 51 44 52 98 53 92 54 94 55 45 56 97 57 91 58
REMARK SMILES IDX 90 59 46 61 78 62 58 63 77 64 59 65 62 66 76 67 95 68 60 69
REMARK SMILES IDX 61 70 75 72 96 73 63 74 47 75 48 76 56 77 49 78 51 79 57 80
REMARK SMILES IDX 50 81 52 82 53 83 54 84 55 85 79 86 80 87 88 88 81 89 83 90
REMARK SMILES IDX 89 91 82 92 84 93 85 94 86 95 87 96 64 97 65 98 73 99 66 100
REMARK SMILES IDX 68 101 74 102 67 103 69 104 70 105 71 106 72 107
REMARK H PARENT 30 4 6 12 10 17 14 22 35 41 94 60 62 71
REMARK Flexibility Score: inf
ROOT
ATOM      1  C   UNL A   1      46.566  34.967  25.566  1.00  0.00     0.242 C 
ATOM      2  O   UNL A   1      45.751  34.439  24.809  1.00  0.00    -0.273 OA
ATOM      3  N   UNL A   1      47.836  34.464  25.634  1.00  0.00    -0.354 N 
ATOM      4  H   UNL A   1      48.008  33.654  25.102  1.00  0.00     0.163 HD
ENDROOT
BRANCH   1   5
ATOM      5  C   UNL A   1      46.197  36.197  26.419  1.00  0.00     0.171 C 
BRANCH   5   6
ATOM      6  C   UNL A   1      44.762  36.087  26.930  1.00  0.00     0.038 C 
BRANCH   6   7
ATOM      7  C   UNL A   1      44.138  37.276  27.688  1.00  0.00    -0.015 C 
ATOM      8  C   UNL A   1      42.716  37.597  27.230  1.00  0.00     0.007 C 
ATOM      9  C   UNL A   1      44.122  36.932  29.186  1.00  0.00     0.007 C 
ENDBRANCH   6   7
ENDBRANCH   5   6
BRANCH   5  10
ATOM     10  N   UNL A   1      46.564  37.369  25.584  1.00  0.00    -0.343 N 
ATOM     11  C   UNL A   1      46.448  38.707  25.524  1.00  0.00     0.240 C 
ATOM     12  H   UNL A   1      47.068  37.056  24.799  1.00  0.00     0.164 HD
ATOM     13  O   UNL A   1      47.090  39.237  24.601  1.00  0.00    -0.273 OA
BRANCH  11  14
ATOM     14  C   UNL A   1      45.711  39.647  26.485  1.00  0.00     0.216 C 
BRANCH  14  15
ATOM     15  N   UNL A   1      44.603  40.472  26.081  1.00  0.00    -0.345 N 
ATOM     16  C   UNL A   1      44.416  41.815  26.127  1.00  0.00     0.243 C 
ATOM     17  H   UNL A   1      43.845  39.972  25.701  1.00  0.00     0.164 HD
ATOM     18  O   UNL A   1      43.449  42.244  25.487  1.00  0.00    -0.273 OA
BRANCH  16  19
ATOM     19  C   UNL A   1      45.346  42.804  26.888  1.00  0.00     0.177 C 
BRANCH  19  20
ATOM     20  N   UNL A   1      46.309  42.138  27.777  1.00  0.00    -0.309 N 
ATOM     21  C   UNL A   1      46.655  42.306  29.078  1.00  0.00     0.408 C 
ATOM     22  H   UNL A   1      46.810  41.417  27.333  1.00  0.00     0.167 HD
ATOM     23  O   UNL A   1      47.667  41.788  29.512  1.00  0.00    -0.225 OA
BRANCH  21  24
ATOM     24  O   UNL A   1      45.753  43.005  29.800  1.00  0.00    -0.445 OA
BRANCH  24  25
ATOM     25  C   UNL A   1      45.986  43.007  31.215  1.00  0.00     0.270 C 
BRANCH  25  26
ATOM     26  C   UNL A   1      44.715  42.937  32.041  1.00  0.00    -0.011 A 
ATOM     27  C   UNL A   1      43.696  43.900  31.955  1.00  0.00     0.007 A 
ATOM     28  C   UNL A   1      44.494  41.821  32.861  1.00  0.00     0.007 A 
ATOM     29  C   UNL A   1      42.503  43.763  32.663  1.00  0.00     0.000 A 
ATOM     30  C   UNL A   1      43.299  41.684  33.574  1.00  0.00     0.000 A 
ATOM     31  C   UNL A   1      42.304  42.653  33.474  1.00  0.00     0.000 A 
ENDBRANCH  25  26
ENDBRANCH  24  25
ENDBRANCH  21  24
ENDBRANCH  19  20
BRANCH  19  32
ATOM     32  C   UNL A   1      45.873  43.951  25.999  1.00  0.00     0.015 C 
ATOM     33  C   UNL A   1      45.567  45.330  26.606  1.00  0.00     0.010 C 
ATOM     34  C   UNL A   1      47.395  43.856  25.821  1.00  0.00     0.010 C 
ENDBRANCH  19  32
ENDBRANCH  16  19
ENDBRANCH  14  15
ENDBRANCH  11  14
ENDBRANCH   5  10
ENDBRANCH   1   5
BRANCH   3  35
ATOM     35  C   UNL A   1      48.959  34.977  26.394  1.00  0.00     0.116 C 
BRANCH  35  36
ATOM     36  C   UNL A   1      49.401  34.025  27.492  1.00  0.00     0.023 C 
BRANCH  36  37
ATOM     37  C   UNL A   1      50.182  34.701  28.611  1.00  0.00     0.023 C 
BRANCH  37  38
ATOM     38  C   UNL A   1      49.946  34.102  29.993  1.00  0.00     0.116 C 
BRANCH  38  39
ATOM     39  N   UNL A   1      49.437  35.078  30.950  1.00  0.00    -0.352 N 
ATOM     40  C   UNL A   1      48.153  35.209  31.424  1.00  0.00     0.251 C 
ATOM     41  H   UNL A   1      50.094  35.723  31.300  1.00  0.00     0.163 HD
ATOM     42  O   UNL A   1      47.829  36.171  32.111  1.00  0.00    -0.269 OA
BRANCH  40  43
ATOM     43  C   UNL A   1      47.172  34.174  31.056  1.00  0.00     0.039 A 
ATOM     44  C   UNL A   1      46.471  34.294  29.856  1.00  0.00     0.014 A 
ATOM     45  C   UNL A   1      47.044  33.033  31.855  1.00  0.00     0.014 A 
ATOM     46  C   UNL A   1      45.683  33.229  29.420  1.00  0.00     0.010 A 
ATOM     47  C   UNL A   1      46.329  31.944  31.375  1.00  0.00     0.010 A 
ATOM     48  C   UNL A   1      45.638  32.033  30.157  1.00  0.00    -0.014 A 
BRANCH  48  49
ATOM     49  C   UNL A   1      44.876  30.855  29.672  1.00  0.00     0.031 A 
ATOM     50  C   UNL A   1      45.510  29.907  28.691  1.00  0.00     0.074 A 
ATOM     51  C   UNL A   1      43.589  30.693  30.039  1.00  0.00     0.049 A 
ATOM     52  N   UNL A   1      44.993  28.857  28.110  1.00  0.00    -0.248 NA
ATOM     53  C   UNL A   1      46.896  30.196  28.283  1.00  0.00     0.031 C 
ATOM     54  C   UNL A   1      42.837  31.594  30.915  1.00  0.00     0.029 A 
ATOM     55  N   UNL A   1      42.678  29.725  29.700  1.00  0.00    -0.354 N 
ATOM     56  C   UNL A   1      45.968  28.388  27.240  1.00  0.00     0.074 A 
ATOM     57  C   UNL A   1      47.096  29.286  27.341  1.00  0.00     0.031 C 
ATOM     58  C   UNL A   1      41.585  31.128  31.056  1.00  0.00     0.029 A 
ATOM     59  C   UNL A   1      41.436  29.913  30.261  1.00  0.00     0.049 A 
ATOM     60  H   UNL A   1      42.893  28.966  29.111  1.00  0.00     0.167 HD
ATOM     61  C   UNL A   1      45.941  27.288  26.451  1.00  0.00     0.034 A 
ATOM     62  C   UNL A   1      40.306  29.188  30.147  1.00  0.00     0.034 A 
ATOM     63  C   UNL A   1      44.842  26.365  26.400  1.00  0.00     0.049 A 
ATOM     64  C   UNL A   1      40.323  27.939  29.307  1.00  0.00     0.074 A 
ATOM     65  C   UNL A   1      44.759  25.165  25.718  1.00  0.00     0.029 A 
ATOM     66  N   UNL A   1      43.631  26.541  27.051  1.00  0.00    -0.354 N 
ATOM     67  N   UNL A   1      41.313  27.417  28.625  1.00  0.00    -0.248 NA
ATOM     68  C   UNL A   1      39.078  27.159  29.250  1.00  0.00     0.031 C 
ATOM     69  C   UNL A   1      43.489  24.625  25.940  1.00  0.00     0.029 A 
ATOM     70  C   UNL A   1      42.790  25.477  26.781  1.00  0.00     0.049 A 
ATOM     71  H   UNL A   1      43.404  27.310  27.623  1.00  0.00     0.167 HD
ATOM     72  C   UNL A   1      40.824  26.231  28.090  1.00  0.00     0.074 A 
ATOM     73  C   UNL A   1      39.455  26.102  28.544  1.00  0.00     0.031 C 
ATOM     74  C   UNL A   1      41.449  25.336  27.286  1.00  0.00     0.034 A 
BRANCH  61  75
ATOM     75  C   UNL A   1      47.162  26.993  25.621  1.00  0.00     0.023 A 
ATOM     76  C   UNL A   1      48.165  26.145  26.135  1.00  0.00     0.012 A 
ATOM     77  C   UNL A   1      47.290  27.504  24.315  1.00  0.00     0.148 A 
ATOM     78  C   UNL A   1      49.294  25.839  25.376  1.00  0.00     0.002 A 
ATOM     79  C   UNL A   1      48.395  27.156  23.547  1.00  0.00     0.091 A 
ATOM     80  F   UNL A   1      46.339  28.327  23.853  1.00  0.00    -0.205 F 
ATOM     81  C   UNL A   1      49.403  26.334  24.080  1.00  0.00     0.022 A 
BRANCH  79  82
ATOM     82  S   UNL A   1      48.591  27.676  21.839  1.00  0.00     0.127 S 
ATOM     83  O   UNL A   1      50.026  27.950  21.777  1.00  0.00    -0.237 OA
ATOM     84  O   UNL A   1      48.165  26.485  21.104  1.00  0.00    -0.237 OA
ATOM     85  O   UNL A   1      47.726  28.836  21.672  1.00  0.00    -0.744 OA
ENDBRANCH  79  82
ENDBRANCH  61  75
BRANCH  62  86
ATOM     86  C   UNL A   1      39.088  29.578  30.914  1.00  0.00     0.023 A 
ATOM     87  C   UNL A   1      38.908  29.074  32.216  1.00  0.00     0.012 A 
ATOM     88  C   UNL A   1      38.130  30.460  30.380  1.00  0.00     0.148 A 
ATOM     89  C   UNL A   1      37.780  29.416  32.963  1.00  0.00     0.002 A 
ATOM     90  C   UNL A   1      37.035  30.839  31.149  1.00  0.00     0.091 A 
ATOM     91  F   UNL A   1      38.314  30.921  29.135  1.00  0.00    -0.205 F 
ATOM     92  C   UNL A   1      36.849  30.304  32.434  1.00  0.00     0.022 A 
BRANCH  90  93
ATOM     93  S   UNL A   1      35.853  32.076  30.602  1.00  0.00     0.127 S 
ATOM     94  O   UNL A   1      36.714  33.235  30.381  1.00  0.00    -0.237 OA
ATOM     95  O   UNL A   1      35.318  31.463  29.385  1.00  0.00    -0.237 OA
ATOM     96  O   UNL A   1      34.887  32.201  31.685  1.00  0.00    -0.744 OA
ENDBRANCH  90  93
ENDBRANCH  62  86
BRANCH  74  97
ATOM     97  C   UNL A   1      40.675  24.113  26.867  1.00  0.00     0.023 A 
ATOM     98  C   UNL A   1      39.398  24.255  26.290  1.00  0.00     0.012 A 
ATOM     99  C   UNL A   1      41.252  22.831  26.965  1.00  0.00     0.148 A 
ATOM    100  C   UNL A   1      38.693  23.137  25.848  1.00  0.00     0.002 A 
ATOM    101  C   UNL A   1      40.566  21.727  26.476  1.00  0.00     0.091 A 
ATOM    102  F   UNL A   1      42.462  22.716  27.533  1.00  0.00    -0.205 F 
ATOM    103  C   UNL A   1      39.281  21.877  25.927  1.00  0.00     0.022 A 
BRANCH 101 104
ATOM    104  S   UNL A   1      41.287  20.082  26.448  1.00  0.00     0.127 S 
ATOM    105  O   UNL A   1      41.541  19.844  27.867  1.00  0.00    -0.237 OA
ATOM    106  O   UNL A   1      40.205  19.278  25.878  1.00  0.00    -0.237 OA
ATOM    107  O   UNL A   1      42.471  20.179  25.607  1.00  0.00    -0.744 OA
ENDBRANCH 101 104
ENDBRANCH  74  97
ENDBRANCH  48  49
ENDBRANCH  40  43
ENDBRANCH  38  39
ENDBRANCH  37  38
ENDBRANCH  36  37
ENDBRANCH  35  36
ENDBRANCH   3  35
TORSDOF 25
ENDMDL
