MODEL 1
REMARK VINA RESULT:     -12.3      0.000      0.000
REMARK SMILES C[NH2+]C[C@H]1CCCN(c2ccc(C(=O)NCCCCNC(=O)c3ccc(-c4c5nc(c(-c6cccc(S(=O)(=O)[O-])c6F)c6ccc([nH]6)c(-c6cccc(S(=O)(=O)[O-])c6F)c6nc(c(-c7cccc(S(=O)(=O)[O-])c7F)c7ccc4[nH]7)C=C6)C=C5)cc3)c(F)c2F)C1
REMARK SMILES IDX 17 1 16 2 15 3 13 4 14 5 12 7 9 8 10 9 88 10 11 11 86 12
REMARK SMILES IDX 89 13 87 14 8 15 4 16 5 17 90 18 6 19 7 20 3 21 2 22 1 23
REMARK SMILES IDX 18 26 19 27 20 28 21 29 22 31 23 32 24 33 85 34 25 35 84 36
REMARK SMILES IDX 26 37 27 38 28 39 78 40 29 41 83 42 77 43 79 44 30 45 82 46
REMARK SMILES IDX 76 47 75 48 31 50 63 51 43 52 62 53 44 54 47 55 61 56 80 57
REMARK SMILES IDX 45 58 46 59 60 61 81 62 48 63 32 64 33 65 41 66 34 67 36 68
REMARK SMILES IDX 42 69 35 70 37 71 38 72 39 73 40 74 64 75 65 76 73 77 66 78
REMARK SMILES IDX 68 79 74 80 67 81 69 82 70 83 71 84 72 85 49 86 50 87 58 88
REMARK SMILES IDX 51 89 53 90 59 91 52 92 54 93 55 94 56 95 57 96
REMARK H PARENT 15 6 2 24 2 25 20 30 79 49 47 60
REMARK Flexibility Score: inf
ROOT
ATOM      1  C   UNL A   1      31.029  29.787  24.407  1.00  0.00     0.023 C 
ENDROOT
BRANCH   1   2
ATOM      2  C   UNL A   1      30.681  28.930  23.194  1.00  0.00     0.116 C 
BRANCH   2   3
ATOM      3  N   UNL A   1      29.408  28.239  23.306  1.00  0.00    -0.352 N 
ATOM      4  C   UNL A   1      29.138  26.955  23.712  1.00  0.00     0.254 C 
ATOM      5  O   UNL A   1      27.976  26.554  23.729  1.00  0.00    -0.269 OA
ATOM      6  H   UNL A   1      28.620  28.772  23.053  1.00  0.00     0.163 HD
BRANCH   4   7
ATOM      7  C   UNL A   1      30.212  26.003  24.058  1.00  0.00     0.078 A 
ATOM      8  C   UNL A   1      32.363  24.210  24.592  1.00  0.00     0.076 A 
ATOM      9  C   UNL A   1      31.949  24.492  23.280  1.00  0.00     0.030 A 
ATOM     10  C   UNL A   1      31.620  24.822  25.621  1.00  0.00     0.182 A 
ATOM     11  C   UNL A   1      30.893  25.375  23.010  1.00  0.00     0.019 A 
ATOM     12  C   UNL A   1      30.548  25.674  25.362  1.00  0.00     0.173 A 
ATOM     13  F   UNL A   1      31.962  24.636  26.909  1.00  0.00    -0.201 F 
ATOM     14  F   UNL A   1      29.859  26.170  26.402  1.00  0.00    -0.203 F 
BRANCH   8  15
ATOM     15  N   UNL A   1      33.426  23.351  24.826  1.00  0.00    -0.369 N 
ATOM     16  C   UNL A   1      33.346  21.056  25.715  1.00  0.00     0.064 C 
ATOM     17  C   UNL A   1      34.572  21.391  26.583  1.00  0.00     0.013 C 
ATOM     18  C   UNL A   1      33.367  21.936  24.451  1.00  0.00     0.126 C 
ATOM     19  C   UNL A   1      34.626  22.887  26.903  1.00  0.00     0.022 C 
ATOM     20  C   UNL A   1      34.576  23.748  25.639  1.00  0.00     0.116 C 
BRANCH  16  21
ATOM     21  C   UNL A   1      33.281  19.575  25.290  1.00  0.00     0.265 C 
BRANCH  21  22
ATOM     22  N   UNL A   1      32.915  18.607  26.327  1.00  0.00    -0.348 N 
ATOM     23  C   UNL A   1      32.520  17.314  25.789  1.00  0.00     0.330 C 
ATOM     24  H   UNL A   1      33.716  18.471  26.943  1.00  0.00     0.346 HD
ATOM     25  H   UNL A   1      32.110  18.988  26.826  1.00  0.00     0.346 HD
ENDBRANCH  21  22
ENDBRANCH  16  21
ENDBRANCH   8  15
ENDBRANCH   4   7
ENDBRANCH   2   3
ENDBRANCH   1   2
BRANCH   1  26
ATOM     26  C   UNL A   1      32.109  29.238  25.334  1.00  0.00     0.023 C 
BRANCH  26  27
ATOM     27  C   UNL A   1      32.103  29.764  26.766  1.00  0.00     0.116 C 
BRANCH  27  28
ATOM     28  N   UNL A   1      32.116  31.217  26.859  1.00  0.00    -0.352 N 
ATOM     29  C   UNL A   1      33.085  32.064  27.348  1.00  0.00     0.251 C 
ATOM     30  H   UNL A   1      31.306  31.663  26.519  1.00  0.00     0.163 HD
ATOM     31  O   UNL A   1      32.868  33.269  27.412  1.00  0.00    -0.269 OA
BRANCH  29  32
ATOM     32  C   UNL A   1      34.372  31.517  27.837  1.00  0.00     0.039 A 
ATOM     33  C   UNL A   1      35.428  32.400  28.082  1.00  0.00     0.014 A 
ATOM     34  C   UNL A   1      34.532  30.152  28.079  1.00  0.00     0.014 A 
ATOM     35  C   UNL A   1      36.609  31.926  28.660  1.00  0.00     0.010 A 
ATOM     36  C   UNL A   1      35.676  29.696  28.730  1.00  0.00     0.010 A 
ATOM     37  C   UNL A   1      36.723  30.577  29.036  1.00  0.00    -0.014 A 
BRANCH  37  38
ATOM     38  C   UNL A   1      37.911  30.073  29.776  1.00  0.00     0.031 A 
ATOM     39  C   UNL A   1      38.182  30.533  31.183  1.00  0.00     0.074 A 
ATOM     40  C   UNL A   1      38.805  29.287  29.142  1.00  0.00     0.049 A 
ATOM     41  N   UNL A   1      39.207  30.270  31.954  1.00  0.00    -0.248 NA
ATOM     42  C   UNL A   1      37.190  31.433  31.794  1.00  0.00     0.031 C 
ATOM     43  C   UNL A   1      38.707  28.844  27.749  1.00  0.00     0.029 A 
ATOM     44  N   UNL A   1      39.990  28.746  29.577  1.00  0.00    -0.354 N 
ATOM     45  C   UNL A   1      39.005  31.001  33.118  1.00  0.00     0.074 A 
ATOM     46  C   UNL A   1      37.777  31.745  32.941  1.00  0.00     0.031 C 
ATOM     47  C   UNL A   1      39.782  28.100  27.445  1.00  0.00     0.029 A 
ATOM     48  C   UNL A   1      40.660  28.032  28.609  1.00  0.00     0.049 A 
ATOM     49  H   UNL A   1      40.330  28.859  30.493  1.00  0.00     0.167 HD
ATOM     50  C   UNL A   1      39.755  31.028  34.245  1.00  0.00     0.034 A 
ATOM     51  C   UNL A   1      41.849  27.398  28.651  1.00  0.00     0.034 A 
ATOM     52  C   UNL A   1      40.942  30.241  34.442  1.00  0.00     0.049 A 
ATOM     53  C   UNL A   1      42.629  27.390  29.939  1.00  0.00     0.074 A 
ATOM     54  C   UNL A   1      41.714  30.122  35.585  1.00  0.00     0.029 A 
ATOM     55  N   UNL A   1      41.530  29.440  33.476  1.00  0.00    -0.354 N 
ATOM     56  N   UNL A   1      42.332  27.950  31.086  1.00  0.00    -0.248 NA
ATOM     57  C   UNL A   1      43.888  26.630  29.950  1.00  0.00     0.031 C 
ATOM     58  C   UNL A   1      42.777  29.254  35.305  1.00  0.00     0.029 A 
ATOM     59  C   UNL A   1      42.657  28.825  33.993  1.00  0.00     0.049 A 
ATOM     60  H   UNL A   1      41.196  29.327  32.557  1.00  0.00     0.167 HD
ATOM     61  C   UNL A   1      43.345  27.582  31.963  1.00  0.00     0.074 A 
ATOM     62  C   UNL A   1      44.254  26.734  31.220  1.00  0.00     0.031 C 
ATOM     63  C   UNL A   1      43.518  27.932  33.262  1.00  0.00     0.034 A 
BRANCH  50  64
ATOM     64  C   UNL A   1      39.274  31.887  35.386  1.00  0.00     0.023 A 
ATOM     65  C   UNL A   1      38.377  31.342  36.328  1.00  0.00     0.012 A 
ATOM     66  C   UNL A   1      39.747  33.200  35.560  1.00  0.00     0.148 A 
ATOM     67  C   UNL A   1      37.934  32.102  37.409  1.00  0.00     0.002 A 
ATOM     68  C   UNL A   1      39.333  33.939  36.664  1.00  0.00     0.091 A 
ATOM     69  F   UNL A   1      40.582  33.708  34.642  1.00  0.00    -0.205 F 
ATOM     70  C   UNL A   1      38.419  33.396  37.582  1.00  0.00     0.022 A 
BRANCH  68  71
ATOM     71  S   UNL A   1      39.960  35.584  37.020  1.00  0.00     0.127 S 
ATOM     72  O   UNL A   1      39.282  35.893  38.279  1.00  0.00    -0.237 OA
ATOM     73  O   UNL A   1      41.398  35.348  37.143  1.00  0.00    -0.237 OA
ATOM     74  O   UNL A   1      39.577  36.411  35.884  1.00  0.00    -0.744 OA
ENDBRANCH  68  71
ENDBRANCH  50  64
BRANCH  51  75
ATOM     75  C   UNL A   1      42.335  26.645  27.460  1.00  0.00     0.023 A 
ATOM     76  C   UNL A   1      43.064  27.328  26.467  1.00  0.00     0.012 A 
ATOM     77  C   UNL A   1      42.111  25.263  27.317  1.00  0.00     0.148 A 
ATOM     78  C   UNL A   1      43.531  26.657  25.337  1.00  0.00     0.002 A 
ATOM     79  C   UNL A   1      42.626  24.588  26.214  1.00  0.00     0.091 A 
ATOM     80  F   UNL A   1      41.404  24.631  28.264  1.00  0.00    -0.205 F 
ATOM     81  C   UNL A   1      43.322  25.286  25.215  1.00  0.00     0.022 A 
BRANCH  79  82
ATOM     82  S   UNL A   1      42.516  22.803  26.044  1.00  0.00     0.127 S 
ATOM     83  O   UNL A   1      43.134  22.587  24.739  1.00  0.00    -0.237 OA
ATOM     84  O   UNL A   1      43.307  22.338  27.185  1.00  0.00    -0.237 OA
ATOM     85  O   UNL A   1      41.096  22.490  26.137  1.00  0.00    -0.744 OA
ENDBRANCH  79  82
ENDBRANCH  51  75
BRANCH  63  86
ATOM     86  C   UNL A   1      44.716  27.374  33.984  1.00  0.00     0.023 A 
ATOM     87  C   UNL A   1      45.910  28.121  34.035  1.00  0.00     0.012 A 
ATOM     88  C   UNL A   1      44.634  26.152  34.680  1.00  0.00     0.148 A 
ATOM     89  C   UNL A   1      47.012  27.647  34.744  1.00  0.00     0.002 A 
ATOM     90  C   UNL A   1      45.722  25.708  35.423  1.00  0.00     0.091 A 
ATOM     91  F   UNL A   1      43.496  25.447  34.602  1.00  0.00    -0.205 F 
ATOM     92  C   UNL A   1      46.914  26.448  35.448  1.00  0.00     0.022 A 
BRANCH  90  93
ATOM     93  S   UNL A   1      45.651  24.225  36.433  1.00  0.00     0.127 S 
ATOM     94  O   UNL A   1      44.444  24.458  37.223  1.00  0.00    -0.237 OA
ATOM     95  O   UNL A   1      45.527  23.167  35.428  1.00  0.00    -0.237 OA
ATOM     96  O   UNL A   1      46.899  24.194  37.185  1.00  0.00    -0.744 OA
ENDBRANCH  90  93
ENDBRANCH  63  86
ENDBRANCH  37  38
ENDBRANCH  29  32
ENDBRANCH  27  28
ENDBRANCH  26  27
ENDBRANCH   1  26
TORSDOF 17
ENDMDL
MODEL 2
REMARK VINA RESULT:     -12.1      1.993      2.739
REMARK SMILES C[NH2+]C[C@H]1CCCN(c2ccc(C(=O)NCCCCNC(=O)c3ccc(-c4c5nc(c(-c6cccc(S(=O)(=O)[O-])c6F)c6ccc([nH]6)c(-c6cccc(S(=O)(=O)[O-])c6F)c6nc(c(-c7cccc(S(=O)(=O)[O-])c7F)c7ccc4[nH]7)C=C6)C=C5)cc3)c(F)c2F)C1
REMARK SMILES IDX 17 1 16 2 15 3 13 4 14 5 12 7 9 8 10 9 88 10 11 11 86 12
REMARK SMILES IDX 89 13 87 14 8 15 4 16 5 17 90 18 6 19 7 20 3 21 2 22 1 23
REMARK SMILES IDX 18 26 19 27 20 28 21 29 22 31 23 32 24 33 85 34 25 35 84 36
REMARK SMILES IDX 26 37 27 38 28 39 78 40 29 41 83 42 77 43 79 44 30 45 82 46
REMARK SMILES IDX 76 47 75 48 31 50 63 51 43 52 62 53 44 54 47 55 61 56 80 57
REMARK SMILES IDX 45 58 46 59 60 61 81 62 48 63 32 64 33 65 41 66 34 67 36 68
REMARK SMILES IDX 42 69 35 70 37 71 38 72 39 73 40 74 64 75 65 76 73 77 66 78
REMARK SMILES IDX 68 79 74 80 67 81 69 82 70 83 71 84 72 85 49 86 50 87 58 88
REMARK SMILES IDX 51 89 53 90 59 91 52 92 54 93 55 94 56 95 57 96
REMARK H PARENT 15 6 2 24 2 25 20 30 79 49 47 60
REMARK Flexibility Score: inf
ROOT
ATOM      1  C   UNL A   1      31.382  29.654  25.368  1.00  0.00     0.023 C 
ENDROOT
BRANCH   1   2
ATOM      2  C   UNL A   1      31.197  29.200  23.923  1.00  0.00     0.116 C 
BRANCH   2   3
ATOM      3  N   UNL A   1      29.895  28.615  23.652  1.00  0.00    -0.352 N 
ATOM      4  C   UNL A   1      29.493  27.303  23.704  1.00  0.00     0.254 C 
ATOM      5  O   UNL A   1      28.331  27.011  23.426  1.00  0.00    -0.269 OA
ATOM      6  H   UNL A   1      29.196  29.257  23.390  1.00  0.00     0.163 HD
BRANCH   4   7
ATOM      7  C   UNL A   1      30.436  26.209  24.011  1.00  0.00     0.078 A 
ATOM      8  C   UNL A   1      32.363  24.168  24.508  1.00  0.00     0.076 A 
ATOM      9  C   UNL A   1      32.282  24.817  23.264  1.00  0.00     0.030 A 
ATOM     10  C   UNL A   1      31.405  24.549  25.468  1.00  0.00     0.182 A 
ATOM     11  C   UNL A   1      31.337  25.823  23.013  1.00  0.00     0.019 A 
ATOM     12  C   UNL A   1      30.442  25.524  25.216  1.00  0.00     0.173 A 
ATOM     13  F   UNL A   1      31.424  24.005  26.698  1.00  0.00    -0.201 F 
ATOM     14  F   UNL A   1      29.532  25.785  26.168  1.00  0.00    -0.203 F 
BRANCH   8  15
ATOM     15  N   UNL A   1      33.323  23.193  24.732  1.00  0.00    -0.369 N 
ATOM     16  C   UNL A   1      32.995  20.932  25.649  1.00  0.00     0.064 C 
ATOM     17  C   UNL A   1      34.269  21.131  26.491  1.00  0.00     0.013 C 
ATOM     18  C   UNL A   1      33.093  21.791  24.375  1.00  0.00     0.126 C 
ATOM     19  C   UNL A   1      34.502  22.613  26.792  1.00  0.00     0.022 C 
ATOM     20  C   UNL A   1      34.528  23.462  25.518  1.00  0.00     0.116 C 
BRANCH  16  21
ATOM     21  C   UNL A   1      32.750  19.464  25.243  1.00  0.00     0.265 C 
BRANCH  21  22
ATOM     22  N   UNL A   1      32.807  18.466  26.314  1.00  0.00    -0.348 N 
ATOM     23  C   UNL A   1      32.822  17.098  25.819  1.00  0.00     0.330 C 
ATOM     24  H   UNL A   1      33.654  18.623  26.860  1.00  0.00     0.346 HD
ATOM     25  H   UNL A   1      31.963  18.577  26.877  1.00  0.00     0.346 HD
ENDBRANCH  21  22
ENDBRANCH  16  21
ENDBRANCH   8  15
ENDBRANCH   4   7
ENDBRANCH   2   3
ENDBRANCH   1   2
BRANCH   1  26
ATOM     26  C   UNL A   1      32.128  28.692  26.288  1.00  0.00     0.023 C 
BRANCH  26  27
ATOM     27  C   UNL A   1      33.553  29.085  26.666  1.00  0.00     0.116 C 
BRANCH  27  28
ATOM     28  N   UNL A   1      33.698  30.486  27.034  1.00  0.00    -0.352 N 
ATOM     29  C   UNL A   1      34.716  31.121  27.711  1.00  0.00     0.251 C 
ATOM     30  H   UNL A   1      32.955  31.070  26.756  1.00  0.00     0.163 HD
ATOM     31  O   UNL A   1      34.611  32.309  27.995  1.00  0.00    -0.269 OA
BRANCH  29  32
ATOM     32  C   UNL A   1      35.915  30.362  28.134  1.00  0.00     0.039 A 
ATOM     33  C   UNL A   1      37.016  30.311  27.274  1.00  0.00     0.014 A 
ATOM     34  C   UNL A   1      35.968  29.729  29.377  1.00  0.00     0.014 A 
ATOM     35  C   UNL A   1      38.202  29.707  27.701  1.00  0.00     0.010 A 
ATOM     36  C   UNL A   1      37.174  29.201  29.831  1.00  0.00     0.010 A 
ATOM     37  C   UNL A   1      38.307  29.191  29.004  1.00  0.00    -0.014 A 
BRANCH  37  38
ATOM     38  C   UNL A   1      39.595  28.668  29.532  1.00  0.00     0.031 A 
ATOM     39  C   UNL A   1      40.307  29.384  30.649  1.00  0.00     0.074 A 
ATOM     40  C   UNL A   1      40.178  27.609  28.934  1.00  0.00     0.049 A 
ATOM     41  N   UNL A   1      41.474  29.127  31.181  1.00  0.00    -0.248 NA
ATOM     42  C   UNL A   1      39.635  30.564  31.220  1.00  0.00     0.031 C 
ATOM     43  C   UNL A   1      39.638  26.882  27.783  1.00  0.00     0.029 A 
ATOM     44  N   UNL A   1      41.373  26.981  29.189  1.00  0.00    -0.354 N 
ATOM     45  C   UNL A   1      41.695  30.131  32.116  1.00  0.00     0.074 A 
ATOM     46  C   UNL A   1      40.556  31.021  32.056  1.00  0.00     0.031 C 
ATOM     47  C   UNL A   1      40.493  25.907  27.434  1.00  0.00     0.029 A 
ATOM     48  C   UNL A   1      41.655  25.955  28.316  1.00  0.00     0.049 A 
ATOM     49  H   UNL A   1      41.971  27.239  29.926  1.00  0.00     0.167 HD
ATOM     50  C   UNL A   1      42.735  30.283  32.969  1.00  0.00     0.034 A 
ATOM     51  C   UNL A   1      42.730  25.145  28.232  1.00  0.00     0.034 A 
ATOM     52  C   UNL A   1      43.836  29.365  33.071  1.00  0.00     0.049 A 
ATOM     53  C   UNL A   1      43.840  25.296  29.236  1.00  0.00     0.074 A 
ATOM     54  C   UNL A   1      44.886  29.376  33.973  1.00  0.00     0.029 A 
ATOM     55  N   UNL A   1      44.032  28.270  32.243  1.00  0.00    -0.354 N 
ATOM     56  N   UNL A   1      43.947  26.150  30.225  1.00  0.00    -0.248 NA
ATOM     57  C   UNL A   1      44.960  24.346  29.139  1.00  0.00     0.031 C 
ATOM     58  C   UNL A   1      45.722  28.292  33.683  1.00  0.00     0.029 A 
ATOM     59  C   UNL A   1      45.186  27.599  32.610  1.00  0.00     0.049 A 
ATOM     60  H   UNL A   1      43.438  28.009  31.502  1.00  0.00     0.167 HD
ATOM     61  C   UNL A   1      45.124  25.819  30.888  1.00  0.00     0.074 A 
ATOM     62  C   UNL A   1      45.683  24.674  30.201  1.00  0.00     0.031 C 
ATOM     63  C   UNL A   1      45.698  26.423  31.957  1.00  0.00     0.034 A 
BRANCH  50  64
ATOM     64  C   UNL A   1      42.697  31.454  33.917  1.00  0.00     0.023 A 
ATOM     65  C   UNL A   1      43.267  32.681  33.521  1.00  0.00     0.012 A 
ATOM     66  C   UNL A   1      42.052  31.363  35.164  1.00  0.00     0.148 A 
ATOM     67  C   UNL A   1      43.225  33.790  34.364  1.00  0.00     0.002 A 
ATOM     68  C   UNL A   1      41.977  32.485  35.983  1.00  0.00     0.091 A 
ATOM     69  F   UNL A   1      41.535  30.182  35.534  1.00  0.00    -0.205 F 
ATOM     70  C   UNL A   1      42.572  33.695  35.589  1.00  0.00     0.022 A 
BRANCH  68  71
ATOM     71  S   UNL A   1      41.090  32.486  37.546  1.00  0.00     0.127 S 
ATOM     72  O   UNL A   1      41.946  31.634  38.371  1.00  0.00    -0.237 OA
ATOM     73  O   UNL A   1      41.108  33.903  37.911  1.00  0.00    -0.237 OA
ATOM     74  O   UNL A   1      39.767  31.953  37.256  1.00  0.00    -0.744 OA
ENDBRANCH  68  71
ENDBRANCH  50  64
BRANCH  51  75
ATOM     75  C   UNL A   1      42.770  24.063  27.206  1.00  0.00     0.023 A 
ATOM     76  C   UNL A   1      43.488  24.274  26.013  1.00  0.00     0.012 A 
ATOM     77  C   UNL A   1      42.132  22.825  27.414  1.00  0.00     0.148 A 
ATOM     78  C   UNL A   1      43.543  23.285  25.031  1.00  0.00     0.002 A 
ATOM     79  C   UNL A   1      42.236  21.824  26.454  1.00  0.00     0.091 A 
ATOM     80  F   UNL A   1      41.441  22.647  28.548  1.00  0.00    -0.205 F 
ATOM     81  C   UNL A   1      42.927  22.057  25.255  1.00  0.00     0.022 A 
BRANCH  79  82
ATOM     82  S   UNL A   1      41.585  20.170  26.718  1.00  0.00     0.127 S 
ATOM     83  O   UNL A   1      42.420  19.690  27.814  1.00  0.00    -0.237 OA
ATOM     84  O   UNL A   1      40.192  20.444  27.078  1.00  0.00    -0.237 OA
ATOM     85  O   UNL A   1      41.746  19.481  25.444  1.00  0.00    -0.744 OA
ENDBRANCH  79  82
ENDBRANCH  51  75
BRANCH  63  86
ATOM     86  C   UNL A   1      46.985  25.842  32.481  1.00  0.00     0.023 A 
ATOM     87  C   UNL A   1      48.217  26.320  31.991  1.00  0.00     0.012 A 
ATOM     88  C   UNL A   1      46.976  24.885  33.516  1.00  0.00     0.148 A 
ATOM     89  C   UNL A   1      49.419  25.833  32.503  1.00  0.00     0.002 A 
ATOM     90  C   UNL A   1      48.178  24.439  34.052  1.00  0.00     0.091 A 
ATOM     91  F   UNL A   1      45.794  24.428  33.954  1.00  0.00    -0.205 F 
ATOM     92  C   UNL A   1      49.400  24.904  33.541  1.00  0.00     0.022 A 
BRANCH  90  93
ATOM     93  S   UNL A   1      48.245  23.315  35.451  1.00  0.00     0.127 S 
ATOM     94  O   UNL A   1      49.686  23.155  35.639  1.00  0.00    -0.237 OA
ATOM     95  O   UNL A   1      47.575  24.082  36.502  1.00  0.00    -0.237 OA
ATOM     96  O   UNL A   1      47.529  22.116  35.035  1.00  0.00    -0.744 OA
ENDBRANCH  90  93
ENDBRANCH  63  86
ENDBRANCH  37  38
ENDBRANCH  29  32
ENDBRANCH  27  28
ENDBRANCH  26  27
ENDBRANCH   1  26
TORSDOF 17
ENDMDL
MODEL 3
REMARK VINA RESULT:     -12.1      4.991     10.284
REMARK SMILES C[NH2+]C[C@H]1CCCN(c2ccc(C(=O)NCCCCNC(=O)c3ccc(-c4c5nc(c(-c6cccc(S(=O)(=O)[O-])c6F)c6ccc([nH]6)c(-c6cccc(S(=O)(=O)[O-])c6F)c6nc(c(-c7cccc(S(=O)(=O)[O-])c7F)c7ccc4[nH]7)C=C6)C=C5)cc3)c(F)c2F)C1
REMARK SMILES IDX 17 1 16 2 15 3 13 4 14 5 12 7 9 8 10 9 88 10 11 11 86 12
REMARK SMILES IDX 89 13 87 14 8 15 4 16 5 17 90 18 6 19 7 20 3 21 2 22 1 23
REMARK SMILES IDX 18 26 19 27 20 28 21 29 22 31 23 32 24 33 85 34 25 35 84 36
REMARK SMILES IDX 26 37 27 38 28 39 78 40 29 41 83 42 77 43 79 44 30 45 82 46
REMARK SMILES IDX 76 47 75 48 31 50 63 51 43 52 62 53 44 54 47 55 61 56 80 57
REMARK SMILES IDX 45 58 46 59 60 61 81 62 48 63 32 64 33 65 41 66 34 67 36 68
REMARK SMILES IDX 42 69 35 70 37 71 38 72 39 73 40 74 64 75 65 76 73 77 66 78
REMARK SMILES IDX 68 79 74 80 67 81 69 82 70 83 71 84 72 85 49 86 50 87 58 88
REMARK SMILES IDX 51 89 53 90 59 91 52 92 54 93 55 94 56 95 57 96
REMARK H PARENT 15 6 2 24 2 25 20 30 79 49 47 60
REMARK Flexibility Score: inf
ROOT
ATOM      1  C   UNL A   1      35.360  22.107  26.470  1.00  0.00     0.023 C 
ENDROOT
BRANCH   1   2
ATOM      2  C   UNL A   1      33.852  21.915  26.586  1.00  0.00     0.116 C 
BRANCH   2   3
ATOM      3  N   UNL A   1      33.276  21.111  25.521  1.00  0.00    -0.352 N 
ATOM      4  C   UNL A   1      32.699  21.502  24.338  1.00  0.00     0.254 C 
ATOM      5  O   UNL A   1      32.260  20.653  23.565  1.00  0.00    -0.269 OA
ATOM      6  H   UNL A   1      33.303  20.138  25.672  1.00  0.00     0.163 HD
BRANCH   4   7
ATOM      7  C   UNL A   1      32.516  22.926  23.992  1.00  0.00     0.078 A 
ATOM      8  C   UNL A   1      32.082  25.693  23.460  1.00  0.00     0.076 A 
ATOM      9  C   UNL A   1      31.130  24.916  24.142  1.00  0.00     0.030 A 
ATOM     10  C   UNL A   1      33.232  25.011  23.012  1.00  0.00     0.182 A 
ATOM     11  C   UNL A   1      31.339  23.555  24.408  1.00  0.00     0.019 A 
ATOM     12  C   UNL A   1      33.430  23.651  23.244  1.00  0.00     0.173 A 
ATOM     13  F   UNL A   1      34.212  25.678  22.377  1.00  0.00    -0.201 F 
ATOM     14  F   UNL A   1      34.527  23.070  22.733  1.00  0.00    -0.203 F 
BRANCH   8  15
ATOM     15  N   UNL A   1      31.858  27.042  23.232  1.00  0.00    -0.369 N 
ATOM     16  C   UNL A   1      31.520  28.821  24.900  1.00  0.00     0.064 C 
ATOM     17  C   UNL A   1      30.397  29.387  24.011  1.00  0.00     0.013 C 
ATOM     18  C   UNL A   1      32.537  28.077  24.015  1.00  0.00     0.126 C 
ATOM     19  C   UNL A   1      29.754  28.282  23.169  1.00  0.00     0.022 C 
ATOM     20  C   UNL A   1      30.788  27.508  22.349  1.00  0.00     0.116 C 
BRANCH  16  21
ATOM     21  C   UNL A   1      32.262  29.901  25.713  1.00  0.00     0.265 C 
BRANCH  21  22
ATOM     22  N   UNL A   1      32.319  29.711  27.164  1.00  0.00    -0.348 N 
ATOM     23  C   UNL A   1      31.822  28.412  27.591  1.00  0.00     0.330 C 
ATOM     24  H   UNL A   1      33.289  29.803  27.466  1.00  0.00     0.346 HD
ATOM     25  H   UNL A   1      31.719  30.420  27.587  1.00  0.00     0.346 HD
ENDBRANCH  21  22
ENDBRANCH  16  21
ENDBRANCH   8  15
ENDBRANCH   4   7
ENDBRANCH   2   3
ENDBRANCH   1   2
BRANCH   1  26
ATOM     26  C   UNL A   1      36.059  21.316  25.368  1.00  0.00     0.023 C 
BRANCH  26  27
ATOM     27  C   UNL A   1      37.496  21.719  25.053  1.00  0.00     0.116 C 
BRANCH  27  28
ATOM     28  N   UNL A   1      38.490  20.764  25.523  1.00  0.00    -0.352 N 
ATOM     29  C   UNL A   1      39.632  20.969  26.264  1.00  0.00     0.251 C 
ATOM     30  H   UNL A   1      38.320  19.827  25.271  1.00  0.00     0.163 HD
ATOM     31  O   UNL A   1      40.389  20.032  26.491  1.00  0.00    -0.269 OA
BRANCH  29  32
ATOM     32  C   UNL A   1      39.970  22.327  26.750  1.00  0.00     0.039 A 
ATOM     33  C   UNL A   1      40.964  22.465  27.723  1.00  0.00     0.014 A 
ATOM     34  C   UNL A   1      39.335  23.458  26.234  1.00  0.00     0.014 A 
ATOM     35  C   UNL A   1      41.387  23.741  28.107  1.00  0.00     0.010 A 
ATOM     36  C   UNL A   1      39.814  24.725  26.556  1.00  0.00     0.010 A 
ATOM     37  C   UNL A   1      40.850  24.882  27.489  1.00  0.00    -0.014 A 
BRANCH  37  38
ATOM     38  C   UNL A   1      41.375  26.244  27.777  1.00  0.00     0.031 A 
ATOM     39  C   UNL A   1      42.804  26.591  27.457  1.00  0.00     0.074 A 
ATOM     40  C   UNL A   1      40.597  27.133  28.427  1.00  0.00     0.049 A 
ATOM     41  N   UNL A   1      43.462  27.693  27.711  1.00  0.00    -0.248 NA
ATOM     42  C   UNL A   1      43.611  25.553  26.794  1.00  0.00     0.031 C 
ATOM     43  C   UNL A   1      39.224  26.889  28.876  1.00  0.00     0.029 A 
ATOM     44  N   UNL A   1      40.861  28.412  28.854  1.00  0.00    -0.354 N 
ATOM     45  C   UNL A   1      44.763  27.468  27.281  1.00  0.00     0.074 A 
ATOM     46  C   UNL A   1      44.812  26.112  26.778  1.00  0.00     0.031 C 
ATOM     47  C   UNL A   1      38.766  27.980  29.511  1.00  0.00     0.029 A 
ATOM     48  C   UNL A   1      39.817  28.992  29.539  1.00  0.00     0.049 A 
ATOM     49  H   UNL A   1      41.715  28.870  28.686  1.00  0.00     0.167 HD
ATOM     50  C   UNL A   1      45.816  28.320  27.274  1.00  0.00     0.034 A 
ATOM     51  C   UNL A   1      39.719  30.201  30.129  1.00  0.00     0.034 A 
ATOM     52  C   UNL A   1      45.749  29.686  27.717  1.00  0.00     0.049 A 
ATOM     53  C   UNL A   1      40.883  31.152  30.047  1.00  0.00     0.074 A 
ATOM     54  C   UNL A   1      46.732  30.659  27.655  1.00  0.00     0.029 A 
ATOM     55  N   UNL A   1      44.640  30.275  28.303  1.00  0.00    -0.354 N 
ATOM     56  N   UNL A   1      42.052  30.977  29.480  1.00  0.00    -0.248 NA
ATOM     57  C   UNL A   1      40.701  32.481  30.650  1.00  0.00     0.031 C 
ATOM     58  C   UNL A   1      46.219  31.834  28.215  1.00  0.00     0.029 A 
ATOM     59  C   UNL A   1      44.913  31.596  28.612  1.00  0.00     0.049 A 
ATOM     60  H   UNL A   1      43.784  29.820  28.476  1.00  0.00     0.167 HD
ATOM     61  C   UNL A   1      42.730  32.182  29.627  1.00  0.00     0.074 A 
ATOM     62  C   UNL A   1      41.833  33.085  30.317  1.00  0.00     0.031 C 
ATOM     63  C   UNL A   1      43.990  32.504  29.242  1.00  0.00     0.034 A 
BRANCH  50  64
ATOM     64  C   UNL A   1      47.117  27.820  26.702  1.00  0.00     0.023 A 
ATOM     65  C   UNL A   1      48.093  27.289  27.570  1.00  0.00     0.012 A 
ATOM     66  C   UNL A   1      47.352  27.820  25.314  1.00  0.00     0.148 A 
ATOM     67  C   UNL A   1      49.296  26.795  27.069  1.00  0.00     0.002 A 
ATOM     68  C   UNL A   1      48.537  27.286  24.818  1.00  0.00     0.091 A 
ATOM     69  F   UNL A   1      46.422  28.350  24.507  1.00  0.00    -0.205 F 
ATOM     70  C   UNL A   1      49.513  26.784  25.694  1.00  0.00     0.022 A 
BRANCH  68  71
ATOM     71  S   UNL A   1      48.879  27.156  23.060  1.00  0.00     0.127 S 
ATOM     72  O   UNL A   1      50.342  27.155  23.043  1.00  0.00    -0.237 OA
ATOM     73  O   UNL A   1      48.265  25.873  22.719  1.00  0.00    -0.237 OA
ATOM     74  O   UNL A   1      48.247  28.313  22.442  1.00  0.00    -0.744 OA
ENDBRANCH  68  71
ENDBRANCH  50  64
BRANCH  51  75
ATOM     75  C   UNL A   1      38.441  30.613  30.776  1.00  0.00     0.023 A 
ATOM     76  C   UNL A   1      38.264  30.383  32.154  1.00  0.00     0.012 A 
ATOM     77  C   UNL A   1      37.418  31.252  30.050  1.00  0.00     0.148 A 
ATOM     78  C   UNL A   1      37.080  30.752  32.792  1.00  0.00     0.002 A 
ATOM     79  C   UNL A   1      36.262  31.667  30.703  1.00  0.00     0.091 A 
ATOM     80  F   UNL A   1      37.597  31.451  28.737  1.00  0.00    -0.205 F 
ATOM     81  C   UNL A   1      36.083  31.403  32.069  1.00  0.00     0.022 A 
BRANCH  79  82
ATOM     82  S   UNL A   1      34.986  32.627  29.879  1.00  0.00     0.127 S 
ATOM     83  O   UNL A   1      34.095  32.957  30.988  1.00  0.00    -0.237 OA
ATOM     84  O   UNL A   1      35.750  33.756  29.345  1.00  0.00    -0.237 OA
ATOM     85  O   UNL A   1      34.434  31.746  28.858  1.00  0.00    -0.744 OA
ENDBRANCH  79  82
ENDBRANCH  51  75
BRANCH  63  86
ATOM     86  C   UNL A   1      44.472  33.903  29.524  1.00  0.00     0.023 A 
ATOM     87  C   UNL A   1      45.143  34.179  30.732  1.00  0.00     0.012 A 
ATOM     88  C   UNL A   1      44.334  34.920  28.559  1.00  0.00     0.148 A 
ATOM     89  C   UNL A   1      45.644  35.454  30.986  1.00  0.00     0.002 A 
ATOM     90  C   UNL A   1      44.877  36.177  28.802  1.00  0.00     0.091 A 
ATOM     91  F   UNL A   1      43.675  34.642  27.425  1.00  0.00    -0.205 F 
ATOM     92  C   UNL A   1      45.524  36.448  30.018  1.00  0.00     0.022 A 
BRANCH  90  93
ATOM     93  S   UNL A   1      44.849  37.486  27.573  1.00  0.00     0.127 S 
ATOM     94  O   UNL A   1      45.277  38.643  28.358  1.00  0.00    -0.237 OA
ATOM     95  O   UNL A   1      45.831  37.017  26.593  1.00  0.00    -0.237 OA
ATOM     96  O   UNL A   1      43.481  37.537  27.075  1.00  0.00    -0.744 OA
ENDBRANCH  90  93
ENDBRANCH  63  86
ENDBRANCH  37  38
ENDBRANCH  29  32
ENDBRANCH  27  28
ENDBRANCH  26  27
ENDBRANCH   1  26
TORSDOF 17
ENDMDL
