MODEL 1
REMARK VINA RESULT:     -11.7      0.000      0.000
REMARK SMILES CC(C)(C[S@@](=O)c1ccc(F)c(F)c1)C(=O)NCCCCNC(=O)c1ccc(-c2c3nc(c(-c4cccc(S(=O)(=O)[O-])c4F)c4ccc([nH]4)c(-c4cccc(S(=O)(=O)[O-])c4F)c4nc(c(-c5cccc(S(=O)(=O)[O-])c5F)c5ccc2[nH]5)C=C4)C=C3)cc1
REMARK SMILES IDX 19 1 18 2 17 3 15 4 16 5 2 7 1 8 3 9 4 10 5 11 6 12 7 13
REMARK SMILES IDX 8 14 14 15 9 16 12 17 10 18 13 19 11 20 20 21 21 22 22 23
REMARK SMILES IDX 23 24 24 26 25 27 26 28 87 29 27 30 86 31 28 32 29 33 30 34
REMARK SMILES IDX 80 35 31 36 85 37 79 38 81 39 32 40 84 41 78 42 77 43 33 45
REMARK SMILES IDX 65 46 45 47 64 48 46 49 49 50 63 51 82 52 47 53 48 54 62 56
REMARK SMILES IDX 83 57 50 58 34 59 35 60 43 61 36 62 38 63 44 64 37 65 39 66
REMARK SMILES IDX 40 67 41 68 42 69 66 70 67 71 75 72 68 73 70 74 76 75 69 76
REMARK SMILES IDX 71 77 72 78 73 79 74 80 51 81 52 82 60 83 53 84 55 85 61 86
REMARK SMILES IDX 54 87 56 88 57 89 58 90 59 91
REMARK H PARENT 17 6 22 25 81 44 49 55
REMARK Flexibility Score: inf
ROOT
ATOM      1  C   UNL A   1      35.218  23.102  23.218  1.00  0.00     0.023 C 
ENDROOT
BRANCH   1   2
ATOM      2  C   UNL A   1      34.733  24.355  23.940  1.00  0.00     0.116 C 
BRANCH   2   3
ATOM      3  N   UNL A   1      33.909  25.225  23.118  1.00  0.00    -0.356 N 
ATOM      4  C   UNL A   1      32.865  26.045  23.424  1.00  0.00     0.226 C 
ATOM      5  O   UNL A   1      32.387  26.709  22.499  1.00  0.00    -0.274 OA
ATOM      6  H   UNL A   1      34.149  25.220  22.162  1.00  0.00     0.163 HD
BRANCH   4   7
ATOM      7  C   UNL A   1      32.239  26.098  24.831  1.00  0.00     0.055 C 
ATOM      8  C   UNL A   1      31.338  27.354  24.953  1.00  0.00     0.022 C 
ATOM      9  C   UNL A   1      33.324  26.330  25.908  1.00  0.00     0.022 C 
BRANCH   7  10
ATOM     10  C   UNL A   1      31.401  24.836  25.133  1.00  0.00     0.126 C 
BRANCH  10  11
ATOM     11  S   UNL A   1      31.890  23.879  26.629  1.00  0.00     0.054 S 
ATOM     12  O   UNL A   1      30.607  23.509  27.316  1.00  0.00    -0.254 OA
BRANCH  11  13
ATOM     13  C   UNL A   1      32.455  22.355  25.848  1.00  0.00     0.042 A 
ATOM     14  C   UNL A   1      33.389  21.540  26.504  1.00  0.00     0.021 A 
ATOM     15  C   UNL A   1      31.956  21.965  24.601  1.00  0.00     0.060 A 
ATOM     16  C   UNL A   1      33.887  20.393  25.879  1.00  0.00     0.043 A 
ATOM     17  C   UNL A   1      32.440  20.810  23.996  1.00  0.00     0.160 A 
ATOM     18  C   UNL A   1      33.413  20.040  24.622  1.00  0.00     0.158 A 
ATOM     19  F   UNL A   1      31.974  20.454  22.791  1.00  0.00    -0.204 F 
ATOM     20  F   UNL A   1      33.907  18.952  24.014  1.00  0.00    -0.204 F 
ENDBRANCH  11  13
ENDBRANCH  10  11
ENDBRANCH   7  10
ENDBRANCH   4   7
ENDBRANCH   2   3
ENDBRANCH   1   2
BRANCH   1  21
ATOM     21  C   UNL A   1      36.611  22.608  23.599  1.00  0.00     0.023 C 
BRANCH  21  22
ATOM     22  C   UNL A   1      36.820  22.275  25.073  1.00  0.00     0.116 C 
BRANCH  22  23
ATOM     23  N   UNL A   1      37.774  21.197  25.300  1.00  0.00    -0.352 N 
ATOM     24  C   UNL A   1      38.996  21.225  25.940  1.00  0.00     0.251 C 
ATOM     25  H   UNL A   1      37.507  20.319  24.945  1.00  0.00     0.163 HD
ATOM     26  O   UNL A   1      39.702  20.232  25.965  1.00  0.00    -0.269 OA
BRANCH  24  27
ATOM     27  C   UNL A   1      39.460  22.487  26.560  1.00  0.00     0.039 A 
ATOM     28  C   UNL A   1      40.475  22.433  27.519  1.00  0.00     0.014 A 
ATOM     29  C   UNL A   1      38.937  23.717  26.153  1.00  0.00     0.014 A 
ATOM     30  C   UNL A   1      41.043  23.620  27.990  1.00  0.00     0.010 A 
ATOM     31  C   UNL A   1      39.550  24.894  26.571  1.00  0.00     0.010 A 
ATOM     32  C   UNL A   1      40.623  24.857  27.476  1.00  0.00    -0.014 A 
BRANCH  32  33
ATOM     33  C   UNL A   1      41.326  26.121  27.811  1.00  0.00     0.031 A 
ATOM     34  C   UNL A   1      40.633  27.187  28.614  1.00  0.00     0.074 A 
ATOM     35  C   UNL A   1      42.543  26.360  27.282  1.00  0.00     0.049 A 
ATOM     36  N   UNL A   1      41.037  28.397  28.898  1.00  0.00    -0.248 NA
ATOM     37  C   UNL A   1      39.300  26.856  29.143  1.00  0.00     0.031 C 
ATOM     38  C   UNL A   1      43.290  25.435  26.427  1.00  0.00     0.029 A 
ATOM     39  N   UNL A   1      43.350  27.468  27.354  1.00  0.00    -0.354 N 
ATOM     40  C   UNL A   1      39.998  28.986  29.607  1.00  0.00     0.074 A 
ATOM     41  C   UNL A   1      38.933  28.009  29.684  1.00  0.00     0.031 C 
ATOM     42  C   UNL A   1      44.444  26.013  26.055  1.00  0.00     0.029 A 
ATOM     43  C   UNL A   1      44.504  27.360  26.613  1.00  0.00     0.049 A 
ATOM     44  H   UNL A   1      43.124  28.266  27.886  1.00  0.00     0.167 HD
ATOM     45  C   UNL A   1      39.945  30.217  30.170  1.00  0.00     0.034 A 
ATOM     46  C   UNL A   1      45.494  28.248  26.394  1.00  0.00     0.034 A 
ATOM     47  C   UNL A   1      41.022  31.168  30.130  1.00  0.00     0.049 A 
ATOM     48  C   UNL A   1      45.417  29.604  27.041  1.00  0.00     0.074 A 
ATOM     49  C   UNL A   1      41.100  32.405  30.747  1.00  0.00     0.029 A 
ATOM     50  N   UNL A   1      42.207  30.994  29.432  1.00  0.00    -0.354 N 
ATOM     51  N   UNL A   1      44.494  30.086  27.837  1.00  0.00    -0.248 NA
ATOM     52  C   UNL A   1      46.529  30.530  26.780  1.00  0.00     0.031 C 
ATOM     53  C   UNL A   1      42.328  32.985  30.409  1.00  0.00     0.029 A 
ATOM     54  C   UNL A   1      43.019  32.105  29.591  1.00  0.00     0.049 A 
ATOM     55  H   UNL A   1      42.437  30.199  28.901  1.00  0.00     0.167 HD
ATOM     56  C   UNL A   1      44.926  31.357  28.197  1.00  0.00     0.074 A 
ATOM     57  C   UNL A   1      46.205  31.563  27.547  1.00  0.00     0.031 C 
ATOM     58  C   UNL A   1      44.312  32.276  28.982  1.00  0.00     0.034 A 
BRANCH  45  59
ATOM     59  C   UNL A   1      38.700  30.576  30.936  1.00  0.00     0.023 A 
ATOM     60  C   UNL A   1      38.595  30.205  32.292  1.00  0.00     0.012 A 
ATOM     61  C   UNL A   1      37.660  31.314  30.339  1.00  0.00     0.148 A 
ATOM     62  C   UNL A   1      37.461  30.532  33.033  1.00  0.00     0.002 A 
ATOM     63  C   UNL A   1      36.549  31.671  31.095  1.00  0.00     0.091 A 
ATOM     64  F   UNL A   1      37.765  31.637  29.041  1.00  0.00    -0.205 F 
ATOM     65  C   UNL A   1      36.443  31.272  32.438  1.00  0.00     0.022 A 
BRANCH  63  66
ATOM     66  S   UNL A   1      35.220  32.682  30.433  1.00  0.00     0.127 S 
ATOM     67  O   UNL A   1      35.938  33.892  30.037  1.00  0.00    -0.237 OA
ATOM     68  O   UNL A   1      34.735  31.869  29.317  1.00  0.00    -0.237 OA
ATOM     69  O   UNL A   1      34.265  32.843  31.521  1.00  0.00    -0.744 OA
ENDBRANCH  63  66
ENDBRANCH  45  59
BRANCH  46  70
ATOM     70  C   UNL A   1      46.678  27.855  25.580  1.00  0.00     0.023 A 
ATOM     71  C   UNL A   1      46.619  27.992  24.179  1.00  0.00     0.012 A 
ATOM     72  C   UNL A   1      47.866  27.390  26.175  1.00  0.00     0.148 A 
ATOM     73  C   UNL A   1      47.714  27.651  23.384  1.00  0.00     0.002 A 
ATOM     74  C   UNL A   1      48.970  27.101  25.381  1.00  0.00     0.091 A 
ATOM     75  F   UNL A   1      47.897  27.251  27.508  1.00  0.00    -0.205 F 
ATOM     76  C   UNL A   1      48.892  27.218  23.984  1.00  0.00     0.022 A 
BRANCH  74  77
ATOM     77  S   UNL A   1      50.567  26.659  26.078  1.00  0.00     0.127 S 
ATOM     78  O   UNL A   1      50.307  25.319  26.594  1.00  0.00    -0.237 OA
ATOM     79  O   UNL A   1      51.436  26.710  24.901  1.00  0.00    -0.237 OA
ATOM     80  O   UNL A   1      50.851  27.681  27.077  1.00  0.00    -0.744 OA
ENDBRANCH  74  77
ENDBRANCH  46  70
BRANCH  58  81
ATOM     81  C   UNL A   1      45.016  33.588  29.203  1.00  0.00     0.023 A 
ATOM     82  C   UNL A   1      45.897  33.727  30.293  1.00  0.00     0.012 A 
ATOM     83  C   UNL A   1      44.876  34.648  28.285  1.00  0.00     0.148 A 
ATOM     84  C   UNL A   1      46.612  34.911  30.480  1.00  0.00     0.002 A 
ATOM     85  C   UNL A   1      45.623  35.808  28.454  1.00  0.00     0.091 A 
ATOM     86  F   UNL A   1      44.018  34.501  27.265  1.00  0.00    -0.205 F 
ATOM     87  C   UNL A   1      46.485  35.944  29.555  1.00  0.00     0.022 A 
BRANCH  85  88
ATOM     88  S   UNL A   1      45.593  37.156  27.267  1.00  0.00     0.127 S 
ATOM     89  O   UNL A   1      44.158  37.335  27.055  1.00  0.00    -0.237 OA
ATOM     90  O   UNL A   1      46.239  38.239  28.009  1.00  0.00    -0.237 OA
ATOM     91  O   UNL A   1      46.342  36.688  26.109  1.00  0.00    -0.744 OA
ENDBRANCH  85  88
ENDBRANCH  58  81
ENDBRANCH  32  33
ENDBRANCH  24  27
ENDBRANCH  22  23
ENDBRANCH  21  22
ENDBRANCH   1  21
TORSDOF 17
ENDMDL
MODEL 2
REMARK VINA RESULT:     -11.6      5.342     10.433
REMARK SMILES CC(C)(C[S@@](=O)c1ccc(F)c(F)c1)C(=O)NCCCCNC(=O)c1ccc(-c2c3nc(c(-c4cccc(S(=O)(=O)[O-])c4F)c4ccc([nH]4)c(-c4cccc(S(=O)(=O)[O-])c4F)c4nc(c(-c5cccc(S(=O)(=O)[O-])c5F)c5ccc2[nH]5)C=C4)C=C3)cc1
REMARK SMILES IDX 19 1 18 2 17 3 15 4 16 5 2 7 1 8 3 9 4 10 5 11 6 12 7 13
REMARK SMILES IDX 8 14 14 15 9 16 12 17 10 18 13 19 11 20 20 21 21 22 22 23
REMARK SMILES IDX 23 24 24 26 25 27 26 28 87 29 27 30 86 31 28 32 29 33 30 34
REMARK SMILES IDX 80 35 31 36 85 37 79 38 81 39 32 40 84 41 78 42 77 43 33 45
REMARK SMILES IDX 65 46 45 47 64 48 46 49 49 50 63 51 82 52 47 53 48 54 62 56
REMARK SMILES IDX 83 57 50 58 34 59 35 60 43 61 36 62 38 63 44 64 37 65 39 66
REMARK SMILES IDX 40 67 41 68 42 69 66 70 67 71 75 72 68 73 70 74 76 75 69 76
REMARK SMILES IDX 71 77 72 78 73 79 74 80 51 81 52 82 60 83 53 84 55 85 61 86
REMARK SMILES IDX 54 87 56 88 57 89 58 90 59 91
REMARK H PARENT 17 6 22 25 81 44 49 55
REMARK Flexibility Score: inf
ROOT
ATOM      1  C   UNL A   1      32.056  28.381  27.451  1.00  0.00     0.023 C 
ENDROOT
BRANCH   1   2
ATOM      2  C   UNL A   1      32.130  27.170  26.527  1.00  0.00     0.116 C 
BRANCH   2   3
ATOM      3  N   UNL A   1      31.202  26.107  26.876  1.00  0.00    -0.356 N 
ATOM      4  C   UNL A   1      30.791  24.999  26.197  1.00  0.00     0.226 C 
ATOM      5  O   UNL A   1      30.014  24.241  26.786  1.00  0.00    -0.274 OA
ATOM      6  H   UNL A   1      30.793  26.208  27.766  1.00  0.00     0.163 HD
BRANCH   4   7
ATOM      7  C   UNL A   1      31.198  24.724  24.737  1.00  0.00     0.055 C 
ATOM      8  C   UNL A   1      31.031  23.214  24.425  1.00  0.00     0.022 C 
ATOM      9  C   UNL A   1      32.711  24.966  24.532  1.00  0.00     0.022 C 
BRANCH   7  10
ATOM     10  C   UNL A   1      30.352  25.549  23.741  1.00  0.00     0.126 C 
BRANCH  10  11
ATOM     11  S   UNL A   1      31.220  26.936  22.898  1.00  0.00     0.054 S 
ATOM     12  O   UNL A   1      31.214  26.593  21.435  1.00  0.00    -0.254 OA
BRANCH  11  13
ATOM     13  C   UNL A   1      29.978  28.231  23.076  1.00  0.00     0.042 A 
ATOM     14  C   UNL A   1      30.380  29.564  23.246  1.00  0.00     0.021 A 
ATOM     15  C   UNL A   1      28.614  27.923  23.029  1.00  0.00     0.060 A 
ATOM     16  C   UNL A   1      29.429  30.567  23.455  1.00  0.00     0.043 A 
ATOM     17  C   UNL A   1      27.674  28.931  23.216  1.00  0.00     0.160 A 
ATOM     18  C   UNL A   1      28.078  30.240  23.447  1.00  0.00     0.158 A 
ATOM     19  F   UNL A   1      26.369  28.624  23.191  1.00  0.00    -0.204 F 
ATOM     20  F   UNL A   1      27.167  31.198  23.670  1.00  0.00    -0.204 F 
ENDBRANCH  11  13
ENDBRANCH  10  11
ENDBRANCH   7  10
ENDBRANCH   4   7
ENDBRANCH   2   3
ENDBRANCH   1   2
BRANCH   1  21
ATOM     21  C   UNL A   1      31.410  29.632  26.862  1.00  0.00     0.023 C 
BRANCH  21  22
ATOM     22  C   UNL A   1      32.364  30.643  26.233  1.00  0.00     0.116 C 
BRANCH  22  23
ATOM     23  N   UNL A   1      32.174  32.005  26.714  1.00  0.00    -0.352 N 
ATOM     24  C   UNL A   1      33.004  32.785  27.494  1.00  0.00     0.251 C 
ATOM     25  H   UNL A   1      31.330  32.432  26.442  1.00  0.00     0.163 HD
ATOM     26  O   UNL A   1      32.641  33.886  27.869  1.00  0.00    -0.269 OA
BRANCH  24  27
ATOM     27  C   UNL A   1      34.323  32.253  27.905  1.00  0.00     0.039 A 
ATOM     28  C   UNL A   1      35.419  33.118  27.932  1.00  0.00     0.014 A 
ATOM     29  C   UNL A   1      34.460  30.925  28.317  1.00  0.00     0.014 A 
ATOM     30  C   UNL A   1      36.630  32.681  28.477  1.00  0.00     0.010 A 
ATOM     31  C   UNL A   1      35.644  30.514  28.921  1.00  0.00     0.010 A 
ATOM     32  C   UNL A   1      36.733  31.394  29.027  1.00  0.00    -0.014 A 
BRANCH  32  33
ATOM     33  C   UNL A   1      37.938  30.960  29.779  1.00  0.00     0.031 A 
ATOM     34  C   UNL A   1      38.881  29.951  29.186  1.00  0.00     0.074 A 
ATOM     35  C   UNL A   1      38.111  31.381  31.048  1.00  0.00     0.049 A 
ATOM     36  N   UNL A   1      39.911  29.364  29.736  1.00  0.00    -0.248 NA
ATOM     37  C   UNL A   1      38.616  29.529  27.801  1.00  0.00     0.031 C 
ATOM     38  C   UNL A   1      37.226  32.304  31.762  1.00  0.00     0.029 A 
ATOM     39  N   UNL A   1      39.070  31.058  31.977  1.00  0.00    -0.354 N 
ATOM     40  C   UNL A   1      40.395  28.477  28.783  1.00  0.00     0.074 A 
ATOM     41  C   UNL A   1      39.529  28.584  27.629  1.00  0.00     0.031 C 
ATOM     42  C   UNL A   1      37.682  32.473  33.014  1.00  0.00     0.029 A 
ATOM     43  C   UNL A   1      38.869  31.645  33.204  1.00  0.00     0.049 A 
ATOM     44  H   UNL A   1      39.830  30.462  31.782  1.00  0.00     0.167 HD
ATOM     45  C   UNL A   1      41.481  27.670  28.849  1.00  0.00     0.034 A 
ATOM     46  C   UNL A   1      39.553  31.522  34.359  1.00  0.00     0.034 A 
ATOM     47  C   UNL A   1      42.366  27.599  29.979  1.00  0.00     0.049 A 
ATOM     48  C   UNL A   1      40.762  30.628  34.402  1.00  0.00     0.074 A 
ATOM     49  C   UNL A   1      43.542  26.881  30.108  1.00  0.00     0.029 A 
ATOM     50  N   UNL A   1      42.172  28.265  31.179  1.00  0.00    -0.354 N 
ATOM     51  N   UNL A   1      41.294  29.916  33.439  1.00  0.00    -0.248 NA
ATOM     52  C   UNL A   1      41.480  30.540  35.683  1.00  0.00     0.031 C 
ATOM     53  C   UNL A   1      44.052  27.102  31.391  1.00  0.00     0.029 A 
ATOM     54  C   UNL A   1      43.199  27.967  32.059  1.00  0.00     0.049 A 
ATOM     55  H   UNL A   1      41.415  28.862  31.378  1.00  0.00     0.167 HD
ATOM     56  C   UNL A   1      42.425  29.319  33.986  1.00  0.00     0.074 A 
ATOM     57  C   UNL A   1      42.511  29.770  35.360  1.00  0.00     0.031 C 
ATOM     58  C   UNL A   1      43.302  28.463  33.407  1.00  0.00     0.034 A 
BRANCH  45  59
ATOM     59  C   UNL A   1      41.807  26.846  27.632  1.00  0.00     0.023 A 
ATOM     60  C   UNL A   1      42.347  27.482  26.495  1.00  0.00     0.012 A 
ATOM     61  C   UNL A   1      41.627  25.450  27.623  1.00  0.00     0.148 A 
ATOM     62  C   UNL A   1      42.670  26.746  25.356  1.00  0.00     0.002 A 
ATOM     63  C   UNL A   1      41.988  24.717  26.497  1.00  0.00     0.091 A 
ATOM     64  F   UNL A   1      41.088  24.865  28.703  1.00  0.00    -0.205 F 
ATOM     65  C   UNL A   1      42.499  25.365  25.360  1.00  0.00     0.022 A 
BRANCH  63  66
ATOM     66  S   UNL A   1      41.869  22.926  26.436  1.00  0.00     0.127 S 
ATOM     67  O   UNL A   1      42.686  22.536  27.584  1.00  0.00    -0.237 OA
ATOM     68  O   UNL A   1      40.432  22.703  26.608  1.00  0.00    -0.237 OA
ATOM     69  O   UNL A   1      42.388  22.539  25.132  1.00  0.00    -0.744 OA
ENDBRANCH  63  66
ENDBRANCH  45  59
BRANCH  46  70
ATOM     70  C   UNL A   1      39.150  32.322  35.550  1.00  0.00     0.023 A 
ATOM     71  C   UNL A   1      38.269  31.751  36.490  1.00  0.00     0.012 A 
ATOM     72  C   UNL A   1      39.658  33.615  35.781  1.00  0.00     0.148 A 
ATOM     73  C   UNL A   1      37.884  32.461  37.627  1.00  0.00     0.002 A 
ATOM     74  C   UNL A   1      39.309  34.296  36.942  1.00  0.00     0.091 A 
ATOM     75  F   UNL A   1      40.481  34.147  34.868  1.00  0.00    -0.205 F 
ATOM     76  C   UNL A   1      38.411  33.727  37.859  1.00  0.00     0.022 A 
BRANCH  74  77
ATOM     77  S   UNL A   1      40.039  35.877  37.384  1.00  0.00     0.127 S 
ATOM     78  O   UNL A   1      39.707  36.696  36.222  1.00  0.00    -0.237 OA
ATOM     79  O   UNL A   1      39.310  36.218  38.607  1.00  0.00    -0.237 OA
ATOM     80  O   UNL A   1      41.456  35.608  37.588  1.00  0.00    -0.744 OA
ENDBRANCH  74  77
ENDBRANCH  46  70
BRANCH  58  81
ATOM     81  C   UNL A   1      44.448  27.964  34.246  1.00  0.00     0.023 A 
ATOM     82  C   UNL A   1      45.655  28.691  34.273  1.00  0.00     0.012 A 
ATOM     83  C   UNL A   1      44.301  26.832  35.071  1.00  0.00     0.148 A 
ATOM     84  C   UNL A   1      46.707  28.285  35.094  1.00  0.00     0.002 A 
ATOM     85  C   UNL A   1      45.339  26.458  35.918  1.00  0.00     0.091 A 
ATOM     86  F   UNL A   1      43.151  26.145  35.016  1.00  0.00    -0.205 F 
ATOM     87  C   UNL A   1      46.545  27.179  35.925  1.00  0.00     0.022 A 
BRANCH  85  88
ATOM     88  S   UNL A   1      45.189  25.103  37.087  1.00  0.00     0.127 S 
ATOM     89  O   UNL A   1      46.411  25.253  37.876  1.00  0.00    -0.237 OA
ATOM     90  O   UNL A   1      43.957  25.441  37.800  1.00  0.00    -0.237 OA
ATOM     91  O   UNL A   1      45.109  23.889  36.286  1.00  0.00    -0.744 OA
ENDBRANCH  85  88
ENDBRANCH  58  81
ENDBRANCH  32  33
ENDBRANCH  24  27
ENDBRANCH  22  23
ENDBRANCH  21  22
ENDBRANCH   1  21
TORSDOF 17
ENDMDL
MODEL 3
REMARK VINA RESULT:     -11.6      5.606     10.319
REMARK SMILES CC(C)(C[S@@](=O)c1ccc(F)c(F)c1)C(=O)NCCCCNC(=O)c1ccc(-c2c3nc(c(-c4cccc(S(=O)(=O)[O-])c4F)c4ccc([nH]4)c(-c4cccc(S(=O)(=O)[O-])c4F)c4nc(c(-c5cccc(S(=O)(=O)[O-])c5F)c5ccc2[nH]5)C=C4)C=C3)cc1
REMARK SMILES IDX 19 1 18 2 17 3 15 4 16 5 2 7 1 8 3 9 4 10 5 11 6 12 7 13
REMARK SMILES IDX 8 14 14 15 9 16 12 17 10 18 13 19 11 20 20 21 21 22 22 23
REMARK SMILES IDX 23 24 24 26 25 27 26 28 87 29 27 30 86 31 28 32 29 33 30 34
REMARK SMILES IDX 80 35 31 36 85 37 79 38 81 39 32 40 84 41 78 42 77 43 33 45
REMARK SMILES IDX 65 46 45 47 64 48 46 49 49 50 63 51 82 52 47 53 48 54 62 56
REMARK SMILES IDX 83 57 50 58 34 59 35 60 43 61 36 62 38 63 44 64 37 65 39 66
REMARK SMILES IDX 40 67 41 68 42 69 66 70 67 71 75 72 68 73 70 74 76 75 69 76
REMARK SMILES IDX 71 77 72 78 73 79 74 80 51 81 52 82 60 83 53 84 55 85 61 86
REMARK SMILES IDX 54 87 56 88 57 89 58 90 59 91
REMARK H PARENT 17 6 22 25 81 44 49 55
REMARK Flexibility Score: inf
ROOT
ATOM      1  C   UNL A   1      31.046  27.481  26.539  1.00  0.00     0.023 C 
ENDROOT
BRANCH   1   2
ATOM      2  C   UNL A   1      31.879  26.243  26.222  1.00  0.00     0.116 C 
BRANCH   2   3
ATOM      3  N   UNL A   1      31.396  25.031  26.862  1.00  0.00    -0.356 N 
ATOM      4  C   UNL A   1      31.824  23.739  26.802  1.00  0.00     0.226 C 
ATOM      5  O   UNL A   1      31.229  22.921  27.510  1.00  0.00    -0.274 OA
ATOM      6  H   UNL A   1      30.614  25.168  27.445  1.00  0.00     0.163 HD
BRANCH   4   7
ATOM      7  C   UNL A   1      32.940  23.280  25.845  1.00  0.00     0.055 C 
ATOM      8  C   UNL A   1      33.317  21.807  26.151  1.00  0.00     0.022 C 
ATOM      9  C   UNL A   1      34.253  24.049  26.121  1.00  0.00     0.022 C 
BRANCH   7  10
ATOM     10  C   UNL A   1      32.513  23.401  24.365  1.00  0.00     0.126 C 
BRANCH  10  11
ATOM     11  S   UNL A   1      33.723  24.209  23.237  1.00  0.00     0.054 S 
ATOM     12  O   UNL A   1      33.584  23.506  21.916  1.00  0.00    -0.254 OA
BRANCH  11  13
ATOM     13  C   UNL A   1      32.911  25.802  23.004  1.00  0.00     0.042 A 
ATOM     14  C   UNL A   1      31.556  25.847  22.644  1.00  0.00     0.021 A 
ATOM     15  C   UNL A   1      33.613  26.996  23.197  1.00  0.00     0.060 A 
ATOM     16  C   UNL A   1      30.933  27.073  22.392  1.00  0.00     0.043 A 
ATOM     17  C   UNL A   1      32.980  28.212  22.966  1.00  0.00     0.160 A 
ATOM     18  C   UNL A   1      31.655  28.250  22.548  1.00  0.00     0.158 A 
ATOM     19  F   UNL A   1      33.665  29.352  23.132  1.00  0.00    -0.204 F 
ATOM     20  F   UNL A   1      31.064  29.425  22.285  1.00  0.00    -0.204 F 
ENDBRANCH  11  13
ENDBRANCH  10  11
ENDBRANCH   7  10
ENDBRANCH   4   7
ENDBRANCH   2   3
ENDBRANCH   1   2
BRANCH   1  21
ATOM     21  C   UNL A   1      31.778  28.612  27.256  1.00  0.00     0.023 C 
BRANCH  21  22
ATOM     22  C   UNL A   1      32.537  29.588  26.362  1.00  0.00     0.116 C 
BRANCH  22  23
ATOM     23  N   UNL A   1      32.294  30.988  26.684  1.00  0.00    -0.352 N 
ATOM     24  C   UNL A   1      33.105  31.892  27.339  1.00  0.00     0.251 C 
ATOM     25  H   UNL A   1      31.424  31.341  26.390  1.00  0.00     0.163 HD
ATOM     26  O   UNL A   1      32.699  33.013  27.592  1.00  0.00    -0.269 OA
BRANCH  24  27
ATOM     27  C   UNL A   1      34.459  31.473  27.768  1.00  0.00     0.039 A 
ATOM     28  C   UNL A   1      35.431  32.453  27.980  1.00  0.00     0.014 A 
ATOM     29  C   UNL A   1      34.744  30.129  28.018  1.00  0.00     0.014 A 
ATOM     30  C   UNL A   1      36.658  32.097  28.546  1.00  0.00     0.010 A 
ATOM     31  C   UNL A   1      35.938  29.787  28.644  1.00  0.00     0.010 A 
ATOM     32  C   UNL A   1      36.898  30.769  28.935  1.00  0.00    -0.014 A 
BRANCH  32  33
ATOM     33  C   UNL A   1      38.108  30.387  29.706  1.00  0.00     0.031 A 
ATOM     34  C   UNL A   1      39.082  29.388  29.147  1.00  0.00     0.074 A 
ATOM     35  C   UNL A   1      38.261  30.846  30.965  1.00  0.00     0.049 A 
ATOM     36  N   UNL A   1      40.122  28.842  29.720  1.00  0.00    -0.248 NA
ATOM     37  C   UNL A   1      38.837  28.922  27.773  1.00  0.00     0.031 C 
ATOM     38  C   UNL A   1      37.347  31.765  31.647  1.00  0.00     0.029 A 
ATOM     39  N   UNL A   1      39.221  30.574  31.908  1.00  0.00    -0.354 N 
ATOM     40  C   UNL A   1      40.636  27.943  28.794  1.00  0.00     0.074 A 
ATOM     41  C   UNL A   1      39.775  27.996  27.632  1.00  0.00     0.031 C 
ATOM     42  C   UNL A   1      37.790  31.980  32.897  1.00  0.00     0.029 A 
ATOM     43  C   UNL A   1      38.996  31.189  33.118  1.00  0.00     0.049 A 
ATOM     44  H   UNL A   1      39.997  29.993  31.735  1.00  0.00     0.167 HD
ATOM     45  C   UNL A   1      41.742  27.167  28.889  1.00  0.00     0.034 A 
ATOM     46  C   UNL A   1      39.675  31.115  34.280  1.00  0.00     0.034 A 
ATOM     47  C   UNL A   1      42.620  27.150  30.027  1.00  0.00     0.049 A 
ATOM     48  C   UNL A   1      40.906  30.254  34.355  1.00  0.00     0.074 A 
ATOM     49  C   UNL A   1      43.813  26.466  30.183  1.00  0.00     0.029 A 
ATOM     50  N   UNL A   1      42.400  27.843  31.207  1.00  0.00    -0.354 N 
ATOM     51  N   UNL A   1      41.464  29.530  33.415  1.00  0.00    -0.248 NA
ATOM     52  C   UNL A   1      41.617  30.219  35.642  1.00  0.00     0.031 C 
ATOM     53  C   UNL A   1      44.308  26.735  31.463  1.00  0.00     0.029 A 
ATOM     54  C   UNL A   1      43.428  27.595  32.102  1.00  0.00     0.049 A 
ATOM     55  H   UNL A   1      41.627  28.424  31.384  1.00  0.00     0.167 HD
ATOM     56  C   UNL A   1      42.605  28.978  33.986  1.00  0.00     0.074 A 
ATOM     57  C   UNL A   1      42.670  29.468  35.348  1.00  0.00     0.031 C 
ATOM     58  C   UNL A   1      43.508  28.130  33.436  1.00  0.00     0.034 A 
BRANCH  45  59
ATOM     59  C   UNL A   1      42.097  26.318  27.698  1.00  0.00     0.023 A 
ATOM     60  C   UNL A   1      42.801  26.902  26.623  1.00  0.00     0.012 A 
ATOM     61  C   UNL A   1      41.784  24.947  27.654  1.00  0.00     0.148 A 
ATOM     62  C   UNL A   1      43.155  26.142  25.510  1.00  0.00     0.002 A 
ATOM     63  C   UNL A   1      42.175  24.186  26.558  1.00  0.00     0.091 A 
ATOM     64  F   UNL A   1      41.092  24.414  28.673  1.00  0.00    -0.205 F 
ATOM     65  C   UNL A   1      42.851  24.784  25.481  1.00  0.00     0.022 A 
BRANCH  63  66
ATOM     66  S   UNL A   1      41.888  22.416  26.463  1.00  0.00     0.127 S 
ATOM     67  O   UNL A   1      42.399  21.964  27.756  1.00  0.00    -0.237 OA
ATOM     68  O   UNL A   1      40.433  22.343  26.326  1.00  0.00    -0.237 OA
ATOM     69  O   UNL A   1      42.628  21.956  25.297  1.00  0.00    -0.744 OA
ENDBRANCH  63  66
ENDBRANCH  45  59
BRANCH  46  70
ATOM     70  C   UNL A   1      39.243  31.936  35.446  1.00  0.00     0.023 A 
ATOM     71  C   UNL A   1      39.527  33.316  35.452  1.00  0.00     0.012 A 
ATOM     72  C   UNL A   1      38.524  31.378  36.520  1.00  0.00     0.148 A 
ATOM     73  C   UNL A   1      39.122  34.121  36.517  1.00  0.00     0.002 A 
ATOM     74  C   UNL A   1      38.080  32.195  37.553  1.00  0.00     0.091 A 
ATOM     75  F   UNL A   1      38.278  30.060  36.503  1.00  0.00    -0.205 F 
ATOM     76  C   UNL A   1      38.390  33.564  37.561  1.00  0.00     0.022 A 
BRANCH  74  77
ATOM     77  S   UNL A   1      37.022  31.588  38.872  1.00  0.00     0.127 S 
ATOM     78  O   UNL A   1      37.903  31.687  40.032  1.00  0.00    -0.237 OA
ATOM     79  O   UNL A   1      35.922  32.553  38.849  1.00  0.00    -0.237 OA
ATOM     80  O   UNL A   1      36.642  30.238  38.477  1.00  0.00    -0.744 OA
ENDBRANCH  74  77
ENDBRANCH  46  70
BRANCH  58  81
ATOM     81  C   UNL A   1      44.660  27.684  34.296  1.00  0.00     0.023 A 
ATOM     82  C   UNL A   1      45.841  28.451  34.325  1.00  0.00     0.012 A 
ATOM     83  C   UNL A   1      44.543  26.561  35.138  1.00  0.00     0.148 A 
ATOM     84  C   UNL A   1      46.897  28.095  35.164  1.00  0.00     0.002 A 
ATOM     85  C   UNL A   1      45.582  26.236  36.003  1.00  0.00     0.091 A 
ATOM     86  F   UNL A   1      43.417  25.834  35.081  1.00  0.00    -0.205 F 
ATOM     87  C   UNL A   1      46.763  26.997  36.011  1.00  0.00     0.022 A 
BRANCH  85  88
ATOM     88  S   UNL A   1      45.465  24.895  37.192  1.00  0.00     0.127 S 
ATOM     89  O   UNL A   1      44.198  25.195  37.855  1.00  0.00    -0.237 OA
ATOM     90  O   UNL A   1      45.437  23.715  36.328  1.00  0.00    -0.237 OA
ATOM     91  O   UNL A   1      46.650  25.000  38.033  1.00  0.00    -0.744 OA
ENDBRANCH  85  88
ENDBRANCH  58  81
ENDBRANCH  32  33
ENDBRANCH  24  27
ENDBRANCH  22  23
ENDBRANCH  21  22
ENDBRANCH   1  21
TORSDOF 17
ENDMDL
