MODEL 1
REMARK VINA RESULT:     -10.7      0.000      0.000
REMARK SMILES N#C[C@@H]1CN(C(=O)NCCCC(=O)NCCCCNC(=O)c2ccc(-c3c4nc(c(-c5cccc(S(=O)(=O)[O-])c5F)c5ccc([nH]5)c(-c5cccc(S(=O)(=O)[O-])c5F)c5nc(c(-c6cccc(S(=O)(=O)[O-])c6F)c6ccc3[nH]6)C=C5)C=C4)cc2)CCO1
REMARK SMILES IDX 15 1 14 2 12 3 13 4 11 6 10 7 9 8 8 9 6 10 7 11 5 13 3 14
REMARK SMILES IDX 4 15 87 16 86 17 85 18 2 19 1 20 16 21 17 22 18 23 19 24
REMARK SMILES IDX 20 25 21 27 22 28 23 29 84 30 24 31 83 32 25 33 26 34 27 35
REMARK SMILES IDX 77 36 28 37 82 38 76 39 78 40 29 41 81 42 75 43 74 44 30 46
REMARK SMILES IDX 62 47 42 48 61 49 43 50 46 51 60 52 79 53 44 54 45 55 59 57
REMARK SMILES IDX 80 58 47 59 31 60 32 61 40 62 33 63 35 64 41 65 34 66 36 67
REMARK SMILES IDX 37 68 38 69 39 70 63 71 64 72 72 73 65 74 67 75 73 76 66 77
REMARK SMILES IDX 68 78 69 79 70 80 71 81 48 82 49 83 57 84 50 85 52 86 58 87
REMARK SMILES IDX 51 88 53 89 54 90 55 91 56 92
REMARK H PARENT 14 5 8 12 19 26 78 45 46 56
REMARK Flexibility Score: inf
ROOT
ATOM      1  C   UNL A   1      33.754  20.948  25.694  1.00  0.00     0.116 C 
ENDROOT
BRANCH   1   2
ATOM      2  N   UNL A   1      32.734  21.875  25.240  1.00  0.00    -0.356 N 
ATOM      3  C   UNL A   1      32.509  23.170  25.589  1.00  0.00     0.220 C 
ATOM      4  O   UNL A   1      31.479  23.721  25.200  1.00  0.00    -0.275 OA
ATOM      5  H   UNL A   1      32.105  21.509  24.577  1.00  0.00     0.163 HD
BRANCH   3   6
ATOM      6  C   UNL A   1      33.508  23.927  26.442  1.00  0.00     0.102 C 
BRANCH   6   7
ATOM      7  C   UNL A   1      34.403  24.862  25.624  1.00  0.00     0.031 C 
BRANCH   7   8
ATOM      8  C   UNL A   1      33.769  26.206  25.271  1.00  0.00     0.118 C 
BRANCH   8   9
ATOM      9  N   UNL A   1      32.760  26.624  26.227  1.00  0.00    -0.338 N 
ATOM     10  C   UNL A   1      31.634  27.358  26.158  1.00  0.00     0.317 C 
ATOM     11  O   UNL A   1      31.151  27.683  27.246  1.00  0.00    -0.249 OA
ATOM     12  H   UNL A   1      32.941  26.294  27.137  1.00  0.00     0.165 HD
BRANCH  10  13
ATOM     13  N   UNL A   1      31.074  27.749  24.978  1.00  0.00    -0.319 N 
ATOM     14  C   UNL A   1      31.332  29.040  22.850  1.00  0.00     0.240 C 
ATOM     15  C   UNL A   1      31.082  29.082  24.365  1.00  0.00     0.169 C 
ATOM     16  O   UNL A   1      30.411  28.132  22.207  1.00  0.00    -0.360 OA
ATOM     17  C   UNL A   1      30.540  26.797  22.725  1.00  0.00     0.183 C 
ATOM     18  C   UNL A   1      30.284  26.754  24.234  1.00  0.00     0.150 C 
BRANCH  14  19
ATOM     19  C   UNL A   1      32.777  28.679  22.548  1.00  0.00     0.096 C 
ATOM     20  N   UNL A   1      33.976  28.379  22.297  1.00  0.00    -0.195 NA
ENDBRANCH  14  19
ENDBRANCH  10  13
ENDBRANCH   8   9
ENDBRANCH   7   8
ENDBRANCH   6   7
ENDBRANCH   3   6
ENDBRANCH   1   2
BRANCH   1  21
ATOM     21  C   UNL A   1      34.742  20.646  24.571  1.00  0.00     0.023 C 
BRANCH  21  22
ATOM     22  C   UNL A   1      35.895  21.645  24.461  1.00  0.00     0.023 C 
BRANCH  22  23
ATOM     23  C   UNL A   1      36.814  21.693  25.676  1.00  0.00     0.116 C 
BRANCH  23  24
ATOM     24  N   UNL A   1      37.923  20.749  25.632  1.00  0.00    -0.352 N 
ATOM     25  C   UNL A   1      39.227  20.921  26.035  1.00  0.00     0.251 C 
ATOM     26  H   UNL A   1      37.709  19.863  25.261  1.00  0.00     0.163 HD
ATOM     27  O   UNL A   1      40.059  20.034  25.887  1.00  0.00    -0.269 OA
BRANCH  25  28
ATOM     28  C   UNL A   1      39.635  22.234  26.572  1.00  0.00     0.039 A 
ATOM     29  C   UNL A   1      40.714  22.282  27.461  1.00  0.00     0.014 A 
ATOM     30  C   UNL A   1      39.032  23.407  26.121  1.00  0.00     0.014 A 
ATOM     31  C   UNL A   1      41.237  23.518  27.839  1.00  0.00     0.010 A 
ATOM     32  C   UNL A   1      39.614  24.630  26.425  1.00  0.00     0.010 A 
ATOM     33  C   UNL A   1      40.717  24.699  27.289  1.00  0.00    -0.014 A 
BRANCH  33  34
ATOM     34  C   UNL A   1      41.301  26.026  27.602  1.00  0.00     0.031 A 
ATOM     35  C   UNL A   1      42.724  26.320  27.214  1.00  0.00     0.074 A 
ATOM     36  C   UNL A   1      40.595  26.915  28.329  1.00  0.00     0.049 A 
ATOM     37  N   UNL A   1      43.453  27.371  27.485  1.00  0.00    -0.248 NA
ATOM     38  C   UNL A   1      43.436  25.277  26.455  1.00  0.00     0.031 C 
ATOM     39  C   UNL A   1      39.240  26.706  28.843  1.00  0.00     0.029 A 
ATOM     40  N   UNL A   1      40.934  28.163  28.788  1.00  0.00    -0.354 N 
ATOM     41  C   UNL A   1      44.716  27.094  26.978  1.00  0.00     0.074 A 
ATOM     42  C   UNL A   1      44.668  25.762  26.417  1.00  0.00     0.031 C 
ATOM     43  C   UNL A   1      38.861  27.789  29.540  1.00  0.00     0.029 A 
ATOM     44  C   UNL A   1      39.952  28.758  29.545  1.00  0.00     0.049 A 
ATOM     45  H   UNL A   1      41.798  28.592  28.594  1.00  0.00     0.167 HD
ATOM     46  C   UNL A   1      45.810  27.890  26.948  1.00  0.00     0.034 A 
ATOM     47  C   UNL A   1      39.935  29.953  30.170  1.00  0.00     0.034 A 
ATOM     48  C   UNL A   1      45.829  29.240  27.438  1.00  0.00     0.049 A 
ATOM     49  C   UNL A   1      41.135  30.853  30.047  1.00  0.00     0.074 A 
ATOM     50  C   UNL A   1      46.849  30.170  27.360  1.00  0.00     0.029 A 
ATOM     51  N   UNL A   1      44.772  29.856  28.091  1.00  0.00    -0.354 N 
ATOM     52  N   UNL A   1      42.266  30.639  29.419  1.00  0.00    -0.248 NA
ATOM     53  C   UNL A   1      41.043  32.176  30.683  1.00  0.00     0.031 C 
ATOM     54  C   UNL A   1      46.410  31.349  27.971  1.00  0.00     0.029 A 
ATOM     55  C   UNL A   1      45.114  31.155  28.421  1.00  0.00     0.049 A 
ATOM     56  H   UNL A   1      43.906  29.431  28.291  1.00  0.00     0.167 HD
ATOM     57  C   UNL A   1      43.006  31.808  29.554  1.00  0.00     0.074 A 
ATOM     58  C   UNL A   1      42.185  32.736  30.306  1.00  0.00     0.031 C 
ATOM     59  C   UNL A   1      44.258  32.084  29.114  1.00  0.00     0.034 A 
BRANCH  46  60
ATOM     60  C   UNL A   1      47.051  27.343  26.296  1.00  0.00     0.023 A 
ATOM     61  C   UNL A   1      47.271  27.579  24.922  1.00  0.00     0.012 A 
ATOM     62  C   UNL A   1      48.015  26.635  27.038  1.00  0.00     0.148 A 
ATOM     63  C   UNL A   1      48.412  27.088  24.291  1.00  0.00     0.002 A 
ATOM     64  C   UNL A   1      49.172  26.186  26.411  1.00  0.00     0.091 A 
ATOM     65  F   UNL A   1      47.776  26.398  28.336  1.00  0.00    -0.205 F 
ATOM     66  C   UNL A   1      49.366  26.401  25.036  1.00  0.00     0.022 A 
BRANCH  64  67
ATOM     67  S   UNL A   1      50.494  25.358  27.300  1.00  0.00     0.127 S 
ATOM     68  O   UNL A   1      49.778  24.250  27.932  1.00  0.00    -0.237 OA
ATOM     69  O   UNL A   1      51.395  24.962  26.216  1.00  0.00    -0.237 OA
ATOM     70  O   UNL A   1      51.046  26.351  28.211  1.00  0.00    -0.744 OA
ENDBRANCH  64  67
ENDBRANCH  46  60
BRANCH  47  71
ATOM     71  C   UNL A   1      38.708  30.401  30.887  1.00  0.00     0.023 A 
ATOM     72  C   UNL A   1      38.585  30.133  32.265  1.00  0.00     0.012 A 
ATOM     73  C   UNL A   1      37.684  31.112  30.233  1.00  0.00     0.148 A 
ATOM     74  C   UNL A   1      37.453  30.539  32.972  1.00  0.00     0.002 A 
ATOM     75  C   UNL A   1      36.582  31.560  30.955  1.00  0.00     0.091 A 
ATOM     76  F   UNL A   1      37.812  31.346  28.920  1.00  0.00    -0.205 F 
ATOM     77  C   UNL A   1      36.457  31.260  32.321  1.00  0.00     0.022 A 
BRANCH  75  78
ATOM     78  S   UNL A   1      35.314  32.604  30.224  1.00  0.00     0.127 S 
ATOM     79  O   UNL A   1      36.082  33.789  29.848  1.00  0.00    -0.237 OA
ATOM     80  O   UNL A   1      34.853  31.786  29.102  1.00  0.00    -0.237 OA
ATOM     81  O   UNL A   1      34.319  32.796  31.270  1.00  0.00    -0.744 OA
ENDBRANCH  75  78
ENDBRANCH  47  71
BRANCH  59  82
ATOM     82  C   UNL A   1      44.815  33.452  29.403  1.00  0.00     0.023 A 
ATOM     83  C   UNL A   1      45.573  33.661  30.571  1.00  0.00     0.012 A 
ATOM     84  C   UNL A   1      44.660  34.503  28.478  1.00  0.00     0.148 A 
ATOM     85  C   UNL A   1      46.149  34.904  30.827  1.00  0.00     0.002 A 
ATOM     86  C   UNL A   1      45.274  35.726  28.719  1.00  0.00     0.091 A 
ATOM     87  F   UNL A   1      43.917  34.290  27.383  1.00  0.00    -0.205 F 
ATOM     88  C   UNL A   1      46.010  35.931  29.897  1.00  0.00     0.022 A 
BRANCH  86  89
ATOM     89  S   UNL A   1      45.226  37.072  27.530  1.00  0.00     0.127 S 
ATOM     90  O   UNL A   1      46.133  36.584  26.492  1.00  0.00    -0.237 OA
ATOM     91  O   UNL A   1      43.816  37.100  27.142  1.00  0.00    -0.237 OA
ATOM     92  O   UNL A   1      45.674  38.256  28.251  1.00  0.00    -0.744 OA
ENDBRANCH  86  89
ENDBRANCH  59  82
ENDBRANCH  33  34
ENDBRANCH  25  28
ENDBRANCH  23  24
ENDBRANCH  22  23
ENDBRANCH  21  22
ENDBRANCH   1  21
TORSDOF 19
ENDMDL
MODEL 2
REMARK VINA RESULT:     -10.6      4.256      9.390
REMARK SMILES N#C[C@@H]1CN(C(=O)NCCCC(=O)NCCCCNC(=O)c2ccc(-c3c4nc(c(-c5cccc(S(=O)(=O)[O-])c5F)c5ccc([nH]5)c(-c5cccc(S(=O)(=O)[O-])c5F)c5nc(c(-c6cccc(S(=O)(=O)[O-])c6F)c6ccc3[nH]6)C=C5)C=C4)cc2)CCO1
REMARK SMILES IDX 15 1 14 2 12 3 13 4 11 6 10 7 9 8 8 9 6 10 7 11 5 13 3 14
REMARK SMILES IDX 4 15 87 16 86 17 85 18 2 19 1 20 16 21 17 22 18 23 19 24
REMARK SMILES IDX 20 25 21 27 22 28 23 29 84 30 24 31 83 32 25 33 26 34 27 35
REMARK SMILES IDX 77 36 28 37 82 38 76 39 78 40 29 41 81 42 75 43 74 44 30 46
REMARK SMILES IDX 62 47 42 48 61 49 43 50 46 51 60 52 79 53 44 54 45 55 59 57
REMARK SMILES IDX 80 58 47 59 31 60 32 61 40 62 33 63 35 64 41 65 34 66 36 67
REMARK SMILES IDX 37 68 38 69 39 70 63 71 64 72 72 73 65 74 67 75 73 76 66 77
REMARK SMILES IDX 68 78 69 79 70 80 71 81 48 82 49 83 57 84 50 85 52 86 58 87
REMARK SMILES IDX 51 88 53 89 54 90 55 91 56 92
REMARK H PARENT 14 5 8 12 19 26 78 45 46 56
REMARK Flexibility Score: inf
ROOT
ATOM      1  C   UNL A   1      30.661  29.636  24.539  1.00  0.00     0.116 C 
ENDROOT
BRANCH   1   2
ATOM      2  N   UNL A   1      30.849  29.033  23.232  1.00  0.00    -0.356 N 
ATOM      3  C   UNL A   1      30.426  27.833  22.750  1.00  0.00     0.220 C 
ATOM      4  O   UNL A   1      30.842  27.451  21.656  1.00  0.00    -0.275 OA
ATOM      5  H   UNL A   1      31.364  29.578  22.593  1.00  0.00     0.163 HD
BRANCH   3   6
ATOM      6  C   UNL A   1      29.458  26.979  23.545  1.00  0.00     0.102 C 
BRANCH   6   7
ATOM      7  C   UNL A   1      30.162  26.015  24.503  1.00  0.00     0.031 C 
BRANCH   7   8
ATOM      8  C   UNL A   1      30.577  24.683  23.881  1.00  0.00     0.118 C 
BRANCH   8   9
ATOM      9  N   UNL A   1      31.681  24.814  22.947  1.00  0.00    -0.338 N 
ATOM     10  C   UNL A   1      32.986  24.484  22.969  1.00  0.00     0.317 C 
ATOM     11  O   UNL A   1      33.664  24.964  22.057  1.00  0.00    -0.249 OA
ATOM     12  H   UNL A   1      31.414  25.243  22.103  1.00  0.00     0.165 HD
BRANCH  10  13
ATOM     13  N   UNL A   1      33.538  23.705  23.942  1.00  0.00    -0.319 N 
ATOM     14  C   UNL A   1      33.827  23.282  26.392  1.00  0.00     0.240 C 
ATOM     15  C   UNL A   1      34.217  24.129  25.172  1.00  0.00     0.169 C 
ATOM     16  O   UNL A   1      34.000  21.876  26.111  1.00  0.00    -0.360 OA
ATOM     17  C   UNL A   1      33.198  21.459  24.994  1.00  0.00     0.183 C 
ATOM     18  C   UNL A   1      33.545  22.248  23.729  1.00  0.00     0.150 C 
BRANCH  14  19
ATOM     19  C   UNL A   1      32.407  23.593  26.837  1.00  0.00     0.096 C 
ATOM     20  N   UNL A   1      31.229  23.851  27.206  1.00  0.00    -0.195 NA
ENDBRANCH  14  19
ENDBRANCH  10  13
ENDBRANCH   8   9
ENDBRANCH   7   8
ENDBRANCH   6   7
ENDBRANCH   3   6
ENDBRANCH   1   2
BRANCH   1  21
ATOM     21  C   UNL A   1      31.996  29.768  25.265  1.00  0.00     0.023 C 
BRANCH  21  22
ATOM     22  C   UNL A   1      32.239  28.705  26.337  1.00  0.00     0.023 C 
BRANCH  22  23
ATOM     23  C   UNL A   1      33.377  29.019  27.300  1.00  0.00     0.116 C 
BRANCH  23  24
ATOM     24  N   UNL A   1      33.502  30.429  27.648  1.00  0.00    -0.352 N 
ATOM     25  C   UNL A   1      34.577  31.101  28.182  1.00  0.00     0.251 C 
ATOM     26  H   UNL A   1      32.704  30.979  27.475  1.00  0.00     0.163 HD
ATOM     27  O   UNL A   1      34.506  32.291  28.462  1.00  0.00    -0.269 OA
BRANCH  25  28
ATOM     28  C   UNL A   1      35.800  30.339  28.500  1.00  0.00     0.039 A 
ATOM     29  C   UNL A   1      36.879  30.416  27.613  1.00  0.00     0.014 A 
ATOM     30  C   UNL A   1      35.918  29.649  29.705  1.00  0.00     0.014 A 
ATOM     31  C   UNL A   1      38.106  29.860  27.975  1.00  0.00     0.010 A 
ATOM     32  C   UNL A   1      37.163  29.181  30.101  1.00  0.00     0.010 A 
ATOM     33  C   UNL A   1      38.267  29.276  29.240  1.00  0.00    -0.014 A 
BRANCH  33  34
ATOM     34  C   UNL A   1      39.578  28.750  29.693  1.00  0.00     0.031 A 
ATOM     35  C   UNL A   1      40.319  29.455  30.795  1.00  0.00     0.074 A 
ATOM     36  C   UNL A   1      40.147  27.716  29.042  1.00  0.00     0.049 A 
ATOM     37  N   UNL A   1      41.517  29.222  31.264  1.00  0.00    -0.248 NA
ATOM     38  C   UNL A   1      39.641  30.601  31.426  1.00  0.00     0.031 C 
ATOM     39  C   UNL A   1      39.566  27.010  27.897  1.00  0.00     0.029 A 
ATOM     40  N   UNL A   1      41.357  27.098  29.231  1.00  0.00    -0.354 N 
ATOM     41  C   UNL A   1      41.753  30.218  32.202  1.00  0.00     0.074 A 
ATOM     42  C   UNL A   1      40.594  31.081  32.211  1.00  0.00     0.031 C 
ATOM     43  C   UNL A   1      40.416  26.054  27.491  1.00  0.00     0.029 A 
ATOM     44  C   UNL A   1      41.612  26.093  28.327  1.00  0.00     0.049 A 
ATOM     45  H   UNL A   1      41.985  27.350  29.947  1.00  0.00     0.167 HD
ATOM     46  C   UNL A   1      42.825  30.380  33.013  1.00  0.00     0.034 A 
ATOM     47  C   UNL A   1      42.689  25.293  28.192  1.00  0.00     0.034 A 
ATOM     48  C   UNL A   1      43.940  29.475  33.055  1.00  0.00     0.049 A 
ATOM     49  C   UNL A   1      43.829  25.440  29.163  1.00  0.00     0.074 A 
ATOM     50  C   UNL A   1      45.025  29.485  33.912  1.00  0.00     0.029 A 
ATOM     51  N   UNL A   1      44.107  28.392  32.206  1.00  0.00    -0.354 N 
ATOM     52  N   UNL A   1      43.963  26.286  30.156  1.00  0.00    -0.248 NA
ATOM     53  C   UNL A   1      44.949  24.498  29.022  1.00  0.00     0.031 C 
ATOM     54  C   UNL A   1      45.852  28.407  33.577  1.00  0.00     0.029 A 
ATOM     55  C   UNL A   1      45.277  27.723  32.518  1.00  0.00     0.049 A 
ATOM     56  H   UNL A   1      43.485  28.136  31.487  1.00  0.00     0.167 HD
ATOM     57  C   UNL A   1      45.161  25.958  30.779  1.00  0.00     0.074 A 
ATOM     58  C   UNL A   1      45.705  24.821  30.064  1.00  0.00     0.031 C 
ATOM     59  C   UNL A   1      45.768  26.554  31.834  1.00  0.00     0.034 A 
BRANCH  46  60
ATOM     60  C   UNL A   1      42.802  31.538  33.974  1.00  0.00     0.023 A 
ATOM     61  C   UNL A   1      43.362  32.772  33.583  1.00  0.00     0.012 A 
ATOM     62  C   UNL A   1      42.198  31.425  35.241  1.00  0.00     0.148 A 
ATOM     63  C   UNL A   1      43.355  33.864  34.450  1.00  0.00     0.002 A 
ATOM     64  C   UNL A   1      42.155  32.531  36.083  1.00  0.00     0.091 A 
ATOM     65  F   UNL A   1      41.694  30.237  35.606  1.00  0.00    -0.205 F 
ATOM     66  C   UNL A   1      42.742  33.746  35.694  1.00  0.00     0.022 A 
BRANCH  64  67
ATOM     67  S   UNL A   1      41.322  32.502  37.674  1.00  0.00     0.127 S 
ATOM     68  O   UNL A   1      40.011  31.962  37.311  1.00  0.00    -0.237 OA
ATOM     69  O   UNL A   1      42.164  31.588  38.448  1.00  0.00    -0.237 OA
ATOM     70  O   UNL A   1      41.325  33.877  38.152  1.00  0.00    -0.744 OA
ENDBRANCH  64  67
ENDBRANCH  46  60
BRANCH  47  71
ATOM     71  C   UNL A   1      42.696  24.224  27.154  1.00  0.00     0.023 A 
ATOM     72  C   UNL A   1      43.391  24.444  25.949  1.00  0.00     0.012 A 
ATOM     73  C   UNL A   1      42.053  22.987  27.358  1.00  0.00     0.148 A 
ATOM     74  C   UNL A   1      43.423  23.467  24.954  1.00  0.00     0.002 A 
ATOM     75  C   UNL A   1      42.133  21.997  26.384  1.00  0.00     0.091 A 
ATOM     76  F   UNL A   1      41.385  22.800  28.504  1.00  0.00    -0.205 F 
ATOM     77  C   UNL A   1      42.804  22.240  25.175  1.00  0.00     0.022 A 
BRANCH  75  78
ATOM     78  S   UNL A   1      41.474  20.344  26.638  1.00  0.00     0.127 S 
ATOM     79  O   UNL A   1      41.890  19.663  25.415  1.00  0.00    -0.237 OA
ATOM     80  O   UNL A   1      42.176  19.918  27.850  1.00  0.00    -0.237 OA
ATOM     81  O   UNL A   1      40.039  20.521  26.813  1.00  0.00    -0.744 OA
ENDBRANCH  75  78
ENDBRANCH  47  71
BRANCH  59  82
ATOM     82  C   UNL A   1      47.075  25.977  32.306  1.00  0.00     0.023 A 
ATOM     83  C   UNL A   1      47.090  25.101  33.410  1.00  0.00     0.012 A 
ATOM     84  C   UNL A   1      48.271  26.232  31.607  1.00  0.00     0.148 A 
ATOM     85  C   UNL A   1      48.281  24.508  33.825  1.00  0.00     0.002 A 
ATOM     86  C   UNL A   1      49.445  25.602  31.999  1.00  0.00     0.091 A 
ATOM     87  F   UNL A   1      48.238  27.085  30.573  1.00  0.00    -0.205 F 
ATOM     88  C   UNL A   1      49.454  24.748  33.114  1.00  0.00     0.022 A 
BRANCH  86  89
ATOM     89  S   UNL A   1      50.979  25.781  31.083  1.00  0.00     0.127 S 
ATOM     90  O   UNL A   1      51.881  24.912  31.839  1.00  0.00    -0.237 OA
ATOM     91  O   UNL A   1      50.615  25.276  29.758  1.00  0.00    -0.237 OA
ATOM     92  O   UNL A   1      51.300  27.201  31.117  1.00  0.00    -0.744 OA
ENDBRANCH  86  89
ENDBRANCH  59  82
ENDBRANCH  33  34
ENDBRANCH  25  28
ENDBRANCH  23  24
ENDBRANCH  22  23
ENDBRANCH  21  22
ENDBRANCH   1  21
TORSDOF 19
ENDMDL
MODEL 3
REMARK VINA RESULT:     -10.6      2.540      8.129
REMARK SMILES N#C[C@@H]1CN(C(=O)NCCCC(=O)NCCCCNC(=O)c2ccc(-c3c4nc(c(-c5cccc(S(=O)(=O)[O-])c5F)c5ccc([nH]5)c(-c5cccc(S(=O)(=O)[O-])c5F)c5nc(c(-c6cccc(S(=O)(=O)[O-])c6F)c6ccc3[nH]6)C=C5)C=C4)cc2)CCO1
REMARK SMILES IDX 15 1 14 2 12 3 13 4 11 6 10 7 9 8 8 9 6 10 7 11 5 13 3 14
REMARK SMILES IDX 4 15 87 16 86 17 85 18 2 19 1 20 16 21 17 22 18 23 19 24
REMARK SMILES IDX 20 25 21 27 22 28 23 29 84 30 24 31 83 32 25 33 26 34 27 35
REMARK SMILES IDX 77 36 28 37 82 38 76 39 78 40 29 41 81 42 75 43 74 44 30 46
REMARK SMILES IDX 62 47 42 48 61 49 43 50 46 51 60 52 79 53 44 54 45 55 59 57
REMARK SMILES IDX 80 58 47 59 31 60 32 61 40 62 33 63 35 64 41 65 34 66 36 67
REMARK SMILES IDX 37 68 38 69 39 70 63 71 64 72 72 73 65 74 67 75 73 76 66 77
REMARK SMILES IDX 68 78 69 79 70 80 71 81 48 82 49 83 57 84 50 85 52 86 58 87
REMARK SMILES IDX 51 88 53 89 54 90 55 91 56 92
REMARK H PARENT 14 5 8 12 19 26 78 45 46 56
REMARK Flexibility Score: inf
ROOT
ATOM      1  C   UNL A   1      35.967  20.940  25.369  1.00  0.00     0.116 C 
ENDROOT
BRANCH   1   2
ATOM      2  N   UNL A   1      34.881  20.051  24.996  1.00  0.00    -0.356 N 
ATOM      3  C   UNL A   1      33.574  20.323  24.739  1.00  0.00     0.220 C 
ATOM      4  O   UNL A   1      32.787  19.387  24.599  1.00  0.00    -0.275 OA
ATOM      5  H   UNL A   1      35.131  19.101  24.917  1.00  0.00     0.163 HD
BRANCH   3   6
ATOM      6  C   UNL A   1      33.090  21.755  24.624  1.00  0.00     0.102 C 
BRANCH   6   7
ATOM      7  C   UNL A   1      32.041  21.944  23.525  1.00  0.00     0.031 C 
BRANCH   7   8
ATOM      8  C   UNL A   1      31.142  23.167  23.703  1.00  0.00     0.118 C 
BRANCH   8   9
ATOM      9  N   UNL A   1      30.682  23.336  25.070  1.00  0.00    -0.338 N 
ATOM     10  C   UNL A   1      30.918  24.233  26.046  1.00  0.00     0.317 C 
ATOM     11  O   UNL A   1      30.505  23.914  27.164  1.00  0.00    -0.249 OA
ATOM     12  H   UNL A   1      30.052  22.632  25.347  1.00  0.00     0.165 HD
BRANCH  10  13
ATOM     13  N   UNL A   1      31.592  25.400  25.834  1.00  0.00    -0.319 N 
ATOM     14  C   UNL A   1      33.584  26.528  24.825  1.00  0.00     0.240 C 
ATOM     15  C   UNL A   1      33.031  25.654  25.961  1.00  0.00     0.169 C 
ATOM     16  O   UNL A   1      32.809  27.740  24.692  1.00  0.00    -0.360 OA
ATOM     17  C   UNL A   1      31.429  27.454  24.413  1.00  0.00     0.183 C 
ATOM     18  C   UNL A   1      30.799  26.599  25.516  1.00  0.00     0.150 C 
BRANCH  14  19
ATOM     19  C   UNL A   1      33.637  25.752  23.519  1.00  0.00     0.096 C 
ATOM     20  N   UNL A   1      33.682  25.108  22.436  1.00  0.00    -0.195 NA
ENDBRANCH  14  19
ENDBRANCH  10  13
ENDBRANCH   8   9
ENDBRANCH   7   8
ENDBRANCH   6   7
ENDBRANCH   3   6
ENDBRANCH   1   2
BRANCH   1  21
ATOM     21  C   UNL A   1      37.310  20.351  24.948  1.00  0.00     0.023 C 
BRANCH  21  22
ATOM     22  C   UNL A   1      38.516  21.227  25.290  1.00  0.00     0.023 C 
BRANCH  22  23
ATOM     23  C   UNL A   1      39.370  20.715  26.443  1.00  0.00     0.116 C 
BRANCH  23  24
ATOM     24  N   UNL A   1      40.235  19.593  26.102  1.00  0.00    -0.352 N 
ATOM     25  C   UNL A   1      41.608  19.540  26.042  1.00  0.00     0.251 C 
ATOM     26  H   UNL A   1      39.770  18.753  25.883  1.00  0.00     0.163 HD
ATOM     27  O   UNL A   1      42.190  18.521  25.689  1.00  0.00    -0.269 OA
BRANCH  25  28
ATOM     28  C   UNL A   1      42.376  20.769  26.323  1.00  0.00     0.039 A 
ATOM     29  C   UNL A   1      42.694  21.613  25.255  1.00  0.00     0.014 A 
ATOM     30  C   UNL A   1      42.683  21.134  27.634  1.00  0.00     0.014 A 
ATOM     31  C   UNL A   1      43.254  22.864  25.511  1.00  0.00     0.010 A 
ATOM     32  C   UNL A   1      43.151  22.414  27.890  1.00  0.00     0.010 A 
ATOM     33  C   UNL A   1      43.447  23.290  26.834  1.00  0.00    -0.014 A 
BRANCH  33  34
ATOM     34  C   UNL A   1      43.961  24.645  27.148  1.00  0.00     0.031 A 
ATOM     35  C   UNL A   1      43.026  25.682  27.706  1.00  0.00     0.074 A 
ATOM     36  C   UNL A   1      45.229  24.972  26.827  1.00  0.00     0.049 A 
ATOM     37  N   UNL A   1      43.248  26.947  27.949  1.00  0.00    -0.248 NA
ATOM     38  C   UNL A   1      41.647  25.250  27.992  1.00  0.00     0.031 C 
ATOM     39  C   UNL A   1      46.202  24.079  26.194  1.00  0.00     0.029 A 
ATOM     40  N   UNL A   1      45.907  26.158  26.961  1.00  0.00    -0.354 N 
ATOM     41  C   UNL A   1      42.030  27.470  28.364  1.00  0.00     0.074 A 
ATOM     42  C   UNL A   1      41.063  26.397  28.304  1.00  0.00     0.031 C 
ATOM     43  C   UNL A   1      47.352  24.745  26.001  1.00  0.00     0.029 A 
ATOM     44  C   UNL A   1      47.192  26.118  26.471  1.00  0.00     0.049 A 
ATOM     45  H   UNL A   1      45.511  26.962  27.369  1.00  0.00     0.167 HD
ATOM     46  C   UNL A   1      41.747  28.722  28.793  1.00  0.00     0.034 A 
ATOM     47  C   UNL A   1      48.134  27.081  26.412  1.00  0.00     0.034 A 
ATOM     48  C   UNL A   1      42.729  29.762  28.923  1.00  0.00     0.049 A 
ATOM     49  C   UNL A   1      47.818  28.440  26.976  1.00  0.00     0.074 A 
ATOM     50  C   UNL A   1      42.573  31.032  29.448  1.00  0.00     0.029 A 
ATOM     51  N   UNL A   1      44.054  29.648  28.533  1.00  0.00    -0.354 N 
ATOM     52  N   UNL A   1      46.705  28.870  27.518  1.00  0.00    -0.248 NA
ATOM     53  C   UNL A   1      48.900  29.436  26.955  1.00  0.00     0.031 C 
ATOM     54  C   UNL A   1      43.806  31.688  29.370  1.00  0.00     0.029 A 
ATOM     55  C   UNL A   1      44.730  30.824  28.806  1.00  0.00     0.049 A 
ATOM     56  H   UNL A   1      44.456  28.848  28.122  1.00  0.00     0.167 HD
ATOM     57  C   UNL A   1      46.960  30.171  27.935  1.00  0.00     0.074 A 
ATOM     58  C   UNL A   1      48.341  30.452  27.601  1.00  0.00     0.031 C 
ATOM     59  C   UNL A   1      46.123  31.061  28.523  1.00  0.00     0.034 A 
BRANCH  46  60
ATOM     60  C   UNL A   1      40.334  29.008  29.224  1.00  0.00     0.023 A 
ATOM     61  C   UNL A   1      39.383  29.402  28.259  1.00  0.00     0.012 A 
ATOM     62  C   UNL A   1      39.934  28.852  30.564  1.00  0.00     0.148 A 
ATOM     63  C   UNL A   1      38.067  29.672  28.627  1.00  0.00     0.002 A 
ATOM     64  C   UNL A   1      38.607  29.080  30.916  1.00  0.00     0.091 A 
ATOM     65  F   UNL A   1      40.856  28.502  31.472  1.00  0.00    -0.205 F 
ATOM     66  C   UNL A   1      37.677  29.501  29.951  1.00  0.00     0.022 A 
BRANCH  64  67
ATOM     67  S   UNL A   1      37.990  28.814  32.581  1.00  0.00     0.127 S 
ATOM     68  O   UNL A   1      36.619  29.310  32.471  1.00  0.00    -0.237 OA
ATOM     69  O   UNL A   1      38.102  27.361  32.725  1.00  0.00    -0.237 OA
ATOM     70  O   UNL A   1      38.866  29.576  33.459  1.00  0.00    -0.744 OA
ENDBRANCH  64  67
ENDBRANCH  46  60
BRANCH  47  71
ATOM     71  C   UNL A   1      49.490  26.764  25.882  1.00  0.00     0.023 A 
ATOM     72  C   UNL A   1      50.389  26.042  26.691  1.00  0.00     0.012 A 
ATOM     73  C   UNL A   1      49.885  27.137  24.583  1.00  0.00     0.148 A 
ATOM     74  C   UNL A   1      51.666  25.723  26.229  1.00  0.00     0.002 A 
ATOM     75  C   UNL A   1      51.141  26.771  24.109  1.00  0.00     0.091 A 
ATOM     76  F   UNL A   1      49.022  27.835  23.832  1.00  0.00    -0.205 F 
ATOM     77  C   UNL A   1      52.039  26.078  24.936  1.00  0.00     0.022 A 
BRANCH  75  78
ATOM     78  S   UNL A   1      51.654  27.075  22.413  1.00  0.00     0.127 S 
ATOM     79  O   UNL A   1      52.101  28.464  22.479  1.00  0.00    -0.237 OA
ATOM     80  O   UNL A   1      52.724  26.092  22.237  1.00  0.00    -0.237 OA
ATOM     81  O   UNL A   1      50.474  26.823  21.599  1.00  0.00    -0.744 OA
ENDBRANCH  75  78
ENDBRANCH  47  71
BRANCH  59  82
ATOM     82  C   UNL A   1      46.677  32.415  28.875  1.00  0.00     0.023 A 
ATOM     83  C   UNL A   1      47.331  32.599  30.109  1.00  0.00     0.012 A 
ATOM     84  C   UNL A   1      46.628  33.476  27.950  1.00  0.00     0.148 A 
ATOM     85  C   UNL A   1      47.905  33.829  30.428  1.00  0.00     0.002 A 
ATOM     86  C   UNL A   1      47.241  34.685  28.257  1.00  0.00     0.091 A 
ATOM     87  F   UNL A   1      45.983  33.286  26.790  1.00  0.00    -0.205 F 
ATOM     88  C   UNL A   1      47.871  34.866  29.499  1.00  0.00     0.022 A 
BRANCH  86  89
ATOM     89  S   UNL A   1      47.327  36.040  27.081  1.00  0.00     0.127 S 
ATOM     90  O   UNL A   1      48.045  37.056  27.850  1.00  0.00    -0.237 OA
ATOM     91  O   UNL A   1      48.094  35.454  25.981  1.00  0.00    -0.237 OA
ATOM     92  O   UNL A   1      45.947  36.364  26.745  1.00  0.00    -0.744 OA
ENDBRANCH  86  89
ENDBRANCH  59  82
ENDBRANCH  33  34
ENDBRANCH  25  28
ENDBRANCH  23  24
ENDBRANCH  22  23
ENDBRANCH  21  22
ENDBRANCH   1  21
TORSDOF 19
ENDMDL
