MODEL 1
REMARK VINA RESULT:     -11.2      0.000      0.000
REMARK SMILES CCCSc1nc(=O)cc(CC(=O)NCCCCNC(=O)c2ccc(-c3c4nc(c(-c5cccc(S(=O)(=O)[O-])c5F)c5ccc([nH]5)c(-c5cccc(S(=O)(=O)[O-])c5F)c5nc(c(-c6cccc(S(=O)(=O)[O-])c6F)c6ccc3[nH]6)C=C5)C=C4)cc2)[nH]1
REMARK SMILES IDX 16 1 15 2 14 3 12 4 13 5 11 7 10 8 5 9 6 10 85 11 7 12 8 14
REMARK SMILES IDX 9 15 4 16 3 17 2 18 1 19 17 20 18 21 19 22 20 23 21 25 22 26
REMARK SMILES IDX 23 27 84 28 24 29 83 30 25 31 26 32 27 33 77 34 28 35 82 36
REMARK SMILES IDX 76 37 78 38 29 39 81 40 75 41 74 42 30 44 62 45 42 46 61 47
REMARK SMILES IDX 43 48 46 49 60 50 79 51 44 52 45 53 59 55 80 56 47 57 31 58
REMARK SMILES IDX 32 59 40 60 33 61 35 62 41 63 34 64 36 65 37 66 38 67 39 68
REMARK SMILES IDX 63 69 64 70 72 71 65 72 67 73 73 74 66 75 68 76 69 77 70 78
REMARK SMILES IDX 71 79 48 80 49 81 57 82 50 83 52 84 58 85 51 86 53 87 54 88
REMARK SMILES IDX 55 89 56 90
REMARK H PARENT 14 6 85 13 19 24 78 43 46 54
REMARK Flexibility Score: inf
ROOT
ATOM      1  C   UNL A   1      31.503  27.550  26.661  1.00  0.00     0.023 C 
ENDROOT
BRANCH   1   2
ATOM      2  C   UNL A   1      31.733  26.146  26.106  1.00  0.00     0.116 C 
BRANCH   2   3
ATOM      3  N   UNL A   1      30.795  25.188  26.658  1.00  0.00    -0.356 N 
ATOM      4  C   UNL A   1      30.982  23.859  26.906  1.00  0.00     0.225 C 
ATOM      5  O   UNL A   1      30.029  23.180  27.288  1.00  0.00    -0.275 OA
ATOM      6  H   UNL A   1      29.906  25.544  26.884  1.00  0.00     0.163 HD
BRANCH   4   7
ATOM      7  C   UNL A   1      32.362  23.245  26.717  1.00  0.00     0.154 C 
BRANCH   7   8
ATOM      8  C   UNL A   1      32.416  22.298  25.548  1.00  0.00     0.032 A 
ATOM      9  C   UNL A   1      32.472  20.060  24.739  1.00  0.00     0.169 A 
ATOM     10  N   UNL A   1      32.459  20.383  23.493  1.00  0.00    -0.185 NA
ATOM     11  N   UNL A   1      32.441  20.941  25.777  1.00  0.00    -0.337 N 
ATOM     12  C   UNL A   1      32.459  21.722  23.168  1.00  0.00     0.273 A 
ATOM     13  H   UNL A   1      32.437  20.604  26.703  1.00  0.00     0.168 HD
ATOM     14  O   UNL A   1      32.487  22.131  22.014  1.00  0.00    -0.267 OA
ATOM     15  C   UNL A   1      32.422  22.723  24.274  1.00  0.00     0.095 A 
BRANCH   9  16
ATOM     16  S   UNL A   1      32.473  18.374  25.177  1.00  0.00    -0.088 SA
BRANCH  16  17
ATOM     17  C   UNL A   1      32.838  17.591  23.575  1.00  0.00     0.078 C 
BRANCH  17  18
ATOM     18  C   UNL A   1      33.979  16.572  23.577  1.00  0.00     0.008 C 
ATOM     19  C   UNL A   1      35.030  16.821  24.650  1.00  0.00     0.005 C 
ENDBRANCH  17  18
ENDBRANCH  16  17
ENDBRANCH   9  16
ENDBRANCH   7   8
ENDBRANCH   4   7
ENDBRANCH   2   3
ENDBRANCH   1   2
BRANCH   1  20
ATOM     20  C   UNL A   1      31.492  28.654  25.604  1.00  0.00     0.023 C 
BRANCH  20  21
ATOM     21  C   UNL A   1      32.652  29.639  25.683  1.00  0.00     0.116 C 
BRANCH  21  22
ATOM     22  N   UNL A   1      32.284  30.932  26.245  1.00  0.00    -0.352 N 
ATOM     23  C   UNL A   1      33.004  31.714  27.123  1.00  0.00     0.251 C 
ATOM     24  H   UNL A   1      31.413  31.291  25.963  1.00  0.00     0.163 HD
ATOM     25  O   UNL A   1      32.512  32.738  27.585  1.00  0.00    -0.269 OA
BRANCH  23  26
ATOM     26  C   UNL A   1      34.351  31.262  27.531  1.00  0.00     0.039 A 
ATOM     27  C   UNL A   1      34.586  29.910  27.782  1.00  0.00     0.014 A 
ATOM     28  C   UNL A   1      35.345  32.211  27.778  1.00  0.00     0.014 A 
ATOM     29  C   UNL A   1      35.733  29.533  28.470  1.00  0.00     0.010 A 
ATOM     30  C   UNL A   1      36.540  31.813  28.383  1.00  0.00     0.010 A 
ATOM     31  C   UNL A   1      36.716  30.482  28.796  1.00  0.00    -0.014 A 
BRANCH  31  32
ATOM     32  C   UNL A   1      37.903  30.061  29.586  1.00  0.00     0.031 A 
ATOM     33  C   UNL A   1      38.944  29.145  28.997  1.00  0.00     0.074 A 
ATOM     34  C   UNL A   1      38.065  30.541  30.834  1.00  0.00     0.049 A 
ATOM     35  N   UNL A   1      40.043  28.693  29.546  1.00  0.00    -0.248 NA
ATOM     36  C   UNL A   1      38.732  28.671  27.618  1.00  0.00     0.031 C 
ATOM     37  C   UNL A   1      37.123  31.426  31.524  1.00  0.00     0.029 A 
ATOM     38  N   UNL A   1      39.080  30.364  31.740  1.00  0.00    -0.354 N 
ATOM     39  C   UNL A   1      40.621  27.846  28.608  1.00  0.00     0.074 A 
ATOM     40  C   UNL A   1      39.758  27.847  27.449  1.00  0.00     0.031 C 
ATOM     41  C   UNL A   1      37.618  31.740  32.729  1.00  0.00     0.029 A 
ATOM     42  C   UNL A   1      38.881  31.035  32.923  1.00  0.00     0.049 A 
ATOM     43  H   UNL A   1      39.873  29.810  31.560  1.00  0.00     0.167 HD
ATOM     44  C   UNL A   1      41.776  27.145  28.699  1.00  0.00     0.034 A 
ATOM     45  C   UNL A   1      39.616  31.068  34.051  1.00  0.00     0.034 A 
ATOM     46  C   UNL A   1      42.667  27.189  29.826  1.00  0.00     0.049 A 
ATOM     47  C   UNL A   1      40.895  30.291  34.121  1.00  0.00     0.074 A 
ATOM     48  C   UNL A   1      43.893  26.565  29.971  1.00  0.00     0.029 A 
ATOM     49  N   UNL A   1      42.431  27.888  30.998  1.00  0.00    -0.354 N 
ATOM     50  N   UNL A   1      41.465  29.565  33.190  1.00  0.00    -0.248 NA
ATOM     51  C   UNL A   1      41.641  30.343  35.387  1.00  0.00     0.031 C 
ATOM     52  C   UNL A   1      44.391  26.870  31.240  1.00  0.00     0.029 A 
ATOM     53  C   UNL A   1      43.483  27.701  31.877  1.00  0.00     0.049 A 
ATOM     54  H   UNL A   1      41.634  28.437  31.178  1.00  0.00     0.167 HD
ATOM     55  C   UNL A   1      42.639  29.083  33.751  1.00  0.00     0.074 A 
ATOM     56  C   UNL A   1      42.712  29.612  35.098  1.00  0.00     0.031 C 
ATOM     57  C   UNL A   1      43.565  28.261  33.201  1.00  0.00     0.034 A 
BRANCH  44  58
ATOM     58  C   UNL A   1      42.180  26.286  27.532  1.00  0.00     0.023 A 
ATOM     59  C   UNL A   1      42.991  26.829  26.515  1.00  0.00     0.012 A 
ATOM     60  C   UNL A   1      41.853  24.915  27.503  1.00  0.00     0.148 A 
ATOM     61  C   UNL A   1      43.462  26.023  25.481  1.00  0.00     0.002 A 
ATOM     62  C   UNL A   1      42.353  24.112  26.485  1.00  0.00     0.091 A 
ATOM     63  F   UNL A   1      41.073  24.425  28.475  1.00  0.00    -0.205 F 
ATOM     64  C   UNL A   1      43.154  24.664  25.471  1.00  0.00     0.022 A 
BRANCH  62  65
ATOM     65  S   UNL A   1      42.062  22.340  26.411  1.00  0.00     0.127 S 
ATOM     66  O   UNL A   1      42.643  21.894  27.677  1.00  0.00    -0.237 OA
ATOM     67  O   UNL A   1      40.602  22.271  26.354  1.00  0.00    -0.237 OA
ATOM     68  O   UNL A   1      42.746  21.868  25.216  1.00  0.00    -0.744 OA
ENDBRANCH  62  65
ENDBRANCH  44  58
BRANCH  45  69
ATOM     69  C   UNL A   1      39.146  31.904  35.186  1.00  0.00     0.023 A 
ATOM     70  C   UNL A   1      38.314  31.334  36.166  1.00  0.00     0.012 A 
ATOM     71  C   UNL A   1      39.615  33.222  35.354  1.00  0.00     0.148 A 
ATOM     72  C   UNL A   1      37.957  32.064  37.300  1.00  0.00     0.002 A 
ATOM     73  C   UNL A   1      39.291  33.927  36.505  1.00  0.00     0.091 A 
ATOM     74  F   UNL A   1      40.410  33.735  34.404  1.00  0.00    -0.205 F 
ATOM     75  C   UNL A   1      38.454  33.354  37.475  1.00  0.00     0.022 A 
BRANCH  73  76
ATOM     76  S   UNL A   1      39.979  35.543  36.876  1.00  0.00     0.127 S 
ATOM     77  O   UNL A   1      39.503  36.336  35.745  1.00  0.00    -0.237 OA
ATOM     78  O   UNL A   1      39.341  35.850  38.156  1.00  0.00    -0.237 OA
ATOM     79  O   UNL A   1      41.421  35.358  36.943  1.00  0.00    -0.744 OA
ENDBRANCH  73  76
ENDBRANCH  45  69
BRANCH  57  80
ATOM     80  C   UNL A   1      44.753  27.872  34.034  1.00  0.00     0.023 A 
ATOM     81  C   UNL A   1      45.846  28.755  34.131  1.00  0.00     0.012 A 
ATOM     82  C   UNL A   1      44.728  26.704  34.821  1.00  0.00     0.148 A 
ATOM     83  C   UNL A   1      46.901  28.478  34.999  1.00  0.00     0.002 A 
ATOM     84  C   UNL A   1      45.767  26.452  35.708  1.00  0.00     0.091 A 
ATOM     85  F   UNL A   1      43.677  25.880  34.702  1.00  0.00    -0.205 F 
ATOM     86  C   UNL A   1      46.855  27.335  35.795  1.00  0.00     0.022 A 
BRANCH  84  87
ATOM     87  S   UNL A   1      45.766  25.047  36.827  1.00  0.00     0.127 S 
ATOM     88  O   UNL A   1      44.615  25.345  37.678  1.00  0.00    -0.237 OA
ATOM     89  O   UNL A   1      45.574  23.924  35.910  1.00  0.00    -0.237 OA
ATOM     90  O   UNL A   1      47.055  25.067  37.505  1.00  0.00    -0.744 OA
ENDBRANCH  84  87
ENDBRANCH  57  80
ENDBRANCH  31  32
ENDBRANCH  23  26
ENDBRANCH  21  22
ENDBRANCH  20  21
ENDBRANCH   1  20
TORSDOF 18
ENDMDL
MODEL 2
REMARK VINA RESULT:     -10.9      5.573     10.673
REMARK SMILES CCCSc1nc(=O)cc(CC(=O)NCCCCNC(=O)c2ccc(-c3c4nc(c(-c5cccc(S(=O)(=O)[O-])c5F)c5ccc([nH]5)c(-c5cccc(S(=O)(=O)[O-])c5F)c5nc(c(-c6cccc(S(=O)(=O)[O-])c6F)c6ccc3[nH]6)C=C5)C=C4)cc2)[nH]1
REMARK SMILES IDX 16 1 15 2 14 3 12 4 13 5 11 7 10 8 5 9 6 10 85 11 7 12 8 14
REMARK SMILES IDX 9 15 4 16 3 17 2 18 1 19 17 20 18 21 19 22 20 23 21 25 22 26
REMARK SMILES IDX 23 27 84 28 24 29 83 30 25 31 26 32 27 33 77 34 28 35 82 36
REMARK SMILES IDX 76 37 78 38 29 39 81 40 75 41 74 42 30 44 62 45 42 46 61 47
REMARK SMILES IDX 43 48 46 49 60 50 79 51 44 52 45 53 59 55 80 56 47 57 31 58
REMARK SMILES IDX 32 59 40 60 33 61 35 62 41 63 34 64 36 65 37 66 38 67 39 68
REMARK SMILES IDX 63 69 64 70 72 71 65 72 67 73 73 74 66 75 68 76 69 77 70 78
REMARK SMILES IDX 71 79 48 80 49 81 57 82 50 83 52 84 58 85 51 86 53 87 54 88
REMARK SMILES IDX 55 89 56 90
REMARK H PARENT 14 6 85 13 19 24 78 43 46 54
REMARK Flexibility Score: inf
ROOT
ATOM      1  C   UNL A   1      37.172  21.932  24.601  1.00  0.00     0.023 C 
ENDROOT
BRANCH   1   2
ATOM      2  C   UNL A   1      35.652  21.826  24.500  1.00  0.00     0.116 C 
BRANCH   2   3
ATOM      3  N   UNL A   1      35.116  22.713  23.485  1.00  0.00    -0.356 N 
ATOM      4  C   UNL A   1      33.819  22.870  23.090  1.00  0.00     0.225 C 
ATOM      5  O   UNL A   1      33.567  23.606  22.136  1.00  0.00    -0.275 OA
ATOM      6  H   UNL A   1      35.775  23.276  23.020  1.00  0.00     0.163 HD
BRANCH   4   7
ATOM      7  C   UNL A   1      32.711  22.143  23.841  1.00  0.00     0.154 C 
BRANCH   7   8
ATOM      8  C   UNL A   1      32.084  22.999  24.909  1.00  0.00     0.032 A 
ATOM      9  C   UNL A   1      31.907  25.117  25.982  1.00  0.00     0.169 A 
ATOM     10  N   UNL A   1      30.983  24.758  26.802  1.00  0.00    -0.185 NA
ATOM     11  N   UNL A   1      32.470  24.314  25.036  1.00  0.00    -0.337 N 
ATOM     12  C   UNL A   1      30.550  23.450  26.765  1.00  0.00     0.273 A 
ATOM     13  H   UNL A   1      33.161  24.678  24.437  1.00  0.00     0.168 HD
ATOM     14  O   UNL A   1      29.706  23.001  27.530  1.00  0.00    -0.267 OA
ATOM     15  C   UNL A   1      31.137  22.536  25.742  1.00  0.00     0.095 A 
BRANCH   9  16
ATOM     16  S   UNL A   1      32.472  26.764  26.010  1.00  0.00    -0.088 SA
BRANCH  16  17
ATOM     17  C   UNL A   1      32.266  27.240  24.265  1.00  0.00     0.078 C 
BRANCH  17  18
ATOM     18  C   UNL A   1      30.913  27.853  23.898  1.00  0.00     0.008 C 
ATOM     19  C   UNL A   1      30.816  29.347  24.171  1.00  0.00     0.005 C 
ENDBRANCH  17  18
ENDBRANCH  16  17
ENDBRANCH   9  16
ENDBRANCH   7   8
ENDBRANCH   4   7
ENDBRANCH   2   3
ENDBRANCH   1   2
BRANCH   1  20
ATOM     20  C   UNL A   1      37.873  20.629  24.982  1.00  0.00     0.023 C 
BRANCH  20  21
ATOM     21  C   UNL A   1      39.073  20.785  25.908  1.00  0.00     0.116 C 
BRANCH  21  22
ATOM     22  N   UNL A   1      39.938  19.613  25.946  1.00  0.00    -0.352 N 
ATOM     23  C   UNL A   1      41.304  19.570  26.129  1.00  0.00     0.251 C 
ATOM     24  H   UNL A   1      39.493  18.745  25.825  1.00  0.00     0.163 HD
ATOM     25  O   UNL A   1      41.907  18.506  26.037  1.00  0.00    -0.269 OA
BRANCH  23  26
ATOM     26  C   UNL A   1      42.024  20.836  26.386  1.00  0.00     0.039 A 
ATOM     27  C   UNL A   1      42.266  21.245  27.698  1.00  0.00     0.014 A 
ATOM     28  C   UNL A   1      42.350  21.668  25.313  1.00  0.00     0.014 A 
ATOM     29  C   UNL A   1      42.637  22.561  27.944  1.00  0.00     0.010 A 
ATOM     30  C   UNL A   1      42.817  22.961  25.564  1.00  0.00     0.010 A 
ATOM     31  C   UNL A   1      42.899  23.441  26.881  1.00  0.00    -0.014 A 
BRANCH  31  32
ATOM     32  C   UNL A   1      43.234  24.860  27.174  1.00  0.00     0.031 A 
ATOM     33  C   UNL A   1      42.235  25.773  27.836  1.00  0.00     0.074 A 
ATOM     34  C   UNL A   1      44.465  25.319  26.878  1.00  0.00     0.049 A 
ATOM     35  N   UNL A   1      42.373  27.031  28.173  1.00  0.00    -0.248 NA
ATOM     36  C   UNL A   1      40.913  25.213  28.164  1.00  0.00     0.031 C 
ATOM     37  C   UNL A   1      45.519  24.539  26.224  1.00  0.00     0.029 A 
ATOM     38  N   UNL A   1      45.043  26.544  27.094  1.00  0.00    -0.354 N 
ATOM     39  C   UNL A   1      41.148  27.424  28.699  1.00  0.00     0.074 A 
ATOM     40  C   UNL A   1      40.276  26.273  28.644  1.00  0.00     0.031 C 
ATOM     41  C   UNL A   1      46.623  25.292  26.122  1.00  0.00     0.029 A 
ATOM     42  C   UNL A   1      46.340  26.624  26.648  1.00  0.00     0.049 A 
ATOM     43  H   UNL A   1      44.574  27.293  27.527  1.00  0.00     0.167 HD
ATOM     44  C   UNL A   1      40.788  28.630  29.197  1.00  0.00     0.034 A 
ATOM     45  C   UNL A   1      47.207  27.655  26.638  1.00  0.00     0.034 A 
ATOM     46  C   UNL A   1      41.671  29.759  29.309  1.00  0.00     0.049 A 
ATOM     47  C   UNL A   1      46.787  28.977  27.205  1.00  0.00     0.074 A 
ATOM     48  C   UNL A   1      41.408  30.998  29.867  1.00  0.00     0.029 A 
ATOM     49  N   UNL A   1      42.978  29.793  28.853  1.00  0.00    -0.354 N 
ATOM     50  N   UNL A   1      45.652  29.300  27.775  1.00  0.00    -0.248 NA
ATOM     51  C   UNL A   1      47.764  30.072  27.142  1.00  0.00     0.031 C 
ATOM     52  C   UNL A   1      42.552  31.789  29.731  1.00  0.00     0.029 A 
ATOM     53  C   UNL A   1      43.532  31.035  29.105  1.00  0.00     0.049 A 
ATOM     54  H   UNL A   1      43.444  29.044  28.415  1.00  0.00     0.167 HD
ATOM     55  C   UNL A   1      45.780  30.631  28.148  1.00  0.00     0.074 A 
ATOM     56  C   UNL A   1      47.111  31.052  27.757  1.00  0.00     0.031 C 
ATOM     57  C   UNL A   1      44.868  31.434  28.747  1.00  0.00     0.034 A 
BRANCH  44  58
ATOM     58  C   UNL A   1      39.382  28.801  29.704  1.00  0.00     0.023 A 
ATOM     59  C   UNL A   1      39.063  28.402  31.018  1.00  0.00     0.012 A 
ATOM     60  C   UNL A   1      38.412  29.457  28.922  1.00  0.00     0.148 A 
ATOM     61  C   UNL A   1      37.795  28.647  31.542  1.00  0.00     0.002 A 
ATOM     62  C   UNL A   1      37.160  29.725  29.462  1.00  0.00     0.091 A 
ATOM     63  F   UNL A   1      38.737  29.816  27.673  1.00  0.00    -0.205 F 
ATOM     64  C   UNL A   1      36.848  29.317  30.770  1.00  0.00     0.022 A 
BRANCH  62  65
ATOM     65  S   UNL A   1      35.889  30.632  28.573  1.00  0.00     0.127 S 
ATOM     66  O   UNL A   1      35.227  29.560  27.831  1.00  0.00    -0.237 OA
ATOM     67  O   UNL A   1      35.095  31.196  29.665  1.00  0.00    -0.237 OA
ATOM     68  O   UNL A   1      36.589  31.611  27.754  1.00  0.00    -0.744 OA
ENDBRANCH  62  65
ENDBRANCH  44  58
BRANCH  45  69
ATOM     69  C   UNL A   1      48.570  27.438  26.088  1.00  0.00     0.023 A 
ATOM     70  C   UNL A   1      49.580  26.932  26.925  1.00  0.00     0.012 A 
ATOM     71  C   UNL A   1      48.833  27.624  24.716  1.00  0.00     0.148 A 
ATOM     72  C   UNL A   1      50.834  26.610  26.404  1.00  0.00     0.002 A 
ATOM     73  C   UNL A   1      50.068  27.262  24.196  1.00  0.00     0.091 A 
ATOM     74  F   UNL A   1      47.848  28.105  23.944  1.00  0.00    -0.205 F 
ATOM     75  C   UNL A   1      51.073  26.764  25.040  1.00  0.00     0.022 A 
BRANCH  73  76
ATOM     76  S   UNL A   1      50.430  27.309  22.438  1.00  0.00     0.127 S 
ATOM     77  O   UNL A   1      50.315  28.736  22.149  1.00  0.00    -0.237 OA
ATOM     78  O   UNL A   1      51.793  26.780  22.403  1.00  0.00    -0.237 OA
ATOM     79  O   UNL A   1      49.431  26.463  21.802  1.00  0.00    -0.744 OA
ENDBRANCH  73  76
ENDBRANCH  45  69
BRANCH  57  80
ATOM     80  C   UNL A   1      45.257  32.857  29.034  1.00  0.00     0.023 A 
ATOM     81  C   UNL A   1      45.937  33.158  30.230  1.00  0.00     0.012 A 
ATOM     82  C   UNL A   1      45.069  33.862  28.066  1.00  0.00     0.148 A 
ATOM     83  C   UNL A   1      46.422  34.444  30.460  1.00  0.00     0.002 A 
ATOM     84  C   UNL A   1      45.586  35.133  28.288  1.00  0.00     0.091 A 
ATOM     85  F   UNL A   1      44.413  33.547  26.940  1.00  0.00    -0.205 F 
ATOM     86  C   UNL A   1      46.258  35.426  29.485  1.00  0.00     0.022 A 
BRANCH  84  87
ATOM     87  S   UNL A   1      45.490  36.444  27.065  1.00  0.00     0.127 S 
ATOM     88  O   UNL A   1      46.187  35.844  25.928  1.00  0.00    -0.237 OA
ATOM     89  O   UNL A   1      44.046  36.594  26.886  1.00  0.00    -0.237 OA
ATOM     90  O   UNL A   1      46.153  37.600  27.655  1.00  0.00    -0.744 OA
ENDBRANCH  84  87
ENDBRANCH  57  80
ENDBRANCH  31  32
ENDBRANCH  23  26
ENDBRANCH  21  22
ENDBRANCH  20  21
ENDBRANCH   1  20
TORSDOF 18
ENDMDL
MODEL 3
REMARK VINA RESULT:     -10.9      1.610      8.229
REMARK SMILES CCCSc1nc(=O)cc(CC(=O)NCCCCNC(=O)c2ccc(-c3c4nc(c(-c5cccc(S(=O)(=O)[O-])c5F)c5ccc([nH]5)c(-c5cccc(S(=O)(=O)[O-])c5F)c5nc(c(-c6cccc(S(=O)(=O)[O-])c6F)c6ccc3[nH]6)C=C5)C=C4)cc2)[nH]1
REMARK SMILES IDX 16 1 15 2 14 3 12 4 13 5 11 7 10 8 5 9 6 10 85 11 7 12 8 14
REMARK SMILES IDX 9 15 4 16 3 17 2 18 1 19 17 20 18 21 19 22 20 23 21 25 22 26
REMARK SMILES IDX 23 27 84 28 24 29 83 30 25 31 26 32 27 33 77 34 28 35 82 36
REMARK SMILES IDX 76 37 78 38 29 39 81 40 75 41 74 42 30 44 62 45 42 46 61 47
REMARK SMILES IDX 43 48 46 49 60 50 79 51 44 52 45 53 59 55 80 56 47 57 31 58
REMARK SMILES IDX 32 59 40 60 33 61 35 62 41 63 34 64 36 65 37 66 38 67 39 68
REMARK SMILES IDX 63 69 64 70 72 71 65 72 67 73 73 74 66 75 68 76 69 77 70 78
REMARK SMILES IDX 71 79 48 80 49 81 57 82 50 83 52 84 58 85 51 86 53 87 54 88
REMARK SMILES IDX 55 89 56 90
REMARK H PARENT 14 6 85 13 19 24 78 43 46 54
REMARK Flexibility Score: inf
ROOT
ATOM      1  C   UNL A   1      31.005  28.693  24.239  1.00  0.00     0.023 C 
ENDROOT
BRANCH   1   2
ATOM      2  C   UNL A   1      30.627  28.326  22.805  1.00  0.00     0.116 C 
BRANCH   2   3
ATOM      3  N   UNL A   1      31.772  27.853  22.051  1.00  0.00    -0.356 N 
ATOM      4  C   UNL A   1      32.242  26.578  21.927  1.00  0.00     0.225 C 
ATOM      5  O   UNL A   1      33.294  26.383  21.318  1.00  0.00    -0.275 OA
ATOM      6  H   UNL A   1      32.275  28.544  21.562  1.00  0.00     0.163 HD
BRANCH   4   7
ATOM      7  C   UNL A   1      31.455  25.424  22.533  1.00  0.00     0.154 C 
BRANCH   7   8
ATOM      8  C   UNL A   1      31.989  25.007  23.877  1.00  0.00     0.032 A 
ATOM      9  C   UNL A   1      33.846  24.379  25.228  1.00  0.00     0.169 A 
ATOM     10  N   UNL A   1      33.170  24.273  26.318  1.00  0.00    -0.185 NA
ATOM     11  N   UNL A   1      33.331  24.741  24.019  1.00  0.00    -0.337 N 
ATOM     12  C   UNL A   1      31.812  24.497  26.266  1.00  0.00     0.273 A 
ATOM     13  H   UNL A   1      33.927  24.814  23.238  1.00  0.00     0.168 HD
ATOM     14  O   UNL A   1      31.076  24.381  27.239  1.00  0.00    -0.267 OA
ATOM     15  C   UNL A   1      31.206  24.899  24.963  1.00  0.00     0.095 A 
BRANCH   9  16
ATOM     16  S   UNL A   1      35.565  24.100  25.266  1.00  0.00    -0.088 SA
BRANCH  16  17
ATOM     17  C   UNL A   1      35.687  22.811  26.544  1.00  0.00     0.078 C 
BRANCH  17  18
ATOM     18  C   UNL A   1      35.224  21.413  26.127  1.00  0.00     0.008 C 
ATOM     19  C   UNL A   1      35.200  21.193  24.621  1.00  0.00     0.005 C 
ENDBRANCH  17  18
ENDBRANCH  16  17
ENDBRANCH   9  16
ENDBRANCH   7   8
ENDBRANCH   4   7
ENDBRANCH   2   3
ENDBRANCH   1   2
BRANCH   1  20
ATOM     20  C   UNL A   1      32.401  29.296  24.391  1.00  0.00     0.023 C 
BRANCH  20  21
ATOM     21  C   UNL A   1      32.853  29.530  25.827  1.00  0.00     0.116 C 
BRANCH  21  22
ATOM     22  N   UNL A   1      32.492  30.842  26.348  1.00  0.00    -0.352 N 
ATOM     23  C   UNL A   1      33.213  31.645  27.205  1.00  0.00     0.251 C 
ATOM     24  H   UNL A   1      31.624  31.199  26.051  1.00  0.00     0.163 HD
ATOM     25  O   UNL A   1      32.727  32.687  27.633  1.00  0.00    -0.269 OA
BRANCH  23  26
ATOM     26  C   UNL A   1      34.555  31.197  27.633  1.00  0.00     0.039 A 
ATOM     27  C   UNL A   1      34.777  29.853  27.937  1.00  0.00     0.014 A 
ATOM     28  C   UNL A   1      35.559  32.145  27.845  1.00  0.00     0.014 A 
ATOM     29  C   UNL A   1      35.918  29.492  28.642  1.00  0.00     0.010 A 
ATOM     30  C   UNL A   1      36.748  31.759  28.467  1.00  0.00     0.010 A 
ATOM     31  C   UNL A   1      36.911  30.444  28.932  1.00  0.00    -0.014 A 
BRANCH  31  32
ATOM     32  C   UNL A   1      38.092  30.043  29.741  1.00  0.00     0.031 A 
ATOM     33  C   UNL A   1      38.268  30.532  31.155  1.00  0.00     0.074 A 
ATOM     34  C   UNL A   1      38.994  29.196  29.210  1.00  0.00     0.049 A 
ATOM     35  N   UNL A   1      39.232  30.266  32.000  1.00  0.00    -0.248 NA
ATOM     36  C   UNL A   1      37.237  31.434  31.697  1.00  0.00     0.031 C 
ATOM     37  C   UNL A   1      38.945  28.660  27.847  1.00  0.00     0.029 A 
ATOM     38  N   UNL A   1      40.121  28.630  29.749  1.00  0.00    -0.354 N 
ATOM     39  C   UNL A   1      38.955  31.004  33.144  1.00  0.00     0.074 A 
ATOM     40  C   UNL A   1      37.729  31.727  32.894  1.00  0.00     0.031 C 
ATOM     41  C   UNL A   1      39.973  27.819  27.668  1.00  0.00     0.029 A 
ATOM     42  C   UNL A   1      40.788  27.800  28.879  1.00  0.00     0.049 A 
ATOM     43  H   UNL A   1      40.423  28.801  30.670  1.00  0.00     0.167 HD
ATOM     44  C   UNL A   1      39.650  31.060  34.304  1.00  0.00     0.034 A 
ATOM     45  C   UNL A   1      41.937  27.114  29.023  1.00  0.00     0.034 A 
ATOM     46  C   UNL A   1      40.836  30.296  34.579  1.00  0.00     0.049 A 
ATOM     47  C   UNL A   1      42.682  27.185  30.321  1.00  0.00     0.074 A 
ATOM     48  C   UNL A   1      41.564  30.239  35.755  1.00  0.00     0.029 A 
ATOM     49  N   UNL A   1      41.471  29.462  33.673  1.00  0.00    -0.354 N 
ATOM     50  N   UNL A   1      42.355  27.822  31.418  1.00  0.00    -0.248 NA
ATOM     51  C   UNL A   1      43.945  26.438  30.410  1.00  0.00     0.031 C 
ATOM     52  C   UNL A   1      42.652  29.385  35.554  1.00  0.00     0.029 A 
ATOM     53  C   UNL A   1      42.590  28.896  34.259  1.00  0.00     0.049 A 
ATOM     54  H   UNL A   1      41.171  29.297  32.750  1.00  0.00     0.167 HD
ATOM     55  C   UNL A   1      43.363  27.546  32.332  1.00  0.00     0.074 A 
ATOM     56  C   UNL A   1      44.305  26.668  31.667  1.00  0.00     0.031 C 
ATOM     57  C   UNL A   1      43.500  27.995  33.603  1.00  0.00     0.034 A 
BRANCH  44  58
ATOM     58  C   UNL A   1      39.136  31.953  35.400  1.00  0.00     0.023 A 
ATOM     59  C   UNL A   1      38.191  31.454  36.319  1.00  0.00     0.012 A 
ATOM     60  C   UNL A   1      39.672  33.243  35.586  1.00  0.00     0.148 A 
ATOM     61  C   UNL A   1      37.780  32.229  37.402  1.00  0.00     0.002 A 
ATOM     62  C   UNL A   1      39.281  33.997  36.685  1.00  0.00     0.091 A 
ATOM     63  F   UNL A   1      40.561  33.698  34.693  1.00  0.00    -0.205 F 
ATOM     64  C   UNL A   1      38.332  33.494  37.592  1.00  0.00     0.022 A 
BRANCH  62  65
ATOM     65  S   UNL A   1      39.972  35.614  37.053  1.00  0.00     0.127 S 
ATOM     66  O   UNL A   1      39.272  35.960  38.289  1.00  0.00    -0.237 OA
ATOM     67  O   UNL A   1      41.393  35.308  37.223  1.00  0.00    -0.237 OA
ATOM     68  O   UNL A   1      39.660  36.458  35.908  1.00  0.00    -0.744 OA
ENDBRANCH  62  65
ENDBRANCH  44  58
BRANCH  45  69
ATOM     69  C   UNL A   1      42.418  26.279  27.891  1.00  0.00     0.023 A 
ATOM     70  C   UNL A   1      43.370  26.804  27.000  1.00  0.00     0.012 A 
ATOM     71  C   UNL A   1      42.019  24.933  27.768  1.00  0.00     0.148 A 
ATOM     72  C   UNL A   1      43.922  26.001  26.001  1.00  0.00     0.002 A 
ATOM     73  C   UNL A   1      42.604  24.128  26.800  1.00  0.00     0.091 A 
ATOM     74  F   UNL A   1      41.113  24.461  28.635  1.00  0.00    -0.205 F 
ATOM     75  C   UNL A   1      43.548  24.662  25.910  1.00  0.00     0.022 A 
BRANCH  73  76
ATOM     76  S   UNL A   1      42.278  22.366  26.681  1.00  0.00     0.127 S 
ATOM     77  O   UNL A   1      42.661  22.086  25.299  1.00  0.00    -0.237 OA
ATOM     78  O   UNL A   1      43.186  21.828  27.693  1.00  0.00    -0.237 OA
ATOM     79  O   UNL A   1      40.863  22.201  26.981  1.00  0.00    -0.744 OA
ENDBRANCH  73  76
ENDBRANCH  45  69
BRANCH  57  80
ATOM     80  C   UNL A   1      44.704  27.552  34.385  1.00  0.00     0.023 A 
ATOM     81  C   UNL A   1      45.837  28.386  34.439  1.00  0.00     0.012 A 
ATOM     82  C   UNL A   1      44.661  26.383  35.170  1.00  0.00     0.148 A 
ATOM     83  C   UNL A   1      46.915  28.060  35.261  1.00  0.00     0.002 A 
ATOM     84  C   UNL A   1      45.724  26.083  36.013  1.00  0.00     0.091 A 
ATOM     85  F   UNL A   1      43.571  25.605  35.094  1.00  0.00    -0.205 F 
ATOM     86  C   UNL A   1      46.852  26.918  36.056  1.00  0.00     0.022 A 
BRANCH  84  87
ATOM     87  S   UNL A   1      45.709  24.675  37.128  1.00  0.00     0.127 S 
ATOM     88  O   UNL A   1      44.516  24.944  37.931  1.00  0.00    -0.237 OA
ATOM     89  O   UNL A   1      45.580  23.551  36.203  1.00  0.00    -0.237 OA
ATOM     90  O   UNL A   1      46.968  24.723  37.859  1.00  0.00    -0.744 OA
ENDBRANCH  84  87
ENDBRANCH  57  80
ENDBRANCH  31  32
ENDBRANCH  23  26
ENDBRANCH  21  22
ENDBRANCH  20  21
ENDBRANCH   1  20
TORSDOF 18
ENDMDL
