MODEL 1
REMARK VINA RESULT:     -11.7      0.000      0.000
REMARK SMILES C#CC[N@@H+](CC(=O)NCCCCNC(=O)c1ccc(-c2c3nc(c(-c4cccc(S(=O)(=O)[O-])c4F)c4ccc([nH]4)c(-c4cccc(S(=O)(=O)[O-])c4F)c4nc(c(-c5cccc(S(=O)(=O)[O-])c5F)c5ccc2[nH]5)C=C4)C=C3)cc1)Cc1cccc2ccccc12
REMARK SMILES IDX 10 1 9 2 8 3 6 4 7 5 5 7 4 8 3 10 2 11 1 12 79 13 80 14
REMARK SMILES IDX 81 15 89 16 82 17 84 18 88 19 83 20 85 21 87 22 86 23 11 24
REMARK SMILES IDX 12 25 13 26 14 27 15 29 16 30 17 31 78 32 18 33 77 34 19 35
REMARK SMILES IDX 20 36 21 37 71 38 22 39 76 40 70 41 72 42 23 43 75 44 69 45
REMARK SMILES IDX 68 46 24 48 56 49 36 50 55 51 37 52 40 53 54 54 73 55 38 56
REMARK SMILES IDX 39 57 53 59 74 60 41 61 25 62 26 63 34 64 27 65 29 66 35 67
REMARK SMILES IDX 28 68 30 69 31 70 32 71 33 72 57 73 58 74 66 75 59 76 61 77
REMARK SMILES IDX 67 78 60 79 62 80 63 81 64 82 65 83 42 84 43 85 51 86 44 87
REMARK SMILES IDX 46 88 52 89 45 90 47 91 48 92 49 93 50 94
REMARK H PARENT 8 6 4 9 13 28 72 47 40 58
REMARK Flexibility Score: inf
ROOT
ATOM      1  C   UNL A   1      31.125  28.593  24.653  1.00  0.00     0.023 C 
ENDROOT
BRANCH   1   2
ATOM      2  C   UNL A   1      31.716  28.930  23.253  1.00  0.00     0.116 C 
BRANCH   2   3
ATOM      3  N   UNL A   1      32.766  28.059  22.721  1.00  0.00    -0.351 N 
ATOM      4  C   UNL A   1      32.856  26.824  22.134  1.00  0.00     0.275 C 
ATOM      5  O   UNL A   1      33.968  26.578  21.637  1.00  0.00    -0.269 OA
ATOM      6  H   UNL A   1      33.654  28.478  22.808  1.00  0.00     0.163 HD
BRANCH   4   7
ATOM      7  C   UNL A   1      31.744  25.762  21.975  1.00  0.00     0.364 C 
BRANCH   7   8
ATOM      8  N   UNL A   1      31.809  24.484  22.716  1.00  0.00    -0.313 N 
ATOM      9  H   UNL A   1      30.994  23.965  22.389  1.00  0.00     0.349 HD
BRANCH   8  10
ATOM     10  C   UNL A   1      31.659  24.721  24.126  1.00  0.00     0.354 C 
BRANCH  10  11
ATOM     11  C   UNL A   1      32.890  25.110  24.928  1.00  0.00    -0.047 C 
ATOM     12  C   UNL A   1      33.945  25.444  25.616  1.00  0.00     0.010 C 
ENDBRANCH  10  11
ENDBRANCH   8  10
BRANCH   8  13
ATOM     13  C   UNL A   1      32.753  23.419  22.295  1.00  0.00     0.300 C 
BRANCH  13  14
ATOM     14  C   UNL A   1      33.210  22.238  23.161  1.00  0.00     0.014 A 
ATOM     15  C   UNL A   1      32.377  21.169  23.474  1.00  0.00     0.010 A 
ATOM     16  C   UNL A   1      34.515  22.205  23.751  1.00  0.00    -0.010 A 
ATOM     17  C   UNL A   1      32.632  20.270  24.505  1.00  0.00     0.001 A 
ATOM     18  C   UNL A   1      34.792  21.260  24.785  1.00  0.00    -0.018 A 
ATOM     19  C   UNL A   1      35.597  23.017  23.338  1.00  0.00     0.009 A 
ATOM     20  C   UNL A   1      33.820  20.351  25.198  1.00  0.00     0.009 A 
ATOM     21  C   UNL A   1      36.057  21.186  25.382  1.00  0.00     0.009 A 
ATOM     22  C   UNL A   1      36.876  22.882  23.894  1.00  0.00     0.001 A 
ATOM     23  C   UNL A   1      37.101  21.978  24.924  1.00  0.00     0.001 A 
ENDBRANCH  13  14
ENDBRANCH   8  13
ENDBRANCH   7   8
ENDBRANCH   4   7
ENDBRANCH   2   3
ENDBRANCH   1   2
BRANCH   1  24
ATOM     24  C   UNL A   1      32.076  28.581  25.818  1.00  0.00     0.023 C 
BRANCH  24  25
ATOM     25  C   UNL A   1      33.129  29.641  25.709  1.00  0.00     0.116 C 
BRANCH  25  26
ATOM     26  N   UNL A   1      32.730  30.917  26.317  1.00  0.00    -0.352 N 
ATOM     27  C   UNL A   1      33.403  31.656  27.260  1.00  0.00     0.251 C 
ATOM     28  H   UNL A   1      31.873  31.290  26.009  1.00  0.00     0.163 HD
ATOM     29  O   UNL A   1      32.902  32.643  27.783  1.00  0.00    -0.269 OA
BRANCH  27  30
ATOM     30  C   UNL A   1      34.745  31.184  27.631  1.00  0.00     0.039 A 
ATOM     31  C   UNL A   1      35.732  32.101  27.990  1.00  0.00     0.014 A 
ATOM     32  C   UNL A   1      34.906  29.816  27.849  1.00  0.00     0.014 A 
ATOM     33  C   UNL A   1      36.861  31.641  28.667  1.00  0.00     0.010 A 
ATOM     34  C   UNL A   1      35.926  29.402  28.676  1.00  0.00     0.010 A 
ATOM     35  C   UNL A   1      36.938  30.296  29.060  1.00  0.00    -0.014 A 
BRANCH  35  36
ATOM     36  C   UNL A   1      38.091  29.723  29.794  1.00  0.00     0.031 A 
ATOM     37  C   UNL A   1      38.322  30.205  31.203  1.00  0.00     0.074 A 
ATOM     38  C   UNL A   1      38.985  28.926  29.178  1.00  0.00     0.049 A 
ATOM     39  N   UNL A   1      39.392  30.115  31.944  1.00  0.00    -0.248 NA
ATOM     40  C   UNL A   1      37.229  30.980  31.826  1.00  0.00     0.031 C 
ATOM     41  C   UNL A   1      38.912  28.456  27.793  1.00  0.00     0.029 A 
ATOM     42  N   UNL A   1      40.161  28.395  29.643  1.00  0.00    -0.354 N 
ATOM     43  C   UNL A   1      39.133  30.897  33.062  1.00  0.00     0.074 A 
ATOM     44  C   UNL A   1      37.838  31.507  32.874  1.00  0.00     0.031 C 
ATOM     45  C   UNL A   1      39.983  27.687  27.530  1.00  0.00     0.029 A 
ATOM     46  C   UNL A   1      40.840  27.647  28.709  1.00  0.00     0.049 A 
ATOM     47  H   UNL A   1      40.489  28.536  30.561  1.00  0.00     0.167 HD
ATOM     48  C   UNL A   1      39.881  31.052  34.177  1.00  0.00     0.034 A 
ATOM     49  C   UNL A   1      42.021  27.006  28.806  1.00  0.00     0.034 A 
ATOM     50  C   UNL A   1      41.091  30.321  34.410  1.00  0.00     0.049 A 
ATOM     51  C   UNL A   1      42.771  27.081  30.113  1.00  0.00     0.074 A 
ATOM     52  C   UNL A   1      41.882  30.303  35.541  1.00  0.00     0.029 A 
ATOM     53  N   UNL A   1      41.656  29.438  33.502  1.00  0.00    -0.354 N 
ATOM     54  N   UNL A   1      42.464  27.743  31.203  1.00  0.00    -0.248 NA
ATOM     55  C   UNL A   1      44.010  26.296  30.217  1.00  0.00     0.031 C 
ATOM     56  C   UNL A   1      42.920  29.391  35.324  1.00  0.00     0.029 A 
ATOM     57  C   UNL A   1      42.768  28.842  34.059  1.00  0.00     0.049 A 
ATOM     58  H   UNL A   1      41.313  29.263  32.596  1.00  0.00     0.167 HD
ATOM     59  C   UNL A   1      43.439  27.415  32.137  1.00  0.00     0.074 A 
ATOM     60  C   UNL A   1      44.346  26.490  31.486  1.00  0.00     0.031 C 
ATOM     61  C   UNL A   1      43.588  27.851  33.411  1.00  0.00     0.034 A 
BRANCH  48  62
ATOM     62  C   UNL A   1      39.352  31.962  35.253  1.00  0.00     0.023 A 
ATOM     63  C   UNL A   1      38.350  31.494  36.127  1.00  0.00     0.012 A 
ATOM     64  C   UNL A   1      39.853  33.268  35.413  1.00  0.00     0.148 A 
ATOM     65  C   UNL A   1      37.817  32.324  37.111  1.00  0.00     0.002 A 
ATOM     66  C   UNL A   1      39.354  34.073  36.431  1.00  0.00     0.091 A 
ATOM     67  F   UNL A   1      40.786  33.708  34.557  1.00  0.00    -0.205 F 
ATOM     68  C   UNL A   1      38.326  33.610  37.269  1.00  0.00     0.022 A 
BRANCH  66  69
ATOM     69  S   UNL A   1      40.001  35.714  36.771  1.00  0.00     0.127 S 
ATOM     70  O   UNL A   1      41.428  35.442  36.934  1.00  0.00    -0.237 OA
ATOM     71  O   UNL A   1      39.654  36.441  35.549  1.00  0.00    -0.237 OA
ATOM     72  O   UNL A   1      39.309  36.175  37.967  1.00  0.00    -0.744 OA
ENDBRANCH  66  69
ENDBRANCH  48  62
BRANCH  49  73
ATOM     73  C   UNL A   1      42.515  26.155  27.686  1.00  0.00     0.023 A 
ATOM     74  C   UNL A   1      43.469  26.692  26.797  1.00  0.00     0.012 A 
ATOM     75  C   UNL A   1      42.075  24.832  27.499  1.00  0.00     0.148 A 
ATOM     76  C   UNL A   1      43.947  25.941  25.722  1.00  0.00     0.002 A 
ATOM     77  C   UNL A   1      42.591  24.071  26.452  1.00  0.00     0.091 A 
ATOM     78  F   UNL A   1      41.160  24.339  28.346  1.00  0.00    -0.205 F 
ATOM     79  C   UNL A   1      43.514  24.629  25.554  1.00  0.00     0.022 A 
BRANCH  77  80
ATOM     80  S   UNL A   1      42.177  22.336  26.232  1.00  0.00     0.127 S 
ATOM     81  O   UNL A   1      42.893  22.011  25.001  1.00  0.00    -0.237 OA
ATOM     82  O   UNL A   1      42.731  21.733  27.445  1.00  0.00    -0.237 OA
ATOM     83  O   UNL A   1      40.723  22.293  26.154  1.00  0.00    -0.744 OA
ENDBRANCH  77  80
ENDBRANCH  49  73
BRANCH  61  84
ATOM     84  C   UNL A   1      44.718  27.285  34.223  1.00  0.00     0.023 A 
ATOM     85  C   UNL A   1      45.956  27.952  34.254  1.00  0.00     0.012 A 
ATOM     86  C   UNL A   1      44.500  26.171  35.057  1.00  0.00     0.148 A 
ATOM     87  C   UNL A   1      46.972  27.509  35.099  1.00  0.00     0.002 A 
ATOM     88  C   UNL A   1      45.501  25.763  35.928  1.00  0.00     0.091 A 
ATOM     89  F   UNL A   1      43.316  25.546  34.994  1.00  0.00    -0.205 F 
ATOM     90  C   UNL A   1      46.739  26.425  35.946  1.00  0.00     0.022 A 
BRANCH  88  91
ATOM     91  S   UNL A   1      45.255  24.446  37.124  1.00  0.00     0.127 S 
ATOM     92  O   UNL A   1      45.032  23.292  36.254  1.00  0.00    -0.237 OA
ATOM     93  O   UNL A   1      46.531  24.434  37.840  1.00  0.00    -0.237 OA
ATOM     94  O   UNL A   1      44.112  24.847  37.935  1.00  0.00    -0.744 OA
ENDBRANCH  88  91
ENDBRANCH  61  84
ENDBRANCH  35  36
ENDBRANCH  27  30
ENDBRANCH  25  26
ENDBRANCH  24  25
ENDBRANCH   1  24
TORSDOF 19
ENDMDL
MODEL 2
REMARK VINA RESULT:     -11.5      1.240      2.810
REMARK SMILES C#CC[N@@H+](CC(=O)NCCCCNC(=O)c1ccc(-c2c3nc(c(-c4cccc(S(=O)(=O)[O-])c4F)c4ccc([nH]4)c(-c4cccc(S(=O)(=O)[O-])c4F)c4nc(c(-c5cccc(S(=O)(=O)[O-])c5F)c5ccc2[nH]5)C=C4)C=C3)cc1)Cc1cccc2ccccc12
REMARK SMILES IDX 10 1 9 2 8 3 6 4 7 5 5 7 4 8 3 10 2 11 1 12 79 13 80 14
REMARK SMILES IDX 81 15 89 16 82 17 84 18 88 19 83 20 85 21 87 22 86 23 11 24
REMARK SMILES IDX 12 25 13 26 14 27 15 29 16 30 17 31 78 32 18 33 77 34 19 35
REMARK SMILES IDX 20 36 21 37 71 38 22 39 76 40 70 41 72 42 23 43 75 44 69 45
REMARK SMILES IDX 68 46 24 48 56 49 36 50 55 51 37 52 40 53 54 54 73 55 38 56
REMARK SMILES IDX 39 57 53 59 74 60 41 61 25 62 26 63 34 64 27 65 29 66 35 67
REMARK SMILES IDX 28 68 30 69 31 70 32 71 33 72 57 73 58 74 66 75 59 76 61 77
REMARK SMILES IDX 67 78 60 79 62 80 63 81 64 82 65 83 42 84 43 85 51 86 44 87
REMARK SMILES IDX 46 88 52 89 45 90 47 91 48 92 49 93 50 94
REMARK H PARENT 8 6 4 9 13 28 72 47 40 58
REMARK Flexibility Score: inf
ROOT
ATOM      1  C   UNL A   1      32.162  27.710  27.121  1.00  0.00     0.023 C 
ENDROOT
BRANCH   1   2
ATOM      2  C   UNL A   1      31.165  26.670  26.530  1.00  0.00     0.116 C 
BRANCH   2   3
ATOM      3  N   UNL A   1      31.269  25.282  26.985  1.00  0.00    -0.351 N 
ATOM      4  C   UNL A   1      31.967  24.154  26.641  1.00  0.00     0.275 C 
ATOM      5  O   UNL A   1      31.886  23.234  27.472  1.00  0.00    -0.269 OA
ATOM      6  H   UNL A   1      30.672  25.112  27.750  1.00  0.00     0.163 HD
BRANCH   4   7
ATOM      7  C   UNL A   1      32.864  23.929  25.402  1.00  0.00     0.364 C 
BRANCH   7   8
ATOM      8  N   UNL A   1      32.345  23.220  24.213  1.00  0.00    -0.313 N 
ATOM      9  H   UNL A   1      31.542  22.699  24.564  1.00  0.00     0.349 HD
BRANCH   8  10
ATOM     10  C   UNL A   1      33.320  22.279  23.733  1.00  0.00     0.354 C 
BRANCH  10  11
ATOM     11  C   UNL A   1      34.757  22.747  23.569  1.00  0.00    -0.047 C 
ATOM     12  C   UNL A   1      35.988  23.149  23.429  1.00  0.00     0.010 C 
ENDBRANCH  10  11
ENDBRANCH   8  10
BRANCH   8  13
ATOM     13  C   UNL A   1      31.533  23.943  23.203  1.00  0.00     0.300 C 
BRANCH  13  14
ATOM     14  C   UNL A   1      30.912  25.334  23.387  1.00  0.00     0.014 A 
ATOM     15  C   UNL A   1      29.577  25.521  23.735  1.00  0.00     0.010 A 
ATOM     16  C   UNL A   1      31.667  26.528  23.148  1.00  0.00    -0.010 A 
ATOM     17  C   UNL A   1      28.905  26.730  23.584  1.00  0.00     0.001 A 
ATOM     18  C   UNL A   1      30.984  27.776  23.028  1.00  0.00    -0.018 A 
ATOM     19  C   UNL A   1      33.078  26.577  23.077  1.00  0.00     0.009 A 
ATOM     20  C   UNL A   1      29.600  27.848  23.177  1.00  0.00     0.009 A 
ATOM     21  C   UNL A   1      31.683  28.968  22.804  1.00  0.00     0.009 A 
ATOM     22  C   UNL A   1      33.769  27.787  22.924  1.00  0.00     0.001 A 
ATOM     23  C   UNL A   1      33.071  28.978  22.774  1.00  0.00     0.001 A 
ENDBRANCH  13  14
ENDBRANCH   8  13
ENDBRANCH   7   8
ENDBRANCH   4   7
ENDBRANCH   2   3
ENDBRANCH   1   2
BRANCH   1  24
ATOM     24  C   UNL A   1      31.744  29.155  27.099  1.00  0.00     0.023 C 
BRANCH  24  25
ATOM     25  C   UNL A   1      32.776  30.040  26.472  1.00  0.00     0.116 C 
BRANCH  25  26
ATOM     26  N   UNL A   1      32.636  31.452  26.854  1.00  0.00    -0.352 N 
ATOM     27  C   UNL A   1      33.521  32.234  27.556  1.00  0.00     0.251 C 
ATOM     28  H   UNL A   1      31.803  31.893  26.570  1.00  0.00     0.163 HD
ATOM     29  O   UNL A   1      33.231  33.366  27.923  1.00  0.00    -0.269 OA
BRANCH  27  30
ATOM     30  C   UNL A   1      34.826  31.633  27.869  1.00  0.00     0.039 A 
ATOM     31  C   UNL A   1      35.950  32.444  28.018  1.00  0.00     0.014 A 
ATOM     32  C   UNL A   1      34.838  30.292  28.252  1.00  0.00     0.014 A 
ATOM     33  C   UNL A   1      37.077  31.920  28.649  1.00  0.00     0.010 A 
ATOM     34  C   UNL A   1      35.878  29.846  29.036  1.00  0.00     0.010 A 
ATOM     35  C   UNL A   1      37.027  30.634  29.210  1.00  0.00    -0.014 A 
BRANCH  35  36
ATOM     36  C   UNL A   1      38.169  30.003  29.911  1.00  0.00     0.031 A 
ATOM     37  C   UNL A   1      38.445  30.448  31.324  1.00  0.00     0.074 A 
ATOM     38  C   UNL A   1      39.019  29.182  29.265  1.00  0.00     0.049 A 
ATOM     39  N   UNL A   1      39.524  30.303  32.043  1.00  0.00    -0.248 NA
ATOM     40  C   UNL A   1      37.395  31.255  31.981  1.00  0.00     0.031 C 
ATOM     41  C   UNL A   1      38.902  28.741  27.873  1.00  0.00     0.029 A 
ATOM     42  N   UNL A   1      40.182  28.596  29.698  1.00  0.00    -0.354 N 
ATOM     43  C   UNL A   1      39.317  31.074  33.179  1.00  0.00     0.074 A 
ATOM     44  C   UNL A   1      38.044  31.738  33.027  1.00  0.00     0.031 C 
ATOM     45  C   UNL A   1      39.936  27.936  27.576  1.00  0.00     0.029 A 
ATOM     46  C   UNL A   1      40.813  27.839  28.738  1.00  0.00     0.049 A 
ATOM     47  H   UNL A   1      40.532  28.707  30.612  1.00  0.00     0.167 HD
ATOM     48  C   UNL A   1      40.090  31.179  34.282  1.00  0.00     0.034 A 
ATOM     49  C   UNL A   1      41.969  27.151  28.801  1.00  0.00     0.034 A 
ATOM     50  C   UNL A   1      41.274  30.396  34.480  1.00  0.00     0.049 A 
ATOM     51  C   UNL A   1      42.745  27.172  30.095  1.00  0.00     0.074 A 
ATOM     52  C   UNL A   1      42.085  30.326  35.595  1.00  0.00     0.029 A 
ATOM     53  N   UNL A   1      41.787  29.508  33.545  1.00  0.00    -0.354 N 
ATOM     54  N   UNL A   1      42.484  27.825  31.202  1.00  0.00    -0.248 NA
ATOM     55  C   UNL A   1      43.953  26.337  30.161  1.00  0.00     0.031 C 
ATOM     56  C   UNL A   1      43.081  29.378  35.341  1.00  0.00     0.029 A 
ATOM     57  C   UNL A   1      42.885  28.859  34.070  1.00  0.00     0.049 A 
ATOM     58  H   UNL A   1      41.421  29.364  32.643  1.00  0.00     0.167 HD
ATOM     59  C   UNL A   1      43.463  27.442  32.112  1.00  0.00     0.074 A 
ATOM     60  C   UNL A   1      44.320  26.494  31.427  1.00  0.00     0.031 C 
ATOM     61  C   UNL A   1      43.652  27.848  33.390  1.00  0.00     0.034 A 
BRANCH  48  62
ATOM     62  C   UNL A   1      39.618  32.089  35.384  1.00  0.00     0.023 A 
ATOM     63  C   UNL A   1      38.756  31.584  36.380  1.00  0.00     0.012 A 
ATOM     64  C   UNL A   1      40.035  33.432  35.448  1.00  0.00     0.148 A 
ATOM     65  C   UNL A   1      38.276  32.411  37.393  1.00  0.00     0.002 A 
ATOM     66  C   UNL A   1      39.594  34.238  36.492  1.00  0.00     0.091 A 
ATOM     67  F   UNL A   1      40.833  33.903  34.479  1.00  0.00    -0.205 F 
ATOM     68  C   UNL A   1      38.703  33.734  37.454  1.00  0.00     0.022 A 
BRANCH  66  69
ATOM     69  S   UNL A   1      40.151  35.931  36.709  1.00  0.00     0.127 S 
ATOM     70  O   UNL A   1      41.602  35.761  36.759  1.00  0.00    -0.237 OA
ATOM     71  O   UNL A   1      39.654  36.577  35.493  1.00  0.00    -0.237 OA
ATOM     72  O   UNL A   1      39.531  36.400  37.940  1.00  0.00    -0.744 OA
ENDBRANCH  66  69
ENDBRANCH  48  62
BRANCH  49  73
ATOM     73  C   UNL A   1      42.408  26.302  27.657  1.00  0.00     0.023 A 
ATOM     74  C   UNL A   1      43.222  26.877  26.659  1.00  0.00     0.012 A 
ATOM     75  C   UNL A   1      42.053  24.944  27.550  1.00  0.00     0.148 A 
ATOM     76  C   UNL A   1      43.642  26.128  25.559  1.00  0.00     0.002 A 
ATOM     77  C   UNL A   1      42.514  24.190  26.475  1.00  0.00     0.091 A 
ATOM     78  F   UNL A   1      41.270  24.415  28.501  1.00  0.00    -0.205 F 
ATOM     79  C   UNL A   1      43.295  24.783  25.471  1.00  0.00     0.022 A 
BRANCH  77  80
ATOM     80  S   UNL A   1      42.213  22.423  26.343  1.00  0.00     0.127 S 
ATOM     81  O   UNL A   1      40.774  22.382  26.095  1.00  0.00    -0.237 OA
ATOM     82  O   UNL A   1      43.046  22.055  25.196  1.00  0.00    -0.237 OA
ATOM     83  O   UNL A   1      42.659  21.858  27.609  1.00  0.00    -0.744 OA
ENDBRANCH  77  80
ENDBRANCH  49  73
BRANCH  61  84
ATOM     84  C   UNL A   1      44.774  27.223  34.170  1.00  0.00     0.023 A 
ATOM     85  C   UNL A   1      46.016  27.876  34.249  1.00  0.00     0.012 A 
ATOM     86  C   UNL A   1      44.542  26.060  34.931  1.00  0.00     0.148 A 
ATOM     87  C   UNL A   1      47.024  27.372  35.069  1.00  0.00     0.002 A 
ATOM     88  C   UNL A   1      45.536  25.590  35.780  1.00  0.00     0.091 A 
ATOM     89  F   UNL A   1      43.354  25.450  34.823  1.00  0.00    -0.205 F 
ATOM     90  C   UNL A   1      46.778  26.240  35.845  1.00  0.00     0.022 A 
BRANCH  88  91
ATOM     91  S   UNL A   1      45.272  24.203  36.889  1.00  0.00     0.127 S 
ATOM     92  O   UNL A   1      46.631  23.936  37.359  1.00  0.00    -0.237 OA
ATOM     93  O   UNL A   1      44.380  24.776  37.897  1.00  0.00    -0.237 OA
ATOM     94  O   UNL A   1      44.673  23.149  36.081  1.00  0.00    -0.744 OA
ENDBRANCH  88  91
ENDBRANCH  61  84
ENDBRANCH  35  36
ENDBRANCH  27  30
ENDBRANCH  25  26
ENDBRANCH  24  25
ENDBRANCH   1  24
TORSDOF 19
ENDMDL
MODEL 3
REMARK VINA RESULT:     -11.2      5.045     10.219
REMARK SMILES C#CC[N@@H+](CC(=O)NCCCCNC(=O)c1ccc(-c2c3nc(c(-c4cccc(S(=O)(=O)[O-])c4F)c4ccc([nH]4)c(-c4cccc(S(=O)(=O)[O-])c4F)c4nc(c(-c5cccc(S(=O)(=O)[O-])c5F)c5ccc2[nH]5)C=C4)C=C3)cc1)Cc1cccc2ccccc12
REMARK SMILES IDX 10 1 9 2 8 3 6 4 7 5 5 7 4 8 3 10 2 11 1 12 79 13 80 14
REMARK SMILES IDX 81 15 89 16 82 17 84 18 88 19 83 20 85 21 87 22 86 23 11 24
REMARK SMILES IDX 12 25 13 26 14 27 15 29 16 30 17 31 78 32 18 33 77 34 19 35
REMARK SMILES IDX 20 36 21 37 71 38 22 39 76 40 70 41 72 42 23 43 75 44 69 45
REMARK SMILES IDX 68 46 24 48 56 49 36 50 55 51 37 52 40 53 54 54 73 55 38 56
REMARK SMILES IDX 39 57 53 59 74 60 41 61 25 62 26 63 34 64 27 65 29 66 35 67
REMARK SMILES IDX 28 68 30 69 31 70 32 71 33 72 57 73 58 74 66 75 59 76 61 77
REMARK SMILES IDX 67 78 60 79 62 80 63 81 64 82 65 83 42 84 43 85 51 86 44 87
REMARK SMILES IDX 46 88 52 89 45 90 47 91 48 92 49 93 50 94
REMARK H PARENT 8 6 4 9 13 28 72 47 40 58
REMARK Flexibility Score: inf
ROOT
ATOM      1  C   UNL A   1      35.643  21.912  24.512  1.00  0.00     0.023 C 
ENDROOT
BRANCH   1   2
ATOM      2  C   UNL A   1      34.620  21.061  25.319  1.00  0.00     0.116 C 
BRANCH   2   3
ATOM      3  N   UNL A   1      34.192  21.557  26.629  1.00  0.00    -0.351 N 
ATOM      4  C   UNL A   1      33.462  22.605  27.125  1.00  0.00     0.275 C 
ATOM      5  O   UNL A   1      33.172  22.498  28.328  1.00  0.00    -0.269 OA
ATOM      6  H   UNL A   1      34.520  20.977  27.354  1.00  0.00     0.163 HD
BRANCH   4   7
ATOM      7  C   UNL A   1      32.923  23.837  26.361  1.00  0.00     0.364 C 
BRANCH   7   8
ATOM      8  N   UNL A   1      31.490  23.944  26.016  1.00  0.00    -0.313 N 
ATOM      9  H   UNL A   1      31.009  23.819  26.906  1.00  0.00     0.349 HD
BRANCH   8  10
ATOM     10  C   UNL A   1      31.110  22.868  25.142  1.00  0.00     0.354 C 
BRANCH  10  11
ATOM     11  C   UNL A   1      31.814  22.743  23.801  1.00  0.00    -0.047 C 
ATOM     12  C   UNL A   1      32.418  22.636  22.651  1.00  0.00     0.010 C 
ENDBRANCH  10  11
ENDBRANCH   8  10
BRANCH   8  13
ATOM     13  C   UNL A   1      30.872  25.272  25.779  1.00  0.00     0.300 C 
BRANCH  13  14
ATOM     14  C   UNL A   1      31.605  26.619  25.824  1.00  0.00     0.014 A 
ATOM     15  C   UNL A   1      31.593  27.445  26.944  1.00  0.00     0.010 A 
ATOM     16  C   UNL A   1      32.300  27.130  24.681  1.00  0.00    -0.010 A 
ATOM     17  C   UNL A   1      31.949  28.789  26.913  1.00  0.00     0.001 A 
ATOM     18  C   UNL A   1      32.700  28.501  24.659  1.00  0.00    -0.018 A 
ATOM     19  C   UNL A   1      32.682  26.348  23.565  1.00  0.00     0.009 A 
ATOM     20  C   UNL A   1      32.454  29.331  25.750  1.00  0.00     0.009 A 
ATOM     21  C   UNL A   1      33.390  29.039  23.566  1.00  0.00     0.009 A 
ATOM     22  C   UNL A   1      33.435  26.883  22.512  1.00  0.00     0.001 A 
ATOM     23  C   UNL A   1      33.775  28.230  22.505  1.00  0.00     0.001 A 
ENDBRANCH  13  14
ENDBRANCH   8  13
ENDBRANCH   7   8
ENDBRANCH   4   7
ENDBRANCH   2   3
ENDBRANCH   1   2
BRANCH   1  24
ATOM     24  C   UNL A   1      37.059  21.409  24.448  1.00  0.00     0.023 C 
BRANCH  24  25
ATOM     25  C   UNL A   1      37.793  21.596  25.740  1.00  0.00     0.116 C 
BRANCH  25  26
ATOM     26  N   UNL A   1      38.937  20.688  25.893  1.00  0.00    -0.352 N 
ATOM     27  C   UNL A   1      40.173  20.960  26.427  1.00  0.00     0.251 C 
ATOM     28  H   UNL A   1      38.801  19.767  25.571  1.00  0.00     0.163 HD
ATOM     29  O   UNL A   1      41.089  20.149  26.381  1.00  0.00    -0.269 OA
BRANCH  27  30
ATOM     30  C   UNL A   1      40.349  22.287  27.034  1.00  0.00     0.039 A 
ATOM     31  C   UNL A   1      41.272  22.467  28.064  1.00  0.00     0.014 A 
ATOM     32  C   UNL A   1      39.761  23.372  26.384  1.00  0.00     0.014 A 
ATOM     33  C   UNL A   1      41.679  23.762  28.382  1.00  0.00     0.010 A 
ATOM     34  C   UNL A   1      40.307  24.622  26.575  1.00  0.00     0.010 A 
ATOM     35  C   UNL A   1      41.239  24.842  27.602  1.00  0.00    -0.014 A 
BRANCH  35  36
ATOM     36  C   UNL A   1      41.632  26.248  27.856  1.00  0.00     0.031 A 
ATOM     37  C   UNL A   1      43.031  26.656  27.471  1.00  0.00     0.074 A 
ATOM     38  C   UNL A   1      40.831  27.084  28.543  1.00  0.00     0.049 A 
ATOM     39  N   UNL A   1      43.724  27.694  27.848  1.00  0.00    -0.248 NA
ATOM     40  C   UNL A   1      43.786  25.710  26.622  1.00  0.00     0.031 C 
ATOM     41  C   UNL A   1      39.486  26.780  29.038  1.00  0.00     0.029 A 
ATOM     42  N   UNL A   1      41.055  28.368  28.973  1.00  0.00    -0.354 N 
ATOM     43  C   UNL A   1      45.008  27.474  27.367  1.00  0.00     0.074 A 
ATOM     44  C   UNL A   1      45.017  26.179  26.730  1.00  0.00     0.031 C 
ATOM     45  C   UNL A   1      38.998  27.853  29.683  1.00  0.00     0.029 A 
ATOM     46  C   UNL A   1      40.008  28.905  29.686  1.00  0.00     0.049 A 
ATOM     47  H   UNL A   1      41.889  28.859  28.788  1.00  0.00     0.167 HD
ATOM     48  C   UNL A   1      46.076  28.302  27.399  1.00  0.00     0.034 A 
ATOM     49  C   UNL A   1      39.891  30.113  30.272  1.00  0.00     0.034 A 
ATOM     50  C   UNL A   1      46.007  29.643  27.899  1.00  0.00     0.049 A 
ATOM     51  C   UNL A   1      41.049  31.073  30.173  1.00  0.00     0.074 A 
ATOM     52  C   UNL A   1      46.983  30.619  27.888  1.00  0.00     0.029 A 
ATOM     53  N   UNL A   1      44.871  30.208  28.460  1.00  0.00    -0.354 N 
ATOM     54  N   UNL A   1      42.226  30.891  29.622  1.00  0.00    -0.248 NA
ATOM     55  C   UNL A   1      40.855  32.414  30.743  1.00  0.00     0.031 C 
ATOM     56  C   UNL A   1      46.430  31.785  28.427  1.00  0.00     0.029 A 
ATOM     57  C   UNL A   1      45.110  31.531  28.769  1.00  0.00     0.049 A 
ATOM     58  H   UNL A   1      44.022  29.736  28.614  1.00  0.00     0.167 HD
ATOM     59  C   UNL A   1      42.893  32.106  29.733  1.00  0.00     0.074 A 
ATOM     60  C   UNL A   1      41.985  33.019  30.398  1.00  0.00     0.031 C 
ATOM     61  C   UNL A   1      44.146  32.435  29.340  1.00  0.00     0.034 A 
BRANCH  48  62
ATOM     62  C   UNL A   1      47.360  27.811  26.787  1.00  0.00     0.023 A 
ATOM     63  C   UNL A   1      48.410  27.384  27.626  1.00  0.00     0.012 A 
ATOM     64  C   UNL A   1      47.527  27.757  25.390  1.00  0.00     0.148 A 
ATOM     65  C   UNL A   1      49.623  26.957  27.089  1.00  0.00     0.002 A 
ATOM     66  C   UNL A   1      48.721  27.279  24.860  1.00  0.00     0.091 A 
ATOM     67  F   UNL A   1      46.530  28.192  24.607  1.00  0.00    -0.205 F 
ATOM     68  C   UNL A   1      49.774  26.895  25.707  1.00  0.00     0.022 A 
BRANCH  66  69
ATOM     69  S   UNL A   1      48.985  27.080  23.095  1.00  0.00     0.127 S 
ATOM     70  O   UNL A   1      48.443  28.333  22.571  1.00  0.00    -0.237 OA
ATOM     71  O   UNL A   1      50.442  26.965  23.013  1.00  0.00    -0.237 OA
ATOM     72  O   UNL A   1      48.260  25.876  22.716  1.00  0.00    -0.744 OA
ENDBRANCH  66  69
ENDBRANCH  48  62
BRANCH  49  73
ATOM     73  C   UNL A   1      38.605  30.524  30.905  1.00  0.00     0.023 A 
ATOM     74  C   UNL A   1      38.386  30.211  32.262  1.00  0.00     0.012 A 
ATOM     75  C   UNL A   1      37.614  31.231  30.198  1.00  0.00     0.148 A 
ATOM     76  C   UNL A   1      37.190  30.558  32.893  1.00  0.00     0.002 A 
ATOM     77  C   UNL A   1      36.443  31.617  30.846  1.00  0.00     0.091 A 
ATOM     78  F   UNL A   1      37.832  31.513  28.906  1.00  0.00    -0.205 F 
ATOM     79  C   UNL A   1      36.223  31.267  32.187  1.00  0.00     0.022 A 
BRANCH  77  80
ATOM     80  S   UNL A   1      35.195  32.634  30.048  1.00  0.00     0.127 S 
ATOM     81  O   UNL A   1      34.709  31.743  28.997  1.00  0.00    -0.237 OA
ATOM     82  O   UNL A   1      34.249  32.871  31.139  1.00  0.00    -0.237 OA
ATOM     83  O   UNL A   1      35.898  33.827  29.598  1.00  0.00    -0.744 OA
ENDBRANCH  77  80
ENDBRANCH  49  73
BRANCH  61  84
ATOM     84  C   UNL A   1      44.597  33.854  29.539  1.00  0.00     0.023 A 
ATOM     85  C   UNL A   1      45.257  34.216  30.727  1.00  0.00     0.012 A 
ATOM     86  C   UNL A   1      44.485  34.785  28.487  1.00  0.00     0.148 A 
ATOM     87  C   UNL A   1      45.791  35.496  30.872  1.00  0.00     0.002 A 
ATOM     88  C   UNL A   1      45.058  36.042  28.622  1.00  0.00     0.091 A 
ATOM     89  F   UNL A   1      43.837  34.417  27.373  1.00  0.00    -0.205 F 
ATOM     90  C   UNL A   1      45.705  36.402  29.816  1.00  0.00     0.022 A 
BRANCH  88  91
ATOM     91  S   UNL A   1      45.086  37.234  27.279  1.00  0.00     0.127 S 
ATOM     92  O   UNL A   1      43.678  37.271  26.885  1.00  0.00    -0.237 OA
ATOM     93  O   UNL A   1      45.564  38.444  27.948  1.00  0.00    -0.237 OA
ATOM     94  O   UNL A   1      45.999  36.694  26.281  1.00  0.00    -0.744 OA
ENDBRANCH  88  91
ENDBRANCH  61  84
ENDBRANCH  35  36
ENDBRANCH  27  30
ENDBRANCH  25  26
ENDBRANCH  24  25
ENDBRANCH   1  24
TORSDOF 19
ENDMDL
