MODEL 1
REMARK VINA RESULT:     -12.3      0.000      0.000
REMARK SMILES O=C(NCCCCNC(=O)c1cc(-c2ccccc2)ccc1F)c1ccc(-c2c3nc(c(-c4cccc(S(=O)(=O)[O-])c4F)c4ccc([nH]4)c(-c4cccc(S(=O)(=O)[O-])c4F)c4nc(c(-c5cccc(S(=O)(=O)[O-])c5F)c5ccc2[nH]5)C=C4)C=C3)cc1
REMARK SMILES IDX 4 1 3 2 1 3 2 4 24 6 25 7 86 8 26 9 85 10 27 11 28 12 29 13
REMARK SMILES IDX 79 14 30 15 84 16 78 17 80 18 31 19 83 20 77 21 76 22 32 24
REMARK SMILES IDX 64 25 44 26 63 27 45 28 48 29 62 30 81 31 46 32 47 33 61 35
REMARK SMILES IDX 82 36 49 37 33 38 34 39 42 40 35 41 37 42 43 43 36 44 38 45
REMARK SMILES IDX 39 46 40 47 41 48 65 49 66 50 74 51 67 52 69 53 75 54 68 55
REMARK SMILES IDX 70 56 71 57 72 58 73 59 50 60 51 61 59 62 52 63 54 64 60 65
REMARK SMILES IDX 53 66 55 67 56 68 57 69 58 70 5 71 6 72 7 73 8 74 9 75 10 77
REMARK SMILES IDX 11 78 12 79 22 80 13 81 21 82 23 83 20 84 14 85 15 86 19 87
REMARK SMILES IDX 16 88 18 89 17 90
REMARK H PARENT 3 5 80 23 48 34 8 76
REMARK Flexibility Score: inf
ROOT
ATOM      1  C   UNL A   1      32.713  29.523  25.757  1.00  0.00     0.116 C 
ENDROOT
BRANCH   1   2
ATOM      2  N   UNL A   1      32.361  30.893  26.098  1.00  0.00    -0.352 N 
ATOM      3  O   UNL A   1      32.436  32.827  27.250  1.00  0.00    -0.269 OA
ATOM      4  C   UNL A   1      32.967  31.752  26.984  1.00  0.00     0.251 C 
ATOM      5  H   UNL A   1      31.577  31.257  25.627  1.00  0.00     0.163 HD
BRANCH   4   6
ATOM      6  C   UNL A   1      34.236  31.361  27.637  1.00  0.00     0.039 A 
ATOM      7  C   UNL A   1      34.471  30.032  27.997  1.00  0.00     0.014 A 
ATOM      8  C   UNL A   1      35.199  32.340  27.898  1.00  0.00     0.014 A 
ATOM      9  C   UNL A   1      35.595  29.709  28.750  1.00  0.00     0.010 A 
ATOM     10  C   UNL A   1      36.370  31.996  28.580  1.00  0.00     0.010 A 
ATOM     11  C   UNL A   1      36.562  30.686  29.042  1.00  0.00    -0.014 A 
BRANCH  11  12
ATOM     12  C   UNL A   1      37.798  30.289  29.762  1.00  0.00     0.031 A 
ATOM     13  C   UNL A   1      38.077  30.756  31.163  1.00  0.00     0.074 A 
ATOM     14  C   UNL A   1      38.672  29.479  29.134  1.00  0.00     0.049 A 
ATOM     15  N   UNL A   1      39.088  30.459  31.938  1.00  0.00    -0.248 NA
ATOM     16  C   UNL A   1      37.104  31.678  31.774  1.00  0.00     0.031 C 
ATOM     17  C   UNL A   1      38.524  28.995  27.760  1.00  0.00     0.029 A 
ATOM     18  N   UNL A   1      39.844  28.911  29.562  1.00  0.00    -0.354 N 
ATOM     19  C   UNL A   1      38.896  31.179  33.112  1.00  0.00     0.074 A 
ATOM     20  C   UNL A   1      37.673  31.936  32.945  1.00  0.00     0.031 C 
ATOM     21  C   UNL A   1      39.541  28.173  27.470  1.00  0.00     0.029 A 
ATOM     22  C   UNL A   1      40.441  28.109  28.617  1.00  0.00     0.049 A 
ATOM     23  H   UNL A   1      40.222  29.062  30.458  1.00  0.00     0.167 HD
ATOM     24  C   UNL A   1      39.658  31.188  34.231  1.00  0.00     0.034 A 
ATOM     25  C   UNL A   1      41.587  27.403  28.662  1.00  0.00     0.034 A 
ATOM     26  C   UNL A   1      40.850  30.399  34.404  1.00  0.00     0.049 A 
ATOM     27  C   UNL A   1      42.398  27.412  29.923  1.00  0.00     0.074 A 
ATOM     28  C   UNL A   1      41.656  30.299  35.526  1.00  0.00     0.029 A 
ATOM     29  N   UNL A   1      41.408  29.580  33.436  1.00  0.00    -0.354 N 
ATOM     30  N   UNL A   1      42.140  28.009  31.061  1.00  0.00    -0.248 NA
ATOM     31  C   UNL A   1      43.647  26.638  29.918  1.00  0.00     0.031 C 
ATOM     32  C   UNL A   1      42.709  29.429  35.230  1.00  0.00     0.029 A 
ATOM     33  C   UNL A   1      42.553  28.975  33.929  1.00  0.00     0.049 A 
ATOM     34  H   UNL A   1      41.045  29.447  32.530  1.00  0.00     0.167 HD
ATOM     35  C   UNL A   1      43.183  27.674  31.913  1.00  0.00     0.074 A 
ATOM     36  C   UNL A   1      44.065  26.798  31.168  1.00  0.00     0.031 C 
ATOM     37  C   UNL A   1      43.401  28.074  33.191  1.00  0.00     0.034 A 
BRANCH  24  38
ATOM     38  C   UNL A   1      39.203  32.037  35.390  1.00  0.00     0.023 A 
ATOM     39  C   UNL A   1      38.345  31.478  36.358  1.00  0.00     0.012 A 
ATOM     40  C   UNL A   1      39.695  33.344  35.574  1.00  0.00     0.148 A 
ATOM     41  C   UNL A   1      37.968  32.212  37.482  1.00  0.00     0.002 A 
ATOM     42  C   UNL A   1      39.343  34.058  36.716  1.00  0.00     0.091 A 
ATOM     43  F   UNL A   1      40.491  33.868  34.632  1.00  0.00    -0.205 F 
ATOM     44  C   UNL A   1      38.476  33.496  37.667  1.00  0.00     0.022 A 
BRANCH  42  45
ATOM     45  S   UNL A   1      40.007  35.688  37.077  1.00  0.00     0.127 S 
ATOM     46  O   UNL A   1      41.433  35.401  37.220  1.00  0.00    -0.237 OA
ATOM     47  O   UNL A   1      39.655  36.442  35.873  1.00  0.00    -0.237 OA
ATOM     48  O   UNL A   1      39.329  36.134  38.287  1.00  0.00    -0.744 OA
ENDBRANCH  42  45
ENDBRANCH  24  38
BRANCH  25  49
ATOM     49  C   UNL A   1      41.971  26.578  27.483  1.00  0.00     0.023 A 
ATOM     50  C   UNL A   1      42.776  27.146  26.479  1.00  0.00     0.012 A 
ATOM     51  C   UNL A   1      41.644  25.209  27.412  1.00  0.00     0.148 A 
ATOM     52  C   UNL A   1      43.250  26.366  25.423  1.00  0.00     0.002 A 
ATOM     53  C   UNL A   1      42.168  24.425  26.392  1.00  0.00     0.091 A 
ATOM     54  F   UNL A   1      40.863  24.693  28.372  1.00  0.00    -0.205 F 
ATOM     55  C   UNL A   1      42.961  25.004  25.389  1.00  0.00     0.022 A 
BRANCH  53  56
ATOM     56  S   UNL A   1      41.984  22.638  26.362  1.00  0.00     0.127 S 
ATOM     57  O   UNL A   1      40.532  22.487  26.356  1.00  0.00    -0.237 OA
ATOM     58  O   UNL A   1      42.647  22.286  25.105  1.00  0.00    -0.237 OA
ATOM     59  O   UNL A   1      42.666  22.152  27.554  1.00  0.00    -0.744 OA
ENDBRANCH  53  56
ENDBRANCH  25  49
BRANCH  37  60
ATOM     60  C   UNL A   1      44.645  27.579  33.877  1.00  0.00     0.023 A 
ATOM     61  C   UNL A   1      45.809  28.371  33.847  1.00  0.00     0.012 A 
ATOM     62  C   UNL A   1      44.632  26.390  34.633  1.00  0.00     0.148 A 
ATOM     63  C   UNL A   1      46.949  27.980  34.548  1.00  0.00     0.002 A 
ATOM     64  C   UNL A   1      45.758  26.029  35.362  1.00  0.00     0.091 A 
ATOM     65  F   UNL A   1      43.520  25.642  34.631  1.00  0.00    -0.205 F 
ATOM     66  C   UNL A   1      46.920  26.817  35.315  1.00  0.00     0.022 A 
BRANCH  64  67
ATOM     67  S   UNL A   1      45.781  24.598  36.451  1.00  0.00     0.127 S 
ATOM     68  O   UNL A   1      47.135  24.660  36.995  1.00  0.00    -0.237 OA
ATOM     69  O   UNL A   1      44.723  24.918  37.409  1.00  0.00    -0.237 OA
ATOM     70  O   UNL A   1      45.497  23.448  35.603  1.00  0.00    -0.744 OA
ENDBRANCH  64  67
ENDBRANCH  37  60
ENDBRANCH  11  12
ENDBRANCH   4   6
ENDBRANCH   1   2
BRANCH   1  71
ATOM     71  C   UNL A   1      32.925  29.320  24.262  1.00  0.00     0.023 C 
BRANCH  71  72
ATOM     72  C   UNL A   1      34.048  28.356  23.889  1.00  0.00     0.023 C 
BRANCH  72  73
ATOM     73  C   UNL A   1      33.676  26.877  23.932  1.00  0.00     0.116 C 
BRANCH  73  74
ATOM     74  N   UNL A   1      33.444  26.321  22.609  1.00  0.00    -0.352 N 
ATOM     75  C   UNL A   1      32.260  26.181  21.931  1.00  0.00     0.254 C 
ATOM     76  H   UNL A   1      34.245  26.002  22.136  1.00  0.00     0.163 HD
ATOM     77  O   UNL A   1      32.223  25.601  20.849  1.00  0.00    -0.269 OA
BRANCH  75  78
ATOM     78  C   UNL A   1      31.009  26.671  22.524  1.00  0.00     0.076 A 
ATOM     79  C   UNL A   1      30.608  27.984  22.249  1.00  0.00     0.025 A 
ATOM     80  C   UNL A   1      30.244  25.867  23.363  1.00  0.00     0.135 A 
ATOM     81  C   UNL A   1      29.406  28.485  22.774  1.00  0.00    -0.017 A 
ATOM     82  C   UNL A   1      29.042  26.334  23.876  1.00  0.00     0.041 A 
ATOM     83  F   UNL A   1      30.633  24.621  23.673  1.00  0.00    -0.206 F 
ATOM     84  C   UNL A   1      28.621  27.632  23.576  1.00  0.00     0.012 A 
BRANCH  81  85
ATOM     85  C   UNL A   1      28.984  29.869  22.513  1.00  0.00    -0.018 A 
ATOM     86  C   UNL A   1      28.430  30.245  21.278  1.00  0.00     0.009 A 
ATOM     87  C   UNL A   1      29.135  30.859  23.498  1.00  0.00     0.009 A 
ATOM     88  C   UNL A   1      28.038  31.565  21.039  1.00  0.00     0.001 A 
ATOM     89  C   UNL A   1      28.746  32.179  23.260  1.00  0.00     0.001 A 
ATOM     90  C   UNL A   1      28.196  32.531  22.031  1.00  0.00     0.000 A 
ENDBRANCH  81  85
ENDBRANCH  75  78
ENDBRANCH  73  74
ENDBRANCH  72  73
ENDBRANCH  71  72
ENDBRANCH   1  71
TORSDOF 15
ENDMDL
MODEL 2
REMARK VINA RESULT:     -12.2      3.900      6.830
REMARK SMILES O=C(NCCCCNC(=O)c1cc(-c2ccccc2)ccc1F)c1ccc(-c2c3nc(c(-c4cccc(S(=O)(=O)[O-])c4F)c4ccc([nH]4)c(-c4cccc(S(=O)(=O)[O-])c4F)c4nc(c(-c5cccc(S(=O)(=O)[O-])c5F)c5ccc2[nH]5)C=C4)C=C3)cc1
REMARK SMILES IDX 4 1 3 2 1 3 2 4 24 6 25 7 86 8 26 9 85 10 27 11 28 12 29 13
REMARK SMILES IDX 79 14 30 15 84 16 78 17 80 18 31 19 83 20 77 21 76 22 32 24
REMARK SMILES IDX 64 25 44 26 63 27 45 28 48 29 62 30 81 31 46 32 47 33 61 35
REMARK SMILES IDX 82 36 49 37 33 38 34 39 42 40 35 41 37 42 43 43 36 44 38 45
REMARK SMILES IDX 39 46 40 47 41 48 65 49 66 50 74 51 67 52 69 53 75 54 68 55
REMARK SMILES IDX 70 56 71 57 72 58 73 59 50 60 51 61 59 62 52 63 54 64 60 65
REMARK SMILES IDX 53 66 55 67 56 68 57 69 58 70 5 71 6 72 7 73 8 74 9 75 10 77
REMARK SMILES IDX 11 78 12 79 22 80 13 81 21 82 23 83 20 84 14 85 15 86 19 87
REMARK SMILES IDX 16 88 18 89 17 90
REMARK H PARENT 3 5 80 23 48 34 8 76
REMARK Flexibility Score: inf
ROOT
ATOM      1  C   UNL A   1      34.087  33.666  28.649  1.00  0.00     0.116 C 
ENDROOT
BRANCH   1   2
ATOM      2  N   UNL A   1      33.575  32.629  27.767  1.00  0.00    -0.352 N 
ATOM      3  O   UNL A   1      33.616  30.728  26.559  1.00  0.00    -0.269 OA
ATOM      4  C   UNL A   1      34.127  31.412  27.442  1.00  0.00     0.251 C 
ATOM      5  H   UNL A   1      32.710  32.827  27.340  1.00  0.00     0.163 HD
BRANCH   4   6
ATOM      6  C   UNL A   1      35.349  30.950  28.135  1.00  0.00     0.039 A 
ATOM      7  C   UNL A   1      36.525  31.701  28.078  1.00  0.00     0.014 A 
ATOM      8  C   UNL A   1      35.318  29.747  28.845  1.00  0.00     0.014 A 
ATOM      9  C   UNL A   1      37.704  31.177  28.599  1.00  0.00     0.010 A 
ATOM     10  C   UNL A   1      36.486  29.263  29.442  1.00  0.00     0.010 A 
ATOM     11  C   UNL A   1      37.696  29.957  29.295  1.00  0.00    -0.014 A 
BRANCH  11  12
ATOM     12  C   UNL A   1      38.951  29.472  29.923  1.00  0.00     0.031 A 
ATOM     13  C   UNL A   1      39.382  29.941  31.284  1.00  0.00     0.074 A 
ATOM     14  C   UNL A   1      39.700  28.579  29.248  1.00  0.00     0.049 A 
ATOM     15  N   UNL A   1      40.427  29.576  31.982  1.00  0.00    -0.248 NA
ATOM     16  C   UNL A   1      38.543  30.953  31.947  1.00  0.00     0.031 C 
ATOM     17  C   UNL A   1      39.399  28.082  27.903  1.00  0.00     0.029 A 
ATOM     18  N   UNL A   1      40.854  27.923  29.594  1.00  0.00    -0.354 N 
ATOM     19  C   UNL A   1      40.393  30.332  33.147  1.00  0.00     0.074 A 
ATOM     20  C   UNL A   1      39.226  31.185  33.061  1.00  0.00     0.031 C 
ATOM     21  C   UNL A   1      40.318  27.172  27.554  1.00  0.00     0.029 A 
ATOM     22  C   UNL A   1      41.302  27.056  28.625  1.00  0.00     0.049 A 
ATOM     23  H   UNL A   1      41.315  28.060  30.452  1.00  0.00     0.167 HD
ATOM     24  C   UNL A   1      41.243  30.300  34.200  1.00  0.00     0.034 A 
ATOM     25  C   UNL A   1      42.386  26.257  28.595  1.00  0.00     0.034 A 
ATOM     26  C   UNL A   1      42.377  29.417  34.297  1.00  0.00     0.049 A 
ATOM     27  C   UNL A   1      43.297  26.223  29.786  1.00  0.00     0.074 A 
ATOM     28  C   UNL A   1      43.262  29.271  35.352  1.00  0.00     0.029 A 
ATOM     29  N   UNL A   1      42.784  28.535  33.309  1.00  0.00    -0.354 N 
ATOM     30  N   UNL A   1      43.184  26.861  30.925  1.00  0.00    -0.248 NA
ATOM     31  C   UNL A   1      44.474  25.346  29.700  1.00  0.00     0.031 C 
ATOM     32  C   UNL A   1      44.212  28.310  34.994  1.00  0.00     0.029 A 
ATOM     33  C   UNL A   1      43.911  27.846  33.723  1.00  0.00     0.049 A 
ATOM     34  H   UNL A   1      42.337  28.415  32.439  1.00  0.00     0.167 HD
ATOM     35  C   UNL A   1      44.263  26.457  31.698  1.00  0.00     0.074 A 
ATOM     36  C   UNL A   1      45.006  25.496  30.907  1.00  0.00     0.031 C 
ATOM     37  C   UNL A   1      44.618  26.862  32.942  1.00  0.00     0.034 A 
BRANCH  24  38
ATOM     38  C   UNL A   1      40.958  31.206  35.370  1.00  0.00     0.023 A 
ATOM     39  C   UNL A   1      41.915  32.172  35.741  1.00  0.00     0.012 A 
ATOM     40  C   UNL A   1      39.717  31.171  36.035  1.00  0.00     0.148 A 
ATOM     41  C   UNL A   1      41.649  33.076  36.769  1.00  0.00     0.002 A 
ATOM     42  C   UNL A   1      39.445  32.099  37.036  1.00  0.00     0.091 A 
ATOM     43  F   UNL A   1      38.829  30.230  35.684  1.00  0.00    -0.205 F 
ATOM     44  C   UNL A   1      40.411  33.048  37.408  1.00  0.00     0.022 A 
BRANCH  42  45
ATOM     45  S   UNL A   1      37.852  32.187  37.862  1.00  0.00     0.127 S 
ATOM     46  O   UNL A   1      37.058  32.940  36.893  1.00  0.00    -0.237 OA
ATOM     47  O   UNL A   1      37.485  30.775  37.984  1.00  0.00    -0.237 OA
ATOM     48  O   UNL A   1      38.099  32.857  39.132  1.00  0.00    -0.744 OA
ENDBRANCH  42  45
ENDBRANCH  24  38
BRANCH  25  49
ATOM     49  C   UNL A   1      42.601  25.379  27.411  1.00  0.00     0.023 A 
ATOM     50  C   UNL A   1      43.425  25.829  26.363  1.00  0.00     0.012 A 
ATOM     51  C   UNL A   1      42.095  24.065  27.375  1.00  0.00     0.148 A 
ATOM     52  C   UNL A   1      43.742  24.985  25.297  1.00  0.00     0.002 A 
ATOM     53  C   UNL A   1      42.462  23.211  26.343  1.00  0.00     0.091 A 
ATOM     54  F   UNL A   1      41.299  23.663  28.377  1.00  0.00    -0.205 F 
ATOM     55  C   UNL A   1      43.275  23.673  25.296  1.00  0.00     0.022 A 
BRANCH  53  56
ATOM     56  S   UNL A   1      42.044  21.463  26.346  1.00  0.00     0.127 S 
ATOM     57  O   UNL A   1      42.383  21.078  27.713  1.00  0.00    -0.237 OA
ATOM     58  O   UNL A   1      40.611  21.495  26.050  1.00  0.00    -0.237 OA
ATOM     59  O   UNL A   1      42.858  20.863  25.298  1.00  0.00    -0.744 OA
ENDBRANCH  53  56
ENDBRANCH  25  49
BRANCH  37  60
ATOM     60  C   UNL A   1      45.871  26.278  33.538  1.00  0.00     0.023 A 
ATOM     61  C   UNL A   1      47.078  26.997  33.443  1.00  0.00     0.012 A 
ATOM     62  C   UNL A   1      45.831  25.079  34.276  1.00  0.00     0.148 A 
ATOM     63  C   UNL A   1      48.234  26.522  34.063  1.00  0.00     0.002 A 
ATOM     64  C   UNL A   1      46.977  24.634  34.925  1.00  0.00     0.091 A 
ATOM     65  F   UNL A   1      44.676  24.401  34.336  1.00  0.00    -0.205 F 
ATOM     66  C   UNL A   1      48.181  25.350  34.813  1.00  0.00     0.022 A 
BRANCH  64  67
ATOM     67  S   UNL A   1      46.979  23.185  35.988  1.00  0.00     0.127 S 
ATOM     68  O   UNL A   1      48.354  23.182  36.483  1.00  0.00    -0.237 OA
ATOM     69  O   UNL A   1      45.970  23.531  36.990  1.00  0.00    -0.237 OA
ATOM     70  O   UNL A   1      46.618  22.062  35.132  1.00  0.00    -0.744 OA
ENDBRANCH  64  67
ENDBRANCH  37  60
ENDBRANCH  11  12
ENDBRANCH   4   6
ENDBRANCH   1   2
BRANCH   1  71
ATOM     71  C   UNL A   1      34.386  34.970  27.921  1.00  0.00     0.023 C 
BRANCH  71  72
ATOM     72  C   UNL A   1      33.886  36.234  28.617  1.00  0.00     0.023 C 
BRANCH  72  73
ATOM     73  C   UNL A   1      32.833  36.008  29.697  1.00  0.00     0.116 C 
BRANCH  73  74
ATOM     74  N   UNL A   1      32.850  37.042  30.718  1.00  0.00    -0.352 N 
ATOM     75  C   UNL A   1      33.367  36.990  31.987  1.00  0.00     0.254 C 
ATOM     76  H   UNL A   1      32.434  37.896  30.464  1.00  0.00     0.163 HD
ATOM     77  O   UNL A   1      33.216  37.928  32.764  1.00  0.00    -0.269 OA
BRANCH  75  78
ATOM     78  C   UNL A   1      34.056  35.778  32.452  1.00  0.00     0.076 A 
ATOM     79  C   UNL A   1      35.455  35.755  32.430  1.00  0.00     0.025 A 
ATOM     80  C   UNL A   1      33.343  34.663  32.883  1.00  0.00     0.135 A 
ATOM     81  C   UNL A   1      36.155  34.628  32.890  1.00  0.00    -0.017 A 
ATOM     82  C   UNL A   1      34.014  33.546  33.362  1.00  0.00     0.041 A 
ATOM     83  F   UNL A   1      32.003  34.650  32.871  1.00  0.00    -0.206 F 
ATOM     84  C   UNL A   1      35.412  33.533  33.373  1.00  0.00     0.012 A 
BRANCH  81  85
ATOM     85  C   UNL A   1      37.624  34.580  32.852  1.00  0.00    -0.018 A 
ATOM     86  C   UNL A   1      38.389  34.642  34.027  1.00  0.00     0.009 A 
ATOM     87  C   UNL A   1      38.302  34.482  31.625  1.00  0.00     0.009 A 
ATOM     88  C   UNL A   1      39.786  34.601  33.978  1.00  0.00     0.001 A 
ATOM     89  C   UNL A   1      39.698  34.444  31.574  1.00  0.00     0.001 A 
ATOM     90  C   UNL A   1      40.438  34.502  32.751  1.00  0.00     0.000 A 
ENDBRANCH  81  85
ENDBRANCH  75  78
ENDBRANCH  73  74
ENDBRANCH  72  73
ENDBRANCH  71  72
ENDBRANCH   1  71
TORSDOF 15
ENDMDL
MODEL 3
REMARK VINA RESULT:     -12.2      2.890      4.625
REMARK SMILES O=C(NCCCCNC(=O)c1cc(-c2ccccc2)ccc1F)c1ccc(-c2c3nc(c(-c4cccc(S(=O)(=O)[O-])c4F)c4ccc([nH]4)c(-c4cccc(S(=O)(=O)[O-])c4F)c4nc(c(-c5cccc(S(=O)(=O)[O-])c5F)c5ccc2[nH]5)C=C4)C=C3)cc1
REMARK SMILES IDX 4 1 3 2 1 3 2 4 24 6 25 7 86 8 26 9 85 10 27 11 28 12 29 13
REMARK SMILES IDX 79 14 30 15 84 16 78 17 80 18 31 19 83 20 77 21 76 22 32 24
REMARK SMILES IDX 64 25 44 26 63 27 45 28 48 29 62 30 81 31 46 32 47 33 61 35
REMARK SMILES IDX 82 36 49 37 33 38 34 39 42 40 35 41 37 42 43 43 36 44 38 45
REMARK SMILES IDX 39 46 40 47 41 48 65 49 66 50 74 51 67 52 69 53 75 54 68 55
REMARK SMILES IDX 70 56 71 57 72 58 73 59 50 60 51 61 59 62 52 63 54 64 60 65
REMARK SMILES IDX 53 66 55 67 56 68 57 69 58 70 5 71 6 72 7 73 8 74 9 75 10 77
REMARK SMILES IDX 11 78 12 79 22 80 13 81 21 82 23 83 20 84 14 85 15 86 19 87
REMARK SMILES IDX 16 88 18 89 17 90
REMARK H PARENT 3 5 80 23 48 34 8 76
REMARK Flexibility Score: inf
ROOT
ATOM      1  C   UNL A   1      34.190  28.608  25.983  1.00  0.00     0.116 C 
ENDROOT
BRANCH   1   2
ATOM      2  N   UNL A   1      33.822  29.921  26.490  1.00  0.00    -0.352 N 
ATOM      3  O   UNL A   1      33.889  31.709  27.858  1.00  0.00    -0.269 OA
ATOM      4  C   UNL A   1      34.433  30.684  27.457  1.00  0.00     0.251 C 
ATOM      5  H   UNL A   1      33.020  30.321  26.082  1.00  0.00     0.163 HD
BRANCH   4   6
ATOM      6  C   UNL A   1      35.724  30.246  28.031  1.00  0.00     0.039 A 
ATOM      7  C   UNL A   1      36.917  30.444  27.332  1.00  0.00     0.014 A 
ATOM      8  C   UNL A   1      35.739  29.623  29.282  1.00  0.00     0.014 A 
ATOM      9  C   UNL A   1      38.098  29.887  27.810  1.00  0.00     0.010 A 
ATOM     10  C   UNL A   1      36.943  29.139  29.801  1.00  0.00     0.010 A 
ATOM     11  C   UNL A   1      38.127  29.236  29.056  1.00  0.00    -0.014 A 
BRANCH  11  12
ATOM     12  C   UNL A   1      39.421  28.738  29.584  1.00  0.00     0.031 A 
ATOM     13  C   UNL A   1      40.049  29.330  30.814  1.00  0.00     0.074 A 
ATOM     14  C   UNL A   1      40.026  27.721  28.940  1.00  0.00     0.049 A 
ATOM     15  N   UNL A   1      41.152  28.973  31.422  1.00  0.00    -0.248 NA
ATOM     16  C   UNL A   1      39.361  30.470  31.443  1.00  0.00     0.031 C 
ATOM     17  C   UNL A   1      39.527  27.094  27.714  1.00  0.00     0.029 A 
ATOM     18  N   UNL A   1      41.174  27.028  29.224  1.00  0.00    -0.354 N 
ATOM     19  C   UNL A   1      41.310  29.860  32.480  1.00  0.00     0.074 A 
ATOM     20  C   UNL A   1      40.194  30.780  32.429  1.00  0.00     0.031 C 
ATOM     21  C   UNL A   1      40.341  26.086  27.372  1.00  0.00     0.029 A 
ATOM     22  C   UNL A   1      41.445  26.024  28.324  1.00  0.00     0.049 A 
ATOM     23  H   UNL A   1      41.749  27.229  29.997  1.00  0.00     0.167 HD
ATOM     24  C   UNL A   1      42.285  29.888  33.420  1.00  0.00     0.034 A 
ATOM     25  C   UNL A   1      42.468  25.151  28.264  1.00  0.00     0.034 A 
ATOM     26  C   UNL A   1      43.370  28.943  33.489  1.00  0.00     0.049 A 
ATOM     27  C   UNL A   1      43.521  25.189  29.331  1.00  0.00     0.074 A 
ATOM     28  C   UNL A   1      44.373  28.857  34.439  1.00  0.00     0.029 A 
ATOM     29  N   UNL A   1      43.595  27.925  32.576  1.00  0.00    -0.354 N 
ATOM     30  N   UNL A   1      43.591  25.961  30.388  1.00  0.00    -0.248 NA
ATOM     31  C   UNL A   1      44.624  24.225  29.215  1.00  0.00     0.031 C 
ATOM     32  C   UNL A   1      45.212  27.794  34.093  1.00  0.00     0.029 A 
ATOM     33  C   UNL A   1      44.725  27.209  32.934  1.00  0.00     0.049 A 
ATOM     34  H   UNL A   1      43.035  27.738  31.788  1.00  0.00     0.167 HD
ATOM     35  C   UNL A   1      44.735  25.572  31.070  1.00  0.00     0.074 A 
ATOM     36  C   UNL A   1      45.314  24.475  30.321  1.00  0.00     0.031 C 
ATOM     37  C   UNL A   1      45.269  26.093  32.203  1.00  0.00     0.034 A 
BRANCH  24  38
ATOM     38  C   UNL A   1      42.204  30.943  34.493  1.00  0.00     0.023 A 
ATOM     39  C   UNL A   1      41.552  30.642  35.706  1.00  0.00     0.012 A 
ATOM     40  C   UNL A   1      42.848  32.186  34.345  1.00  0.00     0.148 A 
ATOM     41  C   UNL A   1      41.527  31.569  36.748  1.00  0.00     0.002 A 
ATOM     42  C   UNL A   1      42.850  33.092  35.401  1.00  0.00     0.091 A 
ATOM     43  F   UNL A   1      43.443  32.465  33.176  1.00  0.00    -0.205 F 
ATOM     44  C   UNL A   1      42.185  32.787  36.600  1.00  0.00     0.022 A 
BRANCH  42  45
ATOM     45  S   UNL A   1      43.733  34.655  35.331  1.00  0.00     0.127 S 
ATOM     46  O   UNL A   1      45.090  34.213  35.016  1.00  0.00    -0.237 OA
ATOM     47  O   UNL A   1      43.051  35.351  34.238  1.00  0.00    -0.237 OA
ATOM     48  O   UNL A   1      43.558  35.270  36.639  1.00  0.00    -0.744 OA
ENDBRANCH  42  45
ENDBRANCH  24  38
BRANCH  25  49
ATOM     49  C   UNL A   1      42.480  24.128  27.181  1.00  0.00     0.023 A 
ATOM     50  C   UNL A   1      43.141  24.414  25.972  1.00  0.00     0.012 A 
ATOM     51  C   UNL A   1      41.947  22.840  27.386  1.00  0.00     0.148 A 
ATOM     52  C   UNL A   1      43.272  23.436  24.986  1.00  0.00     0.002 A 
ATOM     53  C   UNL A   1      42.132  21.853  26.426  1.00  0.00     0.091 A 
ATOM     54  F   UNL A   1      41.307  22.595  28.539  1.00  0.00    -0.205 F 
ATOM     55  C   UNL A   1      42.783  22.153  25.220  1.00  0.00     0.022 A 
BRANCH  53  56
ATOM     56  S   UNL A   1      41.683  20.137  26.713  1.00  0.00     0.127 S 
ATOM     57  O   UNL A   1      42.550  19.784  27.834  1.00  0.00    -0.237 OA
ATOM     58  O   UNL A   1      40.261  20.248  27.042  1.00  0.00    -0.237 OA
ATOM     59  O   UNL A   1      41.955  19.446  25.459  1.00  0.00    -0.744 OA
ENDBRANCH  53  56
ENDBRANCH  25  49
BRANCH  37  60
ATOM     60  C   UNL A   1      46.551  25.492  32.712  1.00  0.00     0.023 A 
ATOM     61  C   UNL A   1      47.780  26.009  32.258  1.00  0.00     0.012 A 
ATOM     62  C   UNL A   1      46.541  24.498  33.709  1.00  0.00     0.148 A 
ATOM     63  C   UNL A   1      48.984  25.532  32.779  1.00  0.00     0.002 A 
ATOM     64  C   UNL A   1      47.742  24.058  34.253  1.00  0.00     0.091 A 
ATOM     65  F   UNL A   1      45.360  24.008  34.112  1.00  0.00    -0.205 F 
ATOM     66  C   UNL A   1      48.964  24.568  33.784  1.00  0.00     0.022 A 
BRANCH  64  67
ATOM     67  S   UNL A   1      47.809  22.887  35.615  1.00  0.00     0.127 S 
ATOM     68  O   UNL A   1      49.237  22.873  35.925  1.00  0.00    -0.237 OA
ATOM     69  O   UNL A   1      46.972  23.534  36.625  1.00  0.00    -0.237 OA
ATOM     70  O   UNL A   1      47.268  21.639  35.094  1.00  0.00    -0.744 OA
ENDBRANCH  64  67
ENDBRANCH  37  60
ENDBRANCH  11  12
ENDBRANCH   4   6
ENDBRANCH   1   2
BRANCH   1  71
ATOM     71  C   UNL A   1      33.309  27.492  26.532  1.00  0.00     0.023 C 
BRANCH  71  72
ATOM     72  C   UNL A   1      31.807  27.753  26.459  1.00  0.00     0.023 C 
BRANCH  72  73
ATOM     73  C   UNL A   1      30.999  26.696  25.711  1.00  0.00     0.116 C 
BRANCH  73  74
ATOM     74  N   UNL A   1      30.612  25.585  26.563  1.00  0.00    -0.352 N 
ATOM     75  C   UNL A   1      30.967  24.263  26.467  1.00  0.00     0.254 C 
ATOM     76  H   UNL A   1      30.013  25.810  27.310  1.00  0.00     0.163 HD
ATOM     77  O   UNL A   1      30.475  23.426  27.218  1.00  0.00    -0.269 OA
BRANCH  75  78
ATOM     78  C   UNL A   1      31.899  23.826  25.419  1.00  0.00     0.076 A 
ATOM     79  C   UNL A   1      33.246  23.647  25.753  1.00  0.00     0.025 A 
ATOM     80  C   UNL A   1      31.468  23.614  24.113  1.00  0.00     0.135 A 
ATOM     81  C   UNL A   1      34.165  23.204  24.789  1.00  0.00    -0.017 A 
ATOM     82  C   UNL A   1      32.355  23.156  23.148  1.00  0.00     0.041 A 
ATOM     83  F   UNL A   1      30.190  23.821  23.762  1.00  0.00    -0.206 F 
ATOM     84  C   UNL A   1      33.694  22.944  23.487  1.00  0.00     0.012 A 
BRANCH  81  85
ATOM     85  C   UNL A   1      35.588  23.035  25.120  1.00  0.00    -0.018 A 
ATOM     86  C   UNL A   1      36.289  24.005  25.854  1.00  0.00     0.009 A 
ATOM     87  C   UNL A   1      36.288  21.892  24.697  1.00  0.00     0.009 A 
ATOM     88  C   UNL A   1      37.643  23.836  26.158  1.00  0.00     0.001 A 
ATOM     89  C   UNL A   1      37.641  21.723  24.998  1.00  0.00     0.001 A 
ATOM     90  C   UNL A   1      38.318  22.695  25.729  1.00  0.00     0.000 A 
ENDBRANCH  81  85
ENDBRANCH  75  78
ENDBRANCH  73  74
ENDBRANCH  72  73
ENDBRANCH  71  72
ENDBRANCH   1  71
TORSDOF 15
ENDMDL
