MODEL 1
REMARK VINA RESULT:     -11.2      0.000      0.000
REMARK SMILES CC(C)[C@H]([NH2+]Cc1ccc(O)cn1)C(=O)NCCCCNC(=O)c1ccc(-c2c3nc(c(-c4cccc(S(=O)(=O)[O-])c4F)c4ccc([nH]4)c(-c4cccc(S(=O)(=O)[O-])c4F)c4nc(c(-c5cccc(S(=O)(=O)[O-])c5F)c5ccc2[nH]5)C=C4)C=C3)cc1
REMARK SMILES IDX 18 1 17 2 16 3 14 4 15 5 4 7 2 8 1 9 3 10 5 11 6 14 7 15
REMARK SMILES IDX 8 16 13 17 9 18 12 19 10 20 11 21 19 23 20 24 21 25 22 26
REMARK SMILES IDX 23 28 24 29 25 30 86 31 26 32 85 33 27 34 28 35 29 36 79 37
REMARK SMILES IDX 30 38 84 39 78 40 80 41 31 42 83 43 77 44 76 45 32 47 64 48
REMARK SMILES IDX 44 49 63 50 45 51 48 52 62 53 81 54 46 55 47 56 61 58 82 59
REMARK SMILES IDX 49 60 33 61 34 62 42 63 35 64 37 65 43 66 36 67 38 68 39 69
REMARK SMILES IDX 40 70 41 71 65 72 66 73 74 74 67 75 69 76 75 77 68 78 70 79
REMARK SMILES IDX 71 80 72 81 73 82 50 83 51 84 59 85 52 86 54 87 60 88 53 89
REMARK SMILES IDX 55 90 56 91 57 92 58 93
REMARK H PARENT 16 6 5 12 5 13 11 22 21 27 80 46 48 57
REMARK Flexibility Score: inf
ROOT
ATOM      1  C   UNL A   1      31.401  30.545  26.404  1.00  0.00     0.023 C 
ENDROOT
BRANCH   1   2
ATOM      2  C   UNL A   1      32.783  29.898  26.407  1.00  0.00     0.116 C 
BRANCH   2   3
ATOM      3  N   UNL A   1      33.299  29.753  25.065  1.00  0.00    -0.351 N 
ATOM      4  C   UNL A   1      32.878  28.971  24.036  1.00  0.00     0.278 C 
ATOM      5  O   UNL A   1      33.547  29.010  22.997  1.00  0.00    -0.268 OA
ATOM      6  H   UNL A   1      34.083  30.313  24.863  1.00  0.00     0.163 HD
BRANCH   4   7
ATOM      7  C   UNL A   1      31.620  28.059  24.115  1.00  0.00     0.275 C 
BRANCH   7   8
ATOM      8  C   UNL A   1      31.809  26.688  24.827  1.00  0.00     0.051 C 
ATOM      9  C   UNL A   1      30.673  26.350  25.801  1.00  0.00     0.014 C 
ATOM     10  C   UNL A   1      31.910  25.550  23.797  1.00  0.00     0.014 C 
ENDBRANCH   7   8
BRANCH   7  11
ATOM     11  N   UNL A   1      30.846  28.101  22.844  1.00  0.00    -0.331 N 
ATOM     12  H   UNL A   1      30.953  27.194  22.389  1.00  0.00     0.347 HD
ATOM     13  H   UNL A   1      31.231  28.891  22.327  1.00  0.00     0.347 HD
BRANCH  11  14
ATOM     14  C   UNL A   1      29.416  28.376  22.943  1.00  0.00     0.318 C 
BRANCH  14  15
ATOM     15  C   UNL A   1      29.051  29.795  22.539  1.00  0.00     0.095 A 
ATOM     16  C   UNL A   1      29.166  30.843  23.452  1.00  0.00     0.033 A 
ATOM     17  N   UNL A   1      28.534  29.971  21.296  1.00  0.00    -0.251 NA
ATOM     18  C   UNL A   1      28.702  32.109  23.094  1.00  0.00     0.050 A 
ATOM     19  C   UNL A   1      28.101  31.212  20.969  1.00  0.00     0.157 A 
ATOM     20  C   UNL A   1      28.150  32.291  21.834  1.00  0.00     0.133 A 
BRANCH  20  21
ATOM     21  O   UNL A   1      27.648  33.492  21.437  1.00  0.00    -0.506 OA
ATOM     22  H   UNL A   1      28.187  34.258  21.471  1.00  0.00     0.293 HD
ENDBRANCH  20  21
ENDBRANCH  14  15
ENDBRANCH  11  14
ENDBRANCH   7  11
ENDBRANCH   4   7
ENDBRANCH   2   3
ENDBRANCH   1   2
BRANCH   1  23
ATOM     23  C   UNL A   1      31.397  32.064  26.575  1.00  0.00     0.023 C 
BRANCH  23  24
ATOM     24  C   UNL A   1      32.753  32.676  26.899  1.00  0.00     0.116 C 
BRANCH  24  25
ATOM     25  N   UNL A   1      32.675  33.941  27.618  1.00  0.00    -0.352 N 
ATOM     26  C   UNL A   1      33.515  34.382  28.617  1.00  0.00     0.251 C 
ATOM     27  H   UNL A   1      31.941  34.546  27.363  1.00  0.00     0.163 HD
ATOM     28  O   UNL A   1      33.306  35.434  29.206  1.00  0.00    -0.269 OA
BRANCH  26  29
ATOM     29  C   UNL A   1      34.651  33.517  28.996  1.00  0.00     0.039 A 
ATOM     30  C   UNL A   1      35.952  33.971  28.767  1.00  0.00     0.014 A 
ATOM     31  C   UNL A   1      34.418  32.321  29.678  1.00  0.00     0.014 A 
ATOM     32  C   UNL A   1      37.029  33.255  29.294  1.00  0.00     0.010 A 
ATOM     33  C   UNL A   1      35.486  31.648  30.256  1.00  0.00     0.010 A 
ATOM     34  C   UNL A   1      36.800  32.111  30.076  1.00  0.00    -0.014 A 
BRANCH  34  35
ATOM     35  C   UNL A   1      37.909  31.367  30.722  1.00  0.00     0.031 A 
ATOM     36  C   UNL A   1      38.258  31.666  32.153  1.00  0.00     0.074 A 
ATOM     37  C   UNL A   1      38.669  30.526  29.996  1.00  0.00     0.049 A 
ATOM     38  N   UNL A   1      39.285  31.263  32.854  1.00  0.00    -0.248 NA
ATOM     39  C   UNL A   1      37.350  32.568  32.882  1.00  0.00     0.031 C 
ATOM     40  C   UNL A   1      38.468  30.204  28.580  1.00  0.00     0.029 A 
ATOM     41  N   UNL A   1      39.790  29.811  30.339  1.00  0.00    -0.354 N 
ATOM     42  C   UNL A   1      39.174  31.900  34.084  1.00  0.00     0.074 A 
ATOM     43  C   UNL A   1      37.994  32.733  34.027  1.00  0.00     0.031 C 
ATOM     44  C   UNL A   1      39.432  29.358  28.178  1.00  0.00     0.029 A 
ATOM     45  C   UNL A   1      40.335  29.099  29.296  1.00  0.00     0.049 A 
ATOM     46  H   UNL A   1      40.168  29.808  31.248  1.00  0.00     0.167 HD
ATOM     47  C   UNL A   1      39.967  31.777  35.174  1.00  0.00     0.034 A 
ATOM     48  C   UNL A   1      41.440  28.330  29.247  1.00  0.00     0.034 A 
ATOM     49  C   UNL A   1      41.096  30.893  35.250  1.00  0.00     0.049 A 
ATOM     50  C   UNL A   1      42.261  28.154  30.498  1.00  0.00     0.074 A 
ATOM     51  C   UNL A   1      41.932  30.653  36.325  1.00  0.00     0.029 A 
ATOM     52  N   UNL A   1      41.535  30.087  34.210  1.00  0.00    -0.354 N 
ATOM     53  N   UNL A   1      42.074  28.675  31.686  1.00  0.00    -0.248 NA
ATOM     54  C   UNL A   1      43.425  27.259  30.412  1.00  0.00     0.031 C 
ATOM     55  C   UNL A   1      42.869  29.687  35.940  1.00  0.00     0.029 A 
ATOM     56  C   UNL A   1      42.616  29.330  34.625  1.00  0.00     0.049 A 
ATOM     57  H   UNL A   1      41.137  30.057  33.311  1.00  0.00     0.167 HD
ATOM     58  C   UNL A   1      43.065  28.136  32.498  1.00  0.00     0.074 A 
ATOM     59  C   UNL A   1      43.845  27.240  31.670  1.00  0.00     0.031 C 
ATOM     60  C   UNL A   1      43.319  28.376  33.808  1.00  0.00     0.034 A 
BRANCH  47  61
ATOM     61  C   UNL A   1      39.589  32.562  36.400  1.00  0.00     0.023 A 
ATOM     62  C   UNL A   1      40.181  33.824  36.616  1.00  0.00     0.012 A 
ATOM     63  C   UNL A   1      38.626  32.084  37.309  1.00  0.00     0.148 A 
ATOM     64  C   UNL A   1      39.844  34.583  37.735  1.00  0.00     0.002 A 
ATOM     65  C   UNL A   1      38.267  32.865  38.402  1.00  0.00     0.091 A 
ATOM     66  F   UNL A   1      38.094  30.871  37.100  1.00  0.00    -0.205 F 
ATOM     67  C   UNL A   1      38.881  34.110  38.620  1.00  0.00     0.022 A 
BRANCH  65  68
ATOM     68  S   UNL A   1      36.987  32.372  39.562  1.00  0.00     0.127 S 
ATOM     69  O   UNL A   1      37.069  33.433  40.562  1.00  0.00    -0.237 OA
ATOM     70  O   UNL A   1      35.782  32.409  38.732  1.00  0.00    -0.237 OA
ATOM     71  O   UNL A   1      37.361  31.041  40.023  1.00  0.00    -0.744 OA
ENDBRANCH  65  68
ENDBRANCH  47  61
BRANCH  48  72
ATOM     72  C   UNL A   1      41.784  27.589  28.000  1.00  0.00     0.023 A 
ATOM     73  C   UNL A   1      42.372  28.293  26.931  1.00  0.00     0.012 A 
ATOM     74  C   UNL A   1      41.555  26.207  27.866  1.00  0.00     0.148 A 
ATOM     75  C   UNL A   1      42.696  27.643  25.740  1.00  0.00     0.002 A 
ATOM     76  C   UNL A   1      41.925  25.554  26.693  1.00  0.00     0.091 A 
ATOM     77  F   UNL A   1      40.978  25.552  28.884  1.00  0.00    -0.205 F 
ATOM     78  C   UNL A   1      42.483  26.273  25.624  1.00  0.00     0.022 A 
BRANCH  76  79
ATOM     79  S   UNL A   1      41.793  23.771  26.520  1.00  0.00     0.127 S 
ATOM     80  O   UNL A   1      42.377  23.302  27.772  1.00  0.00    -0.237 OA
ATOM     81  O   UNL A   1      40.346  23.575  26.403  1.00  0.00    -0.237 OA
ATOM     82  O   UNL A   1      42.533  23.455  25.304  1.00  0.00    -0.744 OA
ENDBRANCH  76  79
ENDBRANCH  48  72
BRANCH  60  83
ATOM     83  C   UNL A   1      44.448  27.622  34.455  1.00  0.00     0.023 A 
ATOM     84  C   UNL A   1      45.717  28.221  34.556  1.00  0.00     0.012 A 
ATOM     85  C   UNL A   1      44.219  26.367  35.054  1.00  0.00     0.148 A 
ATOM     86  C   UNL A   1      46.751  27.575  35.230  1.00  0.00     0.002 A 
ATOM     87  C   UNL A   1      45.243  25.747  35.759  1.00  0.00     0.091 A 
ATOM     88  F   UNL A   1      43.009  25.807  34.925  1.00  0.00    -0.205 F 
ATOM     89  C   UNL A   1      46.511  26.346  35.843  1.00  0.00     0.022 A 
BRANCH  87  90
ATOM     90  S   UNL A   1      44.994  24.208  36.652  1.00  0.00     0.127 S 
ATOM     91  O   UNL A   1      46.366  23.740  36.828  1.00  0.00    -0.237 OA
ATOM     92  O   UNL A   1      44.340  24.660  37.881  1.00  0.00    -0.237 OA
ATOM     93  O   UNL A   1      44.153  23.384  35.794  1.00  0.00    -0.744 OA
ENDBRANCH  87  90
ENDBRANCH  60  83
ENDBRANCH  34  35
ENDBRANCH  26  29
ENDBRANCH  24  25
ENDBRANCH  23  24
ENDBRANCH   1  23
TORSDOF 19
ENDMDL
MODEL 2
REMARK VINA RESULT:     -11.1      6.952     10.810
REMARK SMILES CC(C)[C@H]([NH2+]Cc1ccc(O)cn1)C(=O)NCCCCNC(=O)c1ccc(-c2c3nc(c(-c4cccc(S(=O)(=O)[O-])c4F)c4ccc([nH]4)c(-c4cccc(S(=O)(=O)[O-])c4F)c4nc(c(-c5cccc(S(=O)(=O)[O-])c5F)c5ccc2[nH]5)C=C4)C=C3)cc1
REMARK SMILES IDX 18 1 17 2 16 3 14 4 15 5 4 7 2 8 1 9 3 10 5 11 6 14 7 15
REMARK SMILES IDX 8 16 13 17 9 18 12 19 10 20 11 21 19 23 20 24 21 25 22 26
REMARK SMILES IDX 23 28 24 29 25 30 86 31 26 32 85 33 27 34 28 35 29 36 79 37
REMARK SMILES IDX 30 38 84 39 78 40 80 41 31 42 83 43 77 44 76 45 32 47 64 48
REMARK SMILES IDX 44 49 63 50 45 51 48 52 62 53 81 54 46 55 47 56 61 58 82 59
REMARK SMILES IDX 49 60 33 61 34 62 42 63 35 64 37 65 43 66 36 67 38 68 39 69
REMARK SMILES IDX 40 70 41 71 65 72 66 73 74 74 67 75 69 76 75 77 68 78 70 79
REMARK SMILES IDX 71 80 72 81 73 82 50 83 51 84 59 85 52 86 54 87 60 88 53 89
REMARK SMILES IDX 55 90 56 91 57 92 58 93
REMARK H PARENT 16 6 5 12 5 13 11 22 21 27 80 46 48 57
REMARK Flexibility Score: inf
ROOT
ATOM      1  C   UNL A   1      37.630  21.977  25.175  1.00  0.00     0.023 C 
ENDROOT
BRANCH   1   2
ATOM      2  C   UNL A   1      36.117  21.873  25.009  1.00  0.00     0.116 C 
BRANCH   2   3
ATOM      3  N   UNL A   1      35.470  21.571  26.265  1.00  0.00    -0.351 N 
ATOM      4  C   UNL A   1      34.155  21.590  26.609  1.00  0.00     0.278 C 
ATOM      5  O   UNL A   1      33.882  21.331  27.786  1.00  0.00    -0.268 OA
ATOM      6  H   UNL A   1      36.081  21.309  26.990  1.00  0.00     0.163 HD
BRANCH   4   7
ATOM      7  C   UNL A   1      33.013  21.912  25.601  1.00  0.00     0.275 C 
BRANCH   7   8
ATOM      8  C   UNL A   1      32.279  23.269  25.806  1.00  0.00     0.051 C 
ATOM      9  C   UNL A   1      32.705  24.345  24.799  1.00  0.00     0.014 C 
ATOM     10  C   UNL A   1      30.756  23.085  25.693  1.00  0.00     0.014 C 
ENDBRANCH   7   8
BRANCH   7  11
ATOM     11  N   UNL A   1      32.200  20.699  25.306  1.00  0.00    -0.331 N 
ATOM     12  H   UNL A   1      31.235  21.002  25.174  1.00  0.00     0.347 HD
ATOM     13  H   UNL A   1      32.353  20.080  26.102  1.00  0.00     0.347 HD
BRANCH  11  14
ATOM     14  C   UNL A   1      32.578  19.912  24.136  1.00  0.00     0.318 C 
BRANCH  14  15
ATOM     15  C   UNL A   1      32.935  18.474  24.474  1.00  0.00     0.095 A 
ATOM     16  C   UNL A   1      33.574  17.664  23.536  1.00  0.00     0.033 A 
ATOM     17  N   UNL A   1      32.528  18.002  25.681  1.00  0.00    -0.251 NA
ATOM     18  C   UNL A   1      33.772  16.314  23.828  1.00  0.00     0.050 A 
ATOM     19  C   UNL A   1      32.741  16.691  25.943  1.00  0.00     0.157 A 
ATOM     20  C   UNL A   1      33.336  15.820  25.048  1.00  0.00     0.133 A 
BRANCH  20  21
ATOM     21  O   UNL A   1      33.468  14.506  25.380  1.00  0.00    -0.506 OA
ATOM     22  H   UNL A   1      34.277  14.062  25.218  1.00  0.00     0.293 HD
ENDBRANCH  20  21
ENDBRANCH  14  15
ENDBRANCH  11  14
ENDBRANCH   7  11
ENDBRANCH   4   7
ENDBRANCH   2   3
ENDBRANCH   1   2
BRANCH   1  23
ATOM     23  C   UNL A   1      38.371  20.641  25.213  1.00  0.00     0.023 C 
BRANCH  23  24
ATOM     24  C   UNL A   1      39.572  20.601  26.147  1.00  0.00     0.116 C 
BRANCH  24  25
ATOM     25  N   UNL A   1      40.384  19.398  26.016  1.00  0.00    -0.352 N 
ATOM     26  C   UNL A   1      41.755  19.307  26.111  1.00  0.00     0.251 C 
ATOM     27  H   UNL A   1      39.900  18.559  25.841  1.00  0.00     0.163 HD
ATOM     28  O   UNL A   1      42.338  18.252  25.907  1.00  0.00    -0.269 OA
BRANCH  26  29
ATOM     29  C   UNL A   1      42.509  20.540  26.415  1.00  0.00     0.039 A 
ATOM     30  C   UNL A   1      43.030  21.293  25.359  1.00  0.00     0.014 A 
ATOM     31  C   UNL A   1      42.593  20.998  27.731  1.00  0.00     0.014 A 
ATOM     32  C   UNL A   1      43.572  22.553  25.619  1.00  0.00     0.010 A 
ATOM     33  C   UNL A   1      43.074  22.277  27.978  1.00  0.00     0.010 A 
ATOM     34  C   UNL A   1      43.561  23.069  26.925  1.00  0.00    -0.014 A 
BRANCH  34  35
ATOM     35  C   UNL A   1      44.052  24.435  27.234  1.00  0.00     0.031 A 
ATOM     36  C   UNL A   1      43.084  25.466  27.741  1.00  0.00     0.074 A 
ATOM     37  C   UNL A   1      45.323  24.775  26.944  1.00  0.00     0.049 A 
ATOM     38  N   UNL A   1      43.259  26.751  27.910  1.00  0.00    -0.248 NA
ATOM     39  C   UNL A   1      41.726  24.997  28.067  1.00  0.00     0.031 C 
ATOM     40  C   UNL A   1      46.339  23.877  26.387  1.00  0.00     0.029 A 
ATOM     41  N   UNL A   1      45.970  25.981  27.046  1.00  0.00    -0.354 N 
ATOM     42  C   UNL A   1      42.026  27.249  28.312  1.00  0.00     0.074 A 
ATOM     43  C   UNL A   1      41.105  26.135  28.338  1.00  0.00     0.031 C 
ATOM     44  C   UNL A   1      47.478  24.564  26.197  1.00  0.00     0.029 A 
ATOM     45  C   UNL A   1      47.268  25.954  26.590  1.00  0.00     0.049 A 
ATOM     46  H   UNL A   1      45.546  26.791  27.411  1.00  0.00     0.167 HD
ATOM     47  C   UNL A   1      41.698  28.516  28.656  1.00  0.00     0.034 A 
ATOM     48  C   UNL A   1      48.181  26.940  26.495  1.00  0.00     0.034 A 
ATOM     49  C   UNL A   1      42.634  29.604  28.697  1.00  0.00     0.049 A 
ATOM     50  C   UNL A   1      47.808  28.325  26.957  1.00  0.00     0.074 A 
ATOM     51  C   UNL A   1      42.416  30.914  29.086  1.00  0.00     0.029 A 
ATOM     52  N   UNL A   1      43.974  29.503  28.355  1.00  0.00    -0.354 N 
ATOM     53  N   UNL A   1      46.668  28.752  27.443  1.00  0.00    -0.248 NA
ATOM     54  C   UNL A   1      48.855  29.355  26.889  1.00  0.00     0.031 C 
ATOM     55  C   UNL A   1      43.631  31.602  28.993  1.00  0.00     0.029 A 
ATOM     56  C   UNL A   1      44.602  30.721  28.545  1.00  0.00     0.049 A 
ATOM     57  H   UNL A   1      44.413  28.687  28.026  1.00  0.00     0.167 HD
ATOM     58  C   UNL A   1      46.874  30.084  27.782  1.00  0.00     0.074 A 
ATOM     59  C   UNL A   1      48.250  30.392  27.455  1.00  0.00     0.031 C 
ATOM     60  C   UNL A   1      45.996  30.978  28.300  1.00  0.00     0.034 A 
BRANCH  47  61
ATOM     61  C   UNL A   1      40.282  28.772  29.095  1.00  0.00     0.023 A 
ATOM     62  C   UNL A   1      39.286  28.966  28.116  1.00  0.00     0.012 A 
ATOM     63  C   UNL A   1      39.926  28.777  30.457  1.00  0.00     0.148 A 
ATOM     64  C   UNL A   1      37.962  29.193  28.486  1.00  0.00     0.002 A 
ATOM     65  C   UNL A   1      38.595  28.965  30.817  1.00  0.00     0.091 A 
ATOM     66  F   UNL A   1      40.891  28.617  31.372  1.00  0.00    -0.205 F 
ATOM     67  C   UNL A   1      37.615  29.182  29.833  1.00  0.00     0.022 A 
BRANCH  65  68
ATOM     68  S   UNL A   1      38.040  28.901  32.524  1.00  0.00     0.127 S 
ATOM     69  O   UNL A   1      36.666  29.385  32.407  1.00  0.00    -0.237 OA
ATOM     70  O   UNL A   1      38.158  27.476  32.836  1.00  0.00    -0.237 OA
ATOM     71  O   UNL A   1      38.949  29.760  33.270  1.00  0.00    -0.744 OA
ENDBRANCH  65  68
ENDBRANCH  47  61
BRANCH  48  72
ATOM     72  C   UNL A   1      49.566  26.639  26.034  1.00  0.00     0.023 A 
ATOM     73  C   UNL A   1      50.422  25.911  26.882  1.00  0.00     0.012 A 
ATOM     74  C   UNL A   1      50.037  27.047  24.772  1.00  0.00     0.148 A 
ATOM     75  C   UNL A   1      51.731  25.620  26.497  1.00  0.00     0.002 A 
ATOM     76  C   UNL A   1      51.328  26.712  24.373  1.00  0.00     0.091 A 
ATOM     77  F   UNL A   1      49.218  27.756  23.982  1.00  0.00    -0.205 F 
ATOM     78  C   UNL A   1      52.181  26.011  25.240  1.00  0.00     0.022 A 
BRANCH  76  79
ATOM     79  S   UNL A   1      51.934  27.075  22.722  1.00  0.00     0.127 S 
ATOM     80  O   UNL A   1      52.500  28.410  22.896  1.00  0.00    -0.237 OA
ATOM     81  O   UNL A   1      52.918  26.012  22.509  1.00  0.00    -0.237 OA
ATOM     82  O   UNL A   1      50.762  26.979  21.860  1.00  0.00    -0.744 OA
ENDBRANCH  76  79
ENDBRANCH  48  72
BRANCH  60  83
ATOM     83  C   UNL A   1      46.501  32.362  28.605  1.00  0.00     0.023 A 
ATOM     84  C   UNL A   1      47.010  32.651  29.884  1.00  0.00     0.012 A 
ATOM     85  C   UNL A   1      46.566  33.338  27.591  1.00  0.00     0.148 A 
ATOM     86  C   UNL A   1      47.563  33.900  30.158  1.00  0.00     0.002 A 
ATOM     87  C   UNL A   1      47.156  34.567  27.860  1.00  0.00     0.091 A 
ATOM     88  F   UNL A   1      46.055  33.047  26.387  1.00  0.00    -0.205 F 
ATOM     89  C   UNL A   1      47.649  34.852  29.144  1.00  0.00     0.022 A 
BRANCH  87  90
ATOM     90  S   UNL A   1      47.387  35.816  26.589  1.00  0.00     0.127 S 
ATOM     91  O   UNL A   1      48.070  35.055  25.544  1.00  0.00    -0.237 OA
ATOM     92  O   UNL A   1      46.011  36.196  26.267  1.00  0.00    -0.237 OA
ATOM     93  O   UNL A   1      48.172  36.874  27.211  1.00  0.00    -0.744 OA
ENDBRANCH  87  90
ENDBRANCH  60  83
ENDBRANCH  34  35
ENDBRANCH  26  29
ENDBRANCH  24  25
ENDBRANCH  23  24
ENDBRANCH   1  23
TORSDOF 19
ENDMDL
MODEL 3
REMARK VINA RESULT:     -11.1      1.751      7.990
REMARK SMILES CC(C)[C@H]([NH2+]Cc1ccc(O)cn1)C(=O)NCCCCNC(=O)c1ccc(-c2c3nc(c(-c4cccc(S(=O)(=O)[O-])c4F)c4ccc([nH]4)c(-c4cccc(S(=O)(=O)[O-])c4F)c4nc(c(-c5cccc(S(=O)(=O)[O-])c5F)c5ccc2[nH]5)C=C4)C=C3)cc1
REMARK SMILES IDX 18 1 17 2 16 3 14 4 15 5 4 7 2 8 1 9 3 10 5 11 6 14 7 15
REMARK SMILES IDX 8 16 13 17 9 18 12 19 10 20 11 21 19 23 20 24 21 25 22 26
REMARK SMILES IDX 23 28 24 29 25 30 86 31 26 32 85 33 27 34 28 35 29 36 79 37
REMARK SMILES IDX 30 38 84 39 78 40 80 41 31 42 83 43 77 44 76 45 32 47 64 48
REMARK SMILES IDX 44 49 63 50 45 51 48 52 62 53 81 54 46 55 47 56 61 58 82 59
REMARK SMILES IDX 49 60 33 61 34 62 42 63 35 64 37 65 43 66 36 67 38 68 39 69
REMARK SMILES IDX 40 70 41 71 65 72 66 73 74 74 67 75 69 76 75 77 68 78 70 79
REMARK SMILES IDX 71 80 72 81 73 82 50 83 51 84 59 85 52 86 54 87 60 88 53 89
REMARK SMILES IDX 55 90 56 91 57 92 58 93
REMARK H PARENT 16 6 5 12 5 13 11 22 21 27 80 46 48 57
REMARK Flexibility Score: inf
ROOT
ATOM      1  C   UNL A   1      32.340  29.711  27.259  1.00  0.00     0.023 C 
ENDROOT
BRANCH   1   2
ATOM      2  C   UNL A   1      33.279  28.856  26.415  1.00  0.00     0.116 C 
BRANCH   2   3
ATOM      3  N   UNL A   1      32.845  27.479  26.376  1.00  0.00    -0.351 N 
ATOM      4  C   UNL A   1      32.315  26.747  25.360  1.00  0.00     0.278 C 
ATOM      5  O   UNL A   1      31.982  25.586  25.623  1.00  0.00    -0.268 OA
ATOM      6  H   UNL A   1      32.949  26.990  27.224  1.00  0.00     0.163 HD
BRANCH   4   7
ATOM      7  C   UNL A   1      32.125  27.301  23.918  1.00  0.00     0.275 C 
BRANCH   7   8
ATOM      8  C   UNL A   1      33.359  27.195  22.975  1.00  0.00     0.051 C 
ATOM      9  C   UNL A   1      33.051  26.480  21.653  1.00  0.00     0.014 C 
ATOM     10  C   UNL A   1      33.911  28.593  22.643  1.00  0.00     0.014 C 
ENDBRANCH   7   8
BRANCH   7  11
ATOM     11  N   UNL A   1      31.342  28.567  23.928  1.00  0.00    -0.331 N 
ATOM     12  H   UNL A   1      31.845  29.243  23.353  1.00  0.00     0.347 HD
ATOM     13  H   UNL A   1      31.258  28.816  24.913  1.00  0.00     0.347 HD
BRANCH  11  14
ATOM     14  C   UNL A   1      29.970  28.506  23.435  1.00  0.00     0.318 C 
BRANCH  14  15
ATOM     15  C   UNL A   1      29.467  29.836  22.899  1.00  0.00     0.095 A 
ATOM     16  C   UNL A   1      29.197  30.893  23.767  1.00  0.00     0.033 A 
ATOM     17  N   UNL A   1      29.215  29.912  21.567  1.00  0.00    -0.251 NA
ATOM     18  C   UNL A   1      28.616  32.056  23.262  1.00  0.00     0.050 A 
ATOM     19  C   UNL A   1      28.660  31.055  21.099  1.00  0.00     0.157 A 
ATOM     20  C   UNL A   1      28.333  32.130  21.906  1.00  0.00     0.133 A 
BRANCH  20  21
ATOM     21  O   UNL A   1      27.734  33.223  21.356  1.00  0.00    -0.506 OA
ATOM     22  H   UNL A   1      27.278  33.831  21.904  1.00  0.00     0.293 HD
ENDBRANCH  20  21
ENDBRANCH  14  15
ENDBRANCH  11  14
ENDBRANCH   7  11
ENDBRANCH   4   7
ENDBRANCH   2   3
ENDBRANCH   1   2
BRANCH   1  23
ATOM     23  C   UNL A   1      32.200  31.163  26.804  1.00  0.00     0.023 C 
BRANCH  23  24
ATOM     24  C   UNL A   1      33.200  32.128  27.424  1.00  0.00     0.116 C 
BRANCH  24  25
ATOM     25  N   UNL A   1      32.702  33.491  27.558  1.00  0.00    -0.352 N 
ATOM     26  C   UNL A   1      33.159  34.461  28.423  1.00  0.00     0.251 C 
ATOM     27  H   UNL A   1      31.958  33.747  26.966  1.00  0.00     0.163 HD
ATOM     28  O   UNL A   1      32.612  35.552  28.502  1.00  0.00    -0.269 OA
BRANCH  26  29
ATOM     29  C   UNL A   1      34.302  34.125  29.296  1.00  0.00     0.039 A 
ATOM     30  C   UNL A   1      34.077  33.351  30.437  1.00  0.00     0.014 A 
ATOM     31  C   UNL A   1      35.597  34.480  28.915  1.00  0.00     0.014 A 
ATOM     32  C   UNL A   1      35.169  32.864  31.160  1.00  0.00     0.010 A 
ATOM     33  C   UNL A   1      36.680  33.943  29.597  1.00  0.00     0.010 A 
ATOM     34  C   UNL A   1      36.477  33.125  30.721  1.00  0.00    -0.014 A 
BRANCH  34  35
ATOM     35  C   UNL A   1      37.664  32.562  31.411  1.00  0.00     0.031 A 
ATOM     36  C   UNL A   1      38.407  31.418  30.780  1.00  0.00     0.074 A 
ATOM     37  C   UNL A   1      37.991  32.991  32.645  1.00  0.00     0.049 A 
ATOM     38  N   UNL A   1      39.354  30.672  31.282  1.00  0.00    -0.248 NA
ATOM     39  C   UNL A   1      38.005  31.041  29.414  1.00  0.00     0.031 C 
ATOM     40  C   UNL A   1      37.304  34.051  33.389  1.00  0.00     0.029 A 
ATOM     41  N   UNL A   1      38.968  32.563  33.510  1.00  0.00    -0.354 N 
ATOM     42  C   UNL A   1      39.626  29.709  30.318  1.00  0.00     0.074 A 
ATOM     43  C   UNL A   1      38.728  29.950  29.211  1.00  0.00     0.031 C 
ATOM     44  C   UNL A   1      37.880  34.188  34.595  1.00  0.00     0.029 A 
ATOM     45  C   UNL A   1      38.957  33.211  34.724  1.00  0.00     0.049 A 
ATOM     46  H   UNL A   1      39.616  31.857  33.283  1.00  0.00     0.167 HD
ATOM     47  C   UNL A   1      40.560  28.729  30.341  1.00  0.00     0.034 A 
ATOM     48  C   UNL A   1      39.725  33.031  35.816  1.00  0.00     0.034 A 
ATOM     49  C   UNL A   1      41.497  28.539  31.412  1.00  0.00     0.049 A 
ATOM     50  C   UNL A   1      40.805  31.982  35.783  1.00  0.00     0.074 A 
ATOM     51  C   UNL A   1      42.519  27.613  31.508  1.00  0.00     0.029 A 
ATOM     52  N   UNL A   1      41.538  29.305  32.567  1.00  0.00    -0.354 N 
ATOM     53  N   UNL A   1      41.123  31.157  34.815  1.00  0.00    -0.248 NA
ATOM     54  C   UNL A   1      41.656  31.863  36.976  1.00  0.00     0.031 C 
ATOM     55  C   UNL A   1      43.190  27.829  32.717  1.00  0.00     0.029 A 
ATOM     56  C   UNL A   1      42.583  28.889  33.372  1.00  0.00     0.049 A 
ATOM     57  H   UNL A   1      40.917  30.037  32.782  1.00  0.00     0.167 HD
ATOM     58  C   UNL A   1      42.235  30.455  35.263  1.00  0.00     0.074 A 
ATOM     59  C   UNL A   1      42.544  30.958  36.585  1.00  0.00     0.031 C 
ATOM     60  C   UNL A   1      42.928  29.467  34.644  1.00  0.00     0.034 A 
BRANCH  47  61
ATOM     61  C   UNL A   1      40.664  27.841  29.131  1.00  0.00     0.023 A 
ATOM     62  C   UNL A   1      39.822  26.713  29.035  1.00  0.00     0.012 A 
ATOM     63  C   UNL A   1      41.550  28.137  28.078  1.00  0.00     0.148 A 
ATOM     64  C   UNL A   1      39.883  25.876  27.923  1.00  0.00     0.002 A 
ATOM     65  C   UNL A   1      41.577  27.318  26.954  1.00  0.00     0.091 A 
ATOM     66  F   UNL A   1      42.360  29.198  28.201  1.00  0.00    -0.205 F 
ATOM     67  C   UNL A   1      40.751  26.183  26.880  1.00  0.00     0.022 A 
BRANCH  65  68
ATOM     68  S   UNL A   1      42.612  27.669  25.529  1.00  0.00     0.127 S 
ATOM     69  O   UNL A   1      42.376  26.493  24.695  1.00  0.00    -0.237 OA
ATOM     70  O   UNL A   1      42.026  28.908  25.016  1.00  0.00    -0.237 OA
ATOM     71  O   UNL A   1      43.966  27.812  26.048  1.00  0.00    -0.744 OA
ENDBRANCH  65  68
ENDBRANCH  47  61
BRANCH  48  72
ATOM     72  C   UNL A   1      39.568  33.925  36.999  1.00  0.00     0.023 A 
ATOM     73  C   UNL A   1      39.984  35.267  36.897  1.00  0.00     0.012 A 
ATOM     74  C   UNL A   1      39.003  33.473  38.206  1.00  0.00     0.148 A 
ATOM     75  C   UNL A   1      39.870  36.134  37.984  1.00  0.00     0.002 A 
ATOM     76  C   UNL A   1      38.847  34.356  39.271  1.00  0.00     0.091 A 
ATOM     77  F   UNL A   1      38.629  32.188  38.295  1.00  0.00    -0.205 F 
ATOM     78  C   UNL A   1      39.293  35.683  39.167  1.00  0.00     0.022 A 
BRANCH  76  79
ATOM     79  S   UNL A   1      38.002  33.877  40.782  1.00  0.00     0.127 S 
ATOM     80  O   UNL A   1      37.904  35.151  41.489  1.00  0.00    -0.237 OA
ATOM     81  O   UNL A   1      36.730  33.354  40.276  1.00  0.00    -0.237 OA
ATOM     82  O   UNL A   1      38.858  32.867  41.389  1.00  0.00    -0.744 OA
ENDBRANCH  76  79
ENDBRANCH  48  72
BRANCH  60  83
ATOM     83  C   UNL A   1      44.125  28.898  35.352  1.00  0.00     0.023 A 
ATOM     84  C   UNL A   1      45.385  29.501  35.185  1.00  0.00     0.012 A 
ATOM     85  C   UNL A   1      43.978  27.834  36.264  1.00  0.00     0.148 A 
ATOM     86  C   UNL A   1      46.489  29.043  35.903  1.00  0.00     0.002 A 
ATOM     87  C   UNL A   1      45.073  27.408  37.005  1.00  0.00     0.091 A 
ATOM     88  F   UNL A   1      42.773  27.260  36.390  1.00  0.00    -0.205 F 
ATOM     89  C   UNL A   1      46.330  28.008  36.822  1.00  0.00     0.022 A 
BRANCH  87  90
ATOM     90  S   UNL A   1      44.937  26.143  38.273  1.00  0.00     0.127 S 
ATOM     91  O   UNL A   1      43.954  26.732  39.179  1.00  0.00    -0.237 OA
ATOM     92  O   UNL A   1      44.453  24.988  37.515  1.00  0.00    -0.237 OA
ATOM     93  O   UNL A   1      46.278  25.982  38.819  1.00  0.00    -0.744 OA
ENDBRANCH  87  90
ENDBRANCH  60  83
ENDBRANCH  34  35
ENDBRANCH  26  29
ENDBRANCH  24  25
ENDBRANCH  23  24
ENDBRANCH   1  23
TORSDOF 19
ENDMDL
