MODEL 1
REMARK VINA RESULT:     -13.0      0.000      0.000
REMARK SMILES C[C@@H]1[C@H](C(=O)NCCCCNC(=O)c2ccc(-c3c4nc(c(-c5cccc(S(=O)(=O)[O-])c5F)c5ccc([nH]5)c(-c5cccc(S(=O)(=O)[O-])c5F)c5nc(c(-c6cccc(S(=O)(=O)[O-])c6F)c6ccc3[nH]6)C=C5)C=C4)cc2)CC[N@@H+]1[C@@H](C)c1cc(F)cc(F)c1
REMARK SMILES IDX 9 1 8 2 7 3 6 4 4 5 5 6 3 8 1 9 2 10 79 11 77 12 78 13 80 15
REMARK SMILES IDX 81 16 82 17 83 18 89 19 84 20 87 21 85 22 86 23 88 24 10 25
REMARK SMILES IDX 11 26 12 27 13 29 14 30 15 31 76 32 16 33 75 34 17 35 18 36
REMARK SMILES IDX 19 37 69 38 20 39 74 40 68 41 70 42 21 43 73 44 67 45 66 46
REMARK SMILES IDX 22 48 54 49 34 50 53 51 35 52 38 53 52 54 71 55 36 56 37 57
REMARK SMILES IDX 51 59 72 60 39 61 23 62 24 63 32 64 25 65 27 66 33 67 26 68
REMARK SMILES IDX 28 69 29 70 30 71 31 72 55 73 56 74 64 75 57 76 59 77 65 78
REMARK SMILES IDX 58 79 60 80 61 81 62 82 63 83 40 84 41 85 49 86 42 87 44 88
REMARK SMILES IDX 50 89 43 90 45 91 46 92 47 93 48 94
REMARK H PARENT 6 7 79 14 11 28 70 47 38 58
REMARK Flexibility Score: inf
ROOT
ATOM      1  C   UNL A   1      35.501  21.584  24.830  1.00  0.00     0.023 C 
ENDROOT
BRANCH   1   2
ATOM      2  C   UNL A   1      34.718  22.592  24.004  1.00  0.00     0.023 C 
BRANCH   2   3
ATOM      3  C   UNL A   1      34.162  23.783  24.781  1.00  0.00     0.116 C 
BRANCH   3   4
ATOM      4  N   UNL A   1      33.563  23.377  26.033  1.00  0.00    -0.356 N 
ATOM      5  C   UNL A   1      32.273  23.421  26.454  1.00  0.00     0.229 C 
ATOM      6  O   UNL A   1      32.054  23.063  27.616  1.00  0.00    -0.275 OA
ATOM      7  H   UNL A   1      34.197  23.008  26.690  1.00  0.00     0.163 HD
BRANCH   5   8
ATOM      8  C   UNL A   1      31.107  23.867  25.577  1.00  0.00     0.142 C 
ATOM      9  C   UNL A   1      31.632  26.362  26.210  1.00  0.00     0.076 C 
ATOM     10  C   UNL A   1      30.762  25.365  25.458  1.00  0.00     0.194 C 
ATOM     11  N   UNL A   1      30.488  25.598  24.035  1.00  0.00    -0.326 N 
ATOM     12  C   UNL A   1      31.096  23.308  24.159  1.00  0.00     0.081 C 
ATOM     13  C   UNL A   1      30.316  24.329  23.348  1.00  0.00     0.264 C 
ATOM     14  H   UNL A   1      29.610  26.115  24.058  1.00  0.00     0.348 HD
BRANCH  11  15
ATOM     15  C   UNL A   1      30.987  26.753  23.295  1.00  0.00     0.212 C 
ATOM     16  C   UNL A   1      31.753  26.401  22.012  1.00  0.00     0.081 C 
BRANCH  15  17
ATOM     17  C   UNL A   1      29.866  27.769  23.053  1.00  0.00     0.015 A 
ATOM     18  C   UNL A   1      28.540  27.571  23.474  1.00  0.00     0.049 A 
ATOM     19  C   UNL A   1      30.166  28.956  22.361  1.00  0.00     0.049 A 
ATOM     20  C   UNL A   1      27.557  28.514  23.181  1.00  0.00     0.126 A 
ATOM     21  C   UNL A   1      29.167  29.887  22.086  1.00  0.00     0.126 A 
ATOM     22  F   UNL A   1      26.296  28.289  23.575  1.00  0.00    -0.207 F 
ATOM     23  C   UNL A   1      27.857  29.673  22.485  1.00  0.00     0.078 A 
ATOM     24  F   UNL A   1      29.476  31.007  21.418  1.00  0.00    -0.207 F 
ENDBRANCH  15  17
ENDBRANCH  11  15
ENDBRANCH   5   8
ENDBRANCH   3   4
ENDBRANCH   2   3
ENDBRANCH   1   2
BRANCH   1  25
ATOM     25  C   UNL A   1      36.842  22.081  25.345  1.00  0.00     0.116 C 
BRANCH  25  26
ATOM     26  N   UNL A   1      37.838  21.028  25.511  1.00  0.00    -0.352 N 
ATOM     27  C   UNL A   1      39.107  21.124  26.032  1.00  0.00     0.251 C 
ATOM     28  H   UNL A   1      37.565  20.130  25.209  1.00  0.00     0.163 HD
ATOM     29  O   UNL A   1      39.862  20.157  26.018  1.00  0.00    -0.269 OA
BRANCH  27  30
ATOM     30  C   UNL A   1      39.555  22.421  26.576  1.00  0.00     0.039 A 
ATOM     31  C   UNL A   1      40.602  22.452  27.500  1.00  0.00     0.014 A 
ATOM     32  C   UNL A   1      38.994  23.608  26.098  1.00  0.00     0.014 A 
ATOM     33  C   UNL A   1      41.142  23.681  27.883  1.00  0.00     0.010 A 
ATOM     34  C   UNL A   1      39.597  24.819  26.403  1.00  0.00     0.010 A 
ATOM     35  C   UNL A   1      40.671  24.871  27.305  1.00  0.00    -0.014 A 
BRANCH  35  36
ATOM     36  C   UNL A   1      41.262  26.192  27.634  1.00  0.00     0.031 A 
ATOM     37  C   UNL A   1      42.671  26.501  27.206  1.00  0.00     0.074 A 
ATOM     38  C   UNL A   1      40.582  27.061  28.409  1.00  0.00     0.049 A 
ATOM     39  N   UNL A   1      43.410  27.541  27.485  1.00  0.00    -0.248 NA
ATOM     40  C   UNL A   1      43.357  25.481  26.392  1.00  0.00     0.031 C 
ATOM     41  C   UNL A   1      39.246  26.837  28.968  1.00  0.00     0.029 A 
ATOM     42  N   UNL A   1      40.936  28.297  28.886  1.00  0.00    -0.354 N 
ATOM     43  C   UNL A   1      44.657  27.277  26.932  1.00  0.00     0.074 A 
ATOM     44  C   UNL A   1      44.590  25.962  26.338  1.00  0.00     0.031 C 
ATOM     45  C   UNL A   1      38.890  27.904  29.702  1.00  0.00     0.029 A 
ATOM     46  C   UNL A   1      39.979  28.877  29.687  1.00  0.00     0.049 A 
ATOM     47  H   UNL A   1      41.795  28.730  28.676  1.00  0.00     0.167 HD
ATOM     48  C   UNL A   1      45.751  28.074  26.886  1.00  0.00     0.034 A 
ATOM     49  C   UNL A   1      39.978  30.062  30.330  1.00  0.00     0.034 A 
ATOM     50  C   UNL A   1      45.786  29.412  27.404  1.00  0.00     0.049 A 
ATOM     51  C   UNL A   1      41.169  30.970  30.178  1.00  0.00     0.074 A 
ATOM     52  C   UNL A   1      46.806  30.343  27.321  1.00  0.00     0.029 A 
ATOM     53  N   UNL A   1      44.745  30.017  28.093  1.00  0.00    -0.354 N 
ATOM     54  N   UNL A   1      42.282  30.767  29.516  1.00  0.00    -0.248 NA
ATOM     55  C   UNL A   1      41.088  32.288  30.826  1.00  0.00     0.031 C 
ATOM     56  C   UNL A   1      46.380  31.513  27.959  1.00  0.00     0.029 A 
ATOM     57  C   UNL A   1      45.092  31.312  28.431  1.00  0.00     0.049 A 
ATOM     58  H   UNL A   1      43.886  29.587  28.308  1.00  0.00     0.167 HD
ATOM     59  C   UNL A   1      43.015  31.943  29.632  1.00  0.00     0.074 A 
ATOM     60  C   UNL A   1      42.212  32.860  30.415  1.00  0.00     0.031 C 
ATOM     61  C   UNL A   1      44.249  32.232  29.149  1.00  0.00     0.034 A 
BRANCH  48  62
ATOM     62  C   UNL A   1      46.969  27.540  26.179  1.00  0.00     0.023 A 
ATOM     63  C   UNL A   1      47.868  26.711  26.881  1.00  0.00     0.012 A 
ATOM     64  C   UNL A   1      47.211  27.827  24.822  1.00  0.00     0.148 A 
ATOM     65  C   UNL A   1      49.011  26.212  26.259  1.00  0.00     0.002 A 
ATOM     66  C   UNL A   1      48.329  27.289  24.195  1.00  0.00     0.091 A 
ATOM     67  F   UNL A   1      46.361  28.639  24.176  1.00  0.00    -0.205 F 
ATOM     68  C   UNL A   1      49.236  26.493  24.914  1.00  0.00     0.022 A 
BRANCH  66  69
ATOM     69  S   UNL A   1      48.665  27.530  22.447  1.00  0.00     0.127 S 
ATOM     70  O   UNL A   1      47.492  28.292  22.023  1.00  0.00    -0.237 OA
ATOM     71  O   UNL A   1      49.912  28.297  22.472  1.00  0.00    -0.237 OA
ATOM     72  O   UNL A   1      48.788  26.196  21.879  1.00  0.00    -0.744 OA
ENDBRANCH  66  69
ENDBRANCH  48  62
BRANCH  49  73
ATOM     73  C   UNL A   1      38.769  30.500  31.083  1.00  0.00     0.023 A 
ATOM     74  C   UNL A   1      38.707  30.268  32.471  1.00  0.00     0.012 A 
ATOM     75  C   UNL A   1      37.705  31.172  30.452  1.00  0.00     0.148 A 
ATOM     76  C   UNL A   1      37.596  30.668  33.213  1.00  0.00     0.002 A 
ATOM     77  C   UNL A   1      36.622  31.614  31.207  1.00  0.00     0.091 A 
ATOM     78  F   UNL A   1      37.775  31.376  29.130  1.00  0.00    -0.205 F 
ATOM     79  C   UNL A   1      36.558  31.350  32.584  1.00  0.00     0.022 A 
BRANCH  77  80
ATOM     80  S   UNL A   1      35.303  32.612  30.503  1.00  0.00     0.127 S 
ATOM     81  O   UNL A   1      36.013  33.837  30.146  1.00  0.00    -0.237 OA
ATOM     82  O   UNL A   1      34.875  31.793  29.368  1.00  0.00    -0.237 OA
ATOM     83  O   UNL A   1      34.307  32.739  31.558  1.00  0.00    -0.744 OA
ENDBRANCH  77  80
ENDBRANCH  49  73
BRANCH  61  84
ATOM     84  C   UNL A   1      44.797  33.609  29.411  1.00  0.00     0.023 A 
ATOM     85  C   UNL A   1      45.488  33.868  30.610  1.00  0.00     0.012 A 
ATOM     86  C   UNL A   1      44.706  34.615  28.429  1.00  0.00     0.148 A 
ATOM     87  C   UNL A   1      46.059  35.118  30.841  1.00  0.00     0.002 A 
ATOM     88  C   UNL A   1      45.316  35.845  28.648  1.00  0.00     0.091 A 
ATOM     89  F   UNL A   1      44.025  34.354  27.304  1.00  0.00    -0.205 F 
ATOM     90  C   UNL A   1      45.984  36.102  29.856  1.00  0.00     0.022 A 
BRANCH  88  91
ATOM     91  S   UNL A   1      45.350  37.129  27.392  1.00  0.00     0.127 S 
ATOM     92  O   UNL A   1      43.925  37.337  27.139  1.00  0.00    -0.237 OA
ATOM     93  O   UNL A   1      46.013  38.233  28.087  1.00  0.00    -0.237 OA
ATOM     94  O   UNL A   1      46.112  36.576  26.280  1.00  0.00    -0.744 OA
ENDBRANCH  88  91
ENDBRANCH  61  84
ENDBRANCH  35  36
ENDBRANCH  27  30
ENDBRANCH  25  26
ENDBRANCH   1  25
TORSDOF 16
ENDMDL
MODEL 2
REMARK VINA RESULT:     -12.9      5.467     10.402
REMARK SMILES C[C@@H]1[C@H](C(=O)NCCCCNC(=O)c2ccc(-c3c4nc(c(-c5cccc(S(=O)(=O)[O-])c5F)c5ccc([nH]5)c(-c5cccc(S(=O)(=O)[O-])c5F)c5nc(c(-c6cccc(S(=O)(=O)[O-])c6F)c6ccc3[nH]6)C=C5)C=C4)cc2)CC[N@@H+]1[C@@H](C)c1cc(F)cc(F)c1
REMARK SMILES IDX 9 1 8 2 7 3 6 4 4 5 5 6 3 8 1 9 2 10 79 11 77 12 78 13 80 15
REMARK SMILES IDX 81 16 82 17 83 18 89 19 84 20 87 21 85 22 86 23 88 24 10 25
REMARK SMILES IDX 11 26 12 27 13 29 14 30 15 31 76 32 16 33 75 34 17 35 18 36
REMARK SMILES IDX 19 37 69 38 20 39 74 40 68 41 70 42 21 43 73 44 67 45 66 46
REMARK SMILES IDX 22 48 54 49 34 50 53 51 35 52 38 53 52 54 71 55 36 56 37 57
REMARK SMILES IDX 51 59 72 60 39 61 23 62 24 63 32 64 25 65 27 66 33 67 26 68
REMARK SMILES IDX 28 69 29 70 30 71 31 72 55 73 56 74 64 75 57 76 59 77 65 78
REMARK SMILES IDX 58 79 60 80 61 81 62 82 63 83 40 84 41 85 49 86 42 87 44 88
REMARK SMILES IDX 50 89 43 90 45 91 46 92 47 93 48 94
REMARK H PARENT 6 7 79 14 11 28 70 47 38 58
REMARK Flexibility Score: inf
ROOT
ATOM      1  C   UNL A   1      31.571  29.234  25.249  1.00  0.00     0.023 C 
ENDROOT
BRANCH   1   2
ATOM      2  C   UNL A   1      31.384  27.730  25.375  1.00  0.00     0.023 C 
BRANCH   2   3
ATOM      3  C   UNL A   1      32.607  26.888  25.019  1.00  0.00     0.116 C 
BRANCH   3   4
ATOM      4  N   UNL A   1      33.101  27.185  23.694  1.00  0.00    -0.356 N 
ATOM      5  C   UNL A   1      33.072  26.451  22.552  1.00  0.00     0.229 C 
ATOM      6  O   UNL A   1      33.637  26.934  21.565  1.00  0.00    -0.275 OA
ATOM      7  H   UNL A   1      33.529  28.067  23.604  1.00  0.00     0.163 HD
BRANCH   5   8
ATOM      8  C   UNL A   1      32.381  25.096  22.429  1.00  0.00     0.142 C 
ATOM      9  C   UNL A   1      34.610  23.931  23.187  1.00  0.00     0.076 C 
ATOM     10  C   UNL A   1      33.162  23.804  22.735  1.00  0.00     0.194 C 
ATOM     11  N   UNL A   1      32.248  22.964  23.519  1.00  0.00    -0.326 N 
ATOM     12  C   UNL A   1      31.041  24.971  23.144  1.00  0.00     0.081 C 
ATOM     13  C   UNL A   1      30.895  23.487  23.432  1.00  0.00     0.264 C 
ATOM     14  H   UNL A   1      32.314  22.062  23.050  1.00  0.00     0.348 HD
BRANCH  11  15
ATOM     15  C   UNL A   1      32.655  22.218  24.707  1.00  0.00     0.212 C 
ATOM     16  C   UNL A   1      31.949  22.651  26.000  1.00  0.00     0.081 C 
BRANCH  15  17
ATOM     17  C   UNL A   1      32.560  20.709  24.460  1.00  0.00     0.015 A 
ATOM     18  C   UNL A   1      32.626  19.753  25.488  1.00  0.00     0.049 A 
ATOM     19  C   UNL A   1      32.415  20.246  23.140  1.00  0.00     0.049 A 
ATOM     20  C   UNL A   1      32.579  18.392  25.192  1.00  0.00     0.126 A 
ATOM     21  C   UNL A   1      32.365  18.880  22.870  1.00  0.00     0.126 A 
ATOM     22  F   UNL A   1      32.667  17.502  26.191  1.00  0.00    -0.207 F 
ATOM     23  C   UNL A   1      32.453  17.944  23.889  1.00  0.00     0.078 A 
ATOM     24  F   UNL A   1      32.235  18.464  21.604  1.00  0.00    -0.207 F 
ENDBRANCH  15  17
ENDBRANCH  11  15
ENDBRANCH   5   8
ENDBRANCH   3   4
ENDBRANCH   2   3
ENDBRANCH   1   2
BRANCH   1  25
ATOM     25  C   UNL A   1      32.671  29.818  26.121  1.00  0.00     0.116 C 
BRANCH  25  26
ATOM     26  N   UNL A   1      32.443  31.207  26.507  1.00  0.00    -0.352 N 
ATOM     27  C   UNL A   1      33.230  32.017  27.291  1.00  0.00     0.251 C 
ATOM     28  H   UNL A   1      31.617  31.616  26.160  1.00  0.00     0.163 HD
ATOM     29  O   UNL A   1      32.852  33.143  27.601  1.00  0.00    -0.269 OA
BRANCH  27  30
ATOM     30  C   UNL A   1      34.520  31.494  27.781  1.00  0.00     0.039 A 
ATOM     31  C   UNL A   1      35.579  32.379  28.000  1.00  0.00     0.014 A 
ATOM     32  C   UNL A   1      34.646  30.142  28.108  1.00  0.00     0.014 A 
ATOM     33  C   UNL A   1      36.739  31.918  28.624  1.00  0.00     0.010 A 
ATOM     34  C   UNL A   1      35.757  29.711  28.818  1.00  0.00     0.010 A 
ATOM     35  C   UNL A   1      36.820  30.590  29.075  1.00  0.00    -0.014 A 
BRANCH  35  36
ATOM     36  C   UNL A   1      38.007  30.078  29.804  1.00  0.00     0.031 A 
ATOM     37  C   UNL A   1      38.280  30.555  31.205  1.00  0.00     0.074 A 
ATOM     38  C   UNL A   1      38.894  29.284  29.172  1.00  0.00     0.049 A 
ATOM     39  N   UNL A   1      39.312  30.322  31.970  1.00  0.00    -0.248 NA
ATOM     40  C   UNL A   1      37.278  31.452  31.808  1.00  0.00     0.031 C 
ATOM     41  C   UNL A   1      38.792  28.831  27.782  1.00  0.00     0.029 A 
ATOM     42  N   UNL A   1      40.075  28.740  29.610  1.00  0.00    -0.354 N 
ATOM     43  C   UNL A   1      39.112  31.083  33.116  1.00  0.00     0.074 A 
ATOM     44  C   UNL A   1      37.882  31.817  32.929  1.00  0.00     0.031 C 
ATOM     45  C   UNL A   1      39.859  28.070  27.486  1.00  0.00     0.029 A 
ATOM     46  C   UNL A   1      40.733  28.000  28.654  1.00  0.00     0.049 A 
ATOM     47  H   UNL A   1      40.421  28.867  30.523  1.00  0.00     0.167 HD
ATOM     48  C   UNL A   1      39.862  31.135  34.242  1.00  0.00     0.034 A 
ATOM     49  C   UNL A   1      41.904  27.336  28.715  1.00  0.00     0.034 A 
ATOM     50  C   UNL A   1      41.038  30.339  34.456  1.00  0.00     0.049 A 
ATOM     51  C   UNL A   1      42.667  27.330  30.013  1.00  0.00     0.074 A 
ATOM     52  C   UNL A   1      41.815  30.237  35.595  1.00  0.00     0.029 A 
ATOM     53  N   UNL A   1      41.599  29.495  33.509  1.00  0.00    -0.354 N 
ATOM     54  N   UNL A   1      42.379  27.931  31.143  1.00  0.00    -0.248 NA
ATOM     55  C   UNL A   1      43.895  26.522  30.060  1.00  0.00     0.031 C 
ATOM     56  C   UNL A   1      42.847  29.328  35.338  1.00  0.00     0.029 A 
ATOM     57  C   UNL A   1      42.706  28.860  34.041  1.00  0.00     0.049 A 
ATOM     58  H   UNL A   1      41.259  29.367  32.594  1.00  0.00     0.167 HD
ATOM     59  C   UNL A   1      43.363  27.542  32.044  1.00  0.00     0.074 A 
ATOM     60  C   UNL A   1      44.247  26.641  31.333  1.00  0.00     0.031 C 
ATOM     61  C   UNL A   1      43.531  27.910  33.338  1.00  0.00     0.034 A 
BRANCH  48  62
ATOM     62  C   UNL A   1      39.380  32.026  35.356  1.00  0.00     0.023 A 
ATOM     63  C   UNL A   1      38.438  31.530  36.280  1.00  0.00     0.012 A 
ATOM     64  C   UNL A   1      39.875  33.335  35.510  1.00  0.00     0.148 A 
ATOM     65  C   UNL A   1      37.962  32.334  37.314  1.00  0.00     0.002 A 
ATOM     66  C   UNL A   1      39.430  34.117  36.571  1.00  0.00     0.091 A 
ATOM     67  F   UNL A   1      40.750  33.801  34.608  1.00  0.00    -0.205 F 
ATOM     68  C   UNL A   1      38.465  33.623  37.465  1.00  0.00     0.022 A 
BRANCH  66  69
ATOM     69  S   UNL A   1      40.075  35.762  36.894  1.00  0.00     0.127 S 
ATOM     70  O   UNL A   1      39.646  36.488  35.700  1.00  0.00    -0.237 OA
ATOM     71  O   UNL A   1      39.371  36.137  38.121  1.00  0.00    -0.237 OA
ATOM     72  O   UNL A   1      41.514  35.600  37.049  1.00  0.00    -0.744 OA
ENDBRANCH  66  69
ENDBRANCH  48  62
BRANCH  49  73
ATOM     73  C   UNL A   1      42.368  26.535  27.548  1.00  0.00     0.023 A 
ATOM     74  C   UNL A   1      43.195  27.146  26.585  1.00  0.00     0.012 A 
ATOM     75  C   UNL A   1      42.035  25.175  27.401  1.00  0.00     0.148 A 
ATOM     76  C   UNL A   1      43.655  26.429  25.481  1.00  0.00     0.002 A 
ATOM     77  C   UNL A   1      42.540  24.452  26.325  1.00  0.00     0.091 A 
ATOM     78  F   UNL A   1      41.240  24.611  28.321  1.00  0.00    -0.205 F 
ATOM     79  C   UNL A   1      43.338  25.080  25.355  1.00  0.00     0.022 A 
BRANCH  77  80
ATOM     80  S   UNL A   1      42.287  22.680  26.154  1.00  0.00     0.127 S 
ATOM     81  O   UNL A   1      40.832  22.592  26.072  1.00  0.00    -0.237 OA
ATOM     82  O   UNL A   1      42.993  22.392  24.904  1.00  0.00    -0.237 OA
ATOM     83  O   UNL A   1      42.896  22.085  27.335  1.00  0.00    -0.744 OA
ENDBRANCH  77  80
ENDBRANCH  49  73
BRANCH  61  84
ATOM     84  C   UNL A   1      44.686  27.310  34.092  1.00  0.00     0.023 A 
ATOM     85  C   UNL A   1      45.944  27.943  34.060  1.00  0.00     0.012 A 
ATOM     86  C   UNL A   1      44.500  26.174  34.904  1.00  0.00     0.148 A 
ATOM     87  C   UNL A   1      47.009  27.438  34.804  1.00  0.00     0.002 A 
ATOM     88  C   UNL A   1      45.554  25.703  35.677  1.00  0.00     0.091 A 
ATOM     89  F   UNL A   1      43.301  25.575  34.903  1.00  0.00    -0.205 F 
ATOM     90  C   UNL A   1      46.811  26.327  35.622  1.00  0.00     0.022 A 
BRANCH  88  91
ATOM     91  S   UNL A   1      45.356  24.338  36.829  1.00  0.00     0.127 S 
ATOM     92  O   UNL A   1      44.973  23.246  35.936  1.00  0.00    -0.237 OA
ATOM     93  O   UNL A   1      46.695  24.215  37.406  1.00  0.00    -0.237 OA
ATOM     94  O   UNL A   1      44.333  24.765  37.775  1.00  0.00    -0.744 OA
ENDBRANCH  88  91
ENDBRANCH  61  84
ENDBRANCH  35  36
ENDBRANCH  27  30
ENDBRANCH  25  26
ENDBRANCH   1  25
TORSDOF 16
ENDMDL
MODEL 3
REMARK VINA RESULT:     -12.9      5.260     10.441
REMARK SMILES C[C@@H]1[C@H](C(=O)NCCCCNC(=O)c2ccc(-c3c4nc(c(-c5cccc(S(=O)(=O)[O-])c5F)c5ccc([nH]5)c(-c5cccc(S(=O)(=O)[O-])c5F)c5nc(c(-c6cccc(S(=O)(=O)[O-])c6F)c6ccc3[nH]6)C=C5)C=C4)cc2)CC[N@@H+]1[C@@H](C)c1cc(F)cc(F)c1
REMARK SMILES IDX 9 1 8 2 7 3 6 4 4 5 5 6 3 8 1 9 2 10 79 11 77 12 78 13 80 15
REMARK SMILES IDX 81 16 82 17 83 18 89 19 84 20 87 21 85 22 86 23 88 24 10 25
REMARK SMILES IDX 11 26 12 27 13 29 14 30 15 31 76 32 16 33 75 34 17 35 18 36
REMARK SMILES IDX 19 37 69 38 20 39 74 40 68 41 70 42 21 43 73 44 67 45 66 46
REMARK SMILES IDX 22 48 54 49 34 50 53 51 35 52 38 53 52 54 71 55 36 56 37 57
REMARK SMILES IDX 51 59 72 60 39 61 23 62 24 63 32 64 25 65 27 66 33 67 26 68
REMARK SMILES IDX 28 69 29 70 30 71 31 72 55 73 56 74 64 75 57 76 59 77 65 78
REMARK SMILES IDX 58 79 60 80 61 81 62 82 63 83 40 84 41 85 49 86 42 87 44 88
REMARK SMILES IDX 50 89 43 90 45 91 46 92 47 93 48 94
REMARK H PARENT 6 7 79 14 11 28 70 47 38 58
REMARK Flexibility Score: inf
ROOT
ATOM      1  C   UNL A   1      32.194  29.392  25.407  1.00  0.00     0.023 C 
ENDROOT
BRANCH   1   2
ATOM      2  C   UNL A   1      31.021  29.960  24.623  1.00  0.00     0.023 C 
BRANCH   2   3
ATOM      3  C   UNL A   1      30.649  29.192  23.356  1.00  0.00     0.116 C 
BRANCH   3   4
ATOM      4  N   UNL A   1      29.861  28.016  23.649  1.00  0.00    -0.356 N 
ATOM      5  C   UNL A   1      30.205  26.703  23.682  1.00  0.00     0.229 C 
ATOM      6  O   UNL A   1      29.298  25.894  23.901  1.00  0.00    -0.275 OA
ATOM      7  H   UNL A   1      28.917  28.198  23.861  1.00  0.00     0.163 HD
BRANCH   5   8
ATOM      8  C   UNL A   1      31.629  26.192  23.478  1.00  0.00     0.142 C 
ATOM      9  C   UNL A   1      31.798  25.740  26.060  1.00  0.00     0.076 C 
ATOM     10  C   UNL A   1      32.455  25.714  24.687  1.00  0.00     0.194 C 
ATOM     11  N   UNL A   1      33.126  24.484  24.248  1.00  0.00    -0.326 N 
ATOM     12  C   UNL A   1      31.803  25.137  22.391  1.00  0.00     0.081 C 
ATOM     13  C   UNL A   1      33.042  24.361  22.803  1.00  0.00     0.264 C 
ATOM     14  H   UNL A   1      34.091  24.639  24.539  1.00  0.00     0.348 HD
BRANCH  11  15
ATOM     15  C   UNL A   1      33.221  23.279  25.068  1.00  0.00     0.212 C 
ATOM     16  C   UNL A   1      32.230  22.171  24.682  1.00  0.00     0.081 C 
BRANCH  15  17
ATOM     17  C   UNL A   1      34.668  22.779  25.134  1.00  0.00     0.015 A 
ATOM     18  C   UNL A   1      35.033  21.440  24.916  1.00  0.00     0.049 A 
ATOM     19  C   UNL A   1      35.688  23.696  25.446  1.00  0.00     0.049 A 
ATOM     20  C   UNL A   1      36.362  21.041  25.037  1.00  0.00     0.126 A 
ATOM     21  C   UNL A   1      37.011  23.274  25.556  1.00  0.00     0.126 A 
ATOM     22  F   UNL A   1      36.679  19.752  24.845  1.00  0.00    -0.207 F 
ATOM     23  C   UNL A   1      37.358  21.946  25.360  1.00  0.00     0.078 A 
ATOM     24  F   UNL A   1      37.963  24.165  25.861  1.00  0.00    -0.207 F 
ENDBRANCH  15  17
ENDBRANCH  11  15
ENDBRANCH   5   8
ENDBRANCH   3   4
ENDBRANCH   2   3
ENDBRANCH   1   2
BRANCH   1  25
ATOM     25  C   UNL A   1      32.319  29.905  26.832  1.00  0.00     0.116 C 
BRANCH  25  26
ATOM     26  N   UNL A   1      32.269  31.360  26.942  1.00  0.00    -0.352 N 
ATOM     27  C   UNL A   1      33.211  32.211  27.470  1.00  0.00     0.251 C 
ATOM     28  H   UNL A   1      31.454  31.787  26.592  1.00  0.00     0.163 HD
ATOM     29  O   UNL A   1      32.979  33.411  27.574  1.00  0.00    -0.269 OA
BRANCH  27  30
ATOM     30  C   UNL A   1      34.491  31.647  27.944  1.00  0.00     0.039 A 
ATOM     31  C   UNL A   1      35.586  32.495  28.128  1.00  0.00     0.014 A 
ATOM     32  C   UNL A   1      34.573  30.296  28.288  1.00  0.00     0.014 A 
ATOM     33  C   UNL A   1      36.740  32.000  28.737  1.00  0.00     0.010 A 
ATOM     34  C   UNL A   1      35.682  29.835  28.983  1.00  0.00     0.010 A 
ATOM     35  C   UNL A   1      36.781  30.677  29.207  1.00  0.00    -0.014 A 
BRANCH  35  36
ATOM     36  C   UNL A   1      37.963  30.132  29.920  1.00  0.00     0.031 A 
ATOM     37  C   UNL A   1      38.259  30.589  31.322  1.00  0.00     0.074 A 
ATOM     38  C   UNL A   1      38.827  29.323  29.273  1.00  0.00     0.049 A 
ATOM     39  N   UNL A   1      39.292  30.326  32.076  1.00  0.00    -0.248 NA
ATOM     40  C   UNL A   1      37.283  31.502  31.943  1.00  0.00     0.031 C 
ATOM     41  C   UNL A   1      38.701  28.886  27.880  1.00  0.00     0.029 A 
ATOM     42  N   UNL A   1      39.999  28.749  29.695  1.00  0.00    -0.354 N 
ATOM     43  C   UNL A   1      39.119  31.079  33.230  1.00  0.00     0.074 A 
ATOM     44  C   UNL A   1      37.905  31.843  33.061  1.00  0.00     0.031 C 
ATOM     45  C   UNL A   1      39.748  28.104  27.567  1.00  0.00     0.029 A 
ATOM     46  C   UNL A   1      40.631  28.004  28.726  1.00  0.00     0.049 A 
ATOM     47  H   UNL A   1      40.356  28.860  30.605  1.00  0.00     0.167 HD
ATOM     48  C   UNL A   1      39.880  31.104  34.350  1.00  0.00     0.034 A 
ATOM     49  C   UNL A   1      41.787  27.313  28.770  1.00  0.00     0.034 A 
ATOM     50  C   UNL A   1      41.040  30.280  34.546  1.00  0.00     0.049 A 
ATOM     51  C   UNL A   1      42.562  27.278  30.061  1.00  0.00     0.074 A 
ATOM     52  C   UNL A   1      41.824  30.150  35.677  1.00  0.00     0.029 A 
ATOM     53  N   UNL A   1      41.574  29.433  33.586  1.00  0.00    -0.354 N 
ATOM     54  N   UNL A   1      42.297  27.874  31.199  1.00  0.00    -0.248 NA
ATOM     55  C   UNL A   1      43.771  26.442  30.090  1.00  0.00     0.031 C 
ATOM     56  C   UNL A   1      42.833  29.221  35.402  1.00  0.00     0.029 A 
ATOM     57  C   UNL A   1      42.671  28.768  34.102  1.00  0.00     0.049 A 
ATOM     58  H   UNL A   1      41.223  29.321  32.673  1.00  0.00     0.167 HD
ATOM     59  C   UNL A   1      43.280  27.455  32.087  1.00  0.00     0.074 A 
ATOM     60  C   UNL A   1      44.137  26.541  31.361  1.00  0.00     0.031 C 
ATOM     61  C   UNL A   1      43.467  27.807  33.383  1.00  0.00     0.034 A 
BRANCH  48  62
ATOM     62  C   UNL A   1      39.429  31.996  35.476  1.00  0.00     0.023 A 
ATOM     63  C   UNL A   1      38.548  31.485  36.451  1.00  0.00     0.012 A 
ATOM     64  C   UNL A   1      39.892  33.320  35.591  1.00  0.00     0.148 A 
ATOM     65  C   UNL A   1      38.100  32.288  37.499  1.00  0.00     0.002 A 
ATOM     66  C   UNL A   1      39.478  34.102  36.664  1.00  0.00     0.091 A 
ATOM     67  F   UNL A   1      40.708  33.799  34.641  1.00  0.00    -0.205 F 
ATOM     68  C   UNL A   1      38.573  33.593  37.610  1.00  0.00     0.022 A 
BRANCH  66  69
ATOM     69  S   UNL A   1      40.091  35.768  36.936  1.00  0.00     0.127 S 
ATOM     70  O   UNL A   1      41.532  35.543  37.025  1.00  0.00    -0.237 OA
ATOM     71  O   UNL A   1      39.657  36.462  35.722  1.00  0.00    -0.237 OA
ATOM     72  O   UNL A   1      39.449  36.233  38.158  1.00  0.00    -0.744 OA
ENDBRANCH  66  69
ENDBRANCH  48  62
BRANCH  49  73
ATOM     73  C   UNL A   1      42.223  26.513  27.591  1.00  0.00     0.023 A 
ATOM     74  C   UNL A   1      42.989  27.137  26.587  1.00  0.00     0.012 A 
ATOM     75  C   UNL A   1      41.923  25.142  27.473  1.00  0.00     0.148 A 
ATOM     76  C   UNL A   1      43.421  26.421  25.471  1.00  0.00     0.002 A 
ATOM     77  C   UNL A   1      42.401  24.422  26.382  1.00  0.00     0.091 A 
ATOM     78  F   UNL A   1      41.185  24.566  28.432  1.00  0.00    -0.205 F 
ATOM     79  C   UNL A   1      43.137  25.062  25.373  1.00  0.00     0.022 A 
BRANCH  77  80
ATOM     80  S   UNL A   1      42.193  22.642  26.239  1.00  0.00     0.127 S 
ATOM     81  O   UNL A   1      42.832  22.167  27.463  1.00  0.00    -0.237 OA
ATOM     82  O   UNL A   1      40.735  22.508  26.213  1.00  0.00    -0.237 OA
ATOM     83  O   UNL A   1      42.849  22.272  24.993  1.00  0.00    -0.744 OA
ENDBRANCH  77  80
ENDBRANCH  49  73
BRANCH  61  84
ATOM     84  C   UNL A   1      44.616  27.174  34.121  1.00  0.00     0.023 A 
ATOM     85  C   UNL A   1      45.875  27.804  34.124  1.00  0.00     0.012 A 
ATOM     86  C   UNL A   1      44.421  26.007  34.885  1.00  0.00     0.148 A 
ATOM     87  C   UNL A   1      46.933  27.267  34.855  1.00  0.00     0.002 A 
ATOM     88  C   UNL A   1      45.468  25.502  35.646  1.00  0.00     0.091 A 
ATOM     89  F   UNL A   1      43.221  25.411  34.850  1.00  0.00    -0.205 F 
ATOM     90  C   UNL A   1      46.727  26.124  35.626  1.00  0.00     0.022 A 
BRANCH  88  91
ATOM     91  S   UNL A   1      45.257  24.092  36.741  1.00  0.00     0.127 S 
ATOM     92  O   UNL A   1      44.675  23.099  35.840  1.00  0.00    -0.237 OA
ATOM     93  O   UNL A   1      46.632  23.808  37.156  1.00  0.00    -0.237 OA
ATOM     94  O   UNL A   1      44.389  24.552  37.816  1.00  0.00    -0.744 OA
ENDBRANCH  88  91
ENDBRANCH  61  84
ENDBRANCH  35  36
ENDBRANCH  27  30
ENDBRANCH  25  26
ENDBRANCH   1  25
TORSDOF 16
ENDMDL
