MODEL 1
REMARK VINA RESULT:     -12.5      0.000      0.000
REMARK SMILES CCn1ccc2cc(S(=O)(=O)N3CCC[C@@H](C(=O)NCCCCNC(=O)c4ccc(-c5c6nc(c(-c7cccc(S(=O)(=O)[O-])c7F)c7ccc([nH]7)c(-c7cccc(S(=O)(=O)[O-])c7F)c7nc(c(-c8cccc(S(=O)(=O)[O-])c8F)c8ccc5[nH]8)C=C7)C=C6)cc4)C3)ccc21
REMARK SMILES IDX 21 1 20 2 19 3 17 4 18 5 16 7 12 8 13 9 90 10 14 11 15 12
REMARK SMILES IDX 9 13 10 14 11 15 8 16 3 17 4 18 93 19 5 20 6 21 92 22 7 23
REMARK SMILES IDX 91 24 2 25 1 26 22 27 23 28 24 29 25 30 26 32 27 33 28 34
REMARK SMILES IDX 89 35 29 36 88 37 30 38 31 39 32 40 82 41 33 42 87 43 81 44
REMARK SMILES IDX 83 45 34 46 86 47 80 48 79 49 35 51 67 52 47 53 66 54 48 55
REMARK SMILES IDX 51 56 65 57 84 58 49 59 50 60 64 62 85 63 52 64 36 65 37 66
REMARK SMILES IDX 45 67 38 68 40 69 46 70 39 71 41 72 42 73 43 74 44 75 68 76
REMARK SMILES IDX 69 77 77 78 70 79 72 80 78 81 71 82 73 83 74 84 75 85 76 86
REMARK SMILES IDX 53 87 54 88 62 89 55 90 57 91 63 92 56 93 58 94 59 95 60 96
REMARK SMILES IDX 61 97
REMARK H PARENT 19 6 24 31 83 50 51 61
REMARK Flexibility Score: inf
ROOT
ATOM      1  C   UNL A   1      34.161  29.468  27.415  1.00  0.00     0.023 C 
ENDROOT
BRANCH   1   2
ATOM      2  C   UNL A   1      34.330  28.756  26.077  1.00  0.00     0.116 C 
BRANCH   2   3
ATOM      3  N   UNL A   1      33.357  29.217  25.105  1.00  0.00    -0.356 N 
ATOM      4  C   UNL A   1      32.864  28.599  24.001  1.00  0.00     0.224 C 
ATOM      5  O   UNL A   1      32.062  29.211  23.292  1.00  0.00    -0.275 OA
ATOM      6  H   UNL A   1      32.998  30.119  25.270  1.00  0.00     0.163 HD
BRANCH   4   7
ATOM      7  C   UNL A   1      33.277  27.178  23.674  1.00  0.00     0.093 C 
ATOM      8  N   UNL A   1      32.676  24.819  24.293  1.00  0.00    -0.197 NA
ATOM      9  C   UNL A   1      32.568  24.445  22.860  1.00  0.00     0.102 C 
ATOM     10  C   UNL A   1      32.579  26.258  24.666  1.00  0.00     0.116 C 
ATOM     11  C   UNL A   1      33.300  25.414  21.942  1.00  0.00     0.018 C 
ATOM     12  C   UNL A   1      32.906  26.853  22.232  1.00  0.00     0.016 C 
BRANCH   8  13
ATOM     13  S   UNL A   1      31.940  23.735  25.395  1.00  0.00     0.243 S 
ATOM     14  O   UNL A   1      30.556  23.572  24.988  1.00  0.00    -0.207 OA
ATOM     15  O   UNL A   1      32.281  24.169  26.730  1.00  0.00    -0.207 OA
BRANCH  13  16
ATOM     16  C   UNL A   1      32.714  22.140  25.174  1.00  0.00     0.083 A 
ATOM     17  N   UNL A   1      34.911  18.676  24.677  1.00  0.00    -0.348 N 
ATOM     18  C   UNL A   1      36.198  19.131  24.795  1.00  0.00     0.087 A 
ATOM     19  C   UNL A   1      34.026  19.722  24.835  1.00  0.00     0.048 A 
ATOM     20  C   UNL A   1      36.149  20.487  25.028  1.00  0.00     0.028 A 
ATOM     21  C   UNL A   1      34.782  20.877  25.047  1.00  0.00     0.001 A 
ATOM     22  C   UNL A   1      32.628  19.743  24.800  1.00  0.00     0.028 A 
ATOM     23  C   UNL A   1      34.117  22.106  25.228  1.00  0.00     0.032 A 
ATOM     24  C   UNL A   1      31.988  20.968  24.958  1.00  0.00     0.024 A 
BRANCH  17  25
ATOM     25  C   UNL A   1      34.529  17.292  24.451  1.00  0.00     0.119 C 
ATOM     26  C   UNL A   1      34.130  17.014  23.009  1.00  0.00     0.027 C 
ENDBRANCH  17  25
ENDBRANCH  13  16
ENDBRANCH   8  13
ENDBRANCH   4   7
ENDBRANCH   2   3
ENDBRANCH   1   2
BRANCH   1  27
ATOM     27  C   UNL A   1      33.510  30.851  27.324  1.00  0.00     0.023 C 
BRANCH  27  28
ATOM     28  C   UNL A   1      34.356  31.996  27.884  1.00  0.00     0.116 C 
BRANCH  28  29
ATOM     29  N   UNL A   1      34.429  32.028  29.329  1.00  0.00    -0.352 N 
ATOM     30  C   UNL A   1      35.405  31.738  30.244  1.00  0.00     0.251 C 
ATOM     31  H   UNL A   1      33.589  32.324  29.749  1.00  0.00     0.163 HD
ATOM     32  O   UNL A   1      35.171  32.085  31.405  1.00  0.00    -0.269 OA
BRANCH  30  33
ATOM     33  C   UNL A   1      36.638  30.965  29.949  1.00  0.00     0.039 A 
ATOM     34  C   UNL A   1      36.722  29.574  29.892  1.00  0.00     0.014 A 
ATOM     35  C   UNL A   1      37.818  31.722  29.815  1.00  0.00     0.014 A 
ATOM     36  C   UNL A   1      37.960  28.952  29.866  1.00  0.00     0.010 A 
ATOM     37  C   UNL A   1      39.059  31.105  29.759  1.00  0.00     0.010 A 
ATOM     38  C   UNL A   1      39.124  29.721  29.853  1.00  0.00    -0.014 A 
BRANCH  38  39
ATOM     39  C   UNL A   1      40.394  29.014  29.761  1.00  0.00     0.031 A 
ATOM     40  C   UNL A   1      41.023  28.811  31.094  1.00  0.00     0.074 A 
ATOM     41  C   UNL A   1      40.887  28.533  28.600  1.00  0.00     0.049 A 
ATOM     42  N   UNL A   1      42.105  29.355  31.550  1.00  0.00    -0.248 NA
ATOM     43  C   UNL A   1      40.246  28.079  32.112  1.00  0.00     0.031 C 
ATOM     44  C   UNL A   1      40.212  28.484  27.300  1.00  0.00     0.029 A 
ATOM     45  N   UNL A   1      42.052  27.864  28.355  1.00  0.00    -0.354 N 
ATOM     46  C   UNL A   1      42.282  28.793  32.811  1.00  0.00     0.074 A 
ATOM     47  C   UNL A   1      41.023  28.206  33.189  1.00  0.00     0.031 C 
ATOM     48  C   UNL A   1      40.849  27.601  26.498  1.00  0.00     0.029 A 
ATOM     49  C   UNL A   1      42.040  27.120  27.172  1.00  0.00     0.049 A 
ATOM     50  H   UNL A   1      42.829  27.902  28.959  1.00  0.00     0.167 HD
ATOM     51  C   UNL A   1      43.527  28.542  33.297  1.00  0.00     0.034 A 
ATOM     52  C   UNL A   1      42.902  26.124  26.829  1.00  0.00     0.034 A 
ATOM     53  C   UNL A   1      44.540  29.306  32.626  1.00  0.00     0.049 A 
ATOM     54  C   UNL A   1      44.111  26.315  27.662  1.00  0.00     0.074 A 
ATOM     55  C   UNL A   1      44.771  30.648  32.411  1.00  0.00     0.029 A 
ATOM     56  N   UNL A   1      45.293  28.631  31.701  1.00  0.00    -0.354 N 
ATOM     57  N   UNL A   1      44.913  27.336  27.559  1.00  0.00    -0.248 NA
ATOM     58  C   UNL A   1      44.198  25.561  28.902  1.00  0.00     0.031 C 
ATOM     59  C   UNL A   1      45.284  30.724  31.083  1.00  0.00     0.029 A 
ATOM     60  C   UNL A   1      45.407  29.422  30.593  1.00  0.00     0.049 A 
ATOM     61  H   UNL A   1      45.685  27.734  31.815  1.00  0.00     0.167 HD
ATOM     62  C   UNL A   1      45.252  27.627  28.872  1.00  0.00     0.074 A 
ATOM     63  C   UNL A   1      44.871  26.444  29.640  1.00  0.00     0.031 C 
ATOM     64  C   UNL A   1      45.529  28.906  29.250  1.00  0.00     0.034 A 
BRANCH  51  65
ATOM     65  C   UNL A   1      43.848  27.274  34.043  1.00  0.00     0.023 A 
ATOM     66  C   UNL A   1      43.768  26.045  33.361  1.00  0.00     0.012 A 
ATOM     67  C   UNL A   1      43.959  27.227  35.454  1.00  0.00     0.148 A 
ATOM     68  C   UNL A   1      43.821  24.829  34.054  1.00  0.00     0.002 A 
ATOM     69  C   UNL A   1      44.112  26.023  36.125  1.00  0.00     0.091 A 
ATOM     70  F   UNL A   1      43.765  28.339  36.170  1.00  0.00    -0.205 F 
ATOM     71  C   UNL A   1      44.021  24.817  35.432  1.00  0.00     0.022 A 
BRANCH  69  72
ATOM     72  S   UNL A   1      44.422  25.976  37.891  1.00  0.00     0.127 S 
ATOM     73  O   UNL A   1      43.185  26.544  38.418  1.00  0.00    -0.237 OA
ATOM     74  O   UNL A   1      44.598  24.542  38.122  1.00  0.00    -0.237 OA
ATOM     75  O   UNL A   1      45.631  26.765  38.092  1.00  0.00    -0.744 OA
ENDBRANCH  69  72
ENDBRANCH  51  65
BRANCH  52  76
ATOM     76  C   UNL A   1      42.680  24.841  26.100  1.00  0.00     0.023 A 
ATOM     77  C   UNL A   1      43.620  24.446  25.118  1.00  0.00     0.012 A 
ATOM     78  C   UNL A   1      41.771  23.864  26.560  1.00  0.00     0.148 A 
ATOM     79  C   UNL A   1      43.708  23.117  24.679  1.00  0.00     0.002 A 
ATOM     80  C   UNL A   1      41.852  22.547  26.109  1.00  0.00     0.091 A 
ATOM     81  F   UNL A   1      40.886  24.193  27.507  1.00  0.00    -0.205 F 
ATOM     82  C   UNL A   1      42.834  22.164  25.187  1.00  0.00     0.022 A 
BRANCH  80  83
ATOM     83  S   UNL A   1      40.751  21.262  26.718  1.00  0.00     0.127 S 
ATOM     84  O   UNL A   1      40.668  21.580  28.145  1.00  0.00    -0.237 OA
ATOM     85  O   UNL A   1      39.529  21.522  25.962  1.00  0.00    -0.237 OA
ATOM     86  O   UNL A   1      41.420  19.999  26.429  1.00  0.00    -0.744 OA
ENDBRANCH  80  83
ENDBRANCH  52  76
BRANCH  64  87
ATOM     87  C   UNL A   1      45.780  29.930  28.178  1.00  0.00     0.023 A 
ATOM     88  C   UNL A   1      44.750  30.678  27.574  1.00  0.00     0.012 A 
ATOM     89  C   UNL A   1      47.118  30.288  27.953  1.00  0.00     0.148 A 
ATOM     90  C   UNL A   1      45.059  31.780  26.768  1.00  0.00     0.002 A 
ATOM     91  C   UNL A   1      47.418  31.406  27.190  1.00  0.00     0.091 A 
ATOM     92  F   UNL A   1      48.073  29.557  28.547  1.00  0.00    -0.205 F 
ATOM     93  C   UNL A   1      46.392  32.156  26.593  1.00  0.00     0.022 A 
BRANCH  91  94
ATOM     94  S   UNL A   1      49.099  32.007  27.029  1.00  0.00     0.127 S 
ATOM     95  O   UNL A   1      49.438  32.339  28.411  1.00  0.00    -0.237 OA
ATOM     96  O   UNL A   1      49.793  30.836  26.491  1.00  0.00    -0.237 OA
ATOM     97  O   UNL A   1      49.042  33.143  26.117  1.00  0.00    -0.744 OA
ENDBRANCH  91  94
ENDBRANCH  64  87
ENDBRANCH  38  39
ENDBRANCH  30  33
ENDBRANCH  28  29
ENDBRANCH  27  28
ENDBRANCH   1  27
TORSDOF 17
ENDMDL
MODEL 2
REMARK VINA RESULT:     -12.2      2.836      8.631
REMARK SMILES CCn1ccc2cc(S(=O)(=O)N3CCC[C@@H](C(=O)NCCCCNC(=O)c4ccc(-c5c6nc(c(-c7cccc(S(=O)(=O)[O-])c7F)c7ccc([nH]7)c(-c7cccc(S(=O)(=O)[O-])c7F)c7nc(c(-c8cccc(S(=O)(=O)[O-])c8F)c8ccc5[nH]8)C=C7)C=C6)cc4)C3)ccc21
REMARK SMILES IDX 21 1 20 2 19 3 17 4 18 5 16 7 12 8 13 9 90 10 14 11 15 12
REMARK SMILES IDX 9 13 10 14 11 15 8 16 3 17 4 18 93 19 5 20 6 21 92 22 7 23
REMARK SMILES IDX 91 24 2 25 1 26 22 27 23 28 24 29 25 30 26 32 27 33 28 34
REMARK SMILES IDX 89 35 29 36 88 37 30 38 31 39 32 40 82 41 33 42 87 43 81 44
REMARK SMILES IDX 83 45 34 46 86 47 80 48 79 49 35 51 67 52 47 53 66 54 48 55
REMARK SMILES IDX 51 56 65 57 84 58 49 59 50 60 64 62 85 63 52 64 36 65 37 66
REMARK SMILES IDX 45 67 38 68 40 69 46 70 39 71 41 72 42 73 43 74 44 75 68 76
REMARK SMILES IDX 69 77 77 78 70 79 72 80 78 81 71 82 73 83 74 84 75 85 76 86
REMARK SMILES IDX 53 87 54 88 62 89 55 90 57 91 63 92 56 93 58 94 59 95 60 96
REMARK SMILES IDX 61 97
REMARK H PARENT 19 6 24 31 83 50 51 61
REMARK Flexibility Score: inf
ROOT
ATOM      1  C   UNL A   1      36.613  20.812  25.356  1.00  0.00     0.023 C 
ENDROOT
BRANCH   1   2
ATOM      2  C   UNL A   1      35.305  20.576  24.609  1.00  0.00     0.116 C 
BRANCH   2   3
ATOM      3  N   UNL A   1      34.492  19.571  25.267  1.00  0.00    -0.356 N 
ATOM      4  C   UNL A   1      33.145  19.501  25.422  1.00  0.00     0.224 C 
ATOM      5  O   UNL A   1      32.673  18.558  26.062  1.00  0.00    -0.275 OA
ATOM      6  H   UNL A   1      34.994  18.823  25.664  1.00  0.00     0.163 HD
BRANCH   4   7
ATOM      7  C   UNL A   1      32.249  20.550  24.794  1.00  0.00     0.093 C 
ATOM      8  N   UNL A   1      31.784  23.013  24.952  1.00  0.00    -0.197 NA
ATOM      9  C   UNL A   1      31.918  23.158  23.480  1.00  0.00     0.102 C 
ATOM     10  C   UNL A   1      32.393  21.826  25.613  1.00  0.00     0.116 C 
ATOM     11  C   UNL A   1      31.753  21.838  22.742  1.00  0.00     0.018 C 
ATOM     12  C   UNL A   1      32.643  20.759  23.336  1.00  0.00     0.016 C 
BRANCH   8  13
ATOM     13  S   UNL A   1      31.883  24.470  25.848  1.00  0.00     0.243 S 
ATOM     14  O   UNL A   1      33.277  24.876  25.866  1.00  0.00    -0.207 OA
ATOM     15  O   UNL A   1      31.143  24.282  27.074  1.00  0.00    -0.207 OA
BRANCH  13  16
ATOM     16  C   UNL A   1      31.013  25.727  24.924  1.00  0.00     0.083 A 
ATOM     17  N   UNL A   1      29.415  28.836  22.721  1.00  0.00    -0.348 N 
ATOM     18  C   UNL A   1      30.537  29.522  22.334  1.00  0.00     0.087 A 
ATOM     19  C   UNL A   1      29.773  27.733  23.469  1.00  0.00     0.048 A 
ATOM     20  C   UNL A   1      31.634  28.861  22.840  1.00  0.00     0.028 A 
ATOM     21  C   UNL A   1      31.166  27.733  23.568  1.00  0.00     0.001 A 
ATOM     22  C   UNL A   1      28.983  26.748  24.069  1.00  0.00     0.028 A 
ATOM     23  C   UNL A   1      31.799  26.709  24.300  1.00  0.00     0.032 A 
ATOM     24  C   UNL A   1      29.623  25.757  24.807  1.00  0.00     0.024 A 
BRANCH  17  25
ATOM     25  C   UNL A   1      28.051  29.194  22.369  1.00  0.00     0.119 C 
ATOM     26  C   UNL A   1      27.945  30.570  21.730  1.00  0.00     0.027 C 
ENDBRANCH  17  25
ENDBRANCH  13  16
ENDBRANCH   8  13
ENDBRANCH   4   7
ENDBRANCH   2   3
ENDBRANCH   1   2
BRANCH   1  27
ATOM     27  C   UNL A   1      37.785  19.948  24.880  1.00  0.00     0.023 C 
BRANCH  27  28
ATOM     28  C   UNL A   1      38.698  19.435  25.995  1.00  0.00     0.116 C 
BRANCH  28  29
ATOM     29  N   UNL A   1      40.021  19.052  25.550  1.00  0.00    -0.352 N 
ATOM     30  C   UNL A   1      41.291  19.417  25.905  1.00  0.00     0.251 C 
ATOM     31  H   UNL A   1      40.003  18.379  24.833  1.00  0.00     0.163 HD
ATOM     32  O   UNL A   1      42.197  18.718  25.444  1.00  0.00    -0.269 OA
BRANCH  30  33
ATOM     33  C   UNL A   1      41.635  20.624  26.697  1.00  0.00     0.039 A 
ATOM     34  C   UNL A   1      41.258  20.854  28.020  1.00  0.00     0.014 A 
ATOM     35  C   UNL A   1      42.317  21.641  26.001  1.00  0.00     0.014 A 
ATOM     36  C   UNL A   1      41.408  22.113  28.579  1.00  0.00     0.010 A 
ATOM     37  C   UNL A   1      42.498  22.895  26.565  1.00  0.00     0.010 A 
ATOM     38  C   UNL A   1      41.980  23.142  27.829  1.00  0.00    -0.014 A 
BRANCH  38  39
ATOM     39  C   UNL A   1      42.172  24.426  28.489  1.00  0.00     0.031 A 
ATOM     40  C   UNL A   1      41.079  25.387  28.178  1.00  0.00     0.074 A 
ATOM     41  C   UNL A   1      43.186  24.670  29.346  1.00  0.00     0.049 A 
ATOM     42  N   UNL A   1      41.156  26.473  27.478  1.00  0.00    -0.248 NA
ATOM     43  C   UNL A   1      39.699  24.985  28.508  1.00  0.00     0.031 C 
ATOM     44  C   UNL A   1      44.149  23.704  29.881  1.00  0.00     0.029 A 
ATOM     45  N   UNL A   1      43.498  25.810  30.029  1.00  0.00    -0.354 N 
ATOM     46  C   UNL A   1      39.881  27.026  27.539  1.00  0.00     0.074 A 
ATOM     47  C   UNL A   1      38.992  25.983  27.980  1.00  0.00     0.031 C 
ATOM     48  C   UNL A   1      44.742  24.224  30.979  1.00  0.00     0.029 A 
ATOM     49  C   UNL A   1      44.302  25.596  31.152  1.00  0.00     0.049 A 
ATOM     50  H   UNL A   1      43.184  26.702  29.755  1.00  0.00     0.167 HD
ATOM     51  C   UNL A   1      39.703  28.375  27.565  1.00  0.00     0.034 A 
ATOM     52  C   UNL A   1      44.507  26.461  32.182  1.00  0.00     0.034 A 
ATOM     53  C   UNL A   1      40.847  29.086  27.071  1.00  0.00     0.049 A 
ATOM     54  C   UNL A   1      44.159  27.807  31.672  1.00  0.00     0.074 A 
ATOM     55  C   UNL A   1      41.564  29.089  25.893  1.00  0.00     0.029 A 
ATOM     56  N   UNL A   1      41.654  29.662  28.017  1.00  0.00    -0.354 N 
ATOM     57  N   UNL A   1      44.823  28.426  30.738  1.00  0.00    -0.248 NA
ATOM     58  C   UNL A   1      42.811  28.291  31.921  1.00  0.00     0.031 C 
ATOM     59  C   UNL A   1      42.924  29.242  26.293  1.00  0.00     0.029 A 
ATOM     60  C   UNL A   1      42.952  29.398  27.680  1.00  0.00     0.049 A 
ATOM     61  H   UNL A   1      41.353  30.177  28.801  1.00  0.00     0.167 HD
ATOM     62  C   UNL A   1      43.839  29.042  29.981  1.00  0.00     0.074 A 
ATOM     63  C   UNL A   1      42.638  29.013  30.813  1.00  0.00     0.031 C 
ATOM     64  C   UNL A   1      44.014  29.244  28.645  1.00  0.00     0.034 A 
BRANCH  51  65
ATOM     65  C   UNL A   1      38.687  29.025  28.466  1.00  0.00     0.023 A 
ATOM     66  C   UNL A   1      38.636  28.642  29.820  1.00  0.00     0.012 A 
ATOM     67  C   UNL A   1      37.608  29.794  27.969  1.00  0.00     0.148 A 
ATOM     68  C   UNL A   1      37.570  29.031  30.642  1.00  0.00     0.002 A 
ATOM     69  C   UNL A   1      36.607  30.260  28.808  1.00  0.00     0.091 A 
ATOM     70  F   UNL A   1      37.461  29.953  26.649  1.00  0.00    -0.205 F 
ATOM     71  C   UNL A   1      36.570  29.862  30.144  1.00  0.00     0.022 A 
BRANCH  69  72
ATOM     72  S   UNL A   1      35.334  31.373  28.210  1.00  0.00     0.127 S 
ATOM     73  O   UNL A   1      34.683  31.765  29.456  1.00  0.00    -0.237 OA
ATOM     74  O   UNL A   1      36.132  32.417  27.568  1.00  0.00    -0.237 OA
ATOM     75  O   UNL A   1      34.533  30.582  27.284  1.00  0.00    -0.744 OA
ENDBRANCH  69  72
ENDBRANCH  51  65
BRANCH  52  76
ATOM     76  C   UNL A   1      44.660  26.224  33.648  1.00  0.00     0.023 A 
ATOM     77  C   UNL A   1      45.929  26.428  34.241  1.00  0.00     0.012 A 
ATOM     78  C   UNL A   1      43.549  26.121  34.512  1.00  0.00     0.148 A 
ATOM     79  C   UNL A   1      46.073  26.610  35.623  1.00  0.00     0.002 A 
ATOM     80  C   UNL A   1      43.698  26.288  35.889  1.00  0.00     0.091 A 
ATOM     81  F   UNL A   1      42.329  25.956  33.987  1.00  0.00    -0.205 F 
ATOM     82  C   UNL A   1      44.954  26.556  36.445  1.00  0.00     0.022 A 
BRANCH  80  83
ATOM     83  S   UNL A   1      42.296  26.224  37.014  1.00  0.00     0.127 S 
ATOM     84  O   UNL A   1      41.771  24.879  36.774  1.00  0.00    -0.237 OA
ATOM     85  O   UNL A   1      42.937  26.408  38.312  1.00  0.00    -0.237 OA
ATOM     86  O   UNL A   1      41.402  27.295  36.590  1.00  0.00    -0.744 OA
ENDBRANCH  80  83
ENDBRANCH  52  76
BRANCH  64  87
ATOM     87  C   UNL A   1      45.397  29.093  28.076  1.00  0.00     0.023 A 
ATOM     88  C   UNL A   1      46.376  30.104  28.156  1.00  0.00     0.012 A 
ATOM     89  C   UNL A   1      45.766  27.806  27.654  1.00  0.00     0.148 A 
ATOM     90  C   UNL A   1      47.708  29.822  27.833  1.00  0.00     0.002 A 
ATOM     91  C   UNL A   1      47.094  27.520  27.378  1.00  0.00     0.091 A 
ATOM     92  F   UNL A   1      44.810  26.867  27.594  1.00  0.00    -0.205 F 
ATOM     93  C   UNL A   1      48.070  28.526  27.463  1.00  0.00     0.022 A 
BRANCH  91  94
ATOM     94  S   UNL A   1      47.637  25.851  27.016  1.00  0.00     0.127 S 
ATOM     95  O   UNL A   1      48.955  26.081  26.427  1.00  0.00    -0.237 OA
ATOM     96  O   UNL A   1      47.658  25.240  28.345  1.00  0.00    -0.237 OA
ATOM     97  O   UNL A   1      46.646  25.285  26.109  1.00  0.00    -0.744 OA
ENDBRANCH  91  94
ENDBRANCH  64  87
ENDBRANCH  38  39
ENDBRANCH  30  33
ENDBRANCH  28  29
ENDBRANCH  27  28
ENDBRANCH   1  27
TORSDOF 17
ENDMDL
MODEL 3
REMARK VINA RESULT:     -12.1      2.322      2.887
REMARK SMILES CCn1ccc2cc(S(=O)(=O)N3CCC[C@@H](C(=O)NCCCCNC(=O)c4ccc(-c5c6nc(c(-c7cccc(S(=O)(=O)[O-])c7F)c7ccc([nH]7)c(-c7cccc(S(=O)(=O)[O-])c7F)c7nc(c(-c8cccc(S(=O)(=O)[O-])c8F)c8ccc5[nH]8)C=C7)C=C6)cc4)C3)ccc21
REMARK SMILES IDX 21 1 20 2 19 3 17 4 18 5 16 7 12 8 13 9 90 10 14 11 15 12
REMARK SMILES IDX 9 13 10 14 11 15 8 16 3 17 4 18 93 19 5 20 6 21 92 22 7 23
REMARK SMILES IDX 91 24 2 25 1 26 22 27 23 28 24 29 25 30 26 32 27 33 28 34
REMARK SMILES IDX 89 35 29 36 88 37 30 38 31 39 32 40 82 41 33 42 87 43 81 44
REMARK SMILES IDX 83 45 34 46 86 47 80 48 79 49 35 51 67 52 47 53 66 54 48 55
REMARK SMILES IDX 51 56 65 57 84 58 49 59 50 60 64 62 85 63 52 64 36 65 37 66
REMARK SMILES IDX 45 67 38 68 40 69 46 70 39 71 41 72 42 73 43 74 44 75 68 76
REMARK SMILES IDX 69 77 77 78 70 79 72 80 78 81 71 82 73 83 74 84 75 85 76 86
REMARK SMILES IDX 53 87 54 88 62 89 55 90 57 91 63 92 56 93 58 94 59 95 60 96
REMARK SMILES IDX 61 97
REMARK H PARENT 19 6 24 31 83 50 51 61
REMARK Flexibility Score: inf
ROOT
ATOM      1  C   UNL A   1      32.659  29.271  24.434  1.00  0.00     0.023 C 
ENDROOT
BRANCH   1   2
ATOM      2  C   UNL A   1      31.199  29.607  24.717  1.00  0.00     0.116 C 
BRANCH   2   3
ATOM      3  N   UNL A   1      30.518  30.064  23.519  1.00  0.00    -0.356 N 
ATOM      4  C   UNL A   1      29.959  29.353  22.507  1.00  0.00     0.224 C 
ATOM      5  O   UNL A   1      29.463  29.967  21.559  1.00  0.00    -0.275 OA
ATOM      6  H   UNL A   1      30.451  31.041  23.426  1.00  0.00     0.163 HD
BRANCH   4   7
ATOM      7  C   UNL A   1      29.927  27.839  22.564  1.00  0.00     0.093 C 
ATOM      8  N   UNL A   1      31.512  25.890  22.585  1.00  0.00    -0.197 NA
ATOM      9  C   UNL A   1      30.831  25.318  23.774  1.00  0.00     0.102 C 
ATOM     10  C   UNL A   1      31.339  27.339  22.290  1.00  0.00     0.116 C 
ATOM     11  C   UNL A   1      29.424  25.866  23.968  1.00  0.00     0.018 C 
ATOM     12  C   UNL A   1      29.414  27.385  23.926  1.00  0.00     0.016 C 
BRANCH   8  13
ATOM     13  S   UNL A   1      33.073  25.266  22.258  1.00  0.00     0.243 S 
ATOM     14  O   UNL A   1      34.017  26.003  23.079  1.00  0.00    -0.207 OA
ATOM     15  O   UNL A   1      33.225  25.196  20.823  1.00  0.00    -0.207 OA
BRANCH  13  16
ATOM     16  C   UNL A   1      33.110  23.581  22.849  1.00  0.00     0.083 A 
ATOM     17  N   UNL A   1      33.621  19.779  24.385  1.00  0.00    -0.348 N 
ATOM     18  C   UNL A   1      34.824  19.888  25.032  1.00  0.00     0.087 A 
ATOM     19  C   UNL A   1      33.282  20.989  23.815  1.00  0.00     0.048 A 
ATOM     20  C   UNL A   1      35.274  21.181  24.876  1.00  0.00     0.028 A 
ATOM     21  C   UNL A   1      34.314  21.886  24.101  1.00  0.00     0.001 A 
ATOM     22  C   UNL A   1      32.159  21.358  23.068  1.00  0.00     0.028 A 
ATOM     23  C   UNL A   1      34.224  23.207  23.618  1.00  0.00     0.032 A 
ATOM     24  C   UNL A   1      32.098  22.660  22.580  1.00  0.00     0.024 A 
BRANCH  17  25
ATOM     25  C   UNL A   1      32.804  18.578  24.333  1.00  0.00     0.119 C 
ATOM     26  C   UNL A   1      33.484  17.429  23.605  1.00  0.00     0.027 C 
ENDBRANCH  17  25
ENDBRANCH  13  16
ENDBRANCH   8  13
ENDBRANCH   4   7
ENDBRANCH   2   3
ENDBRANCH   1   2
BRANCH   1  27
ATOM     27  C   UNL A   1      33.583  29.365  25.652  1.00  0.00     0.023 C 
BRANCH  27  28
ATOM     28  C   UNL A   1      32.863  29.515  26.993  1.00  0.00     0.116 C 
BRANCH  28  29
ATOM     29  N   UNL A   1      33.027  30.812  27.613  1.00  0.00    -0.352 N 
ATOM     30  C   UNL A   1      34.109  31.557  28.001  1.00  0.00     0.251 C 
ATOM     31  H   UNL A   1      32.170  31.260  27.798  1.00  0.00     0.163 HD
ATOM     32  O   UNL A   1      33.870  32.726  28.313  1.00  0.00    -0.269 OA
BRANCH  30  33
ATOM     33  C   UNL A   1      35.486  31.027  28.162  1.00  0.00     0.039 A 
ATOM     34  C   UNL A   1      35.829  29.676  28.215  1.00  0.00     0.014 A 
ATOM     35  C   UNL A   1      36.493  31.990  28.368  1.00  0.00     0.014 A 
ATOM     36  C   UNL A   1      37.097  29.295  28.623  1.00  0.00     0.010 A 
ATOM     37  C   UNL A   1      37.773  31.615  28.747  1.00  0.00     0.010 A 
ATOM     38  C   UNL A   1      38.047  30.267  28.938  1.00  0.00    -0.014 A 
BRANCH  38  39
ATOM     39  C   UNL A   1      39.382  29.809  29.298  1.00  0.00     0.031 A 
ATOM     40  C   UNL A   1      39.744  30.175  30.695  1.00  0.00     0.074 A 
ATOM     41  C   UNL A   1      40.154  29.069  28.475  1.00  0.00     0.049 A 
ATOM     42  N   UNL A   1      40.640  31.023  31.083  1.00  0.00    -0.248 NA
ATOM     43  C   UNL A   1      38.865  29.694  31.777  1.00  0.00     0.031 C 
ATOM     44  C   UNL A   1      39.769  28.473  27.193  1.00  0.00     0.029 A 
ATOM     45  N   UNL A   1      41.413  28.576  28.665  1.00  0.00    -0.354 N 
ATOM     46  C   UNL A   1      40.620  30.951  32.473  1.00  0.00     0.074 A 
ATOM     47  C   UNL A   1      39.386  30.306  32.841  1.00  0.00     0.031 C 
ATOM     48  C   UNL A   1      40.653  27.504  26.866  1.00  0.00     0.029 A 
ATOM     49  C   UNL A   1      41.729  27.494  27.839  1.00  0.00     0.049 A 
ATOM     50  H   UNL A   1      42.041  28.950  29.325  1.00  0.00     0.167 HD
ATOM     51  C   UNL A   1      41.760  31.102  33.199  1.00  0.00     0.034 A 
ATOM     52  C   UNL A   1      42.752  26.613  28.010  1.00  0.00     0.034 A 
ATOM     53  C   UNL A   1      42.793  31.770  32.461  1.00  0.00     0.049 A 
ATOM     54  C   UNL A   1      43.735  27.281  28.892  1.00  0.00     0.074 A 
ATOM     55  C   UNL A   1      42.907  32.984  31.817  1.00  0.00     0.029 A 
ATOM     56  N   UNL A   1      43.792  30.974  31.964  1.00  0.00    -0.354 N 
ATOM     57  N   UNL A   1      44.418  28.337  28.554  1.00  0.00    -0.248 NA
ATOM     58  C   UNL A   1      43.653  27.008  30.318  1.00  0.00     0.031 C 
ATOM     59  C   UNL A   1      43.669  32.707  30.644  1.00  0.00     0.029 A 
ATOM     60  C   UNL A   1      44.038  31.361  30.677  1.00  0.00     0.049 A 
ATOM     61  H   UNL A   1      44.253  30.250  32.449  1.00  0.00     0.167 HD
ATOM     62  C   UNL A   1      44.446  29.101  29.710  1.00  0.00     0.074 A 
ATOM     63  C   UNL A   1      44.054  28.191  30.783  1.00  0.00     0.031 C 
ATOM     64  C   UNL A   1      44.490  30.461  29.642  1.00  0.00     0.034 A 
BRANCH  51  65
ATOM     65  C   UNL A   1      42.065  30.231  34.389  1.00  0.00     0.023 A 
ATOM     66  C   UNL A   1      42.638  30.820  35.532  1.00  0.00     0.012 A 
ATOM     67  C   UNL A   1      42.061  28.818  34.321  1.00  0.00     0.148 A 
ATOM     68  C   UNL A   1      43.158  30.033  36.568  1.00  0.00     0.002 A 
ATOM     69  C   UNL A   1      42.485  28.043  35.389  1.00  0.00     0.091 A 
ATOM     70  F   UNL A   1      41.787  28.212  33.161  1.00  0.00    -0.205 F 
ATOM     71  C   UNL A   1      43.057  28.645  36.509  1.00  0.00     0.022 A 
BRANCH  69  72
ATOM     72  S   UNL A   1      42.321  26.257  35.367  1.00  0.00     0.127 S 
ATOM     73  O   UNL A   1      40.900  26.099  35.073  1.00  0.00    -0.237 OA
ATOM     74  O   UNL A   1      43.228  25.890  34.280  1.00  0.00    -0.237 OA
ATOM     75  O   UNL A   1      42.761  25.813  36.685  1.00  0.00    -0.744 OA
ENDBRANCH  69  72
ENDBRANCH  51  65
BRANCH  52  76
ATOM     76  C   UNL A   1      42.833  25.142  27.764  1.00  0.00     0.023 A 
ATOM     77  C   UNL A   1      41.755  24.324  28.180  1.00  0.00     0.012 A 
ATOM     78  C   UNL A   1      43.766  24.581  26.867  1.00  0.00     0.148 A 
ATOM     79  C   UNL A   1      41.567  23.037  27.658  1.00  0.00     0.002 A 
ATOM     80  C   UNL A   1      43.584  23.294  26.361  1.00  0.00     0.091 A 
ATOM     81  F   UNL A   1      44.783  25.333  26.431  1.00  0.00    -0.205 F 
ATOM     82  C   UNL A   1      42.473  22.528  26.735  1.00  0.00     0.022 A 
BRANCH  80  83
ATOM     83  S   UNL A   1      44.719  22.570  25.169  1.00  0.00     0.127 S 
ATOM     84  O   UNL A   1      43.993  21.372  24.743  1.00  0.00    -0.237 OA
ATOM     85  O   UNL A   1      44.814  23.619  24.159  1.00  0.00    -0.237 OA
ATOM     86  O   UNL A   1      45.943  22.290  25.911  1.00  0.00    -0.744 OA
ENDBRANCH  80  83
ENDBRANCH  52  76
BRANCH  64  87
ATOM     87  C   UNL A   1      44.835  31.100  28.327  1.00  0.00     0.023 A 
ATOM     88  C   UNL A   1      43.862  31.523  27.399  1.00  0.00     0.012 A 
ATOM     89  C   UNL A   1      46.174  31.479  28.144  1.00  0.00     0.148 A 
ATOM     90  C   UNL A   1      44.226  32.327  26.313  1.00  0.00     0.002 A 
ATOM     91  C   UNL A   1      46.523  32.311  27.092  1.00  0.00     0.091 A 
ATOM     92  F   UNL A   1      47.074  31.063  29.048  1.00  0.00    -0.205 F 
ATOM     93  C   UNL A   1      45.553  32.737  26.171  1.00  0.00     0.022 A 
BRANCH  91  94
ATOM     94  S   UNL A   1      48.183  32.967  26.926  1.00  0.00     0.127 S 
ATOM     95  O   UNL A   1      48.966  31.757  26.680  1.00  0.00    -0.237 OA
ATOM     96  O   UNL A   1      48.049  33.856  25.772  1.00  0.00    -0.237 OA
ATOM     97  O   UNL A   1      48.480  33.650  28.179  1.00  0.00    -0.744 OA
ENDBRANCH  91  94
ENDBRANCH  64  87
ENDBRANCH  38  39
ENDBRANCH  30  33
ENDBRANCH  28  29
ENDBRANCH  27  28
ENDBRANCH   1  27
TORSDOF 17
ENDMDL
