MODEL 1
REMARK VINA RESULT:     -14.4      0.000      0.000
REMARK SMILES Cc1ccc(-c2cc(Cl)cc3c2O[C@H](C(F)(F)F)C(C(=O)NCCCCNC(=O)c2ccc(-c4c5nc(c(-c6cccc(S(=O)(=O)[O-])c6F)c6ccc([nH]6)c(-c6cccc(S(=O)(=O)[O-])c6F)c6nc(c(-c7cccc(S(=O)(=O)[O-])c7F)c7ccc4[nH]7)C=C6)C=C5)cc2)=C3)cc1F
REMARK SMILES IDX 25 1 24 2 23 3 22 4 20 5 21 6 19 8 6 9 7 10 12 11 8 12 11 13
REMARK SMILES IDX 13 14 9 15 10 16 93 17 14 18 5 19 1 20 2 21 3 22 95 23 4 24
REMARK SMILES IDX 94 25 96 26 15 27 16 28 17 29 18 30 26 31 27 32 28 33 29 35
REMARK SMILES IDX 30 36 31 37 92 38 32 39 91 40 33 41 34 42 35 43 85 44 36 45
REMARK SMILES IDX 90 46 84 47 86 48 37 49 89 50 83 51 82 52 38 54 70 55 50 56
REMARK SMILES IDX 69 57 51 58 54 59 68 60 87 61 52 62 53 63 67 65 88 66 55 67
REMARK SMILES IDX 39 68 40 69 48 70 41 71 43 72 49 73 42 74 44 75 45 76 46 77
REMARK SMILES IDX 47 78 71 79 72 80 80 81 73 82 75 83 81 84 74 85 76 86 77 87
REMARK SMILES IDX 78 88 79 89 56 90 57 91 65 92 58 93 60 94 66 95 59 96 61 97
REMARK SMILES IDX 62 98 63 99 64 100
REMARK H PARENT 22 7 27 34 86 53 54 64
REMARK Flexibility Score: inf
ROOT
ATOM      1  C   UNL A   1      32.500  30.330  27.048  1.00  0.00     0.023 C 
ENDROOT
BRANCH   1   2
ATOM      2  C   UNL A   1      32.227  28.852  27.261  1.00  0.00     0.023 C 
BRANCH   2   3
ATOM      3  C   UNL A   1      32.279  28.133  25.938  1.00  0.00     0.116 C 
BRANCH   3   4
ATOM      4  N   UNL A   1      31.057  27.380  25.733  1.00  0.00    -0.352 N 
ATOM      5  C   UNL A   1      30.732  26.103  25.450  1.00  0.00     0.251 C 
ATOM      6  O   UNL A   1      29.529  25.875  25.290  1.00  0.00    -0.270 OA
ATOM      7  H   UNL A   1      30.258  27.949  25.823  1.00  0.00     0.163 HD
BRANCH   5   8
ATOM      8  C   UNL A   1      31.718  24.992  25.377  1.00  0.00     0.067 C 
ATOM      9  C   UNL A   1      34.588  21.950  25.101  1.00  0.00     0.026 A 
ATOM     10  C   UNL A   1      35.938  22.281  25.256  1.00  0.00     0.033 A 
ATOM     11  C   UNL A   1      33.640  22.969  25.287  1.00  0.00     0.135 A 
ATOM     12  C   UNL A   1      36.311  23.590  25.580  1.00  0.00     0.042 A 
ATOM     13  C   UNL A   1      34.006  24.282  25.597  1.00  0.00     0.019 A 
ATOM     14  O   UNL A   1      32.329  22.596  25.210  1.00  0.00    -0.475 OA
ATOM     15  Cl  UNL A   1      37.979  23.976  25.764  1.00  0.00    -0.084 Cl
ATOM     16  C   UNL A   1      35.355  24.592  25.750  1.00  0.00     0.032 A 
ATOM     17  C   UNL A   1      32.973  25.296  25.753  1.00  0.00     0.025 C 
ATOM     18  C   UNL A   1      31.381  23.624  24.862  1.00  0.00     0.314 C 
BRANCH   9  19
ATOM     19  C   UNL A   1      34.153  20.587  24.749  1.00  0.00    -0.012 A 
ATOM     20  C   UNL A   1      33.076  16.631  23.361  1.00  0.00     0.047 C 
ATOM     21  C   UNL A   1      33.421  18.000  23.861  1.00  0.00    -0.015 A 
ATOM     22  C   UNL A   1      32.559  19.085  23.675  1.00  0.00     0.007 A 
ATOM     23  C   UNL A   1      34.643  18.220  24.495  1.00  0.00     0.126 A 
ATOM     24  C   UNL A   1      32.921  20.364  24.117  1.00  0.00     0.009 A 
ATOM     25  C   UNL A   1      35.009  19.489  24.939  1.00  0.00     0.048 A 
ATOM     26  F   UNL A   1      35.496  17.201  24.675  1.00  0.00    -0.207 F 
ENDBRANCH   9  19
BRANCH  18  27
ATOM     27  C   UNL A   1      31.156  23.595  23.336  1.00  0.00     0.429 C 
ATOM     28  F   UNL A   1      31.386  22.363  22.824  1.00  0.00    -0.167 F 
ATOM     29  F   UNL A   1      29.897  23.933  22.969  1.00  0.00    -0.167 F 
ATOM     30  F   UNL A   1      31.979  24.455  22.683  1.00  0.00    -0.167 F 
ENDBRANCH  18  27
ENDBRANCH   5   8
ENDBRANCH   3   4
ENDBRANCH   2   3
ENDBRANCH   1   2
BRANCH   1  31
ATOM     31  C   UNL A   1      33.951  30.757  27.291  1.00  0.00     0.116 C 
BRANCH  31  32
ATOM     32  N   UNL A   1      34.322  31.190  28.636  1.00  0.00    -0.352 N 
ATOM     33  C   UNL A   1      35.541  31.276  29.267  1.00  0.00     0.251 C 
ATOM     34  H   UNL A   1      33.560  31.472  29.191  1.00  0.00     0.163 HD
ATOM     35  O   UNL A   1      35.720  32.134  30.133  1.00  0.00    -0.269 OA
BRANCH  33  36
ATOM     36  C   UNL A   1      36.530  30.193  29.116  1.00  0.00     0.039 A 
ATOM     37  C   UNL A   1      37.022  29.452  30.185  1.00  0.00     0.014 A 
ATOM     38  C   UNL A   1      37.157  30.136  27.865  1.00  0.00     0.014 A 
ATOM     39  C   UNL A   1      38.312  28.948  30.107  1.00  0.00     0.010 A 
ATOM     40  C   UNL A   1      38.402  29.552  27.758  1.00  0.00     0.010 A 
ATOM     41  C   UNL A   1      39.025  29.073  28.906  1.00  0.00    -0.014 A 
BRANCH  41  42
ATOM     42  C   UNL A   1      40.411  28.638  28.792  1.00  0.00     0.031 A 
ATOM     43  C   UNL A   1      40.635  27.192  28.564  1.00  0.00     0.074 A 
ATOM     44  C   UNL A   1      41.440  29.507  28.972  1.00  0.00     0.049 A 
ATOM     45  N   UNL A   1      41.587  26.498  29.084  1.00  0.00    -0.248 NA
ATOM     46  C   UNL A   1      39.679  26.365  27.817  1.00  0.00     0.031 C 
ATOM     47  C   UNL A   1      42.857  29.238  28.766  1.00  0.00     0.029 A 
ATOM     48  N   UNL A   1      41.459  30.793  29.520  1.00  0.00    -0.354 N 
ATOM     49  C   UNL A   1      41.599  25.287  28.421  1.00  0.00     0.074 A 
ATOM     50  C   UNL A   1      40.287  25.175  27.834  1.00  0.00     0.031 C 
ATOM     51  C   UNL A   1      43.582  30.143  29.451  1.00  0.00     0.029 A 
ATOM     52  C   UNL A   1      42.654  30.928  30.248  1.00  0.00     0.049 A 
ATOM     53  H   UNL A   1      40.761  31.479  29.416  1.00  0.00     0.167 HD
ATOM     54  C   UNL A   1      42.788  24.640  28.245  1.00  0.00     0.034 A 
ATOM     55  C   UNL A   1      42.765  31.116  31.607  1.00  0.00     0.034 A 
ATOM     56  C   UNL A   1      43.850  25.362  28.932  1.00  0.00     0.049 A 
ATOM     57  C   UNL A   1      43.563  30.000  32.251  1.00  0.00     0.074 A 
ATOM     58  C   UNL A   1      44.788  26.268  28.468  1.00  0.00     0.029 A 
ATOM     59  N   UNL A   1      43.837  25.470  30.314  1.00  0.00    -0.354 N 
ATOM     60  N   UNL A   1      43.617  28.792  31.760  1.00  0.00    -0.248 NA
ATOM     61  C   UNL A   1      44.331  30.143  33.484  1.00  0.00     0.031 C 
ATOM     62  C   UNL A   1      45.286  26.984  29.582  1.00  0.00     0.029 A 
ATOM     63  C   UNL A   1      44.673  26.488  30.720  1.00  0.00     0.049 A 
ATOM     64  H   UNL A   1      43.306  24.901  30.919  1.00  0.00     0.167 HD
ATOM     65  C   UNL A   1      44.494  28.045  32.504  1.00  0.00     0.074 A 
ATOM     66  C   UNL A   1      44.884  28.922  33.593  1.00  0.00     0.031 C 
ATOM     67  C   UNL A   1      44.863  26.785  32.132  1.00  0.00     0.034 A 
BRANCH  54  68
ATOM     68  C   UNL A   1      43.064  23.593  27.176  1.00  0.00     0.023 A 
ATOM     69  C   UNL A   1      44.046  23.742  26.174  1.00  0.00     0.012 A 
ATOM     70  C   UNL A   1      42.383  22.351  27.181  1.00  0.00     0.148 A 
ATOM     71  C   UNL A   1      44.407  22.703  25.302  1.00  0.00     0.002 A 
ATOM     72  C   UNL A   1      42.742  21.316  26.314  1.00  0.00     0.091 A 
ATOM     73  F   UNL A   1      41.369  22.141  28.032  1.00  0.00    -0.205 F 
ATOM     74  C   UNL A   1      43.763  21.480  25.381  1.00  0.00     0.022 A 
BRANCH  72  75
ATOM     75  S   UNL A   1      41.891  19.739  26.438  1.00  0.00     0.127 S 
ATOM     76  O   UNL A   1      42.227  19.298  27.789  1.00  0.00    -0.237 OA
ATOM     77  O   UNL A   1      40.499  20.091  26.184  1.00  0.00    -0.237 OA
ATOM     78  O   UNL A   1      42.510  18.943  25.376  1.00  0.00    -0.744 OA
ENDBRANCH  72  75
ENDBRANCH  54  68
BRANCH  55  79
ATOM     79  C   UNL A   1      41.548  31.688  32.261  1.00  0.00     0.023 A 
ATOM     80  C   UNL A   1      41.627  33.068  32.478  1.00  0.00     0.012 A 
ATOM     81  C   UNL A   1      40.809  30.883  33.155  1.00  0.00     0.148 A 
ATOM     82  C   UNL A   1      41.393  33.525  33.765  1.00  0.00     0.002 A 
ATOM     83  C   UNL A   1      40.446  31.405  34.391  1.00  0.00     0.091 A 
ATOM     84  F   UNL A   1      40.587  29.597  32.846  1.00  0.00    -0.205 F 
ATOM     85  C   UNL A   1      40.855  32.689  34.738  1.00  0.00     0.022 A 
BRANCH  83  86
ATOM     86  S   UNL A   1      39.558  30.425  35.600  1.00  0.00     0.127 S 
ATOM     87  O   UNL A   1      38.355  30.029  34.877  1.00  0.00    -0.237 OA
ATOM     88  O   UNL A   1      40.507  29.369  35.928  1.00  0.00    -0.237 OA
ATOM     89  O   UNL A   1      39.309  31.380  36.683  1.00  0.00    -0.744 OA
ENDBRANCH  83  86
ENDBRANCH  55  79
BRANCH  67  90
ATOM     90  C   UNL A   1      45.610  25.770  32.964  1.00  0.00     0.023 A 
ATOM     91  C   UNL A   1      47.028  25.859  33.024  1.00  0.00     0.012 A 
ATOM     92  C   UNL A   1      45.027  24.682  33.623  1.00  0.00     0.148 A 
ATOM     93  C   UNL A   1      47.815  24.928  33.702  1.00  0.00     0.002 A 
ATOM     94  C   UNL A   1      45.804  23.828  34.405  1.00  0.00     0.091 A 
ATOM     95  F   UNL A   1      43.726  24.409  33.461  1.00  0.00    -0.205 F 
ATOM     96  C   UNL A   1      47.198  23.922  34.425  1.00  0.00     0.022 A 
BRANCH  94  97
ATOM     97  S   UNL A   1      44.962  22.705  35.518  1.00  0.00     0.127 S 
ATOM     98  O   UNL A   1      45.998  22.405  36.503  1.00  0.00    -0.237 OA
ATOM     99  O   UNL A   1      43.824  23.486  35.992  1.00  0.00    -0.237 OA
ATOM    100  O   UNL A   1      44.604  21.577  34.657  1.00  0.00    -0.744 OA
ENDBRANCH  94  97
ENDBRANCH  67  90
ENDBRANCH  41  42
ENDBRANCH  33  36
ENDBRANCH  31  32
ENDBRANCH   1  31
TORSDOF 16
ENDMDL
MODEL 2
REMARK VINA RESULT:     -14.3      4.521      9.751
REMARK SMILES Cc1ccc(-c2cc(Cl)cc3c2O[C@H](C(F)(F)F)C(C(=O)NCCCCNC(=O)c2ccc(-c4c5nc(c(-c6cccc(S(=O)(=O)[O-])c6F)c6ccc([nH]6)c(-c6cccc(S(=O)(=O)[O-])c6F)c6nc(c(-c7cccc(S(=O)(=O)[O-])c7F)c7ccc4[nH]7)C=C6)C=C5)cc2)=C3)cc1F
REMARK SMILES IDX 25 1 24 2 23 3 22 4 20 5 21 6 19 8 6 9 7 10 12 11 8 12 11 13
REMARK SMILES IDX 13 14 9 15 10 16 93 17 14 18 5 19 1 20 2 21 3 22 95 23 4 24
REMARK SMILES IDX 94 25 96 26 15 27 16 28 17 29 18 30 26 31 27 32 28 33 29 35
REMARK SMILES IDX 30 36 31 37 92 38 32 39 91 40 33 41 34 42 35 43 85 44 36 45
REMARK SMILES IDX 90 46 84 47 86 48 37 49 89 50 83 51 82 52 38 54 70 55 50 56
REMARK SMILES IDX 69 57 51 58 54 59 68 60 87 61 52 62 53 63 67 65 88 66 55 67
REMARK SMILES IDX 39 68 40 69 48 70 41 71 43 72 49 73 42 74 44 75 45 76 46 77
REMARK SMILES IDX 47 78 71 79 72 80 80 81 73 82 75 83 81 84 74 85 76 86 77 87
REMARK SMILES IDX 78 88 79 89 56 90 57 91 65 92 58 93 60 94 66 95 59 96 61 97
REMARK SMILES IDX 62 98 63 99 64 100
REMARK H PARENT 22 7 27 34 86 53 54 64
REMARK Flexibility Score: inf
ROOT
ATOM      1  C   UNL A   1      37.270  22.706  24.915  1.00  0.00     0.023 C 
ENDROOT
BRANCH   1   2
ATOM      2  C   UNL A   1      35.811  22.532  25.294  1.00  0.00     0.023 C 
BRANCH   2   3
ATOM      3  C   UNL A   1      35.403  23.623  26.249  1.00  0.00     0.116 C 
BRANCH   3   4
ATOM      4  N   UNL A   1      34.167  23.262  26.918  1.00  0.00    -0.352 N 
ATOM      5  C   UNL A   1      32.865  23.593  26.810  1.00  0.00     0.251 C 
ATOM      6  O   UNL A   1      32.109  23.087  27.646  1.00  0.00    -0.270 OA
ATOM      7  H   UNL A   1      34.319  22.606  27.637  1.00  0.00     0.163 HD
BRANCH   5   8
ATOM      8  C   UNL A   1      32.317  24.466  25.739  1.00  0.00     0.067 C 
ATOM      9  C   UNL A   1      30.900  26.929  22.656  1.00  0.00     0.026 A 
ATOM     10  C   UNL A   1      31.353  26.704  21.352  1.00  0.00     0.033 A 
ATOM     11  C   UNL A   1      31.318  26.035  23.656  1.00  0.00     0.135 A 
ATOM     12  C   UNL A   1      32.199  25.624  21.075  1.00  0.00     0.042 A 
ATOM     13  C   UNL A   1      32.174  24.962  23.388  1.00  0.00     0.019 A 
ATOM     14  O   UNL A   1      30.794  26.233  24.901  1.00  0.00    -0.475 OA
ATOM     15  Cl  UNL A   1      32.746  25.366  19.463  1.00  0.00    -0.084 Cl
ATOM     16  C   UNL A   1      32.612  24.753  22.084  1.00  0.00     0.032 A 
ATOM     17  C   UNL A   1      32.588  24.088  24.477  1.00  0.00     0.025 C 
ATOM     18  C   UNL A   1      31.557  25.731  26.015  1.00  0.00     0.314 C 
BRANCH   9  19
ATOM     19  C   UNL A   1      30.020  28.060  22.993  1.00  0.00    -0.012 A 
ATOM     20  C   UNL A   1      27.392  31.449  23.581  1.00  0.00     0.047 C 
ATOM     21  C   UNL A   1      28.314  30.282  23.408  1.00  0.00    -0.015 A 
ATOM     22  C   UNL A   1      29.703  30.440  23.428  1.00  0.00     0.007 A 
ATOM     23  C   UNL A   1      27.791  29.009  23.185  1.00  0.00     0.126 A 
ATOM     24  C   UNL A   1      30.546  29.340  23.225  1.00  0.00     0.009 A 
ATOM     25  C   UNL A   1      28.623  27.911  22.985  1.00  0.00     0.048 A 
ATOM     26  F   UNL A   1      26.462  28.830  23.148  1.00  0.00    -0.207 F 
ENDBRANCH   9  19
BRANCH  18  27
ATOM     27  C   UNL A   1      32.455  26.865  26.552  1.00  0.00     0.429 C 
ATOM     28  F   UNL A   1      32.134  27.189  27.827  1.00  0.00    -0.167 F 
ATOM     29  F   UNL A   1      33.773  26.555  26.556  1.00  0.00    -0.167 F 
ATOM     30  F   UNL A   1      32.341  27.999  25.814  1.00  0.00    -0.167 F 
ENDBRANCH  18  27
ENDBRANCH   5   8
ENDBRANCH   3   4
ENDBRANCH   2   3
ENDBRANCH   1   2
BRANCH   1  31
ATOM     31  C   UNL A   1      38.271  22.255  25.984  1.00  0.00     0.116 C 
BRANCH  31  32
ATOM     32  N   UNL A   1      39.686  22.542  25.761  1.00  0.00    -0.352 N 
ATOM     33  C   UNL A   1      40.572  23.353  26.430  1.00  0.00     0.251 C 
ATOM     34  H   UNL A   1      40.075  22.068  24.992  1.00  0.00     0.163 HD
ATOM     35  O   UNL A   1      41.769  23.058  26.456  1.00  0.00    -0.269 OA
BRANCH  33  36
ATOM     36  C   UNL A   1      40.155  24.694  26.878  1.00  0.00     0.039 A 
ATOM     37  C   UNL A   1      40.742  25.870  26.421  1.00  0.00     0.014 A 
ATOM     38  C   UNL A   1      39.319  24.709  28.000  1.00  0.00     0.014 A 
ATOM     39  C   UNL A   1      40.782  26.966  27.269  1.00  0.00     0.010 A 
ATOM     40  C   UNL A   1      39.280  25.831  28.802  1.00  0.00     0.010 A 
ATOM     41  C   UNL A   1      40.109  26.907  28.498  1.00  0.00    -0.014 A 
BRANCH  41  42
ATOM     42  C   UNL A   1      40.186  27.995  29.464  1.00  0.00     0.031 A 
ATOM     43  C   UNL A   1      39.254  29.128  29.262  1.00  0.00     0.074 A 
ATOM     44  C   UNL A   1      41.124  28.000  30.446  1.00  0.00     0.049 A 
ATOM     45  N   UNL A   1      39.541  30.368  29.460  1.00  0.00    -0.248 NA
ATOM     46  C   UNL A   1      37.927  28.946  28.662  1.00  0.00     0.031 C 
ATOM     47  C   UNL A   1      41.236  28.951  31.545  1.00  0.00     0.029 A 
ATOM     48  N   UNL A   1      42.282  27.232  30.602  1.00  0.00    -0.354 N 
ATOM     49  C   UNL A   1      38.347  31.059  29.417  1.00  0.00     0.074 A 
ATOM     50  C   UNL A   1      37.443  30.192  28.706  1.00  0.00     0.031 C 
ATOM     51  C   UNL A   1      42.491  28.921  32.030  1.00  0.00     0.029 A 
ATOM     52  C   UNL A   1      43.273  28.062  31.156  1.00  0.00     0.049 A 
ATOM     53  H   UNL A   1      42.386  26.282  30.366  1.00  0.00     0.167 HD
ATOM     54  C   UNL A   1      38.197  32.172  30.195  1.00  0.00     0.034 A 
ATOM     55  C   UNL A   1      44.454  28.434  30.556  1.00  0.00     0.034 A 
ATOM     56  C   UNL A   1      39.452  32.473  30.873  1.00  0.00     0.049 A 
ATOM     57  C   UNL A   1      44.550  29.942  30.424  1.00  0.00     0.074 A 
ATOM     58  C   UNL A   1      39.891  32.185  32.154  1.00  0.00     0.029 A 
ATOM     59  N   UNL A   1      40.568  32.841  30.138  1.00  0.00    -0.354 N 
ATOM     60  N   UNL A   1      43.502  30.712  30.319  1.00  0.00    -0.248 NA
ATOM     61  C   UNL A   1      45.805  30.685  30.377  1.00  0.00     0.031 C 
ATOM     62  C   UNL A   1      41.301  32.307  32.164  1.00  0.00     0.029 A 
ATOM     63  C   UNL A   1      41.708  32.698  30.901  1.00  0.00     0.049 A 
ATOM     64  H   UNL A   1      40.550  33.160  29.206  1.00  0.00     0.167 HD
ATOM     65  C   UNL A   1      43.908  32.022  30.318  1.00  0.00     0.074 A 
ATOM     66  C   UNL A   1      45.358  31.952  30.317  1.00  0.00     0.031 C 
ATOM     67  C   UNL A   1      43.015  33.053  30.370  1.00  0.00     0.034 A 
BRANCH  54  68
ATOM     68  C   UNL A   1      36.864  32.760  30.633  1.00  0.00     0.023 A 
ATOM     69  C   UNL A   1      36.490  32.921  31.984  1.00  0.00     0.012 A 
ATOM     70  C   UNL A   1      35.941  33.259  29.681  1.00  0.00     0.148 A 
ATOM     71  C   UNL A   1      35.336  33.617  32.375  1.00  0.00     0.002 A 
ATOM     72  C   UNL A   1      34.793  33.952  30.070  1.00  0.00     0.091 A 
ATOM     73  F   UNL A   1      36.157  33.074  28.372  1.00  0.00    -0.205 F 
ATOM     74  C   UNL A   1      34.491  34.148  31.416  1.00  0.00     0.022 A 
BRANCH  72  75
ATOM     75  S   UNL A   1      33.714  34.632  28.805  1.00  0.00     0.127 S 
ATOM     76  O   UNL A   1      34.532  35.690  28.220  1.00  0.00    -0.237 OA
ATOM     77  O   UNL A   1      33.422  33.479  27.963  1.00  0.00    -0.237 OA
ATOM     78  O   UNL A   1      32.566  35.118  29.574  1.00  0.00    -0.744 OA
ENDBRANCH  72  75
ENDBRANCH  54  68
BRANCH  55  79
ATOM     79  C   UNL A   1      44.919  27.521  29.468  1.00  0.00     0.023 A 
ATOM     80  C   UNL A   1      45.955  26.665  29.861  1.00  0.00     0.012 A 
ATOM     81  C   UNL A   1      44.849  27.960  28.128  1.00  0.00     0.148 A 
ATOM     82  C   UNL A   1      47.102  26.655  29.084  1.00  0.00     0.002 A 
ATOM     83  C   UNL A   1      45.961  27.807  27.308  1.00  0.00     0.091 A 
ATOM     84  F   UNL A   1      43.762  28.628  27.716  1.00  0.00    -0.205 F 
ATOM     85  C   UNL A   1      47.130  27.267  27.835  1.00  0.00     0.022 A 
BRANCH  83  86
ATOM     86  S   UNL A   1      45.965  28.393  25.615  1.00  0.00     0.127 S 
ATOM     87  O   UNL A   1      45.788  29.833  25.768  1.00  0.00    -0.237 OA
ATOM     88  O   UNL A   1      47.255  27.937  25.112  1.00  0.00    -0.237 OA
ATOM     89  O   UNL A   1      44.807  27.714  25.026  1.00  0.00    -0.744 OA
ENDBRANCH  83  86
ENDBRANCH  55  79
BRANCH  67  90
ATOM     90  C   UNL A   1      43.297  34.517  30.129  1.00  0.00     0.023 A 
ATOM     91  C   UNL A   1      43.549  35.349  31.254  1.00  0.00     0.012 A 
ATOM     92  C   UNL A   1      43.249  35.153  28.884  1.00  0.00     0.148 A 
ATOM     93  C   UNL A   1      43.745  36.726  31.146  1.00  0.00     0.002 A 
ATOM     94  C   UNL A   1      43.573  36.504  28.765  1.00  0.00     0.091 A 
ATOM     95  F   UNL A   1      42.832  34.488  27.799  1.00  0.00    -0.205 F 
ATOM     96  C   UNL A   1      43.790  37.304  29.890  1.00  0.00     0.022 A 
BRANCH  94  97
ATOM     97  S   UNL A   1      43.868  37.159  27.125  1.00  0.00     0.127 S 
ATOM     98  O   UNL A   1      44.769  36.164  26.548  1.00  0.00    -0.237 OA
ATOM     99  O   UNL A   1      42.532  37.237  26.545  1.00  0.00    -0.237 OA
ATOM    100  O   UNL A   1      44.492  38.458  27.383  1.00  0.00    -0.744 OA
ENDBRANCH  94  97
ENDBRANCH  67  90
ENDBRANCH  41  42
ENDBRANCH  33  36
ENDBRANCH  31  32
ENDBRANCH   1  31
TORSDOF 16
ENDMDL
MODEL 3
REMARK VINA RESULT:     -14.2      4.206      9.538
REMARK SMILES Cc1ccc(-c2cc(Cl)cc3c2O[C@H](C(F)(F)F)C(C(=O)NCCCCNC(=O)c2ccc(-c4c5nc(c(-c6cccc(S(=O)(=O)[O-])c6F)c6ccc([nH]6)c(-c6cccc(S(=O)(=O)[O-])c6F)c6nc(c(-c7cccc(S(=O)(=O)[O-])c7F)c7ccc4[nH]7)C=C6)C=C5)cc2)=C3)cc1F
REMARK SMILES IDX 25 1 24 2 23 3 22 4 20 5 21 6 19 8 6 9 7 10 12 11 8 12 11 13
REMARK SMILES IDX 13 14 9 15 10 16 93 17 14 18 5 19 1 20 2 21 3 22 95 23 4 24
REMARK SMILES IDX 94 25 96 26 15 27 16 28 17 29 18 30 26 31 27 32 28 33 29 35
REMARK SMILES IDX 30 36 31 37 92 38 32 39 91 40 33 41 34 42 35 43 85 44 36 45
REMARK SMILES IDX 90 46 84 47 86 48 37 49 89 50 83 51 82 52 38 54 70 55 50 56
REMARK SMILES IDX 69 57 51 58 54 59 68 60 87 61 52 62 53 63 67 65 88 66 55 67
REMARK SMILES IDX 39 68 40 69 48 70 41 71 43 72 49 73 42 74 44 75 45 76 46 77
REMARK SMILES IDX 47 78 71 79 72 80 80 81 73 82 75 83 81 84 74 85 76 86 77 87
REMARK SMILES IDX 78 88 79 89 56 90 57 91 65 92 58 93 60 94 66 95 59 96 61 97
REMARK SMILES IDX 62 98 63 99 64 100
REMARK H PARENT 22 7 27 34 86 53 54 64
REMARK Flexibility Score: inf
ROOT
ATOM      1  C   UNL A   1      38.660  21.552  25.708  1.00  0.00     0.023 C 
ENDROOT
BRANCH   1   2
ATOM      2  C   UNL A   1      37.719  20.439  25.285  1.00  0.00     0.023 C 
BRANCH   2   3
ATOM      3  C   UNL A   1      36.632  21.003  24.407  1.00  0.00     0.116 C 
BRANCH   3   4
ATOM      4  N   UNL A   1      35.335  20.534  24.859  1.00  0.00    -0.352 N 
ATOM      5  C   UNL A   1      34.097  21.052  24.979  1.00  0.00     0.251 C 
ATOM      6  O   UNL A   1      33.249  20.309  25.485  1.00  0.00    -0.270 OA
ATOM      7  H   UNL A   1      35.369  19.595  25.154  1.00  0.00     0.163 HD
BRANCH   5   8
ATOM      8  C   UNL A   1      33.713  22.406  24.500  1.00  0.00     0.067 C 
ATOM      9  C   UNL A   1      32.720  26.206  23.036  1.00  0.00     0.026 A 
ATOM     10  C   UNL A   1      32.569  26.378  21.656  1.00  0.00     0.033 A 
ATOM     11  C   UNL A   1      32.963  24.906  23.509  1.00  0.00     0.135 A 
ATOM     12  C   UNL A   1      32.668  25.281  20.793  1.00  0.00     0.042 A 
ATOM     13  C   UNL A   1      33.077  23.808  22.651  1.00  0.00     0.019 A 
ATOM     14  O   UNL A   1      33.023  24.758  24.865  1.00  0.00    -0.475 OA
ATOM     15  Cl  UNL A   1      32.481  25.516  19.098  1.00  0.00    -0.084 Cl
ATOM     16  C   UNL A   1      32.921  23.999  21.281  1.00  0.00     0.032 A 
ATOM     17  C   UNL A   1      33.355  22.491  23.207  1.00  0.00     0.025 C 
ATOM     18  C   UNL A   1      33.772  23.632  25.363  1.00  0.00     0.314 C 
BRANCH   9  19
ATOM     19  C   UNL A   1      32.635  27.335  23.978  1.00  0.00    -0.012 A 
ATOM     20  C   UNL A   1      32.359  30.377  27.045  1.00  0.00     0.047 C 
ATOM     21  C   UNL A   1      32.443  29.346  25.962  1.00  0.00    -0.015 A 
ATOM     22  C   UNL A   1      31.304  28.914  25.277  1.00  0.00     0.007 A 
ATOM     23  C   UNL A   1      33.671  28.770  25.643  1.00  0.00     0.126 A 
ATOM     24  C   UNL A   1      31.400  27.920  24.294  1.00  0.00     0.009 A 
ATOM     25  C   UNL A   1      33.775  27.784  24.665  1.00  0.00     0.048 A 
ATOM     26  F   UNL A   1      34.779  29.157  26.293  1.00  0.00    -0.207 F 
ENDBRANCH   9  19
BRANCH  18  27
ATOM     27  C   UNL A   1      35.215  24.089  25.661  1.00  0.00     0.429 C 
ATOM     28  F   UNL A   1      35.249  25.368  26.103  1.00  0.00    -0.167 F 
ATOM     29  F   UNL A   1      35.834  23.340  26.605  1.00  0.00    -0.167 F 
ATOM     30  F   UNL A   1      36.007  24.029  24.560  1.00  0.00    -0.167 F 
ENDBRANCH  18  27
ENDBRANCH   5   8
ENDBRANCH   3   4
ENDBRANCH   2   3
ENDBRANCH   1   2
BRANCH   1  31
ATOM     31  C   UNL A   1      39.922  21.084  26.440  1.00  0.00     0.116 C 
BRANCH  31  32
ATOM     32  N   UNL A   1      41.134  20.878  25.651  1.00  0.00    -0.352 N 
ATOM     33  C   UNL A   1      42.462  20.845  26.005  1.00  0.00     0.251 C 
ATOM     34  H   UNL A   1      40.969  20.736  24.692  1.00  0.00     0.163 HD
ATOM     35  O   UNL A   1      43.248  20.146  25.363  1.00  0.00    -0.269 OA
BRANCH  33  36
ATOM     36  C   UNL A   1      42.999  21.835  26.958  1.00  0.00     0.039 A 
ATOM     37  C   UNL A   1      42.747  21.794  28.325  1.00  0.00     0.014 A 
ATOM     38  C   UNL A   1      43.549  22.981  26.372  1.00  0.00     0.014 A 
ATOM     39  C   UNL A   1      42.711  22.988  29.030  1.00  0.00     0.010 A 
ATOM     40  C   UNL A   1      43.605  24.153  27.097  1.00  0.00     0.010 A 
ATOM     41  C   UNL A   1      43.069  24.178  28.382  1.00  0.00    -0.014 A 
BRANCH  41  42
ATOM     42  C   UNL A   1      42.970  25.470  29.047  1.00  0.00     0.031 A 
ATOM     43  C   UNL A   1      41.739  26.255  28.792  1.00  0.00     0.074 A 
ATOM     44  C   UNL A   1      43.994  25.960  29.793  1.00  0.00     0.049 A 
ATOM     45  N   UNL A   1      41.691  27.534  28.647  1.00  0.00    -0.248 NA
ATOM     46  C   UNL A   1      40.447  25.610  28.529  1.00  0.00     0.031 C 
ATOM     47  C   UNL A   1      43.984  27.169  30.607  1.00  0.00     0.029 A 
ATOM     48  N   UNL A   1      45.331  25.559  29.877  1.00  0.00    -0.354 N 
ATOM     49  C   UNL A   1      40.358  27.885  28.696  1.00  0.00     0.074 A 
ATOM     50  C   UNL A   1      39.644  26.671  28.392  1.00  0.00     0.031 C 
ATOM     51  C   UNL A   1      45.251  27.567  30.823  1.00  0.00     0.029 A 
ATOM     52  C   UNL A   1      46.116  26.717  30.021  1.00  0.00     0.049 A 
ATOM     53  H   UNL A   1      45.663  24.633  29.841  1.00  0.00     0.167 HD
ATOM     54  C   UNL A   1      40.010  29.097  29.221  1.00  0.00     0.034 A 
ATOM     55  C   UNL A   1      47.051  27.184  29.127  1.00  0.00     0.034 A 
ATOM     56  C   UNL A   1      41.211  29.856  29.547  1.00  0.00     0.049 A 
ATOM     57  C   UNL A   1      46.702  28.579  28.647  1.00  0.00     0.074 A 
ATOM     58  C   UNL A   1      41.883  30.034  30.744  1.00  0.00     0.029 A 
ATOM     59  N   UNL A   1      42.068  30.268  28.538  1.00  0.00    -0.354 N 
ATOM     60  N   UNL A   1      45.477  29.022  28.589  1.00  0.00    -0.248 NA
ATOM     61  C   UNL A   1      47.680  29.558  28.184  1.00  0.00     0.031 C 
ATOM     62  C   UNL A   1      43.190  30.484  30.442  1.00  0.00     0.029 A 
ATOM     63  C   UNL A   1      43.294  30.608  29.067  1.00  0.00     0.049 A 
ATOM     64  H   UNL A   1      41.834  30.312  27.582  1.00  0.00     0.167 HD
ATOM     65  C   UNL A   1      45.495  30.342  28.215  1.00  0.00     0.074 A 
ATOM     66  C   UNL A   1      46.892  30.620  27.937  1.00  0.00     0.031 C 
ATOM     67  C   UNL A   1      44.365  31.107  28.217  1.00  0.00     0.034 A 
BRANCH  54  68
ATOM     68  C   UNL A   1      38.638  29.447  29.779  1.00  0.00     0.023 A 
ATOM     69  C   UNL A   1      38.094  28.856  30.939  1.00  0.00     0.012 A 
ATOM     70  C   UNL A   1      37.853  30.467  29.188  1.00  0.00     0.148 A 
ATOM     71  C   UNL A   1      36.908  29.308  31.537  1.00  0.00     0.002 A 
ATOM     72  C   UNL A   1      36.672  30.917  29.784  1.00  0.00     0.091 A 
ATOM     73  F   UNL A   1      38.233  31.028  28.033  1.00  0.00    -0.205 F 
ATOM     74  C   UNL A   1      36.200  30.352  30.967  1.00  0.00     0.022 A 
BRANCH  72  75
ATOM     75  S   UNL A   1      35.774  32.275  29.024  1.00  0.00     0.127 S 
ATOM     76  O   UNL A   1      35.541  31.787  27.668  1.00  0.00    -0.237 OA
ATOM     77  O   UNL A   1      34.606  32.423  29.884  1.00  0.00    -0.237 OA
ATOM     78  O   UNL A   1      36.722  33.388  29.106  1.00  0.00    -0.744 OA
ENDBRANCH  72  75
ENDBRANCH  54  68
BRANCH  55  79
ATOM     79  C   UNL A   1      47.600  26.150  28.198  1.00  0.00     0.023 A 
ATOM     80  C   UNL A   1      48.892  25.726  28.532  1.00  0.00     0.012 A 
ATOM     81  C   UNL A   1      47.202  26.165  26.843  1.00  0.00     0.148 A 
ATOM     82  C   UNL A   1      49.859  25.788  27.542  1.00  0.00     0.002 A 
ATOM     83  C   UNL A   1      48.172  26.074  25.852  1.00  0.00     0.091 A 
ATOM     84  F   UNL A   1      45.915  26.397  26.543  1.00  0.00    -0.205 F 
ATOM     85  C   UNL A   1      49.514  26.013  26.214  1.00  0.00     0.022 A 
BRANCH  83  86
ATOM     86  S   UNL A   1      47.748  26.145  24.113  1.00  0.00     0.127 S 
ATOM     87  O   UNL A   1      47.238  24.804  23.848  1.00  0.00    -0.237 OA
ATOM     88  O   UNL A   1      46.787  27.239  24.053  1.00  0.00    -0.237 OA
ATOM     89  O   UNL A   1      49.034  26.426  23.469  1.00  0.00    -0.744 OA
ENDBRANCH  83  86
ENDBRANCH  55  79
BRANCH  67  90
ATOM     90  C   UNL A   1      44.191  32.477  27.606  1.00  0.00     0.023 A 
ATOM     91  C   UNL A   1      44.362  32.615  26.201  1.00  0.00     0.012 A 
ATOM     92  C   UNL A   1      43.955  33.656  28.322  1.00  0.00     0.148 A 
ATOM     93  C   UNL A   1      44.297  33.847  25.550  1.00  0.00     0.002 A 
ATOM     94  C   UNL A   1      43.763  34.865  27.654  1.00  0.00     0.091 A 
ATOM     95  F   UNL A   1      43.972  33.651  29.661  1.00  0.00    -0.205 F 
ATOM     96  C   UNL A   1      43.963  34.977  26.275  1.00  0.00     0.022 A 
BRANCH  94  97
ATOM     97  S   UNL A   1      43.090  36.242  28.580  1.00  0.00     0.127 S 
ATOM     98  O   UNL A   1      41.867  35.674  29.142  1.00  0.00    -0.237 OA
ATOM     99  O   UNL A   1      44.151  36.563  29.530  1.00  0.00    -0.237 OA
ATOM    100  O   UNL A   1      42.865  37.264  27.557  1.00  0.00    -0.744 OA
ENDBRANCH  94  97
ENDBRANCH  67  90
ENDBRANCH  41  42
ENDBRANCH  33  36
ENDBRANCH  31  32
ENDBRANCH   1  31
TORSDOF 16
ENDMDL
