MODEL 1
REMARK VINA RESULT:     -11.8      0.000      0.000
REMARK SMILES C[C@@H](C(=O)NCCCCNC(=O)c1ccc(-c2c3nc(c(-c4cccc(S(=O)(=O)[O-])c4F)c4ccc([nH]4)c(-c4cccc(S(=O)(=O)[O-])c4F)c4nc(c(-c5cccc(S(=O)(=O)[O-])c5F)c5ccc2[nH]5)C=C4)C=C3)cc1)c1ccc(C[C@H]2CCC[C@H]2O)cc1
REMARK SMILES IDX 7 1 6 2 5 3 3 4 4 5 2 7 1 8 76 9 77 10 88 11 78 12 87 13
REMARK SMILES IDX 79 14 80 15 81 16 82 17 85 18 83 19 84 20 86 21 8 23 9 24
REMARK SMILES IDX 10 25 11 26 12 28 13 29 14 30 75 31 15 32 74 33 16 34 17 35
REMARK SMILES IDX 18 36 68 37 19 38 73 39 67 40 69 41 20 42 72 43 66 44 65 45
REMARK SMILES IDX 21 47 53 48 33 49 52 50 34 51 37 52 51 53 70 54 35 55 36 56
REMARK SMILES IDX 50 58 71 59 38 60 22 61 23 62 31 63 24 64 26 65 32 66 25 67
REMARK SMILES IDX 27 68 28 69 29 70 30 71 54 72 55 73 63 74 56 75 58 76 64 77
REMARK SMILES IDX 57 78 59 79 60 80 61 81 62 82 39 83 40 84 48 85 41 86 43 87
REMARK SMILES IDX 49 88 42 89 44 90 45 91 46 92 47 93
REMARK H PARENT 5 6 86 22 10 27 69 46 37 57
REMARK Flexibility Score: inf
ROOT
ATOM      1  C   UNL A   1      31.737  27.977  27.163  1.00  0.00     0.023 C 
ENDROOT
BRANCH   1   2
ATOM      2  C   UNL A   1      32.019  26.520  26.791  1.00  0.00     0.116 C 
BRANCH   2   3
ATOM      3  N   UNL A   1      33.096  26.424  25.828  1.00  0.00    -0.356 N 
ATOM      4  C   UNL A   1      33.181  25.699  24.674  1.00  0.00     0.227 C 
ATOM      5  O   UNL A   1      34.262  25.706  24.082  1.00  0.00    -0.274 OA
ATOM      6  H   UNL A   1      33.891  26.965  26.038  1.00  0.00     0.163 HD
BRANCH   4   7
ATOM      7  C   UNL A   1      31.945  24.956  24.150  1.00  0.00     0.105 C 
ATOM      8  C   UNL A   1      32.287  23.975  23.022  1.00  0.00     0.023 C 
BRANCH   7   9
ATOM      9  C   UNL A   1      30.841  25.915  23.718  1.00  0.00    -0.036 A 
ATOM     10  C   UNL A   1      31.138  26.972  22.849  1.00  0.00     0.005 A 
ATOM     11  C   UNL A   1      29.522  25.773  24.174  1.00  0.00     0.005 A 
ATOM     12  C   UNL A   1      30.168  27.923  22.534  1.00  0.00     0.004 A 
ATOM     13  C   UNL A   1      28.562  26.739  23.879  1.00  0.00     0.004 A 
ATOM     14  C   UNL A   1      28.894  27.857  23.106  1.00  0.00    -0.048 A 
BRANCH  14  15
ATOM     15  C   UNL A   1      27.913  28.989  22.943  1.00  0.00     0.041 C 
BRANCH  15  16
ATOM     16  C   UNL A   1      28.493  30.345  22.495  1.00  0.00     0.022 C 
ATOM     17  C   UNL A   1      28.072  30.849  21.103  1.00  0.00     0.007 C 
ATOM     18  C   UNL A   1      28.286  31.556  23.419  1.00  0.00     0.117 C 
ATOM     19  C   UNL A   1      28.123  32.380  21.170  1.00  0.00     0.003 C 
ATOM     20  C   UNL A   1      28.710  32.723  22.535  1.00  0.00     0.032 C 
BRANCH  18  21
ATOM     21  O   UNL A   1      26.949  31.774  23.834  1.00  0.00    -0.393 OA
ATOM     22  H   UNL A   1      26.764  31.238  24.620  1.00  0.00     0.210 HD
ENDBRANCH  18  21
ENDBRANCH  15  16
ENDBRANCH  14  15
ENDBRANCH   7   9
ENDBRANCH   4   7
ENDBRANCH   2   3
ENDBRANCH   1   2
BRANCH   1  23
ATOM     23  C   UNL A   1      31.603  28.927  25.970  1.00  0.00     0.023 C 
BRANCH  23  24
ATOM     24  C   UNL A   1      32.772  29.884  25.766  1.00  0.00     0.116 C 
BRANCH  24  25
ATOM     25  N   UNL A   1      32.510  31.217  26.288  1.00  0.00    -0.352 N 
ATOM     26  C   UNL A   1      33.227  31.932  27.222  1.00  0.00     0.251 C 
ATOM     27  H   UNL A   1      31.714  31.669  25.924  1.00  0.00     0.163 HD
ATOM     28  O   UNL A   1      32.804  32.995  27.646  1.00  0.00    -0.269 OA
BRANCH  26  29
ATOM     29  C   UNL A   1      34.498  31.371  27.730  1.00  0.00     0.039 A 
ATOM     30  C   UNL A   1      35.570  32.235  27.966  1.00  0.00     0.014 A 
ATOM     31  C   UNL A   1      34.605  30.009  28.023  1.00  0.00     0.014 A 
ATOM     32  C   UNL A   1      36.727  31.747  28.578  1.00  0.00     0.010 A 
ATOM     33  C   UNL A   1      35.735  29.537  28.683  1.00  0.00     0.010 A 
ATOM     34  C   UNL A   1      36.799  30.403  28.981  1.00  0.00    -0.014 A 
BRANCH  34  35
ATOM     35  C   UNL A   1      37.944  29.888  29.774  1.00  0.00     0.031 A 
ATOM     36  C   UNL A   1      38.186  30.387  31.171  1.00  0.00     0.074 A 
ATOM     37  C   UNL A   1      38.846  29.080  29.179  1.00  0.00     0.049 A 
ATOM     38  N   UNL A   1      39.195  30.148  31.966  1.00  0.00    -0.248 NA
ATOM     39  C   UNL A   1      37.175  31.295  31.739  1.00  0.00     0.031 C 
ATOM     40  C   UNL A   1      38.769  28.599  27.797  1.00  0.00     0.029 A 
ATOM     41  N   UNL A   1      40.030  28.561  29.644  1.00  0.00    -0.354 N 
ATOM     42  C   UNL A   1      38.970  30.911  33.105  1.00  0.00     0.074 A 
ATOM     43  C   UNL A   1      37.731  31.628  32.896  1.00  0.00     0.031 C 
ATOM     44  C   UNL A   1      39.866  27.878  27.519  1.00  0.00     0.029 A 
ATOM     45  C   UNL A   1      40.740  27.869  28.689  1.00  0.00     0.049 A 
ATOM     46  H   UNL A   1      40.341  28.674  30.570  1.00  0.00     0.167 HD
ATOM     47  C   UNL A   1      39.718  30.989  34.230  1.00  0.00     0.034 A 
ATOM     48  C   UNL A   1      41.964  27.308  28.739  1.00  0.00     0.034 A 
ATOM     49  C   UNL A   1      40.913  30.224  34.459  1.00  0.00     0.049 A 
ATOM     50  C   UNL A   1      42.747  27.374  30.022  1.00  0.00     0.074 A 
ATOM     51  C   UNL A   1      41.654  30.120  35.624  1.00  0.00     0.029 A 
ATOM     52  N   UNL A   1      41.550  29.446  33.507  1.00  0.00    -0.354 N 
ATOM     53  N   UNL A   1      42.415  27.926  31.163  1.00  0.00    -0.248 NA
ATOM     54  C   UNL A   1      44.063  26.715  30.036  1.00  0.00     0.031 C 
ATOM     55  C   UNL A   1      42.755  29.296  35.367  1.00  0.00     0.029 A 
ATOM     56  C   UNL A   1      42.691  28.879  34.048  1.00  0.00     0.049 A 
ATOM     57  H   UNL A   1      41.238  29.317  32.582  1.00  0.00     0.167 HD
ATOM     58  C   UNL A   1      43.464  27.662  32.035  1.00  0.00     0.074 A 
ATOM     59  C   UNL A   1      44.432  26.876  31.299  1.00  0.00     0.031 C 
ATOM     60  C   UNL A   1      43.621  28.053  33.324  1.00  0.00     0.034 A 
BRANCH  47  61
ATOM     61  C   UNL A   1      39.241  31.889  35.336  1.00  0.00     0.023 A 
ATOM     62  C   UNL A   1      38.360  31.381  36.311  1.00  0.00     0.012 A 
ATOM     63  C   UNL A   1      39.739  33.200  35.467  1.00  0.00     0.148 A 
ATOM     64  C   UNL A   1      37.965  32.170  37.390  1.00  0.00     0.002 A 
ATOM     65  C   UNL A   1      39.370  33.968  36.565  1.00  0.00     0.091 A 
ATOM     66  F   UNL A   1      40.559  33.670  34.516  1.00  0.00    -0.205 F 
ATOM     67  C   UNL A   1      38.479  33.457  37.523  1.00  0.00     0.022 A 
BRANCH  65  68
ATOM     68  S   UNL A   1      40.031  35.611  36.866  1.00  0.00     0.127 S 
ATOM     69  O   UNL A   1      41.471  35.355  36.857  1.00  0.00    -0.237 OA
ATOM     70  O   UNL A   1      39.539  36.359  35.710  1.00  0.00    -0.237 OA
ATOM     71  O   UNL A   1      39.482  36.037  38.146  1.00  0.00    -0.744 OA
ENDBRANCH  65  68
ENDBRANCH  47  61
BRANCH  48  72
ATOM     72  C   UNL A   1      42.510  26.598  27.548  1.00  0.00     0.023 A 
ATOM     73  C   UNL A   1      43.312  27.303  26.631  1.00  0.00     0.012 A 
ATOM     74  C   UNL A   1      42.258  25.229  27.329  1.00  0.00     0.148 A 
ATOM     75  C   UNL A   1      43.829  26.667  25.502  1.00  0.00     0.002 A 
ATOM     76  C   UNL A   1      42.821  24.589  26.230  1.00  0.00     0.091 A 
ATOM     77  F   UNL A   1      41.474  24.577  28.199  1.00  0.00    -0.205 F 
ATOM     78  C   UNL A   1      43.593  25.308  25.307  1.00  0.00     0.022 A 
BRANCH  76  79
ATOM     79  S   UNL A   1      42.676  22.814  25.992  1.00  0.00     0.127 S 
ATOM     80  O   UNL A   1      43.329  22.630  24.700  1.00  0.00    -0.237 OA
ATOM     81  O   UNL A   1      43.415  22.286  27.139  1.00  0.00    -0.237 OA
ATOM     82  O   UNL A   1      41.244  22.541  26.033  1.00  0.00    -0.744 OA
ENDBRANCH  76  79
ENDBRANCH  48  72
BRANCH  60  83
ATOM     83  C   UNL A   1      44.878  27.633  34.036  1.00  0.00     0.023 A 
ATOM     84  C   UNL A   1      45.987  28.502  34.052  1.00  0.00     0.012 A 
ATOM     85  C   UNL A   1      44.929  26.429  34.767  1.00  0.00     0.148 A 
ATOM     86  C   UNL A   1      47.137  28.169  34.766  1.00  0.00     0.002 A 
ATOM     87  C   UNL A   1      46.061  26.125  35.513  1.00  0.00     0.091 A 
ATOM     88  F   UNL A   1      43.868  25.610  34.724  1.00  0.00    -0.205 F 
ATOM     89  C   UNL A   1      47.169  26.989  35.507  1.00  0.00     0.022 A 
BRANCH  87  90
ATOM     90  S   UNL A   1      46.160  24.675  36.568  1.00  0.00     0.127 S 
ATOM     91  O   UNL A   1      44.983  24.846  37.421  1.00  0.00    -0.237 OA
ATOM     92  O   UNL A   1      46.060  23.580  35.604  1.00  0.00    -0.237 OA
ATOM     93  O   UNL A   1      47.443  24.763  37.252  1.00  0.00    -0.744 OA
ENDBRANCH  87  90
ENDBRANCH  60  83
ENDBRANCH  34  35
ENDBRANCH  26  29
ENDBRANCH  24  25
ENDBRANCH  23  24
ENDBRANCH   1  23
TORSDOF 18
ENDMDL
MODEL 2
REMARK VINA RESULT:     -11.6      1.361      7.917
REMARK SMILES C[C@@H](C(=O)NCCCCNC(=O)c1ccc(-c2c3nc(c(-c4cccc(S(=O)(=O)[O-])c4F)c4ccc([nH]4)c(-c4cccc(S(=O)(=O)[O-])c4F)c4nc(c(-c5cccc(S(=O)(=O)[O-])c5F)c5ccc2[nH]5)C=C4)C=C3)cc1)c1ccc(C[C@H]2CCC[C@H]2O)cc1
REMARK SMILES IDX 7 1 6 2 5 3 3 4 4 5 2 7 1 8 76 9 77 10 88 11 78 12 87 13
REMARK SMILES IDX 79 14 80 15 81 16 82 17 85 18 83 19 84 20 86 21 8 23 9 24
REMARK SMILES IDX 10 25 11 26 12 28 13 29 14 30 75 31 15 32 74 33 16 34 17 35
REMARK SMILES IDX 18 36 68 37 19 38 73 39 67 40 69 41 20 42 72 43 66 44 65 45
REMARK SMILES IDX 21 47 53 48 33 49 52 50 34 51 37 52 51 53 70 54 35 55 36 56
REMARK SMILES IDX 50 58 71 59 38 60 22 61 23 62 31 63 24 64 26 65 32 66 25 67
REMARK SMILES IDX 27 68 28 69 29 70 30 71 54 72 55 73 63 74 56 75 58 76 64 77
REMARK SMILES IDX 57 78 59 79 60 80 61 81 62 82 39 83 40 84 48 85 41 86 43 87
REMARK SMILES IDX 49 88 42 89 44 90 45 91 46 92 47 93
REMARK H PARENT 5 6 86 22 10 27 69 46 37 57
REMARK Flexibility Score: inf
ROOT
ATOM      1  C   UNL A   1      32.030  27.862  27.172  1.00  0.00     0.023 C 
ENDROOT
BRANCH   1   2
ATOM      2  C   UNL A   1      32.343  26.423  26.755  1.00  0.00     0.116 C 
BRANCH   2   3
ATOM      3  N   UNL A   1      33.326  26.387  25.692  1.00  0.00    -0.356 N 
ATOM      4  C   UNL A   1      33.312  25.712  24.505  1.00  0.00     0.227 C 
ATOM      5  O   UNL A   1      34.333  25.764  23.816  1.00  0.00    -0.274 OA
ATOM      6  H   UNL A   1      34.129  26.933  25.850  1.00  0.00     0.163 HD
BRANCH   4   7
ATOM      7  C   UNL A   1      32.044  24.969  24.067  1.00  0.00     0.105 C 
ATOM      8  C   UNL A   1      32.318  23.951  22.953  1.00  0.00     0.023 C 
BRANCH   7   9
ATOM      9  C   UNL A   1      30.929  25.928  23.663  1.00  0.00    -0.036 A 
ATOM     10  C   UNL A   1      31.215  27.013  22.826  1.00  0.00     0.005 A 
ATOM     11  C   UNL A   1      29.612  25.758  24.113  1.00  0.00     0.005 A 
ATOM     12  C   UNL A   1      30.235  27.962  22.538  1.00  0.00     0.004 A 
ATOM     13  C   UNL A   1      28.641  26.722  23.846  1.00  0.00     0.004 A 
ATOM     14  C   UNL A   1      28.961  27.866  23.107  1.00  0.00    -0.048 A 
BRANCH  14  15
ATOM     15  C   UNL A   1      27.968  28.990  22.978  1.00  0.00     0.041 C 
BRANCH  15  16
ATOM     16  C   UNL A   1      28.524  30.354  22.519  1.00  0.00     0.022 C 
ATOM     17  C   UNL A   1      28.101  30.836  21.120  1.00  0.00     0.007 C 
ATOM     18  C   UNL A   1      28.290  31.569  23.431  1.00  0.00     0.117 C 
ATOM     19  C   UNL A   1      28.124  32.368  21.173  1.00  0.00     0.003 C 
ATOM     20  C   UNL A   1      28.697  32.735  22.538  1.00  0.00     0.032 C 
BRANCH  18  21
ATOM     21  O   UNL A   1      26.947  31.766  23.837  1.00  0.00    -0.393 OA
ATOM     22  H   UNL A   1      26.437  30.958  23.669  1.00  0.00     0.210 HD
ENDBRANCH  18  21
ENDBRANCH  15  16
ENDBRANCH  14  15
ENDBRANCH   7   9
ENDBRANCH   4   7
ENDBRANCH   2   3
ENDBRANCH   1   2
BRANCH   1  23
ATOM     23  C   UNL A   1      31.712  28.809  26.011  1.00  0.00     0.023 C 
BRANCH  23  24
ATOM     24  C   UNL A   1      32.741  29.907  25.770  1.00  0.00     0.116 C 
BRANCH  24  25
ATOM     25  N   UNL A   1      32.334  31.193  26.318  1.00  0.00    -0.352 N 
ATOM     26  C   UNL A   1      32.998  31.991  27.223  1.00  0.00     0.251 C 
ATOM     27  H   UNL A   1      31.470  31.539  25.999  1.00  0.00     0.163 HD
ATOM     28  O   UNL A   1      32.463  32.989  27.679  1.00  0.00    -0.269 OA
BRANCH  26  29
ATOM     29  C   UNL A   1      34.355  31.599  27.662  1.00  0.00     0.039 A 
ATOM     30  C   UNL A   1      35.335  32.586  27.790  1.00  0.00     0.014 A 
ATOM     31  C   UNL A   1      34.636  30.272  27.996  1.00  0.00     0.014 A 
ATOM     32  C   UNL A   1      36.578  32.258  28.337  1.00  0.00     0.010 A 
ATOM     33  C   UNL A   1      35.853  29.958  28.594  1.00  0.00     0.010 A 
ATOM     34  C   UNL A   1      36.829  30.950  28.784  1.00  0.00    -0.014 A 
BRANCH  34  35
ATOM     35  C   UNL A   1      38.074  30.602  29.513  1.00  0.00     0.031 A 
ATOM     36  C   UNL A   1      39.039  29.605  28.935  1.00  0.00     0.074 A 
ATOM     37  C   UNL A   1      38.259  31.076  30.763  1.00  0.00     0.049 A 
ATOM     38  N   UNL A   1      40.109  29.087  29.478  1.00  0.00    -0.248 NA
ATOM     39  C   UNL A   1      38.751  29.106  27.580  1.00  0.00     0.031 C 
ATOM     40  C   UNL A   1      37.346  31.979  31.469  1.00  0.00     0.029 A 
ATOM     41  N   UNL A   1      39.250  30.825  31.680  1.00  0.00    -0.354 N 
ATOM     42  C   UNL A   1      40.593  28.165  28.558  1.00  0.00     0.074 A 
ATOM     43  C   UNL A   1      39.696  28.189  27.423  1.00  0.00     0.031 C 
ATOM     44  C   UNL A   1      37.806  32.186  32.713  1.00  0.00     0.029 A 
ATOM     45  C   UNL A   1      39.027  31.410  32.906  1.00  0.00     0.049 A 
ATOM     46  H   UNL A   1      40.044  30.278  31.481  1.00  0.00     0.167 HD
ATOM     47  C   UNL A   1      41.697  27.387  28.643  1.00  0.00     0.034 A 
ATOM     48  C   UNL A   1      39.713  31.316  34.062  1.00  0.00     0.034 A 
ATOM     49  C   UNL A   1      42.621  27.416  29.744  1.00  0.00     0.049 A 
ATOM     50  C   UNL A   1      40.962  30.479  34.107  1.00  0.00     0.074 A 
ATOM     51  C   UNL A   1      43.845  26.778  29.852  1.00  0.00     0.029 A 
ATOM     52  N   UNL A   1      42.420  28.104  30.929  1.00  0.00    -0.354 N 
ATOM     53  N   UNL A   1      41.520  29.780  33.149  1.00  0.00    -0.248 NA
ATOM     54  C   UNL A   1      41.694  30.439  35.383  1.00  0.00     0.031 C 
ATOM     55  C   UNL A   1      44.374  27.062  31.115  1.00  0.00     0.029 A 
ATOM     56  C   UNL A   1      43.484  27.885  31.786  1.00  0.00     0.049 A 
ATOM     57  H   UNL A   1      41.636  28.663  31.132  1.00  0.00     0.167 HD
ATOM     58  C   UNL A   1      42.677  29.238  33.697  1.00  0.00     0.074 A 
ATOM     59  C   UNL A   1      42.756  29.712  35.062  1.00  0.00     0.031 C 
ATOM     60  C   UNL A   1      43.581  28.406  33.125  1.00  0.00     0.034 A 
BRANCH  47  61
ATOM     61  C   UNL A   1      42.012  26.475  27.490  1.00  0.00     0.023 A 
ATOM     62  C   UNL A   1      42.778  26.960  26.412  1.00  0.00     0.012 A 
ATOM     63  C   UNL A   1      41.635  25.118  27.518  1.00  0.00     0.148 A 
ATOM     64  C   UNL A   1      43.151  26.113  25.369  1.00  0.00     0.002 A 
ATOM     65  C   UNL A   1      42.040  24.272  26.493  1.00  0.00     0.091 A 
ATOM     66  F   UNL A   1      40.887  24.684  28.543  1.00  0.00    -0.205 F 
ATOM     67  C   UNL A   1      42.792  24.769  25.415  1.00  0.00     0.022 A 
BRANCH  65  68
ATOM     68  S   UNL A   1      41.691  22.509  26.495  1.00  0.00     0.127 S 
ATOM     69  O   UNL A   1      40.230  22.498  26.418  1.00  0.00    -0.237 OA
ATOM     70  O   UNL A   1      42.368  22.060  25.278  1.00  0.00    -0.237 OA
ATOM     71  O   UNL A   1      42.255  21.989  27.732  1.00  0.00    -0.744 OA
ENDBRANCH  65  68
ENDBRANCH  47  61
BRANCH  48  72
ATOM     72  C   UNL A   1      39.256  32.070  35.264  1.00  0.00     0.023 A 
ATOM     73  C   UNL A   1      38.376  31.453  36.173  1.00  0.00     0.012 A 
ATOM     74  C   UNL A   1      39.703  33.381  35.524  1.00  0.00     0.148 A 
ATOM     75  C   UNL A   1      37.924  32.137  37.302  1.00  0.00     0.002 A 
ATOM     76  C   UNL A   1      39.290  34.036  36.679  1.00  0.00     0.091 A 
ATOM     77  F   UNL A   1      40.523  33.963  34.638  1.00  0.00    -0.205 F 
ATOM     78  C   UNL A   1      38.389  33.423  37.561  1.00  0.00     0.022 A 
BRANCH  76  79
ATOM     79  S   UNL A   1      39.958  35.637  37.148  1.00  0.00     0.127 S 
ATOM     80  O   UNL A   1      39.272  35.890  38.411  1.00  0.00    -0.237 OA
ATOM     81  O   UNL A   1      41.388  35.354  37.269  1.00  0.00    -0.237 OA
ATOM     82  O   UNL A   1      39.621  36.527  36.044  1.00  0.00    -0.744 OA
ENDBRANCH  76  79
ENDBRANCH  48  72
BRANCH  60  83
ATOM     83  C   UNL A   1      44.748  27.956  33.963  1.00  0.00     0.023 A 
ATOM     84  C   UNL A   1      44.654  26.752  34.688  1.00  0.00     0.012 A 
ATOM     85  C   UNL A   1      45.962  28.670  33.956  1.00  0.00     0.148 A 
ATOM     86  C   UNL A   1      45.746  26.276  35.413  1.00  0.00     0.002 A 
ATOM     87  C   UNL A   1      47.060  28.166  34.644  1.00  0.00     0.091 A 
ATOM     88  F   UNL A   1      46.024  29.821  33.272  1.00  0.00    -0.205 F 
ATOM     89  C   UNL A   1      46.951  26.974  35.380  1.00  0.00     0.022 A 
BRANCH  87  90
ATOM     90  S   UNL A   1      48.676  28.946  34.585  1.00  0.00     0.127 S 
ATOM     91  O   UNL A   1      49.426  28.154  35.559  1.00  0.00    -0.237 OA
ATOM     92  O   UNL A   1      49.074  28.736  33.193  1.00  0.00    -0.237 OA
ATOM     93  O   UNL A   1      48.462  30.341  34.948  1.00  0.00    -0.744 OA
ENDBRANCH  87  90
ENDBRANCH  60  83
ENDBRANCH  34  35
ENDBRANCH  26  29
ENDBRANCH  24  25
ENDBRANCH  23  24
ENDBRANCH   1  23
TORSDOF 18
ENDMDL
MODEL 3
REMARK VINA RESULT:     -11.5      5.474      8.261
REMARK SMILES C[C@@H](C(=O)NCCCCNC(=O)c1ccc(-c2c3nc(c(-c4cccc(S(=O)(=O)[O-])c4F)c4ccc([nH]4)c(-c4cccc(S(=O)(=O)[O-])c4F)c4nc(c(-c5cccc(S(=O)(=O)[O-])c5F)c5ccc2[nH]5)C=C4)C=C3)cc1)c1ccc(C[C@H]2CCC[C@H]2O)cc1
REMARK SMILES IDX 7 1 6 2 5 3 3 4 4 5 2 7 1 8 76 9 77 10 88 11 78 12 87 13
REMARK SMILES IDX 79 14 80 15 81 16 82 17 85 18 83 19 84 20 86 21 8 23 9 24
REMARK SMILES IDX 10 25 11 26 12 28 13 29 14 30 75 31 15 32 74 33 16 34 17 35
REMARK SMILES IDX 18 36 68 37 19 38 73 39 67 40 69 41 20 42 72 43 66 44 65 45
REMARK SMILES IDX 21 47 53 48 33 49 52 50 34 51 37 52 51 53 70 54 35 55 36 56
REMARK SMILES IDX 50 58 71 59 38 60 22 61 23 62 31 63 24 64 26 65 32 66 25 67
REMARK SMILES IDX 27 68 28 69 29 70 30 71 54 72 55 73 63 74 56 75 58 76 64 77
REMARK SMILES IDX 57 78 59 79 60 80 61 81 62 82 39 83 40 84 48 85 41 86 43 87
REMARK SMILES IDX 49 88 42 89 44 90 45 91 46 92 47 93
REMARK H PARENT 5 6 86 22 10 27 69 46 37 57
REMARK Flexibility Score: inf
ROOT
ATOM      1  C   UNL A   1      36.049  21.572  25.170  1.00  0.00     0.023 C 
ENDROOT
BRANCH   1   2
ATOM      2  C   UNL A   1      35.896  23.003  24.648  1.00  0.00     0.116 C 
BRANCH   2   3
ATOM      3  N   UNL A   1      34.650  23.169  23.931  1.00  0.00    -0.356 N 
ATOM      4  C   UNL A   1      33.455  23.679  24.351  1.00  0.00     0.227 C 
ATOM      5  O   UNL A   1      32.506  23.609  23.568  1.00  0.00    -0.274 OA
ATOM      6  H   UNL A   1      34.666  22.868  22.994  1.00  0.00     0.163 HD
BRANCH   4   7
ATOM      7  C   UNL A   1      33.354  24.341  25.731  1.00  0.00     0.105 C 
ATOM      8  C   UNL A   1      32.401  23.592  26.671  1.00  0.00     0.023 C 
BRANCH   7   9
ATOM      9  C   UNL A   1      32.972  25.814  25.633  1.00  0.00    -0.036 A 
ATOM     10  C   UNL A   1      31.879  26.299  26.364  1.00  0.00     0.005 A 
ATOM     11  C   UNL A   1      33.684  26.709  24.821  1.00  0.00     0.005 A 
ATOM     12  C   UNL A   1      31.446  27.614  26.200  1.00  0.00     0.004 A 
ATOM     13  C   UNL A   1      33.234  28.015  24.640  1.00  0.00     0.004 A 
ATOM     14  C   UNL A   1      32.073  28.461  25.280  1.00  0.00    -0.048 A 
BRANCH  14  15
ATOM     15  C   UNL A   1      31.485  29.806  24.941  1.00  0.00     0.041 C 
BRANCH  15  16
ATOM     16  C   UNL A   1      30.215  29.802  24.065  1.00  0.00     0.022 C 
ATOM     17  C   UNL A   1      29.457  31.136  23.945  1.00  0.00     0.007 C 
ATOM     18  C   UNL A   1      30.342  29.302  22.617  1.00  0.00     0.117 C 
ATOM     19  C   UNL A   1      28.764  31.111  22.578  1.00  0.00     0.003 C 
ATOM     20  C   UNL A   1      29.009  29.719  22.006  1.00  0.00     0.032 C 
BRANCH  18  21
ATOM     21  O   UNL A   1      31.383  29.898  21.864  1.00  0.00    -0.393 OA
ATOM     22  H   UNL A   1      32.240  29.583  22.193  1.00  0.00     0.210 HD
ENDBRANCH  18  21
ENDBRANCH  15  16
ENDBRANCH  14  15
ENDBRANCH   7   9
ENDBRANCH   4   7
ENDBRANCH   2   3
ENDBRANCH   1   2
BRANCH   1  23
ATOM     23  C   UNL A   1      37.332  20.864  24.726  1.00  0.00     0.023 C 
BRANCH  23  24
ATOM     24  C   UNL A   1      38.544  21.096  25.621  1.00  0.00     0.116 C 
BRANCH  24  25
ATOM     25  N   UNL A   1      39.374  19.909  25.768  1.00  0.00    -0.352 N 
ATOM     26  C   UNL A   1      40.706  19.827  26.108  1.00  0.00     0.251 C 
ATOM     27  H   UNL A   1      38.922  19.050  25.603  1.00  0.00     0.163 HD
ATOM     28  O   UNL A   1      41.290  18.756  26.069  1.00  0.00    -0.269 OA
BRANCH  26  29
ATOM     29  C   UNL A   1      41.426  21.063  26.484  1.00  0.00     0.039 A 
ATOM     30  C   UNL A   1      41.863  21.924  25.474  1.00  0.00     0.014 A 
ATOM     31  C   UNL A   1      41.615  21.392  27.829  1.00  0.00     0.014 A 
ATOM     32  C   UNL A   1      42.416  23.160  25.814  1.00  0.00     0.010 A 
ATOM     33  C   UNL A   1      42.114  22.647  28.164  1.00  0.00     0.010 A 
ATOM     34  C   UNL A   1      42.505  23.548  27.161  1.00  0.00    -0.014 A 
BRANCH  34  35
ATOM     35  C   UNL A   1      42.938  24.914  27.552  1.00  0.00     0.031 A 
ATOM     36  C   UNL A   1      41.949  25.889  28.125  1.00  0.00     0.074 A 
ATOM     37  C   UNL A   1      44.190  25.317  27.252  1.00  0.00     0.049 A 
ATOM     38  N   UNL A   1      42.112  27.154  28.409  1.00  0.00    -0.248 NA
ATOM     39  C   UNL A   1      40.591  25.383  28.391  1.00  0.00     0.031 C 
ATOM     40  C   UNL A   1      45.215  24.490  26.610  1.00  0.00     0.029 A 
ATOM     41  N   UNL A   1      44.798  26.540  27.402  1.00  0.00    -0.354 N 
ATOM     42  C   UNL A   1      40.871  27.610  28.837  1.00  0.00     0.074 A 
ATOM     43  C   UNL A   1      39.962  26.487  28.769  1.00  0.00     0.031 C 
ATOM     44  C   UNL A   1      46.313  25.233  26.400  1.00  0.00     0.029 A 
ATOM     45  C   UNL A   1      46.064  26.594  26.862  1.00  0.00     0.049 A 
ATOM     46  H   UNL A   1      44.371  27.304  27.851  1.00  0.00     0.167 HD
ATOM     47  C   UNL A   1      40.529  28.847  29.267  1.00  0.00     0.034 A 
ATOM     48  C   UNL A   1      46.919  27.628  26.733  1.00  0.00     0.034 A 
ATOM     49  C   UNL A   1      41.452  29.941  29.395  1.00  0.00     0.049 A 
ATOM     50  C   UNL A   1      46.523  28.978  27.265  1.00  0.00     0.074 A 
ATOM     51  C   UNL A   1      41.235  31.184  29.963  1.00  0.00     0.029 A 
ATOM     52  N   UNL A   1      42.759  29.931  28.938  1.00  0.00    -0.354 N 
ATOM     53  N   UNL A   1      45.413  29.335  27.864  1.00  0.00    -0.248 NA
ATOM     54  C   UNL A   1      47.507  30.063  27.131  1.00  0.00     0.031 C 
ATOM     55  C   UNL A   1      42.406  31.936  29.828  1.00  0.00     0.029 A 
ATOM     56  C   UNL A   1      43.354  31.156  29.186  1.00  0.00     0.049 A 
ATOM     57  H   UNL A   1      43.200  29.168  28.500  1.00  0.00     0.167 HD
ATOM     58  C   UNL A   1      45.573  30.674  28.199  1.00  0.00     0.074 A 
ATOM     59  C   UNL A   1      46.899  31.059  27.762  1.00  0.00     0.031 C 
ATOM     60  C   UNL A   1      44.693  31.514  28.797  1.00  0.00     0.034 A 
BRANCH  47  61
ATOM     61  C   UNL A   1      39.106  29.079  29.694  1.00  0.00     0.023 A 
ATOM     62  C   UNL A   1      38.711  28.740  31.002  1.00  0.00     0.012 A 
ATOM     63  C   UNL A   1      38.190  29.721  28.837  1.00  0.00     0.148 A 
ATOM     64  C   UNL A   1      37.420  29.018  31.448  1.00  0.00     0.002 A 
ATOM     65  C   UNL A   1      36.917  30.028  29.299  1.00  0.00     0.091 A 
ATOM     66  F   UNL A   1      38.582  30.015  27.589  1.00  0.00    -0.205 F 
ATOM     67  C   UNL A   1      36.528  29.671  30.602  1.00  0.00     0.022 A 
BRANCH  65  68
ATOM     68  S   UNL A   1      35.717  30.932  28.313  1.00  0.00     0.127 S 
ATOM     69  O   UNL A   1      34.691  31.240  29.309  1.00  0.00    -0.237 OA
ATOM     70  O   UNL A   1      36.495  32.086  27.863  1.00  0.00    -0.237 OA
ATOM     71  O   UNL A   1      35.303  30.025  27.252  1.00  0.00    -0.744 OA
ENDBRANCH  65  68
ENDBRANCH  47  61
BRANCH  48  72
ATOM     72  C   UNL A   1      48.255  27.417  26.107  1.00  0.00     0.023 A 
ATOM     73  C   UNL A   1      49.342  27.029  26.913  1.00  0.00     0.012 A 
ATOM     74  C   UNL A   1      48.451  27.576  24.721  1.00  0.00     0.148 A 
ATOM     75  C   UNL A   1      50.606  26.833  26.357  1.00  0.00     0.002 A 
ATOM     76  C   UNL A   1      49.702  27.326  24.166  1.00  0.00     0.091 A 
ATOM     77  F   UNL A   1      47.412  27.967  23.969  1.00  0.00    -0.205 F 
ATOM     78  C   UNL A   1      50.784  26.970  24.983  1.00  0.00     0.022 A 
BRANCH  76  79
ATOM     79  S   UNL A   1      49.970  27.346  22.389  1.00  0.00     0.127 S 
ATOM     80  O   UNL A   1      51.368  26.938  22.291  1.00  0.00    -0.237 OA
ATOM     81  O   UNL A   1      49.003  26.353  21.918  1.00  0.00    -0.237 OA
ATOM     82  O   UNL A   1      49.667  28.710  21.975  1.00  0.00    -0.744 OA
ENDBRANCH  76  79
ENDBRANCH  48  72
BRANCH  60  83
ATOM     83  C   UNL A   1      45.128  32.936  29.029  1.00  0.00     0.023 A 
ATOM     84  C   UNL A   1      45.829  33.261  30.207  1.00  0.00     0.012 A 
ATOM     85  C   UNL A   1      44.928  33.924  28.045  1.00  0.00     0.148 A 
ATOM     86  C   UNL A   1      46.307  34.554  30.412  1.00  0.00     0.002 A 
ATOM     87  C   UNL A   1      45.446  35.200  28.237  1.00  0.00     0.091 A 
ATOM     88  F   UNL A   1      44.244  33.597  26.939  1.00  0.00    -0.205 F 
ATOM     89  C   UNL A   1      46.128  35.519  29.423  1.00  0.00     0.022 A 
BRANCH  87  90
ATOM     90  S   UNL A   1      45.344  36.480  26.981  1.00  0.00     0.127 S 
ATOM     91  O   UNL A   1      46.052  35.858  25.863  1.00  0.00    -0.237 OA
ATOM     92  O   UNL A   1      43.900  36.615  26.789  1.00  0.00    -0.237 OA
ATOM     93  O   UNL A   1      45.989  37.655  27.553  1.00  0.00    -0.744 OA
ENDBRANCH  87  90
ENDBRANCH  60  83
ENDBRANCH  34  35
ENDBRANCH  26  29
ENDBRANCH  24  25
ENDBRANCH  23  24
ENDBRANCH   1  23
TORSDOF 18
ENDMDL
