MODEL 1
REMARK VINA RESULT:      -8.4      0.000      0.000
REMARK SMILES CC[C@H](C)CN(CC)c1ccc(/C=C/C(=O)NCCCCNC(=O)c2ccc(-c3c4nc(c(-c5cccc(S(=O)(=O)[O-])c5F)c5ccc([nH]5)c(-c5cccc(S(=O)(=O)[O-])c5F)c5nc(c(-c6cccc(S(=O)(=O)[O-])c6F)c6ccc3[nH]6)C=C5)C=C4)cc2)cc1F
REMARK SMILES IDX 18 1 17 2 15 3 16 4 14 6 13 7 12 8 9 9 10 10 89 11 11 12
REMARK SMILES IDX 88 13 90 14 6 15 5 16 3 17 4 18 2 19 1 20 7 21 8 22 19 23
REMARK SMILES IDX 20 24 21 25 22 26 23 27 24 29 25 30 26 31 87 32 27 33 86 34
REMARK SMILES IDX 28 35 29 36 30 37 80 38 31 39 85 40 79 41 81 42 32 43 84 44
REMARK SMILES IDX 78 45 77 46 33 48 65 49 45 50 64 51 46 52 49 53 63 54 82 55
REMARK SMILES IDX 47 56 48 57 62 59 83 60 50 61 34 62 35 63 43 64 36 65 38 66
REMARK SMILES IDX 44 67 37 68 39 69 40 70 41 71 42 72 66 73 67 74 75 75 68 76
REMARK SMILES IDX 70 77 76 78 69 79 71 80 72 81 73 82 74 83 51 84 52 85 60 86
REMARK SMILES IDX 53 87 55 88 61 89 54 90 56 91 57 92 58 93 59 94
REMARK H PARENT 17 5 22 28 81 47 49 58
REMARK Flexibility Score: inf
ROOT
ATOM      1  C   UNL A   1      44.314  25.240  25.022  1.00  0.00     0.116 C 
ENDROOT
BRANCH   1   2
ATOM      2  N   UNL A   1      45.339  24.213  24.972  1.00  0.00    -0.353 N 
ATOM      3  C   UNL A   1      46.117  23.701  25.965  1.00  0.00     0.243 C 
ATOM      4  O   UNL A   1      46.842  22.733  25.751  1.00  0.00    -0.270 OA
ATOM      5  H   UNL A   1      45.497  23.828  24.081  1.00  0.00     0.163 HD
BRANCH   3   6
ATOM      6  C   UNL A   1      46.026  24.239  27.342  1.00  0.00     0.072 C 
ATOM      7  C   UNL A   1      45.214  23.729  28.280  1.00  0.00     0.014 C 
BRANCH   7   8
ATOM      8  C   UNL A   1      45.082  24.205  29.665  1.00  0.00    -0.022 A 
ATOM      9  C   UNL A   1      44.791  24.986  32.387  1.00  0.00     0.073 A 
ATOM     10  C   UNL A   1      45.554  25.745  31.495  1.00  0.00     0.029 A 
ATOM     11  C   UNL A   1      44.149  23.849  31.875  1.00  0.00     0.147 A 
ATOM     12  C   UNL A   1      45.685  25.371  30.150  1.00  0.00     0.010 A 
ATOM     13  C   UNL A   1      44.305  23.449  30.549  1.00  0.00     0.049 A 
ATOM     14  F   UNL A   1      43.378  23.092  32.673  1.00  0.00    -0.205 F 
BRANCH   9  15
ATOM     15  N   UNL A   1      44.691  25.362  33.717  1.00  0.00    -0.369 N 
BRANCH  15  16
ATOM     16  C   UNL A   1      44.081  26.645  34.090  1.00  0.00     0.120 C 
BRANCH  16  17
ATOM     17  C   UNL A   1      42.533  26.612  34.034  1.00  0.00     0.005 C 
ATOM     18  C   UNL A   1      41.936  26.443  35.440  1.00  0.00     0.009 C 
BRANCH  17  19
ATOM     19  C   UNL A   1      41.964  27.882  33.367  1.00  0.00     0.002 C 
ATOM     20  C   UNL A   1      42.538  28.125  31.976  1.00  0.00     0.004 C 
ENDBRANCH  17  19
ENDBRANCH  16  17
ENDBRANCH  15  16
BRANCH  15  21
ATOM     21  C   UNL A   1      45.252  24.474  34.729  1.00  0.00     0.113 C 
ATOM     22  C   UNL A   1      46.328  25.180  35.546  1.00  0.00     0.027 C 
ENDBRANCH  15  21
ENDBRANCH   9  15
ENDBRANCH   7   8
ENDBRANCH   3   6
ENDBRANCH   1   2
BRANCH   1  23
ATOM     23  C   UNL A   1      42.916  24.636  25.160  1.00  0.00     0.023 C 
BRANCH  23  24
ATOM     24  C   UNL A   1      42.837  23.135  24.866  1.00  0.00     0.023 C 
BRANCH  24  25
ATOM     25  C   UNL A   1      42.453  22.255  26.052  1.00  0.00     0.116 C 
BRANCH  25  26
ATOM     26  N   UNL A   1      41.072  21.801  26.015  1.00  0.00    -0.352 N 
ATOM     27  C   UNL A   1      39.949  22.452  26.474  1.00  0.00     0.251 C 
ATOM     28  H   UNL A   1      40.920  20.917  25.609  1.00  0.00     0.163 HD
ATOM     29  O   UNL A   1      38.855  21.895  26.453  1.00  0.00    -0.269 OA
BRANCH  27  30
ATOM     30  C   UNL A   1      40.087  23.812  27.031  1.00  0.00     0.039 A 
ATOM     31  C   UNL A   1      40.790  23.983  28.226  1.00  0.00     0.014 A 
ATOM     32  C   UNL A   1      39.579  24.916  26.342  1.00  0.00     0.014 A 
ATOM     33  C   UNL A   1      41.056  25.273  28.690  1.00  0.00     0.010 A 
ATOM     34  C   UNL A   1      39.896  26.200  26.773  1.00  0.00     0.010 A 
ATOM     35  C   UNL A   1      40.648  26.391  27.942  1.00  0.00    -0.014 A 
BRANCH  35  36
ATOM     36  C   UNL A   1      41.042  27.767  28.335  1.00  0.00     0.031 A 
ATOM     37  C   UNL A   1      42.488  28.173  28.333  1.00  0.00     0.074 A 
ATOM     38  C   UNL A   1      40.102  28.615  28.797  1.00  0.00     0.049 A 
ATOM     39  N   UNL A   1      43.025  29.301  28.720  1.00  0.00    -0.248 NA
ATOM     40  C   UNL A   1      43.462  27.176  27.858  1.00  0.00     0.031 C 
ATOM     41  C   UNL A   1      38.675  28.307  28.924  1.00  0.00     0.029 A 
ATOM     42  N   UNL A   1      40.206  29.899  29.274  1.00  0.00    -0.354 N 
ATOM     43  C   UNL A   1      44.396  29.140  28.569  1.00  0.00     0.074 A 
ATOM     44  C   UNL A   1      44.613  27.796  28.079  1.00  0.00     0.031 C 
ATOM     45  C   UNL A   1      38.039  29.371  29.440  1.00  0.00     0.029 A 
ATOM     46  C   UNL A   1      39.012  30.427  29.706  1.00  0.00     0.049 A 
ATOM     47  H   UNL A   1      41.057  30.395  29.304  1.00  0.00     0.167 HD
ATOM     48  C   UNL A   1      45.382  30.041  28.788  1.00  0.00     0.034 A 
ATOM     49  C   UNL A   1      38.730  31.624  30.256  1.00  0.00     0.034 A 
ATOM     50  C   UNL A   1      45.157  31.392  29.223  1.00  0.00     0.049 A 
ATOM     51  C   UNL A   1      39.837  32.626  30.436  1.00  0.00     0.074 A 
ATOM     52  C   UNL A   1      46.087  32.404  29.392  1.00  0.00     0.029 A 
ATOM     53  N   UNL A   1      43.922  31.923  29.558  1.00  0.00    -0.354 N 
ATOM     54  N   UNL A   1      41.109  32.506  30.144  1.00  0.00    -0.248 NA
ATOM     55  C   UNL A   1      39.469  33.939  30.986  1.00  0.00     0.031 C 
ATOM     56  C   UNL A   1      45.413  33.545  29.838  1.00  0.00     0.029 A 
ATOM     57  C   UNL A   1      44.063  33.248  29.932  1.00  0.00     0.049 A 
ATOM     58  H   UNL A   1      43.070  31.430  29.532  1.00  0.00     0.167 HD
ATOM     59  C   UNL A   1      41.687  33.734  30.445  1.00  0.00     0.074 A 
ATOM     60  C   UNL A   1      40.622  34.591  30.923  1.00  0.00     0.031 C 
ATOM     61  C   UNL A   1      42.987  34.109  30.349  1.00  0.00     0.034 A 
BRANCH  48  62
ATOM     62  C   UNL A   1      46.798  29.623  28.489  1.00  0.00     0.023 A 
ATOM     63  C   UNL A   1      47.362  29.951  27.239  1.00  0.00     0.012 A 
ATOM     64  C   UNL A   1      47.594  28.995  29.466  1.00  0.00     0.148 A 
ATOM     65  C   UNL A   1      48.691  29.641  26.958  1.00  0.00     0.002 A 
ATOM     66  C   UNL A   1      48.931  28.726  29.192  1.00  0.00     0.091 A 
ATOM     67  F   UNL A   1      47.032  28.672  30.640  1.00  0.00    -0.205 F 
ATOM     68  C   UNL A   1      49.478  29.042  27.937  1.00  0.00     0.022 A 
BRANCH  66  69
ATOM     69  S   UNL A   1      50.051  28.028  30.411  1.00  0.00     0.127 S 
ATOM     70  O   UNL A   1      49.991  29.030  31.474  1.00  0.00    -0.237 OA
ATOM     71  O   UNL A   1      49.402  26.758  30.735  1.00  0.00    -0.237 OA
ATOM     72  O   UNL A   1      51.340  27.900  29.746  1.00  0.00    -0.744 OA
ENDBRANCH  66  69
ENDBRANCH  48  62
BRANCH  49  73
ATOM     73  C   UNL A   1      37.317  31.966  30.587  1.00  0.00     0.023 A 
ATOM     74  C   UNL A   1      36.834  31.704  31.883  1.00  0.00     0.012 A 
ATOM     75  C   UNL A   1      36.475  32.608  29.656  1.00  0.00     0.148 A 
ATOM     76  C   UNL A   1      35.532  32.055  32.242  1.00  0.00     0.002 A 
ATOM     77  C   UNL A   1      35.198  33.004  30.038  1.00  0.00     0.091 A 
ATOM     78  F   UNL A   1      36.950  32.838  28.424  1.00  0.00    -0.205 F 
ATOM     79  C   UNL A   1      34.720  32.716  31.325  1.00  0.00     0.022 A 
BRANCH  77  80
ATOM     80  S   UNL A   1      34.137  33.986  28.972  1.00  0.00     0.127 S 
ATOM     81  O   UNL A   1      33.634  32.979  28.040  1.00  0.00    -0.237 OA
ATOM     82  O   UNL A   1      33.146  34.499  29.920  1.00  0.00    -0.237 OA
ATOM     83  O   UNL A   1      34.998  35.009  28.396  1.00  0.00    -0.744 OA
ENDBRANCH  77  80
ENDBRANCH  49  73
BRANCH  61  84
ATOM     84  C   UNL A   1      43.347  35.517  30.746  1.00  0.00     0.023 A 
ATOM     85  C   UNL A   1      43.775  35.779  32.062  1.00  0.00     0.012 A 
ATOM     86  C   UNL A   1      43.377  36.551  29.789  1.00  0.00     0.148 A 
ATOM     87  C   UNL A   1      44.209  37.053  32.425  1.00  0.00     0.002 A 
ATOM     88  C   UNL A   1      43.853  37.806  30.145  1.00  0.00     0.091 A 
ATOM     89  F   UNL A   1      42.946  36.285  28.546  1.00  0.00    -0.205 F 
ATOM     90  C   UNL A   1      44.263  38.062  31.464  1.00  0.00     0.022 A 
BRANCH  88  91
ATOM     91  S   UNL A   1      44.051  39.133  28.949  1.00  0.00     0.127 S 
ATOM     92  O   UNL A   1      44.997  38.542  28.003  1.00  0.00    -0.237 OA
ATOM     93  O   UNL A   1      42.692  39.295  28.433  1.00  0.00    -0.237 OA
ATOM     94  O   UNL A   1      44.549  40.276  29.701  1.00  0.00    -0.744 OA
ENDBRANCH  88  91
ENDBRANCH  61  84
ENDBRANCH  35  36
ENDBRANCH  27  30
ENDBRANCH  25  26
ENDBRANCH  24  25
ENDBRANCH  23  24
ENDBRANCH   1  23
TORSDOF 20
ENDMDL
MODEL 2
REMARK VINA RESULT:      -7.8      1.446      2.251
REMARK SMILES CC[C@H](C)CN(CC)c1ccc(/C=C/C(=O)NCCCCNC(=O)c2ccc(-c3c4nc(c(-c5cccc(S(=O)(=O)[O-])c5F)c5ccc([nH]5)c(-c5cccc(S(=O)(=O)[O-])c5F)c5nc(c(-c6cccc(S(=O)(=O)[O-])c6F)c6ccc3[nH]6)C=C5)C=C4)cc2)cc1F
REMARK SMILES IDX 18 1 17 2 15 3 16 4 14 6 13 7 12 8 9 9 10 10 89 11 11 12
REMARK SMILES IDX 88 13 90 14 6 15 5 16 3 17 4 18 2 19 1 20 7 21 8 22 19 23
REMARK SMILES IDX 20 24 21 25 22 26 23 27 24 29 25 30 26 31 87 32 27 33 86 34
REMARK SMILES IDX 28 35 29 36 30 37 80 38 31 39 85 40 79 41 81 42 32 43 84 44
REMARK SMILES IDX 78 45 77 46 33 48 65 49 45 50 64 51 46 52 49 53 63 54 82 55
REMARK SMILES IDX 47 56 48 57 62 59 83 60 50 61 34 62 35 63 43 64 36 65 38 66
REMARK SMILES IDX 44 67 37 68 39 69 40 70 41 71 42 72 66 73 67 74 75 75 68 76
REMARK SMILES IDX 70 77 76 78 69 79 71 80 72 81 73 82 74 83 51 84 52 85 60 86
REMARK SMILES IDX 53 87 55 88 61 89 54 90 56 91 57 92 58 93 59 94
REMARK H PARENT 17 5 22 28 81 47 49 58
REMARK Flexibility Score: inf
ROOT
ATOM      1  C   UNL A   1      44.459  25.225  25.006  1.00  0.00     0.116 C 
ENDROOT
BRANCH   1   2
ATOM      2  N   UNL A   1      45.392  24.124  24.850  1.00  0.00    -0.353 N 
ATOM      3  C   UNL A   1      46.088  23.424  25.788  1.00  0.00     0.243 C 
ATOM      4  O   UNL A   1      46.733  22.428  25.470  1.00  0.00    -0.270 OA
ATOM      5  H   UNL A   1      45.546  23.838  23.921  1.00  0.00     0.163 HD
BRANCH   3   6
ATOM      6  C   UNL A   1      45.999  23.795  27.219  1.00  0.00     0.072 C 
ATOM      7  C   UNL A   1      44.940  23.504  27.990  1.00  0.00     0.014 C 
BRANCH   7   8
ATOM      8  C   UNL A   1      44.789  23.829  29.416  1.00  0.00    -0.022 A 
ATOM      9  C   UNL A   1      44.549  24.597  32.146  1.00  0.00     0.073 A 
ATOM     10  C   UNL A   1      43.815  23.525  31.630  1.00  0.00     0.029 A 
ATOM     11  C   UNL A   1      45.432  25.250  31.274  1.00  0.00     0.147 A 
ATOM     12  C   UNL A   1      43.944  23.135  30.289  1.00  0.00     0.010 A 
ATOM     13  C   UNL A   1      45.538  24.893  29.930  1.00  0.00     0.049 A 
ATOM     14  F   UNL A   1      46.187  26.269  31.714  1.00  0.00    -0.205 F 
BRANCH   9  15
ATOM     15  N   UNL A   1      44.392  24.979  33.469  1.00  0.00    -0.369 N 
BRANCH  15  16
ATOM     16  C   UNL A   1      44.711  24.050  34.562  1.00  0.00     0.120 C 
BRANCH  16  17
ATOM     17  C   UNL A   1      46.231  23.957  34.845  1.00  0.00     0.005 C 
ATOM     18  C   UNL A   1      46.824  25.348  35.120  1.00  0.00     0.009 C 
BRANCH  17  19
ATOM     19  C   UNL A   1      46.529  23.013  36.029  1.00  0.00     0.002 C 
ATOM     20  C   UNL A   1      45.712  21.726  35.975  1.00  0.00     0.004 C 
ENDBRANCH  17  19
ENDBRANCH  16  17
ENDBRANCH  15  16
BRANCH  15  21
ATOM     21  C   UNL A   1      43.855  26.308  33.744  1.00  0.00     0.113 C 
ATOM     22  C   UNL A   1      42.702  26.241  34.739  1.00  0.00     0.027 C 
ENDBRANCH  15  21
ENDBRANCH   9  15
ENDBRANCH   7   8
ENDBRANCH   3   6
ENDBRANCH   1   2
BRANCH   1  23
ATOM     23  C   UNL A   1      43.024  24.728  25.182  1.00  0.00     0.023 C 
BRANCH  23  24
ATOM     24  C   UNL A   1      42.800  23.267  24.784  1.00  0.00     0.023 C 
BRANCH  24  25
ATOM     25  C   UNL A   1      42.494  22.315  25.937  1.00  0.00     0.116 C 
BRANCH  25  26
ATOM     26  N   UNL A   1      41.119  21.840  25.948  1.00  0.00    -0.352 N 
ATOM     27  C   UNL A   1      40.007  22.466  26.465  1.00  0.00     0.251 C 
ATOM     28  H   UNL A   1      40.964  20.961  25.533  1.00  0.00     0.163 HD
ATOM     29  O   UNL A   1      38.921  21.893  26.478  1.00  0.00    -0.269 OA
BRANCH  27  30
ATOM     30  C   UNL A   1      40.147  23.818  27.040  1.00  0.00     0.039 A 
ATOM     31  C   UNL A   1      40.891  23.979  28.211  1.00  0.00     0.014 A 
ATOM     32  C   UNL A   1      39.601  24.926  26.388  1.00  0.00     0.014 A 
ATOM     33  C   UNL A   1      41.157  25.264  28.687  1.00  0.00     0.010 A 
ATOM     34  C   UNL A   1      39.918  26.207  26.829  1.00  0.00     0.010 A 
ATOM     35  C   UNL A   1      40.709  26.389  27.973  1.00  0.00    -0.014 A 
BRANCH  35  36
ATOM     36  C   UNL A   1      41.099  27.763  28.376  1.00  0.00     0.031 A 
ATOM     37  C   UNL A   1      42.546  28.168  28.391  1.00  0.00     0.074 A 
ATOM     38  C   UNL A   1      40.155  28.611  28.830  1.00  0.00     0.049 A 
ATOM     39  N   UNL A   1      43.079  29.294  28.788  1.00  0.00    -0.248 NA
ATOM     40  C   UNL A   1      43.524  27.172  27.924  1.00  0.00     0.031 C 
ATOM     41  C   UNL A   1      38.726  28.303  28.940  1.00  0.00     0.029 A 
ATOM     42  N   UNL A   1      40.255  29.893  29.312  1.00  0.00    -0.354 N 
ATOM     43  C   UNL A   1      44.451  29.133  28.652  1.00  0.00     0.074 A 
ATOM     44  C   UNL A   1      44.673  27.790  28.160  1.00  0.00     0.031 C 
ATOM     45  C   UNL A   1      38.085  29.365  29.452  1.00  0.00     0.029 A 
ATOM     46  C   UNL A   1      39.056  30.420  29.732  1.00  0.00     0.049 A 
ATOM     47  H   UNL A   1      41.105  30.388  29.353  1.00  0.00     0.167 HD
ATOM     48  C   UNL A   1      45.436  30.032  28.885  1.00  0.00     0.034 A 
ATOM     49  C   UNL A   1      38.768  31.615  30.283  1.00  0.00     0.034 A 
ATOM     50  C   UNL A   1      45.207  31.381  29.323  1.00  0.00     0.049 A 
ATOM     51  C   UNL A   1      39.874  32.616  30.479  1.00  0.00     0.074 A 
ATOM     52  C   UNL A   1      46.135  32.393  29.505  1.00  0.00     0.029 A 
ATOM     53  N   UNL A   1      43.968  31.913  29.645  1.00  0.00    -0.354 N 
ATOM     54  N   UNL A   1      41.150  32.496  30.202  1.00  0.00    -0.248 NA
ATOM     55  C   UNL A   1      39.501  33.927  31.029  1.00  0.00     0.031 C 
ATOM     56  C   UNL A   1      45.457  33.532  29.948  1.00  0.00     0.029 A 
ATOM     57  C   UNL A   1      44.107  33.236  30.025  1.00  0.00     0.049 A 
ATOM     58  H   UNL A   1      43.117  31.420  29.608  1.00  0.00     0.167 HD
ATOM     59  C   UNL A   1      41.726  33.722  30.513  1.00  0.00     0.074 A 
ATOM     60  C   UNL A   1      40.656  34.579  30.982  1.00  0.00     0.031 C 
ATOM     61  C   UNL A   1      43.026  34.097  30.433  1.00  0.00     0.034 A 
BRANCH  48  62
ATOM     62  C   UNL A   1      46.854  29.614  28.601  1.00  0.00     0.023 A 
ATOM     63  C   UNL A   1      47.382  29.807  27.308  1.00  0.00     0.012 A 
ATOM     64  C   UNL A   1      47.688  29.122  29.624  1.00  0.00     0.148 A 
ATOM     65  C   UNL A   1      48.711  29.496  27.031  1.00  0.00     0.002 A 
ATOM     66  C   UNL A   1      49.025  28.853  29.349  1.00  0.00     0.091 A 
ATOM     67  F   UNL A   1      47.161  28.926  30.841  1.00  0.00    -0.205 F 
ATOM     68  C   UNL A   1      49.535  29.032  28.052  1.00  0.00     0.022 A 
BRANCH  66  69
ATOM     69  S   UNL A   1      50.189  28.327  30.612  1.00  0.00     0.127 S 
ATOM     70  O   UNL A   1      49.703  29.056  31.783  1.00  0.00    -0.237 OA
ATOM     71  O   UNL A   1      49.964  26.883  30.657  1.00  0.00    -0.237 OA
ATOM     72  O   UNL A   1      51.506  28.723  30.134  1.00  0.00    -0.744 OA
ENDBRANCH  66  69
ENDBRANCH  48  62
BRANCH  49  73
ATOM     73  C   UNL A   1      37.353  31.958  30.599  1.00  0.00     0.023 A 
ATOM     74  C   UNL A   1      36.863  31.719  31.898  1.00  0.00     0.012 A 
ATOM     75  C   UNL A   1      36.513  32.577  29.652  1.00  0.00     0.148 A 
ATOM     76  C   UNL A   1      35.558  32.071  32.243  1.00  0.00     0.002 A 
ATOM     77  C   UNL A   1      35.232  32.975  30.018  1.00  0.00     0.091 A 
ATOM     78  F   UNL A   1      36.994  32.784  28.417  1.00  0.00    -0.205 F 
ATOM     79  C   UNL A   1      34.748  32.710  31.308  1.00  0.00     0.022 A 
BRANCH  77  80
ATOM     80  S   UNL A   1      34.172  33.930  28.926  1.00  0.00     0.127 S 
ATOM     81  O   UNL A   1      35.086  34.967  28.454  1.00  0.00    -0.237 OA
ATOM     82  O   UNL A   1      33.797  32.935  27.921  1.00  0.00    -0.237 OA
ATOM     83  O   UNL A   1      33.067  34.389  29.755  1.00  0.00    -0.744 OA
ENDBRANCH  77  80
ENDBRANCH  49  73
BRANCH  61  84
ATOM     84  C   UNL A   1      43.383  35.503  30.839  1.00  0.00     0.023 A 
ATOM     85  C   UNL A   1      43.610  36.475  29.846  1.00  0.00     0.012 A 
ATOM     86  C   UNL A   1      43.377  35.886  32.195  1.00  0.00     0.148 A 
ATOM     87  C   UNL A   1      43.843  37.804  30.196  1.00  0.00     0.002 A 
ATOM     88  C   UNL A   1      43.565  37.220  32.535  1.00  0.00     0.091 A 
ATOM     89  F   UNL A   1      43.179  34.940  33.126  1.00  0.00    -0.205 F 
ATOM     90  C   UNL A   1      43.806  38.179  31.538  1.00  0.00     0.022 A 
BRANCH  88  91
ATOM     91  S   UNL A   1      43.433  37.807  34.228  1.00  0.00     0.127 S 
ATOM     92  O   UNL A   1      43.051  39.204  34.029  1.00  0.00    -0.237 OA
ATOM     93  O   UNL A   1      42.374  36.956  34.773  1.00  0.00    -0.237 OA
ATOM     94  O   UNL A   1      44.743  37.594  34.827  1.00  0.00    -0.744 OA
ENDBRANCH  88  91
ENDBRANCH  61  84
ENDBRANCH  35  36
ENDBRANCH  27  30
ENDBRANCH  25  26
ENDBRANCH  24  25
ENDBRANCH  23  24
ENDBRANCH   1  23
TORSDOF 20
ENDMDL
MODEL 3
REMARK VINA RESULT:      -7.6      1.638      2.400
REMARK SMILES CC[C@H](C)CN(CC)c1ccc(/C=C/C(=O)NCCCCNC(=O)c2ccc(-c3c4nc(c(-c5cccc(S(=O)(=O)[O-])c5F)c5ccc([nH]5)c(-c5cccc(S(=O)(=O)[O-])c5F)c5nc(c(-c6cccc(S(=O)(=O)[O-])c6F)c6ccc3[nH]6)C=C5)C=C4)cc2)cc1F
REMARK SMILES IDX 18 1 17 2 15 3 16 4 14 6 13 7 12 8 9 9 10 10 89 11 11 12
REMARK SMILES IDX 88 13 90 14 6 15 5 16 3 17 4 18 2 19 1 20 7 21 8 22 19 23
REMARK SMILES IDX 20 24 21 25 22 26 23 27 24 29 25 30 26 31 87 32 27 33 86 34
REMARK SMILES IDX 28 35 29 36 30 37 80 38 31 39 85 40 79 41 81 42 32 43 84 44
REMARK SMILES IDX 78 45 77 46 33 48 65 49 45 50 64 51 46 52 49 53 63 54 82 55
REMARK SMILES IDX 47 56 48 57 62 59 83 60 50 61 34 62 35 63 43 64 36 65 38 66
REMARK SMILES IDX 44 67 37 68 39 69 40 70 41 71 42 72 66 73 67 74 75 75 68 76
REMARK SMILES IDX 70 77 76 78 69 79 71 80 72 81 73 82 74 83 51 84 52 85 60 86
REMARK SMILES IDX 53 87 55 88 61 89 54 90 56 91 57 92 58 93 59 94
REMARK H PARENT 17 5 22 28 81 47 49 58
REMARK Flexibility Score: inf
ROOT
ATOM      1  C   UNL A   1      44.769  25.174  25.210  1.00  0.00     0.116 C 
ENDROOT
BRANCH   1   2
ATOM      2  N   UNL A   1      45.464  23.905  25.084  1.00  0.00    -0.353 N 
ATOM      3  C   UNL A   1      46.016  23.109  26.040  1.00  0.00     0.243 C 
ATOM      4  O   UNL A   1      46.448  21.996  25.749  1.00  0.00    -0.270 OA
ATOM      5  H   UNL A   1      45.549  23.568  24.164  1.00  0.00     0.163 HD
BRANCH   3   6
ATOM      6  C   UNL A   1      46.016  23.531  27.459  1.00  0.00     0.072 C 
ATOM      7  C   UNL A   1      44.916  23.531  28.227  1.00  0.00     0.014 C 
BRANCH   7   8
ATOM      8  C   UNL A   1      44.845  23.924  29.642  1.00  0.00    -0.022 A 
ATOM      9  C   UNL A   1      44.667  24.546  32.414  1.00  0.00     0.073 A 
ATOM     10  C   UNL A   1      45.442  25.322  31.548  1.00  0.00     0.029 A 
ATOM     11  C   UNL A   1      43.955  23.475  31.853  1.00  0.00     0.147 A 
ATOM     12  C   UNL A   1      45.518  25.028  30.179  1.00  0.00     0.010 A 
ATOM     13  C   UNL A   1      44.055  23.152  30.501  1.00  0.00     0.049 A 
ATOM     14  F   UNL A   1      43.170  22.707  32.626  1.00  0.00    -0.205 F 
BRANCH   9  15
ATOM     15  N   UNL A   1      44.621  24.842  33.767  1.00  0.00    -0.369 N 
BRANCH  15  16
ATOM     16  C   UNL A   1      45.665  24.354  34.678  1.00  0.00     0.120 C 
BRANCH  16  17
ATOM     17  C   UNL A   1      46.056  22.880  34.407  1.00  0.00     0.005 C 
ATOM     18  C   UNL A   1      47.499  22.603  34.858  1.00  0.00     0.009 C 
BRANCH  17  19
ATOM     19  C   UNL A   1      45.088  21.901  35.105  1.00  0.00     0.002 C 
ATOM     20  C   UNL A   1      45.730  21.180  36.285  1.00  0.00     0.004 C 
ENDBRANCH  17  19
ENDBRANCH  16  17
ENDBRANCH  15  16
BRANCH  15  21
ATOM     21  C   UNL A   1      43.483  25.605  34.268  1.00  0.00     0.113 C 
ATOM     22  C   UNL A   1      42.663  24.788  35.259  1.00  0.00     0.027 C 
ENDBRANCH  15  21
ENDBRANCH   9  15
ENDBRANCH   7   8
ENDBRANCH   3   6
ENDBRANCH   1   2
BRANCH   1  23
ATOM     23  C   UNL A   1      43.251  24.986  25.231  1.00  0.00     0.023 C 
BRANCH  23  24
ATOM     24  C   UNL A   1      42.771  23.607  24.771  1.00  0.00     0.023 C 
BRANCH  24  25
ATOM     25  C   UNL A   1      42.535  22.592  25.886  1.00  0.00     0.116 C 
BRANCH  25  26
ATOM     26  N   UNL A   1      41.161  22.118  25.957  1.00  0.00    -0.352 N 
ATOM     27  C   UNL A   1      40.072  22.747  26.518  1.00  0.00     0.251 C 
ATOM     28  H   UNL A   1      40.988  21.237  25.552  1.00  0.00     0.163 HD
ATOM     29  O   UNL A   1      38.987  22.174  26.580  1.00  0.00    -0.269 OA
BRANCH  27  30
ATOM     30  C   UNL A   1      40.237  24.100  27.082  1.00  0.00     0.039 A 
ATOM     31  C   UNL A   1      40.904  24.247  28.300  1.00  0.00     0.014 A 
ATOM     32  C   UNL A   1      39.792  25.221  26.377  1.00  0.00     0.014 A 
ATOM     33  C   UNL A   1      41.199  25.527  28.774  1.00  0.00     0.010 A 
ATOM     34  C   UNL A   1      40.138  26.494  26.820  1.00  0.00     0.010 A 
ATOM     35  C   UNL A   1      40.856  26.659  28.014  1.00  0.00    -0.014 A 
BRANCH  35  36
ATOM     36  C   UNL A   1      41.283  28.020  28.423  1.00  0.00     0.031 A 
ATOM     37  C   UNL A   1      42.742  28.342  28.584  1.00  0.00     0.074 A 
ATOM     38  C   UNL A   1      40.348  28.933  28.753  1.00  0.00     0.049 A 
ATOM     39  N   UNL A   1      43.297  29.447  29.009  1.00  0.00    -0.248 NA
ATOM     40  C   UNL A   1      43.702  27.278  28.248  1.00  0.00     0.031 C 
ATOM     41  C   UNL A   1      38.901  28.711  28.717  1.00  0.00     0.029 A 
ATOM     42  N   UNL A   1      40.473  30.221  29.213  1.00  0.00    -0.354 N 
ATOM     43  C   UNL A   1      44.663  29.204  29.024  1.00  0.00     0.074 A 
ATOM     44  C   UNL A   1      44.855  27.837  28.591  1.00  0.00     0.031 C 
ATOM     45  C   UNL A   1      38.274  29.823  29.131  1.00  0.00     0.029 A 
ATOM     46  C   UNL A   1      39.271  30.829  29.489  1.00  0.00     0.049 A 
ATOM     47  H   UNL A   1      41.343  30.668  29.332  1.00  0.00     0.167 HD
ATOM     48  C   UNL A   1      45.670  30.052  29.340  1.00  0.00     0.034 A 
ATOM     49  C   UNL A   1      38.999  32.055  29.976  1.00  0.00     0.034 A 
ATOM     50  C   UNL A   1      45.477  31.425  29.718  1.00  0.00     0.049 A 
ATOM     51  C   UNL A   1      40.135  32.996  30.266  1.00  0.00     0.074 A 
ATOM     52  C   UNL A   1      46.440  32.387  29.974  1.00  0.00     0.029 A 
ATOM     53  N   UNL A   1      44.245  32.036  29.892  1.00  0.00    -0.354 N 
ATOM     54  N   UNL A   1      41.424  32.796  30.130  1.00  0.00    -0.248 NA
ATOM     55  C   UNL A   1      39.786  34.343  30.741  1.00  0.00     0.031 C 
ATOM     56  C   UNL A   1      45.789  33.576  30.314  1.00  0.00     0.029 A 
ATOM     57  C   UNL A   1      44.422  33.360  30.253  1.00  0.00     0.049 A 
ATOM     58  H   UNL A   1      43.374  31.592  29.776  1.00  0.00     0.167 HD
ATOM     59  C   UNL A   1      42.036  33.996  30.471  1.00  0.00     0.074 A 
ATOM     60  C   UNL A   1      40.976  34.926  30.802  1.00  0.00     0.031 C 
ATOM     61  C   UNL A   1      43.358  34.293  30.522  1.00  0.00     0.034 A 
BRANCH  48  62
ATOM     62  C   UNL A   1      47.083  29.546  29.219  1.00  0.00     0.023 A 
ATOM     63  C   UNL A   1      47.704  28.967  30.345  1.00  0.00     0.012 A 
ATOM     64  C   UNL A   1      47.758  29.556  27.984  1.00  0.00     0.148 A 
ATOM     65  C   UNL A   1      48.984  28.425  30.248  1.00  0.00     0.002 A 
ATOM     66  C   UNL A   1      49.018  28.976  27.886  1.00  0.00     0.091 A 
ATOM     67  F   UNL A   1      47.158  30.130  26.931  1.00  0.00    -0.205 F 
ATOM     68  C   UNL A   1      49.635  28.418  29.018  1.00  0.00     0.022 A 
BRANCH  66  69
ATOM     69  S   UNL A   1      49.909  28.845  26.331  1.00  0.00     0.127 S 
ATOM     70  O   UNL A   1      50.456  30.193  26.190  1.00  0.00    -0.237 OA
ATOM     71  O   UNL A   1      50.901  27.812  26.630  1.00  0.00    -0.237 OA
ATOM     72  O   UNL A   1      48.919  28.466  25.332  1.00  0.00    -0.744 OA
ENDBRANCH  66  69
ENDBRANCH  48  62
BRANCH  49  73
ATOM     73  C   UNL A   1      37.581  32.487  30.131  1.00  0.00     0.023 A 
ATOM     74  C   UNL A   1      36.747  32.523  28.996  1.00  0.00     0.012 A 
ATOM     75  C   UNL A   1      37.036  32.794  31.394  1.00  0.00     0.148 A 
ATOM     76  C   UNL A   1      35.403  32.877  29.111  1.00  0.00     0.002 A 
ATOM     77  C   UNL A   1      35.682  33.092  31.509  1.00  0.00     0.091 A 
ATOM     78  F   UNL A   1      37.849  32.765  32.460  1.00  0.00    -0.205 F 
ATOM     79  C   UNL A   1      34.868  33.148  30.368  1.00  0.00     0.022 A 
BRANCH  77  80
ATOM     80  S   UNL A   1      34.878  33.313  33.100  1.00  0.00     0.127 S 
ATOM     81  O   UNL A   1      33.505  32.913  32.799  1.00  0.00    -0.237 OA
ATOM     82  O   UNL A   1      35.620  32.378  33.947  1.00  0.00    -0.237 OA
ATOM     83  O   UNL A   1      35.069  34.714  33.446  1.00  0.00    -0.744 OA
ENDBRANCH  77  80
ENDBRANCH  49  73
BRANCH  61  84
ATOM     84  C   UNL A   1      43.754  35.688  30.930  1.00  0.00     0.023 A 
ATOM     85  C   UNL A   1      43.962  35.980  32.291  1.00  0.00     0.012 A 
ATOM     86  C   UNL A   1      44.033  36.671  29.959  1.00  0.00     0.148 A 
ATOM     87  C   UNL A   1      44.426  37.236  32.683  1.00  0.00     0.002 A 
ATOM     88  C   UNL A   1      44.538  37.904  30.353  1.00  0.00     0.091 A 
ATOM     89  F   UNL A   1      43.808  36.379  28.669  1.00  0.00    -0.205 F 
ATOM     90  C   UNL A   1      44.728  38.191  31.714  1.00  0.00     0.022 A 
BRANCH  88  91
ATOM     91  S   UNL A   1      45.048  39.155  29.168  1.00  0.00     0.127 S 
ATOM     92  O   UNL A   1      46.054  38.434  28.389  1.00  0.00    -0.237 OA
ATOM     93  O   UNL A   1      43.804  39.433  28.450  1.00  0.00    -0.237 OA
ATOM     94  O   UNL A   1      45.549  40.272  29.958  1.00  0.00    -0.744 OA
ENDBRANCH  88  91
ENDBRANCH  61  84
ENDBRANCH  35  36
ENDBRANCH  27  30
ENDBRANCH  25  26
ENDBRANCH  24  25
ENDBRANCH  23  24
ENDBRANCH   1  23
TORSDOF 20
ENDMDL
