MODEL 1
REMARK VINA RESULT:     -12.8      0.000      0.000
REMARK SMILES CCCSc1nc2n(n1)[C@@H](c1ccc(C(=O)NCCCCNC(=O)c3ccc(-c4c5nc(c(-c6cccc(S(=O)(=O)[O-])c6F)c6ccc([nH]6)c(-c6cccc(S(=O)(=O)[O-])c6F)c6nc(c(-c7cccc(S(=O)(=O)[O-])c7F)c7ccc4[nH]7)C=C6)C=C5)cc3)cc1)C(C(=O)Nc1cccc(C)c1)=C(C)N2
REMARK SMILES IDX 19 1 18 2 17 3 15 4 16 5 14 7 11 8 12 9 89 10 13 11 88 12
REMARK SMILES IDX 10 13 5 14 6 15 9 16 7 17 8 18 103 19 101 20 90 22 102 23
REMARK SMILES IDX 4 24 3 25 2 26 1 27 91 28 92 29 93 30 94 32 95 33 100 34
REMARK SMILES IDX 96 35 98 36 97 37 99 38 20 39 21 40 22 41 23 42 24 44 25 45
REMARK SMILES IDX 26 46 87 47 27 48 86 49 28 50 29 51 30 52 80 53 31 54 85 55
REMARK SMILES IDX 79 56 81 57 32 58 84 59 78 60 77 61 33 63 65 64 45 65 64 66
REMARK SMILES IDX 46 67 49 68 63 69 82 70 47 71 48 72 62 74 83 75 50 76 34 77
REMARK SMILES IDX 35 78 43 79 36 80 38 81 44 82 37 83 39 84 40 85 41 86 42 87
REMARK SMILES IDX 66 88 67 89 75 90 68 91 70 92 76 93 69 94 71 95 72 96 73 97
REMARK SMILES IDX 74 98 51 99 52 100 60 101 53 102 55 103 61 104 54 105 56 106
REMARK SMILES IDX 57 107 58 108 59 109
REMARK H PARENT 17 6 103 21 93 31 22 43 81 62 49 73
REMARK Flexibility Score: inf
ROOT
ATOM      1  C   UNL A   1      39.978  20.316  26.534  1.00  0.00     0.023 C 
ENDROOT
BRANCH   1   2
ATOM      2  C   UNL A   1      38.925  20.990  25.647  1.00  0.00     0.116 C 
BRANCH   2   3
ATOM      3  N   UNL A   1      38.996  22.432  25.759  1.00  0.00    -0.352 N 
ATOM      4  C   UNL A   1      38.029  23.401  25.721  1.00  0.00     0.251 C 
ATOM      5  O   UNL A   1      38.379  24.576  25.820  1.00  0.00    -0.269 OA
ATOM      6  H   UNL A   1      39.908  22.780  25.886  1.00  0.00     0.163 HD
BRANCH   4   7
ATOM      7  C   UNL A   1      36.577  23.097  25.612  1.00  0.00     0.039 A 
ATOM      8  C   UNL A   1      33.803  22.460  25.626  1.00  0.00    -0.019 A 
ATOM      9  C   UNL A   1      34.468  22.893  26.791  1.00  0.00     0.007 A 
ATOM     10  C   UNL A   1      34.549  22.440  24.440  1.00  0.00     0.007 A 
ATOM     11  C   UNL A   1      35.828  23.208  26.784  1.00  0.00     0.014 A 
ATOM     12  C   UNL A   1      35.915  22.752  24.434  1.00  0.00     0.014 A 
BRANCH   8  13
ATOM     13  C   UNL A   1      32.368  21.868  25.651  1.00  0.00     0.179 C 
ATOM     14  C   UNL A   1      32.695  19.076  23.579  1.00  0.00     0.210 A 
ATOM     15  N   UNL A   1      32.225  19.972  22.659  1.00  0.00    -0.185 NA
ATOM     16  N   UNL A   1      32.728  19.513  24.847  1.00  0.00    -0.141 NA
ATOM     17  C   UNL A   1      31.912  21.005  23.381  1.00  0.00     0.227 A 
ATOM     18  N   UNL A   1      32.261  20.772  24.681  1.00  0.00    -0.218 N 
ATOM     19  N   UNL A   1      31.446  22.213  23.037  1.00  0.00    -0.328 N 
ATOM     20  C   UNL A   1      31.139  23.211  23.959  1.00  0.00     0.026 C 
ATOM     21  H   UNL A   1      31.314  22.405  22.081  1.00  0.00     0.169 HD
ATOM     22  C   UNL A   1      31.351  22.994  25.289  1.00  0.00     0.065 C 
ATOM     23  C   UNL A   1      30.676  24.484  23.303  1.00  0.00     0.065 C 
BRANCH  14  24
ATOM     24  S   UNL A   1      33.195  17.473  23.122  1.00  0.00    -0.084 SA
BRANCH  24  25
ATOM     25  C   UNL A   1      34.545  17.173  24.316  1.00  0.00     0.078 C 
BRANCH  25  26
ATOM     26  C   UNL A   1      34.376  15.910  25.170  1.00  0.00     0.008 C 
ATOM     27  C   UNL A   1      32.942  15.463  25.409  1.00  0.00     0.005 C 
ENDBRANCH  25  26
ENDBRANCH  24  25
ENDBRANCH  14  24
BRANCH  22  28
ATOM     28  C   UNL A   1      30.912  23.791  26.492  1.00  0.00     0.255 C 
ATOM     29  O   UNL A   1      30.062  23.326  27.257  1.00  0.00    -0.269 OA
ATOM     30  N   UNL A   1      31.395  25.025  26.807  1.00  0.00    -0.322 N 
ATOM     31  H   UNL A   1      31.338  25.252  27.764  1.00  0.00     0.170 HD
BRANCH  30  32
ATOM     32  C   UNL A   1      31.959  26.023  26.009  1.00  0.00     0.041 A 
ATOM     33  C   UNL A   1      33.305  25.882  25.660  1.00  0.00     0.026 A 
ATOM     34  C   UNL A   1      31.209  27.084  25.504  1.00  0.00     0.029 A 
ATOM     35  C   UNL A   1      33.854  26.714  24.686  1.00  0.00     0.002 A 
ATOM     36  C   UNL A   1      31.759  27.933  24.536  1.00  0.00    -0.049 A 
ATOM     37  C   UNL A   1      33.079  27.723  24.114  1.00  0.00     0.003 A 
ATOM     38  C   UNL A   1      30.909  28.975  23.875  1.00  0.00     0.044 C 
ENDBRANCH  30  32
ENDBRANCH  22  28
ENDBRANCH   8  13
ENDBRANCH   4   7
ENDBRANCH   2   3
ENDBRANCH   1   2
BRANCH   1  39
ATOM     39  C   UNL A   1      40.889  19.310  25.819  1.00  0.00     0.023 C 
BRANCH  39  40
ATOM     40  C   UNL A   1      42.241  19.093  26.487  1.00  0.00     0.116 C 
BRANCH  40  41
ATOM     41  N   UNL A   1      43.322  18.965  25.512  1.00  0.00    -0.352 N 
ATOM     42  C   UNL A   1      44.008  19.969  24.863  1.00  0.00     0.251 C 
ATOM     43  H   UNL A   1      43.595  18.045  25.291  1.00  0.00     0.163 HD
ATOM     44  O   UNL A   1      44.612  19.741  23.822  1.00  0.00    -0.269 OA
BRANCH  42  45
ATOM     45  C   UNL A   1      44.005  21.321  25.443  1.00  0.00     0.039 A 
ATOM     46  C   UNL A   1      42.947  22.196  25.193  1.00  0.00     0.014 A 
ATOM     47  C   UNL A   1      45.061  21.692  26.275  1.00  0.00     0.014 A 
ATOM     48  C   UNL A   1      42.912  23.414  25.863  1.00  0.00     0.010 A 
ATOM     49  C   UNL A   1      44.973  22.849  27.016  1.00  0.00     0.010 A 
ATOM     50  C   UNL A   1      43.913  23.727  26.799  1.00  0.00    -0.014 A 
BRANCH  50  51
ATOM     51  C   UNL A   1      43.752  24.893  27.666  1.00  0.00     0.031 A 
ATOM     52  C   UNL A   1      42.373  25.462  27.691  1.00  0.00     0.074 A 
ATOM     53  C   UNL A   1      44.688  25.314  28.542  1.00  0.00     0.049 A 
ATOM     54  N   UNL A   1      41.994  26.623  27.267  1.00  0.00    -0.248 NA
ATOM     55  C   UNL A   1      41.263  24.593  28.114  1.00  0.00     0.031 C 
ATOM     56  C   UNL A   1      45.969  24.676  28.865  1.00  0.00     0.029 A 
ATOM     57  N   UNL A   1      44.618  26.327  29.452  1.00  0.00    -0.354 N 
ATOM     58  C   UNL A   1      40.643  26.724  27.594  1.00  0.00     0.074 A 
ATOM     59  C   UNL A   1      40.211  25.389  27.919  1.00  0.00     0.031 C 
ATOM     60  C   UNL A   1      46.409  25.139  30.055  1.00  0.00     0.029 A 
ATOM     61  C   UNL A   1      45.534  26.210  30.495  1.00  0.00     0.049 A 
ATOM     62  H   UNL A   1      43.979  27.073  29.379  1.00  0.00     0.167 HD
ATOM     63  C   UNL A   1      40.060  27.934  27.822  1.00  0.00     0.034 A 
ATOM     64  C   UNL A   1      45.531  26.899  31.663  1.00  0.00     0.034 A 
ATOM     65  C   UNL A   1      40.879  29.015  27.326  1.00  0.00     0.049 A 
ATOM     66  C   UNL A   1      44.731  28.126  31.442  1.00  0.00     0.074 A 
ATOM     67  C   UNL A   1      41.458  29.322  26.110  1.00  0.00     0.029 A 
ATOM     68  N   UNL A   1      41.534  29.786  28.255  1.00  0.00    -0.354 N 
ATOM     69  N   UNL A   1      45.105  29.097  30.657  1.00  0.00    -0.248 NA
ATOM     70  C   UNL A   1      43.314  28.089  31.765  1.00  0.00     0.031 C 
ATOM     71  C   UNL A   1      42.742  29.844  26.444  1.00  0.00     0.029 A 
ATOM     72  C   UNL A   1      42.832  29.898  27.836  1.00  0.00     0.049 A 
ATOM     73  H   UNL A   1      41.146  30.181  29.068  1.00  0.00     0.167 HD
ATOM     74  C   UNL A   1      43.937  29.484  30.016  1.00  0.00     0.074 A 
ATOM     75  C   UNL A   1      42.856  28.916  30.822  1.00  0.00     0.031 C 
ATOM     76  C   UNL A   1      43.958  29.966  28.738  1.00  0.00     0.034 A 
BRANCH  63  77
ATOM     77  C   UNL A   1      38.952  28.196  28.824  1.00  0.00     0.023 A 
ATOM     78  C   UNL A   1      37.829  28.925  28.368  1.00  0.00     0.012 A 
ATOM     79  C   UNL A   1      39.078  28.034  30.222  1.00  0.00     0.148 A 
ATOM     80  C   UNL A   1      36.932  29.532  29.255  1.00  0.00     0.002 A 
ATOM     81  C   UNL A   1      38.138  28.567  31.097  1.00  0.00     0.091 A 
ATOM     82  F   UNL A   1      40.178  27.483  30.740  1.00  0.00    -0.205 F 
ATOM     83  C   UNL A   1      37.085  29.350  30.622  1.00  0.00     0.022 A 
BRANCH  81  84
ATOM     84  S   UNL A   1      38.255  28.313  32.872  1.00  0.00     0.127 S 
ATOM     85  O   UNL A   1      39.450  29.084  33.199  1.00  0.00    -0.237 OA
ATOM     86  O   UNL A   1      36.994  28.886  33.340  1.00  0.00    -0.237 OA
ATOM     87  O   UNL A   1      38.355  26.867  33.051  1.00  0.00    -0.744 OA
ENDBRANCH  81  84
ENDBRANCH  63  77
BRANCH  64  88
ATOM     88  C   UNL A   1      45.981  26.494  33.017  1.00  0.00     0.023 A 
ATOM     89  C   UNL A   1      47.045  27.188  33.628  1.00  0.00     0.012 A 
ATOM     90  C   UNL A   1      45.205  25.631  33.823  1.00  0.00     0.148 A 
ATOM     91  C   UNL A   1      47.297  27.067  35.000  1.00  0.00     0.002 A 
ATOM     92  C   UNL A   1      45.468  25.504  35.184  1.00  0.00     0.091 A 
ATOM     93  F   UNL A   1      44.149  25.010  33.282  1.00  0.00    -0.205 F 
ATOM     94  C   UNL A   1      46.502  26.233  35.781  1.00  0.00     0.022 A 
BRANCH  92  95
ATOM     95  S   UNL A   1      44.466  24.452  36.246  1.00  0.00     0.127 S 
ATOM     96  O   UNL A   1      44.814  23.112  35.769  1.00  0.00    -0.237 OA
ATOM     97  O   UNL A   1      44.981  24.783  37.572  1.00  0.00    -0.237 OA
ATOM     98  O   UNL A   1      43.083  24.834  35.984  1.00  0.00    -0.744 OA
ENDBRANCH  92  95
ENDBRANCH  64  88
BRANCH  76  99
ATOM     99  C   UNL A   1      45.284  30.332  28.118  1.00  0.00     0.023 A 
ATOM    100  C   UNL A   1      45.922  31.566  28.364  1.00  0.00     0.012 A 
ATOM    101  C   UNL A   1      45.988  29.332  27.426  1.00  0.00     0.148 A 
ATOM    102  C   UNL A   1      47.220  31.806  27.907  1.00  0.00     0.002 A 
ATOM    103  C   UNL A   1      47.298  29.555  27.018  1.00  0.00     0.091 A 
ATOM    104  F   UNL A   1      45.371  28.162  27.199  1.00  0.00    -0.205 F 
ATOM    105  C   UNL A   1      47.915  30.793  27.248  1.00  0.00     0.022 A 
BRANCH 103 106
ATOM    106  S   UNL A   1      48.282  28.245  26.288  1.00  0.00     0.127 S 
ATOM    107  O   UNL A   1      47.970  27.110  27.154  1.00  0.00    -0.237 OA
ATOM    108  O   UNL A   1      47.731  28.151  24.935  1.00  0.00    -0.237 OA
ATOM    109  O   UNL A   1      49.663  28.710  26.333  1.00  0.00    -0.744 OA
ENDBRANCH 103 106
ENDBRANCH  76  99
ENDBRANCH  50  51
ENDBRANCH  42  45
ENDBRANCH  40  41
ENDBRANCH  39  40
ENDBRANCH   1  39
TORSDOF 20
ENDMDL
MODEL 2
REMARK VINA RESULT:     -12.7      1.775      6.424
REMARK SMILES CCCSc1nc2n(n1)[C@@H](c1ccc(C(=O)NCCCCNC(=O)c3ccc(-c4c5nc(c(-c6cccc(S(=O)(=O)[O-])c6F)c6ccc([nH]6)c(-c6cccc(S(=O)(=O)[O-])c6F)c6nc(c(-c7cccc(S(=O)(=O)[O-])c7F)c7ccc4[nH]7)C=C6)C=C5)cc3)cc1)C(C(=O)Nc1cccc(C)c1)=C(C)N2
REMARK SMILES IDX 19 1 18 2 17 3 15 4 16 5 14 7 11 8 12 9 89 10 13 11 88 12
REMARK SMILES IDX 10 13 5 14 6 15 9 16 7 17 8 18 103 19 101 20 90 22 102 23
REMARK SMILES IDX 4 24 3 25 2 26 1 27 91 28 92 29 93 30 94 32 95 33 100 34
REMARK SMILES IDX 96 35 98 36 97 37 99 38 20 39 21 40 22 41 23 42 24 44 25 45
REMARK SMILES IDX 26 46 87 47 27 48 86 49 28 50 29 51 30 52 80 53 31 54 85 55
REMARK SMILES IDX 79 56 81 57 32 58 84 59 78 60 77 61 33 63 65 64 45 65 64 66
REMARK SMILES IDX 46 67 49 68 63 69 82 70 47 71 48 72 62 74 83 75 50 76 34 77
REMARK SMILES IDX 35 78 43 79 36 80 38 81 44 82 37 83 39 84 40 85 41 86 42 87
REMARK SMILES IDX 66 88 67 89 75 90 68 91 70 92 76 93 69 94 71 95 72 96 73 97
REMARK SMILES IDX 74 98 51 99 52 100 60 101 53 102 55 103 61 104 54 105 56 106
REMARK SMILES IDX 57 107 58 108 59 109
REMARK H PARENT 17 6 103 21 93 31 22 43 81 62 49 73
REMARK Flexibility Score: inf
ROOT
ATOM      1  C   UNL A   1      40.037  20.522  26.542  1.00  0.00     0.023 C 
ENDROOT
BRANCH   1   2
ATOM      2  C   UNL A   1      38.916  21.213  25.756  1.00  0.00     0.116 C 
BRANCH   2   3
ATOM      3  N   UNL A   1      38.939  22.644  25.969  1.00  0.00    -0.352 N 
ATOM      4  C   UNL A   1      37.941  23.583  25.984  1.00  0.00     0.251 C 
ATOM      5  O   UNL A   1      38.252  24.759  26.169  1.00  0.00    -0.269 OA
ATOM      6  H   UNL A   1      39.837  23.012  26.132  1.00  0.00     0.163 HD
BRANCH   4   7
ATOM      7  C   UNL A   1      36.502  23.241  25.834  1.00  0.00     0.039 A 
ATOM      8  C   UNL A   1      33.750  22.519  25.766  1.00  0.00    -0.019 A 
ATOM      9  C   UNL A   1      34.385  22.898  26.966  1.00  0.00     0.007 A 
ATOM     10  C   UNL A   1      34.511  22.597  24.592  1.00  0.00     0.007 A 
ATOM     11  C   UNL A   1      35.734  23.255  26.999  1.00  0.00     0.014 A 
ATOM     12  C   UNL A   1      35.866  22.952  24.627  1.00  0.00     0.014 A 
BRANCH   8  13
ATOM     13  C   UNL A   1      32.334  21.883  25.731  1.00  0.00     0.179 C 
ATOM     14  C   UNL A   1      32.821  19.135  23.631  1.00  0.00     0.210 A 
ATOM     15  N   UNL A   1      32.354  20.031  22.708  1.00  0.00    -0.185 NA
ATOM     16  N   UNL A   1      32.796  19.553  24.906  1.00  0.00    -0.141 NA
ATOM     17  C   UNL A   1      31.984  21.042  23.435  1.00  0.00     0.227 A 
ATOM     18  N   UNL A   1      32.295  20.800  24.743  1.00  0.00    -0.218 N 
ATOM     19  N   UNL A   1      31.493  22.240  23.093  1.00  0.00    -0.328 N 
ATOM     20  C   UNL A   1      31.122  23.214  24.018  1.00  0.00     0.026 C 
ATOM     21  H   UNL A   1      31.387  22.443  22.135  1.00  0.00     0.169 HD
ATOM     22  C   UNL A   1      31.295  22.982  25.351  1.00  0.00     0.065 C 
ATOM     23  C   UNL A   1      30.642  24.482  23.365  1.00  0.00     0.065 C 
BRANCH  14  24
ATOM     24  S   UNL A   1      33.387  17.556  23.168  1.00  0.00    -0.084 SA
BRANCH  24  25
ATOM     25  C   UNL A   1      34.634  17.237  24.464  1.00  0.00     0.078 C 
BRANCH  25  26
ATOM     26  C   UNL A   1      34.419  15.940  25.254  1.00  0.00     0.008 C 
ATOM     27  C   UNL A   1      32.976  15.476  25.380  1.00  0.00     0.005 C 
ENDBRANCH  25  26
ENDBRANCH  24  25
ENDBRANCH  14  24
BRANCH  22  28
ATOM     28  C   UNL A   1      30.789  23.745  26.550  1.00  0.00     0.255 C 
ATOM     29  O   UNL A   1      29.901  23.258  27.255  1.00  0.00    -0.269 OA
ATOM     30  N   UNL A   1      31.251  24.971  26.924  1.00  0.00    -0.322 N 
ATOM     31  H   UNL A   1      31.142  25.172  27.881  1.00  0.00     0.170 HD
BRANCH  30  32
ATOM     32  C   UNL A   1      31.854  25.991  26.184  1.00  0.00     0.041 A 
ATOM     33  C   UNL A   1      33.224  25.877  25.930  1.00  0.00     0.026 A 
ATOM     34  C   UNL A   1      31.125  27.048  25.643  1.00  0.00     0.029 A 
ATOM     35  C   UNL A   1      33.827  26.734  25.012  1.00  0.00     0.002 A 
ATOM     36  C   UNL A   1      31.728  27.922  24.731  1.00  0.00    -0.049 A 
ATOM     37  C   UNL A   1      33.078  27.740  24.401  1.00  0.00     0.003 A 
ATOM     38  C   UNL A   1      30.911  28.963  24.027  1.00  0.00     0.044 C 
ENDBRANCH  30  32
ENDBRANCH  22  28
ENDBRANCH   8  13
ENDBRANCH   4   7
ENDBRANCH   2   3
ENDBRANCH   1   2
BRANCH   1  39
ATOM     39  C   UNL A   1      40.943  19.600  25.716  1.00  0.00     0.023 C 
BRANCH  39  40
ATOM     40  C   UNL A   1      42.346  19.418  26.281  1.00  0.00     0.116 C 
BRANCH  40  41
ATOM     41  N   UNL A   1      43.340  19.209  25.229  1.00  0.00    -0.352 N 
ATOM     42  C   UNL A   1      44.074  20.156  24.550  1.00  0.00     0.251 C 
ATOM     43  H   UNL A   1      43.505  18.272  24.975  1.00  0.00     0.163 HD
ATOM     44  O   UNL A   1      44.580  19.895  23.465  1.00  0.00    -0.269 OA
BRANCH  42  45
ATOM     45  C   UNL A   1      44.244  21.488  25.151  1.00  0.00     0.039 A 
ATOM     46  C   UNL A   1      43.301  22.492  24.925  1.00  0.00     0.014 A 
ATOM     47  C   UNL A   1      45.343  21.711  25.980  1.00  0.00     0.014 A 
ATOM     48  C   UNL A   1      43.423  23.694  25.613  1.00  0.00     0.010 A 
ATOM     49  C   UNL A   1      45.405  22.857  26.739  1.00  0.00     0.010 A 
ATOM     50  C   UNL A   1      44.462  23.864  26.545  1.00  0.00    -0.014 A 
BRANCH  50  51
ATOM     51  C   UNL A   1      44.453  25.027  27.431  1.00  0.00     0.031 A 
ATOM     52  C   UNL A   1      45.684  25.867  27.365  1.00  0.00     0.074 A 
ATOM     53  C   UNL A   1      43.362  25.452  28.103  1.00  0.00     0.049 A 
ATOM     54  N   UNL A   1      46.553  26.060  28.302  1.00  0.00    -0.248 NA
ATOM     55  C   UNL A   1      46.065  26.454  26.071  1.00  0.00     0.031 C 
ATOM     56  C   UNL A   1      41.996  24.924  28.026  1.00  0.00     0.029 A 
ATOM     57  N   UNL A   1      43.213  26.560  28.884  1.00  0.00    -0.354 N 
ATOM     58  C   UNL A   1      47.460  26.989  27.792  1.00  0.00     0.074 A 
ATOM     59  C   UNL A   1      47.228  27.033  26.372  1.00  0.00     0.031 C 
ATOM     60  C   UNL A   1      41.132  25.852  28.492  1.00  0.00     0.029 A 
ATOM     61  C   UNL A   1      41.889  26.961  29.043  1.00  0.00     0.049 A 
ATOM     62  H   UNL A   1      43.972  27.032  29.298  1.00  0.00     0.167 HD
ATOM     63  C   UNL A   1      48.145  27.831  28.615  1.00  0.00     0.034 A 
ATOM     64  C   UNL A   1      41.451  28.148  29.531  1.00  0.00     0.034 A 
ATOM     65  C   UNL A   1      48.095  27.386  29.987  1.00  0.00     0.049 A 
ATOM     66  C   UNL A   1      42.558  28.726  30.328  1.00  0.00     0.074 A 
ATOM     67  C   UNL A   1      48.401  26.209  30.643  1.00  0.00     0.029 A 
ATOM     68  N   UNL A   1      47.297  28.096  30.851  1.00  0.00    -0.354 N 
ATOM     69  N   UNL A   1      42.981  28.212  31.449  1.00  0.00    -0.248 NA
ATOM     70  C   UNL A   1      43.477  29.637  29.668  1.00  0.00     0.031 C 
ATOM     71  C   UNL A   1      47.366  26.056  31.612  1.00  0.00     0.029 A 
ATOM     72  C   UNL A   1      46.546  27.184  31.542  1.00  0.00     0.049 A 
ATOM     73  H   UNL A   1      47.270  29.074  30.953  1.00  0.00     0.167 HD
ATOM     74  C   UNL A   1      44.361  28.345  31.383  1.00  0.00     0.074 A 
ATOM     75  C   UNL A   1      44.596  29.332  30.329  1.00  0.00     0.031 C 
ATOM     76  C   UNL A   1      45.189  27.431  31.971  1.00  0.00     0.034 A 
BRANCH  63  77
ATOM     77  C   UNL A   1      48.537  29.256  28.275  1.00  0.00     0.023 A 
ATOM     78  C   UNL A   1      49.835  29.676  28.651  1.00  0.00     0.012 A 
ATOM     79  C   UNL A   1      47.630  30.270  27.891  1.00  0.00     0.148 A 
ATOM     80  C   UNL A   1      50.182  31.029  28.723  1.00  0.00     0.002 A 
ATOM     81  C   UNL A   1      48.006  31.609  27.884  1.00  0.00     0.091 A 
ATOM     82  F   UNL A   1      46.349  29.974  27.659  1.00  0.00    -0.205 F 
ATOM     83  C   UNL A   1      49.267  31.998  28.335  1.00  0.00     0.022 A 
BRANCH  81  84
ATOM     84  S   UNL A   1      46.880  32.898  27.336  1.00  0.00     0.127 S 
ATOM     85  O   UNL A   1      45.902  32.910  28.419  1.00  0.00    -0.237 OA
ATOM     86  O   UNL A   1      47.764  34.062  27.280  1.00  0.00    -0.237 OA
ATOM     87  O   UNL A   1      46.391  32.458  26.033  1.00  0.00    -0.744 OA
ENDBRANCH  81  84
ENDBRANCH  63  77
BRANCH  64  88
ATOM     88  C   UNL A   1      40.235  28.931  29.201  1.00  0.00     0.023 A 
ATOM     89  C   UNL A   1      39.729  28.900  27.886  1.00  0.00     0.012 A 
ATOM     90  C   UNL A   1      39.413  29.474  30.213  1.00  0.00     0.148 A 
ATOM     91  C   UNL A   1      38.434  29.348  27.597  1.00  0.00     0.002 A 
ATOM     92  C   UNL A   1      38.131  29.931  29.919  1.00  0.00     0.091 A 
ATOM     93  F   UNL A   1      39.844  29.457  31.481  1.00  0.00    -0.205 F 
ATOM     94  C   UNL A   1      37.631  29.854  28.614  1.00  0.00     0.022 A 
BRANCH  92  95
ATOM     95  S   UNL A   1      37.042  30.582  31.194  1.00  0.00     0.127 S 
ATOM     96  O   UNL A   1      37.866  31.632  31.796  1.00  0.00    -0.237 OA
ATOM     97  O   UNL A   1      35.911  31.065  30.408  1.00  0.00    -0.237 OA
ATOM     98  O   UNL A   1      36.768  29.460  32.085  1.00  0.00    -0.744 OA
ENDBRANCH  92  95
ENDBRANCH  64  88
BRANCH  76  99
ATOM     99  C   UNL A   1      44.600  26.421  32.924  1.00  0.00     0.023 A 
ATOM    100  C   UNL A   1      44.349  25.083  32.553  1.00  0.00     0.012 A 
ATOM    101  C   UNL A   1      44.474  26.783  34.276  1.00  0.00     0.148 A 
ATOM    102  C   UNL A   1      43.958  24.136  33.503  1.00  0.00     0.002 A 
ATOM    103  C   UNL A   1      44.135  25.827  35.226  1.00  0.00     0.091 A 
ATOM    104  F   UNL A   1      44.716  28.058  34.617  1.00  0.00    -0.205 F 
ATOM    105  C   UNL A   1      43.866  24.505  34.843  1.00  0.00     0.022 A 
BRANCH 103 106
ATOM    106  S   UNL A   1      44.135  26.215  36.978  1.00  0.00     0.127 S 
ATOM    107  O   UNL A   1      45.494  26.711  37.180  1.00  0.00    -0.237 OA
ATOM    108  O   UNL A   1      43.091  27.236  37.077  1.00  0.00    -0.237 OA
ATOM    109  O   UNL A   1      43.812  24.969  37.662  1.00  0.00    -0.744 OA
ENDBRANCH 103 106
ENDBRANCH  76  99
ENDBRANCH  50  51
ENDBRANCH  42  45
ENDBRANCH  40  41
ENDBRANCH  39  40
ENDBRANCH   1  39
TORSDOF 20
ENDMDL
MODEL 3
REMARK VINA RESULT:     -12.5      4.202      8.689
REMARK SMILES CCCSc1nc2n(n1)[C@@H](c1ccc(C(=O)NCCCCNC(=O)c3ccc(-c4c5nc(c(-c6cccc(S(=O)(=O)[O-])c6F)c6ccc([nH]6)c(-c6cccc(S(=O)(=O)[O-])c6F)c6nc(c(-c7cccc(S(=O)(=O)[O-])c7F)c7ccc4[nH]7)C=C6)C=C5)cc3)cc1)C(C(=O)Nc1cccc(C)c1)=C(C)N2
REMARK SMILES IDX 19 1 18 2 17 3 15 4 16 5 14 7 11 8 12 9 89 10 13 11 88 12
REMARK SMILES IDX 10 13 5 14 6 15 9 16 7 17 8 18 103 19 101 20 90 22 102 23
REMARK SMILES IDX 4 24 3 25 2 26 1 27 91 28 92 29 93 30 94 32 95 33 100 34
REMARK SMILES IDX 96 35 98 36 97 37 99 38 20 39 21 40 22 41 23 42 24 44 25 45
REMARK SMILES IDX 26 46 87 47 27 48 86 49 28 50 29 51 30 52 80 53 31 54 85 55
REMARK SMILES IDX 79 56 81 57 32 58 84 59 78 60 77 61 33 63 65 64 45 65 64 66
REMARK SMILES IDX 46 67 49 68 63 69 82 70 47 71 48 72 62 74 83 75 50 76 34 77
REMARK SMILES IDX 35 78 43 79 36 80 38 81 44 82 37 83 39 84 40 85 41 86 42 87
REMARK SMILES IDX 66 88 67 89 75 90 68 91 70 92 76 93 69 94 71 95 72 96 73 97
REMARK SMILES IDX 74 98 51 99 52 100 60 101 53 102 55 103 61 104 54 105 56 106
REMARK SMILES IDX 57 107 58 108 59 109
REMARK H PARENT 17 6 103 21 93 31 22 43 81 62 49 73
REMARK Flexibility Score: inf
ROOT
ATOM      1  C   UNL A   1      38.578  22.607  26.069  1.00  0.00     0.023 C 
ENDROOT
BRANCH   1   2
ATOM      2  C   UNL A   1      37.448  21.987  25.238  1.00  0.00     0.116 C 
BRANCH   2   3
ATOM      3  N   UNL A   1      36.357  21.554  26.085  1.00  0.00    -0.352 N 
ATOM      4  C   UNL A   1      35.171  22.147  26.424  1.00  0.00     0.251 C 
ATOM      5  O   UNL A   1      34.422  21.552  27.199  1.00  0.00    -0.269 OA
ATOM      6  H   UNL A   1      36.493  20.668  26.493  1.00  0.00     0.163 HD
BRANCH   4   7
ATOM      7  C   UNL A   1      34.726  23.452  25.866  1.00  0.00     0.039 A 
ATOM      8  C   UNL A   1      33.677  25.920  24.912  1.00  0.00    -0.019 A 
ATOM      9  C   UNL A   1      33.260  25.364  26.139  1.00  0.00     0.007 A 
ATOM     10  C   UNL A   1      34.695  25.247  24.224  1.00  0.00     0.007 A 
ATOM     11  C   UNL A   1      33.776  24.155  26.609  1.00  0.00     0.014 A 
ATOM     12  C   UNL A   1      35.209  24.031  24.694  1.00  0.00     0.014 A 
BRANCH   8  13
ATOM     13  C   UNL A   1      32.952  27.120  24.246  1.00  0.00     0.179 C 
ATOM     14  C   UNL A   1      33.324  29.624  26.652  1.00  0.00     0.210 A 
ATOM     15  N   UNL A   1      32.083  29.171  27.004  1.00  0.00    -0.185 NA
ATOM     16  N   UNL A   1      33.840  29.087  25.536  1.00  0.00    -0.141 NA
ATOM     17  C   UNL A   1      31.786  28.341  26.050  1.00  0.00     0.227 A 
ATOM     18  N   UNL A   1      32.847  28.233  25.196  1.00  0.00    -0.218 N 
ATOM     19  N   UNL A   1      30.720  27.551  25.868  1.00  0.00    -0.328 N 
ATOM     20  C   UNL A   1      30.552  26.727  24.757  1.00  0.00     0.026 C 
ATOM     21  H   UNL A   1      30.017  27.553  26.557  1.00  0.00     0.169 HD
ATOM     22  C   UNL A   1      31.527  26.667  23.804  1.00  0.00     0.065 C 
ATOM     23  C   UNL A   1      29.288  25.913  24.825  1.00  0.00     0.065 C 
BRANCH  14  24
ATOM     24  S   UNL A   1      34.157  30.831  27.589  1.00  0.00    -0.084 SA
BRANCH  24  25
ATOM     25  C   UNL A   1      35.574  29.866  28.223  1.00  0.00     0.078 C 
BRANCH  25  26
ATOM     26  C   UNL A   1      36.890  30.091  27.469  1.00  0.00     0.008 C 
ATOM     27  C   UNL A   1      37.923  28.983  27.600  1.00  0.00     0.005 C 
ENDBRANCH  25  26
ENDBRANCH  24  25
ENDBRANCH  14  24
BRANCH  22  28
ATOM     28  C   UNL A   1      31.511  26.051  22.428  1.00  0.00     0.255 C 
ATOM     29  O   UNL A   1      31.208  26.743  21.451  1.00  0.00    -0.269 OA
ATOM     30  N   UNL A   1      31.814  24.748  22.172  1.00  0.00    -0.322 N 
ATOM     31  H   UNL A   1      32.141  24.578  21.260  1.00  0.00     0.170 HD
BRANCH  30  32
ATOM     32  C   UNL A   1      31.742  23.612  22.982  1.00  0.00     0.041 A 
ATOM     33  C   UNL A   1      32.554  22.526  22.639  1.00  0.00     0.026 A 
ATOM     34  C   UNL A   1      30.959  23.568  24.134  1.00  0.00     0.029 A 
ATOM     35  C   UNL A   1      32.696  21.465  23.532  1.00  0.00     0.002 A 
ATOM     36  C   UNL A   1      31.086  22.498  25.028  1.00  0.00    -0.049 A 
ATOM     37  C   UNL A   1      31.980  21.460  24.729  1.00  0.00     0.003 A 
ATOM     38  C   UNL A   1      30.366  22.521  26.342  1.00  0.00     0.044 C 
ENDBRANCH  30  32
ENDBRANCH  22  28
ENDBRANCH   8  13
ENDBRANCH   4   7
ENDBRANCH   2   3
ENDBRANCH   1   2
BRANCH   1  39
ATOM     39  C   UNL A   1      38.393  24.089  26.421  1.00  0.00     0.023 C 
BRANCH  39  40
ATOM     40  C   UNL A   1      39.214  24.564  27.613  1.00  0.00     0.116 C 
BRANCH  40  41
ATOM     41  N   UNL A   1      40.442  23.790  27.780  1.00  0.00    -0.352 N 
ATOM     42  C   UNL A   1      41.742  24.247  27.799  1.00  0.00     0.251 C 
ATOM     43  H   UNL A   1      40.326  22.818  27.894  1.00  0.00     0.163 HD
ATOM     44  O   UNL A   1      42.675  23.486  27.572  1.00  0.00    -0.269 OA
BRANCH  42  45
ATOM     45  C   UNL A   1      41.991  25.665  28.098  1.00  0.00     0.039 A 
ATOM     46  C   UNL A   1      41.437  26.666  27.298  1.00  0.00     0.014 A 
ATOM     47  C   UNL A   1      42.760  25.986  29.217  1.00  0.00     0.014 A 
ATOM     48  C   UNL A   1      41.583  27.993  27.686  1.00  0.00     0.010 A 
ATOM     49  C   UNL A   1      42.814  27.289  29.658  1.00  0.00     0.010 A 
ATOM     50  C   UNL A   1      42.248  28.301  28.886  1.00  0.00    -0.014 A 
BRANCH  50  51
ATOM     51  C   UNL A   1      42.199  29.667  29.408  1.00  0.00     0.031 A 
ATOM     52  C   UNL A   1      43.309  30.548  28.946  1.00  0.00     0.074 A 
ATOM     53  C   UNL A   1      41.143  30.177  30.077  1.00  0.00     0.049 A 
ATOM     54  N   UNL A   1      44.245  31.075  29.666  1.00  0.00    -0.248 NA
ATOM     55  C   UNL A   1      43.479  30.765  27.501  1.00  0.00     0.031 C 
ATOM     56  C   UNL A   1      39.848  29.541  30.334  1.00  0.00     0.029 A 
ATOM     57  N   UNL A   1      40.951  31.448  30.533  1.00  0.00    -0.354 N 
ATOM     58  C   UNL A   1      44.978  31.886  28.801  1.00  0.00     0.074 A 
ATOM     59  C   UNL A   1      44.593  31.499  27.470  1.00  0.00     0.031 C 
ATOM     60  C   UNL A   1      38.937  30.491  30.638  1.00  0.00     0.029 A 
ATOM     61  C   UNL A   1      39.613  31.770  30.752  1.00  0.00     0.049 A 
ATOM     62  H   UNL A   1      41.689  32.080  30.693  1.00  0.00     0.167 HD
ATOM     63  C   UNL A   1      45.644  32.983  29.258  1.00  0.00     0.034 A 
ATOM     64  C   UNL A   1      39.095  33.008  30.947  1.00  0.00     0.034 A 
ATOM     65  C   UNL A   1      45.792  32.951  30.693  1.00  0.00     0.049 A 
ATOM     66  C   UNL A   1      40.205  33.879  31.396  1.00  0.00     0.074 A 
ATOM     67  C   UNL A   1      46.302  32.043  31.602  1.00  0.00     0.029 A 
ATOM     68  N   UNL A   1      45.014  33.814  31.426  1.00  0.00    -0.354 N 
ATOM     69  N   UNL A   1      40.802  33.747  32.547  1.00  0.00    -0.248 NA
ATOM     70  C   UNL A   1      40.937  34.631  30.390  1.00  0.00     0.031 C 
ATOM     71  C   UNL A   1      45.400  32.094  32.706  1.00  0.00     0.029 A 
ATOM     72  C   UNL A   1      44.452  33.083  32.437  1.00  0.00     0.049 A 
ATOM     73  H   UNL A   1      44.884  34.774  31.256  1.00  0.00     0.167 HD
ATOM     74  C   UNL A   1      42.143  33.968  32.260  1.00  0.00     0.074 A 
ATOM     75  C   UNL A   1      42.148  34.622  30.953  1.00  0.00     0.031 C 
ATOM     76  C   UNL A   1      43.129  33.332  32.961  1.00  0.00     0.034 A 
BRANCH  63  77
ATOM     77  C   UNL A   1      45.830  34.276  28.487  1.00  0.00     0.023 A 
ATOM     78  C   UNL A   1      47.149  34.772  28.365  1.00  0.00     0.012 A 
ATOM     79  C   UNL A   1      44.785  35.164  28.143  1.00  0.00     0.148 A 
ATOM     80  C   UNL A   1      47.410  36.099  28.006  1.00  0.00     0.002 A 
ATOM     81  C   UNL A   1      45.052  36.457  27.706  1.00  0.00     0.091 A 
ATOM     82  F   UNL A   1      43.513  34.824  28.363  1.00  0.00    -0.205 F 
ATOM     83  C   UNL A   1      46.360  36.943  27.672  1.00  0.00     0.022 A 
BRANCH  81  84
ATOM     84  S   UNL A   1      43.734  37.571  27.206  1.00  0.00     0.127 S 
ATOM     85  O   UNL A   1      43.119  37.891  28.490  1.00  0.00    -0.237 OA
ATOM     86  O   UNL A   1      44.484  38.662  26.585  1.00  0.00    -0.237 OA
ATOM     87  O   UNL A   1      42.912  36.806  26.273  1.00  0.00    -0.744 OA
ENDBRANCH  81  84
ENDBRANCH  63  77
BRANCH  64  88
ATOM     88  C   UNL A   1      37.768  33.560  30.580  1.00  0.00     0.023 A 
ATOM     89  C   UNL A   1      37.367  33.558  29.228  1.00  0.00     0.012 A 
ATOM     90  C   UNL A   1      36.786  33.826  31.560  1.00  0.00     0.148 A 
ATOM     91  C   UNL A   1      36.030  33.764  28.868  1.00  0.00     0.002 A 
ATOM     92  C   UNL A   1      35.459  34.043  31.196  1.00  0.00     0.091 A 
ATOM     93  F   UNL A   1      37.126  33.770  32.854  1.00  0.00    -0.205 F 
ATOM     94  C   UNL A   1      35.074  33.996  29.852  1.00  0.00     0.022 A 
BRANCH  92  95
ATOM     95  S   UNL A   1      34.177  34.335  32.423  1.00  0.00     0.127 S 
ATOM     96  O   UNL A   1      33.969  32.995  32.976  1.00  0.00    -0.237 OA
ATOM     97  O   UNL A   1      34.832  35.276  33.327  1.00  0.00    -0.237 OA
ATOM     98  O   UNL A   1      33.034  34.853  31.680  1.00  0.00    -0.744 OA
ENDBRANCH  92  95
ENDBRANCH  64  88
BRANCH  76  99
ATOM     99  C   UNL A   1      42.766  32.597  34.227  1.00  0.00     0.023 A 
ATOM    100  C   UNL A   1      42.608  33.252  35.466  1.00  0.00     0.012 A 
ATOM    101  C   UNL A   1      42.394  31.246  34.123  1.00  0.00     0.148 A 
ATOM    102  C   UNL A   1      42.114  32.569  36.581  1.00  0.00     0.002 A 
ATOM    103  C   UNL A   1      41.854  30.584  35.219  1.00  0.00     0.091 A 
ATOM    104  F   UNL A   1      42.548  30.634  32.939  1.00  0.00    -0.205 F 
ATOM    105  C   UNL A   1      41.722  31.238  36.452  1.00  0.00     0.022 A 
BRANCH 103 106
ATOM    106  S   UNL A   1      41.209  28.916  35.075  1.00  0.00     0.127 S 
ATOM    107  O   UNL A   1      40.140  29.087  34.094  1.00  0.00    -0.237 OA
ATOM    108  O   UNL A   1      42.370  28.168  34.590  1.00  0.00    -0.237 OA
ATOM    109  O   UNL A   1      40.778  28.537  36.415  1.00  0.00    -0.744 OA
ENDBRANCH 103 106
ENDBRANCH  76  99
ENDBRANCH  50  51
ENDBRANCH  42  45
ENDBRANCH  40  41
ENDBRANCH  39  40
ENDBRANCH   1  39
TORSDOF 20
ENDMDL
