MODEL 1
REMARK VINA RESULT:     -11.6      0.000      0.000
REMARK SMILES O=C(Cc1cccn(C(F)F)c1=O)NCCCCNC(=O)c1ccc(-c2c3nc(c(-c4cccc(S(=O)(=O)[O-])c4F)c4ccc([nH]4)c(-c4cccc(S(=O)(=O)[O-])c4F)c4nc(c(-c5cccc(S(=O)(=O)[O-])c5F)c5ccc2[nH]5)C=C4)C=C3)cc1
REMARK SMILES IDX 17 1 16 2 15 3 14 4 1 5 2 6 3 8 4 9 5 10 12 11 6 12 8 13
REMARK SMILES IDX 13 14 7 15 9 16 10 17 11 18 18 19 19 20 20 21 21 23 22 24
REMARK SMILES IDX 23 25 84 26 24 27 83 28 25 29 26 30 27 31 77 32 28 33 82 34
REMARK SMILES IDX 76 35 78 36 29 37 81 38 75 39 74 40 30 42 62 43 42 44 61 45
REMARK SMILES IDX 43 46 46 47 60 48 79 49 44 50 45 51 59 53 80 54 47 55 31 56
REMARK SMILES IDX 32 57 40 58 33 59 35 60 41 61 34 62 36 63 37 64 38 65 39 66
REMARK SMILES IDX 63 67 64 68 72 69 65 70 67 71 73 72 66 73 68 74 69 75 70 76
REMARK SMILES IDX 71 77 48 78 49 79 57 80 50 81 52 82 58 83 51 84 53 85 54 86
REMARK SMILES IDX 55 87 56 88
REMARK H PARENT 14 7 19 22 78 41 46 52
REMARK Flexibility Score: inf
ROOT
ATOM      1  C   UNL A   1      31.735  29.217  26.286  1.00  0.00     0.023 C 
ENDROOT
BRANCH   1   2
ATOM      2  C   UNL A   1      31.985  28.133  27.335  1.00  0.00     0.023 C 
BRANCH   2   3
ATOM      3  C   UNL A   1      32.028  26.705  26.796  1.00  0.00     0.116 C 
BRANCH   3   4
ATOM      4  N   UNL A   1      31.416  26.574  25.489  1.00  0.00    -0.356 N 
ATOM      5  O   UNL A   1      29.518  25.510  26.240  1.00  0.00    -0.275 OA
ATOM      6  C   UNL A   1      30.140  26.069  25.338  1.00  0.00     0.224 C 
ATOM      7  H   UNL A   1      31.920  26.853  24.690  1.00  0.00     0.163 HD
BRANCH   6   8
ATOM      8  C   UNL A   1      29.567  26.171  23.926  1.00  0.00     0.141 C 
BRANCH   8   9
ATOM      9  C   UNL A   1      29.618  27.506  23.228  1.00  0.00     0.027 A 
ATOM     10  C   UNL A   1      30.767  27.939  22.675  1.00  0.00     0.011 A 
ATOM     11  C   UNL A   1      28.406  28.392  23.125  1.00  0.00     0.258 A 
ATOM     12  C   UNL A   1      30.863  29.216  22.017  1.00  0.00     0.019 A 
ATOM     13  N   UNL A   1      28.607  29.643  22.563  1.00  0.00    -0.258 N 
ATOM     14  O   UNL A   1      27.312  28.024  23.538  1.00  0.00    -0.269 OA
ATOM     15  C   UNL A   1      29.805  30.031  21.998  1.00  0.00     0.095 A 
BRANCH  13  16
ATOM     16  C   UNL A   1      27.487  30.551  22.535  1.00  0.00     0.451 C 
ATOM     17  F   UNL A   1      27.382  31.182  23.737  1.00  0.00    -0.185 F 
ATOM     18  F   UNL A   1      27.716  31.526  21.616  1.00  0.00    -0.185 F 
ENDBRANCH  13  16
ENDBRANCH   8   9
ENDBRANCH   6   8
ENDBRANCH   3   4
ENDBRANCH   2   3
ENDBRANCH   1   2
BRANCH   1  19
ATOM     19  C   UNL A   1      32.888  30.186  26.050  1.00  0.00     0.116 C 
BRANCH  19  20
ATOM     20  N   UNL A   1      32.674  31.498  26.641  1.00  0.00    -0.352 N 
ATOM     21  C   UNL A   1      33.479  32.202  27.511  1.00  0.00     0.251 C 
ATOM     22  H   UNL A   1      31.837  31.946  26.384  1.00  0.00     0.163 HD
ATOM     23  O   UNL A   1      33.081  33.258  27.997  1.00  0.00    -0.269 OA
BRANCH  21  24
ATOM     24  C   UNL A   1      34.802  31.656  27.896  1.00  0.00     0.039 A 
ATOM     25  C   UNL A   1      34.943  30.313  28.248  1.00  0.00     0.014 A 
ATOM     26  C   UNL A   1      35.903  32.513  27.953  1.00  0.00     0.014 A 
ATOM     27  C   UNL A   1      36.125  29.877  28.839  1.00  0.00     0.010 A 
ATOM     28  C   UNL A   1      37.119  32.050  28.469  1.00  0.00     0.010 A 
ATOM     29  C   UNL A   1      37.221  30.746  28.977  1.00  0.00    -0.014 A 
BRANCH  29  30
ATOM     30  C   UNL A   1      38.450  30.272  29.668  1.00  0.00     0.031 A 
ATOM     31  C   UNL A   1      38.756  30.691  31.084  1.00  0.00     0.074 A 
ATOM     32  C   UNL A   1      39.278  29.417  29.035  1.00  0.00     0.049 A 
ATOM     33  N   UNL A   1      39.753  30.326  31.850  1.00  0.00    -0.248 NA
ATOM     34  C   UNL A   1      37.831  31.642  31.725  1.00  0.00     0.031 C 
ATOM     35  C   UNL A   1      39.110  28.950  27.658  1.00  0.00     0.029 A 
ATOM     36  N   UNL A   1      40.413  28.779  29.468  1.00  0.00    -0.354 N 
ATOM     37  C   UNL A   1      39.607  31.037  33.035  1.00  0.00     0.074 A 
ATOM     38  C   UNL A   1      38.421  31.853  32.895  1.00  0.00     0.031 C 
ATOM     39  C   UNL A   1      40.077  28.064  27.375  1.00  0.00     0.029 A 
ATOM     40  C   UNL A   1      40.960  27.936  28.530  1.00  0.00     0.049 A 
ATOM     41  H   UNL A   1      40.799  28.912  30.364  1.00  0.00     0.167 HD
ATOM     42  C   UNL A   1      40.377  30.999  34.148  1.00  0.00     0.034 A 
ATOM     43  C   UNL A   1      42.049  27.146  28.585  1.00  0.00     0.034 A 
ATOM     44  C   UNL A   1      41.514  30.137  34.322  1.00  0.00     0.049 A 
ATOM     45  C   UNL A   1      42.871  27.102  29.839  1.00  0.00     0.074 A 
ATOM     46  C   UNL A   1      42.300  29.974  35.450  1.00  0.00     0.029 A 
ATOM     47  N   UNL A   1      42.031  29.299  33.348  1.00  0.00    -0.354 N 
ATOM     48  N   UNL A   1      42.654  27.705  30.982  1.00  0.00    -0.248 NA
ATOM     49  C   UNL A   1      44.079  26.263  29.818  1.00  0.00     0.031 C 
ATOM     50  C   UNL A   1      43.299  29.042  35.155  1.00  0.00     0.029 A 
ATOM     51  C   UNL A   1      43.131  28.622  33.846  1.00  0.00     0.049 A 
ATOM     52  H   UNL A   1      41.669  29.199  32.438  1.00  0.00     0.167 HD
ATOM     53  C   UNL A   1      43.691  27.313  31.820  1.00  0.00     0.074 A 
ATOM     54  C   UNL A   1      44.526  26.405  31.061  1.00  0.00     0.031 C 
ATOM     55  C   UNL A   1      43.933  27.690  33.098  1.00  0.00     0.034 A 
BRANCH  42  56
ATOM     56  C   UNL A   1      39.996  31.880  35.305  1.00  0.00     0.023 A 
ATOM     57  C   UNL A   1      40.487  33.200  35.358  1.00  0.00     0.012 A 
ATOM     58  C   UNL A   1      39.072  31.441  36.272  1.00  0.00     0.148 A 
ATOM     59  C   UNL A   1      40.069  34.069  36.365  1.00  0.00     0.002 A 
ATOM     60  C   UNL A   1      38.638  32.323  37.256  1.00  0.00     0.091 A 
ATOM     61  F   UNL A   1      38.630  30.178  36.206  1.00  0.00    -0.205 F 
ATOM     62  C   UNL A   1      39.138  33.634  37.306  1.00  0.00     0.022 A 
BRANCH  60  63
ATOM     63  S   UNL A   1      37.399  31.882  38.480  1.00  0.00     0.127 S 
ATOM     64  O   UNL A   1      38.128  32.105  39.729  1.00  0.00    -0.237 OA
ATOM     65  O   UNL A   1      36.341  32.855  38.210  1.00  0.00    -0.237 OA
ATOM     66  O   UNL A   1      37.040  30.497  38.210  1.00  0.00    -0.744 OA
ENDBRANCH  60  63
ENDBRANCH  42  56
BRANCH  43  67
ATOM     67  C   UNL A   1      42.374  26.288  27.414  1.00  0.00     0.023 A 
ATOM     68  C   UNL A   1      43.198  26.804  26.396  1.00  0.00     0.012 A 
ATOM     69  C   UNL A   1      41.963  24.943  27.361  1.00  0.00     0.148 A 
ATOM     70  C   UNL A   1      43.612  25.988  25.343  1.00  0.00     0.002 A 
ATOM     71  C   UNL A   1      42.415  24.125  26.333  1.00  0.00     0.091 A 
ATOM     72  F   UNL A   1      41.180  24.482  28.346  1.00  0.00    -0.205 F 
ATOM     73  C   UNL A   1      43.232  24.649  25.317  1.00  0.00     0.022 A 
BRANCH  71  74
ATOM     74  S   UNL A   1      42.077  22.363  26.275  1.00  0.00     0.127 S 
ATOM     75  O   UNL A   1      42.849  21.949  25.106  1.00  0.00    -0.237 OA
ATOM     76  O   UNL A   1      42.617  21.917  27.560  1.00  0.00    -0.237 OA
ATOM     77  O   UNL A   1      40.633  22.238  26.144  1.00  0.00    -0.744 OA
ENDBRANCH  71  74
ENDBRANCH  43  67
BRANCH  55  78
ATOM     78  C   UNL A   1      45.151  27.135  33.782  1.00  0.00     0.023 A 
ATOM     79  C   UNL A   1      46.342  27.883  33.775  1.00  0.00     0.012 A 
ATOM     80  C   UNL A   1      45.077  25.948  34.536  1.00  0.00     0.148 A 
ATOM     81  C   UNL A   1      47.449  27.456  34.507  1.00  0.00     0.002 A 
ATOM     82  C   UNL A   1      46.173  25.544  35.289  1.00  0.00     0.091 A 
ATOM     83  F   UNL A   1      43.932  25.250  34.517  1.00  0.00    -0.205 F 
ATOM     84  C   UNL A   1      47.361  26.295  35.272  1.00  0.00     0.022 A 
BRANCH  82  85
ATOM     85  S   UNL A   1      46.132  24.107  36.366  1.00  0.00     0.127 S 
ATOM     86  O   UNL A   1      47.507  24.067  36.861  1.00  0.00    -0.237 OA
ATOM     87  O   UNL A   1      45.134  24.495  37.362  1.00  0.00    -0.237 OA
ATOM     88  O   UNL A   1      45.745  22.983  35.524  1.00  0.00    -0.744 OA
ENDBRANCH  82  85
ENDBRANCH  55  78
ENDBRANCH  29  30
ENDBRANCH  21  24
ENDBRANCH  19  20
ENDBRANCH   1  19
TORSDOF 16
ENDMDL
MODEL 2
REMARK VINA RESULT:     -11.4      2.922      3.932
REMARK SMILES O=C(Cc1cccn(C(F)F)c1=O)NCCCCNC(=O)c1ccc(-c2c3nc(c(-c4cccc(S(=O)(=O)[O-])c4F)c4ccc([nH]4)c(-c4cccc(S(=O)(=O)[O-])c4F)c4nc(c(-c5cccc(S(=O)(=O)[O-])c5F)c5ccc2[nH]5)C=C4)C=C3)cc1
REMARK SMILES IDX 17 1 16 2 15 3 14 4 1 5 2 6 3 8 4 9 5 10 12 11 6 12 8 13
REMARK SMILES IDX 13 14 7 15 9 16 10 17 11 18 18 19 19 20 20 21 21 23 22 24
REMARK SMILES IDX 23 25 84 26 24 27 83 28 25 29 26 30 27 31 77 32 28 33 82 34
REMARK SMILES IDX 76 35 78 36 29 37 81 38 75 39 74 40 30 42 62 43 42 44 61 45
REMARK SMILES IDX 43 46 46 47 60 48 79 49 44 50 45 51 59 53 80 54 47 55 31 56
REMARK SMILES IDX 32 57 40 58 33 59 35 60 41 61 34 62 36 63 37 64 38 65 39 66
REMARK SMILES IDX 63 67 64 68 72 69 65 70 67 71 73 72 66 73 68 74 69 75 70 76
REMARK SMILES IDX 71 77 48 78 49 79 57 80 50 81 52 82 58 83 51 84 53 85 54 86
REMARK SMILES IDX 55 87 56 88
REMARK H PARENT 14 7 19 22 78 41 46 52
REMARK Flexibility Score: inf
ROOT
ATOM      1  C   UNL A   1      31.810  29.436  25.173  1.00  0.00     0.023 C 
ENDROOT
BRANCH   1   2
ATOM      2  C   UNL A   1      32.965  29.201  24.199  1.00  0.00     0.023 C 
BRANCH   2   3
ATOM      3  C   UNL A   1      32.576  28.551  22.874  1.00  0.00     0.116 C 
BRANCH   3   4
ATOM      4  N   UNL A   1      32.307  27.132  22.997  1.00  0.00    -0.356 N 
ATOM      5  O   UNL A   1      33.861  26.475  21.431  1.00  0.00    -0.275 OA
ATOM      6  C   UNL A   1      33.063  26.193  22.324  1.00  0.00     0.224 C 
ATOM      7  H   UNL A   1      31.569  26.830  23.575  1.00  0.00     0.163 HD
BRANCH   6   8
ATOM      8  C   UNL A   1      32.779  24.741  22.703  1.00  0.00     0.141 C 
BRANCH   8   9
ATOM      9  C   UNL A   1      33.682  24.075  23.709  1.00  0.00     0.027 A 
ATOM     10  C   UNL A   1      34.489  24.816  24.493  1.00  0.00     0.011 A 
ATOM     11  C   UNL A   1      33.716  22.579  23.874  1.00  0.00     0.258 A 
ATOM     12  C   UNL A   1      35.380  24.218  25.452  1.00  0.00     0.019 A 
ATOM     13  N   UNL A   1      34.669  22.080  24.747  1.00  0.00    -0.258 N 
ATOM     14  O   UNL A   1      32.952  21.853  23.248  1.00  0.00    -0.269 OA
ATOM     15  C   UNL A   1      35.463  22.887  25.537  1.00  0.00     0.095 A 
BRANCH  13  16
ATOM     16  C   UNL A   1      34.791  20.648  24.857  1.00  0.00     0.451 C 
ATOM     17  F   UNL A   1      36.025  20.330  25.334  1.00  0.00    -0.185 F 
ATOM     18  F   UNL A   1      33.901  20.185  25.774  1.00  0.00    -0.185 F 
ENDBRANCH  13  16
ENDBRANCH   8   9
ENDBRANCH   6   8
ENDBRANCH   3   4
ENDBRANCH   2   3
ENDBRANCH   1   2
BRANCH   1  19
ATOM     19  C   UNL A   1      32.207  29.898  26.570  1.00  0.00     0.116 C 
BRANCH  19  20
ATOM     20  N   UNL A   1      32.098  31.337  26.758  1.00  0.00    -0.352 N 
ATOM     21  C   UNL A   1      33.004  32.213  27.315  1.00  0.00     0.251 C 
ATOM     22  H   UNL A   1      31.257  31.741  26.445  1.00  0.00     0.163 HD
ATOM     23  O   UNL A   1      32.692  33.388  27.494  1.00  0.00    -0.269 OA
BRANCH  21  24
ATOM     24  C   UNL A   1      34.336  31.722  27.741  1.00  0.00     0.039 A 
ATOM     25  C   UNL A   1      34.543  30.369  28.011  1.00  0.00     0.014 A 
ATOM     26  C   UNL A   1      35.375  32.638  27.923  1.00  0.00     0.014 A 
ATOM     27  C   UNL A   1      35.715  29.964  28.643  1.00  0.00     0.010 A 
ATOM     28  C   UNL A   1      36.587  32.214  28.479  1.00  0.00     0.010 A 
ATOM     29  C   UNL A   1      36.744  30.886  28.904  1.00  0.00    -0.014 A 
BRANCH  29  30
ATOM     30  C   UNL A   1      37.959  30.439  29.636  1.00  0.00     0.031 A 
ATOM     31  C   UNL A   1      38.198  30.846  31.068  1.00  0.00     0.074 A 
ATOM     32  C   UNL A   1      38.838  29.620  29.023  1.00  0.00     0.049 A 
ATOM     33  N   UNL A   1      39.176  30.499  31.867  1.00  0.00    -0.248 NA
ATOM     34  C   UNL A   1      37.220  31.757  31.687  1.00  0.00     0.031 C 
ATOM     35  C   UNL A   1      38.738  29.170  27.634  1.00  0.00     0.029 A 
ATOM     36  N   UNL A   1      39.975  29.011  29.490  1.00  0.00    -0.354 N 
ATOM     37  C   UNL A   1      38.962  31.187  33.056  1.00  0.00     0.074 A 
ATOM     38  C   UNL A   1      37.757  31.968  32.882  1.00  0.00     0.031 C 
ATOM     39  C   UNL A   1      39.742  28.320  27.375  1.00  0.00     0.029 A 
ATOM     40  C   UNL A   1      40.584  28.201  28.562  1.00  0.00     0.049 A 
ATOM     41  H   UNL A   1      40.322  29.142  30.402  1.00  0.00     0.167 HD
ATOM     42  C   UNL A   1      39.690  31.155  34.197  1.00  0.00     0.034 A 
ATOM     43  C   UNL A   1      41.694  27.444  28.647  1.00  0.00     0.034 A 
ATOM     44  C   UNL A   1      40.846  30.326  34.402  1.00  0.00     0.049 A 
ATOM     45  C   UNL A   1      42.469  27.405  29.931  1.00  0.00     0.074 A 
ATOM     46  C   UNL A   1      41.593  30.170  35.557  1.00  0.00     0.029 A 
ATOM     47  N   UNL A   1      41.426  29.520  33.437  1.00  0.00    -0.354 N 
ATOM     48  N   UNL A   1      42.190  27.983  31.073  1.00  0.00    -0.248 NA
ATOM     49  C   UNL A   1      43.702  26.604  29.945  1.00  0.00     0.031 C 
ATOM     50  C   UNL A   1      42.632  29.274  35.288  1.00  0.00     0.029 A 
ATOM     51  C   UNL A   1      42.527  28.870  33.967  1.00  0.00     0.049 A 
ATOM     52  H   UNL A   1      41.103  29.423  32.512  1.00  0.00     0.167 HD
ATOM     53  C   UNL A   1      43.205  27.611  31.945  1.00  0.00     0.074 A 
ATOM     54  C   UNL A   1      44.097  26.741  31.206  1.00  0.00     0.031 C 
ATOM     55  C   UNL A   1      43.387  27.975  33.237  1.00  0.00     0.034 A 
BRANCH  42  56
ATOM     56  C   UNL A   1      39.238  32.006  35.351  1.00  0.00     0.023 A 
ATOM     57  C   UNL A   1      38.391  31.450  36.330  1.00  0.00     0.012 A 
ATOM     58  C   UNL A   1      39.738  33.312  35.522  1.00  0.00     0.148 A 
ATOM     59  C   UNL A   1      38.040  32.186  37.460  1.00  0.00     0.002 A 
ATOM     60  C   UNL A   1      39.406  34.028  36.667  1.00  0.00     0.091 A 
ATOM     61  F   UNL A   1      40.531  33.821  34.571  1.00  0.00    -0.205 F 
ATOM     62  C   UNL A   1      38.555  33.468  37.634  1.00  0.00     0.022 A 
BRANCH  60  63
ATOM     63  S   UNL A   1      40.061  35.664  37.015  1.00  0.00     0.127 S 
ATOM     64  O   UNL A   1      39.582  36.423  35.859  1.00  0.00    -0.237 OA
ATOM     65  O   UNL A   1      39.403  35.996  38.278  1.00  0.00    -0.237 OA
ATOM     66  O   UNL A   1      41.506  35.511  37.100  1.00  0.00    -0.744 OA
ENDBRANCH  60  63
ENDBRANCH  42  56
BRANCH  43  67
ATOM     67  C   UNL A   1      42.090  26.614  27.478  1.00  0.00     0.023 A 
ATOM     68  C   UNL A   1      42.916  27.180  26.487  1.00  0.00     0.012 A 
ATOM     69  C   UNL A   1      41.746  25.252  27.401  1.00  0.00     0.148 A 
ATOM     70  C   UNL A   1      43.396  26.396  25.438  1.00  0.00     0.002 A 
ATOM     71  C   UNL A   1      42.263  24.468  26.377  1.00  0.00     0.091 A 
ATOM     72  F   UNL A   1      40.960  24.744  28.359  1.00  0.00    -0.205 F 
ATOM     73  C   UNL A   1      43.081  25.040  25.389  1.00  0.00     0.022 A 
BRANCH  71  74
ATOM     74  S   UNL A   1      42.012  22.693  26.294  1.00  0.00     0.127 S 
ATOM     75  O   UNL A   1      42.683  22.354  25.041  1.00  0.00    -0.237 OA
ATOM     76  O   UNL A   1      42.700  22.240  27.504  1.00  0.00    -0.237 OA
ATOM     77  O   UNL A   1      40.570  22.493  26.302  1.00  0.00    -0.744 OA
ENDBRANCH  71  74
ENDBRANCH  43  67
BRANCH  55  78
ATOM     78  C   UNL A   1      44.594  27.447  33.959  1.00  0.00     0.023 A 
ATOM     79  C   UNL A   1      45.770  28.219  33.984  1.00  0.00     0.012 A 
ATOM     80  C   UNL A   1      44.522  26.262  34.717  1.00  0.00     0.148 A 
ATOM     81  C   UNL A   1      46.863  27.817  34.750  1.00  0.00     0.002 A 
ATOM     82  C   UNL A   1      45.602  25.884  35.504  1.00  0.00     0.091 A 
ATOM     83  F   UNL A   1      43.391  25.542  34.668  1.00  0.00    -0.205 F 
ATOM     84  C   UNL A   1      46.775  26.658  35.519  1.00  0.00     0.022 A 
BRANCH  82  85
ATOM     85  S   UNL A   1      45.558  24.451  36.586  1.00  0.00     0.127 S 
ATOM     86  O   UNL A   1      44.436  24.775  37.464  1.00  0.00    -0.237 OA
ATOM     87  O   UNL A   1      45.303  23.360  35.645  1.00  0.00    -0.237 OA
ATOM     88  O   UNL A   1      46.859  24.397  37.239  1.00  0.00    -0.744 OA
ENDBRANCH  82  85
ENDBRANCH  55  78
ENDBRANCH  29  30
ENDBRANCH  21  24
ENDBRANCH  19  20
ENDBRANCH   1  19
TORSDOF 16
ENDMDL
MODEL 3
REMARK VINA RESULT:     -11.4      5.316     10.036
REMARK SMILES O=C(Cc1cccn(C(F)F)c1=O)NCCCCNC(=O)c1ccc(-c2c3nc(c(-c4cccc(S(=O)(=O)[O-])c4F)c4ccc([nH]4)c(-c4cccc(S(=O)(=O)[O-])c4F)c4nc(c(-c5cccc(S(=O)(=O)[O-])c5F)c5ccc2[nH]5)C=C4)C=C3)cc1
REMARK SMILES IDX 17 1 16 2 15 3 14 4 1 5 2 6 3 8 4 9 5 10 12 11 6 12 8 13
REMARK SMILES IDX 13 14 7 15 9 16 10 17 11 18 18 19 19 20 20 21 21 23 22 24
REMARK SMILES IDX 23 25 84 26 24 27 83 28 25 29 26 30 27 31 77 32 28 33 82 34
REMARK SMILES IDX 76 35 78 36 29 37 81 38 75 39 74 40 30 42 62 43 42 44 61 45
REMARK SMILES IDX 43 46 46 47 60 48 79 49 44 50 45 51 59 53 80 54 47 55 31 56
REMARK SMILES IDX 32 57 40 58 33 59 35 60 41 61 34 62 36 63 37 64 38 65 39 66
REMARK SMILES IDX 63 67 64 68 72 69 65 70 67 71 73 72 66 73 68 74 69 75 70 76
REMARK SMILES IDX 71 77 48 78 49 79 57 80 50 81 52 82 58 83 51 84 53 85 54 86
REMARK SMILES IDX 55 87 56 88
REMARK H PARENT 14 7 19 22 78 41 46 52
REMARK Flexibility Score: inf
ROOT
ATOM      1  C   UNL A   1      35.593  21.412  25.755  1.00  0.00     0.023 C 
ENDROOT
BRANCH   1   2
ATOM      2  C   UNL A   1      34.916  22.707  26.203  1.00  0.00     0.023 C 
BRANCH   2   3
ATOM      3  C   UNL A   1      33.452  22.849  25.797  1.00  0.00     0.116 C 
BRANCH   3   4
ATOM      4  N   UNL A   1      33.042  24.229  25.627  1.00  0.00    -0.356 N 
ATOM      5  O   UNL A   1      31.431  24.186  27.270  1.00  0.00    -0.275 OA
ATOM      6  C   UNL A   1      32.119  24.816  26.469  1.00  0.00     0.224 C 
ATOM      7  H   UNL A   1      33.432  24.761  24.896  1.00  0.00     0.163 HD
BRANCH   6   8
ATOM      8  C   UNL A   1      31.935  26.320  26.279  1.00  0.00     0.141 C 
BRANCH   8   9
ATOM      9  C   UNL A   1      30.903  26.796  25.290  1.00  0.00     0.027 A 
ATOM     10  C   UNL A   1      29.884  25.990  24.931  1.00  0.00     0.011 A 
ATOM     11  C   UNL A   1      30.969  28.167  24.673  1.00  0.00     0.258 A 
ATOM     12  C   UNL A   1      28.889  26.399  23.975  1.00  0.00     0.019 A 
ATOM     13  N   UNL A   1      30.032  28.445  23.692  1.00  0.00    -0.258 N 
ATOM     14  O   UNL A   1      31.825  28.976  25.014  1.00  0.00    -0.269 OA
ATOM     15  C   UNL A   1      28.999  27.586  23.373  1.00  0.00     0.095 A 
BRANCH  13  16
ATOM     16  C   UNL A   1      30.127  29.714  23.015  1.00  0.00     0.451 C 
ATOM     17  F   UNL A   1      31.000  29.613  21.976  1.00  0.00    -0.185 F 
ATOM     18  F   UNL A   1      28.923  30.029  22.468  1.00  0.00    -0.185 F 
ENDBRANCH  13  16
ENDBRANCH   8   9
ENDBRANCH   6   8
ENDBRANCH   3   4
ENDBRANCH   2   3
ENDBRANCH   1   2
BRANCH   1  19
ATOM     19  C   UNL A   1      36.894  21.582  24.979  1.00  0.00     0.116 C 
BRANCH  19  20
ATOM     20  N   UNL A   1      37.861  20.522  25.228  1.00  0.00    -0.352 N 
ATOM     21  C   UNL A   1      39.082  20.590  25.864  1.00  0.00     0.251 C 
ATOM     22  H   UNL A   1      37.607  19.632  24.894  1.00  0.00     0.163 HD
ATOM     23  O   UNL A   1      39.819  19.607  25.883  1.00  0.00    -0.269 OA
BRANCH  21  24
ATOM     24  C   UNL A   1      39.522  21.864  26.478  1.00  0.00     0.039 A 
ATOM     25  C   UNL A   1      38.916  23.071  26.127  1.00  0.00     0.014 A 
ATOM     26  C   UNL A   1      40.590  21.854  27.380  1.00  0.00     0.014 A 
ATOM     27  C   UNL A   1      39.498  24.273  26.519  1.00  0.00     0.010 A 
ATOM     28  C   UNL A   1      41.120  23.063  27.843  1.00  0.00     0.010 A 
ATOM     29  C   UNL A   1      40.620  24.285  27.365  1.00  0.00    -0.014 A 
BRANCH  29  30
ATOM     30  C   UNL A   1      41.259  25.581  27.718  1.00  0.00     0.031 A 
ATOM     31  C   UNL A   1      42.643  25.924  27.229  1.00  0.00     0.074 A 
ATOM     32  C   UNL A   1      40.570  26.482  28.448  1.00  0.00     0.049 A 
ATOM     33  N   UNL A   1      43.322  27.031  27.399  1.00  0.00    -0.248 NA
ATOM     34  C   UNL A   1      43.362  24.899  26.453  1.00  0.00     0.031 C 
ATOM     35  C   UNL A   1      39.232  26.267  29.001  1.00  0.00     0.029 A 
ATOM     36  N   UNL A   1      40.891  27.758  28.835  1.00  0.00    -0.354 N 
ATOM     37  C   UNL A   1      44.559  26.818  26.801  1.00  0.00     0.074 A 
ATOM     38  C   UNL A   1      44.540  25.479  26.256  1.00  0.00     0.031 C 
ATOM     39  C   UNL A   1      38.827  27.388  29.615  1.00  0.00     0.029 A 
ATOM     40  C   UNL A   1      39.892  28.384  29.541  1.00  0.00     0.049 A 
ATOM     41  H   UNL A   1      41.753  28.185  28.627  1.00  0.00     0.167 HD
ATOM     42  C   UNL A   1      45.608  27.667  26.697  1.00  0.00     0.034 A 
ATOM     43  C   UNL A   1      39.831  29.620  30.074  1.00  0.00     0.034 A 
ATOM     44  C   UNL A   1      45.607  29.024  27.172  1.00  0.00     0.049 A 
ATOM     45  C   UNL A   1      40.996  30.551  29.922  1.00  0.00     0.074 A 
ATOM     46  C   UNL A   1      46.598  29.980  27.032  1.00  0.00     0.029 A 
ATOM     47  N   UNL A   1      44.575  29.617  27.879  1.00  0.00    -0.354 N 
ATOM     48  N   UNL A   1      42.114  30.363  29.264  1.00  0.00    -0.248 NA
ATOM     49  C   UNL A   1      40.892  31.866  30.572  1.00  0.00     0.031 C 
ATOM     50  C   UNL A   1      46.168  31.151  27.662  1.00  0.00     0.029 A 
ATOM     51  C   UNL A   1      44.908  30.924  28.190  1.00  0.00     0.049 A 
ATOM     52  H   UNL A   1      43.730  29.175  28.123  1.00  0.00     0.167 HD
ATOM     53  C   UNL A   1      42.843  31.536  29.413  1.00  0.00     0.074 A 
ATOM     54  C   UNL A   1      42.034  32.438  30.206  1.00  0.00     0.031 C 
ATOM     55  C   UNL A   1      44.081  31.828  28.945  1.00  0.00     0.034 A 
BRANCH  42  56
ATOM     56  C   UNL A   1      46.846  27.183  25.995  1.00  0.00     0.023 A 
ATOM     57  C   UNL A   1      47.008  27.443  24.620  1.00  0.00     0.012 A 
ATOM     58  C   UNL A   1      47.891  26.572  26.716  1.00  0.00     0.148 A 
ATOM     59  C   UNL A   1      48.190  27.094  23.970  1.00  0.00     0.002 A 
ATOM     60  C   UNL A   1      49.077  26.253  26.066  1.00  0.00     0.091 A 
ATOM     61  F   UNL A   1      47.706  26.324  28.020  1.00  0.00    -0.205 F 
ATOM     62  C   UNL A   1      49.227  26.509  24.693  1.00  0.00     0.022 A 
BRANCH  60  63
ATOM     63  S   UNL A   1      50.495  25.551  26.917  1.00  0.00     0.127 S 
ATOM     64  O   UNL A   1      51.419  25.321  25.807  1.00  0.00    -0.237 OA
ATOM     65  O   UNL A   1      50.881  26.637  27.817  1.00  0.00    -0.237 OA
ATOM     66  O   UNL A   1      50.012  24.349  27.581  1.00  0.00    -0.744 OA
ENDBRANCH  60  63
ENDBRANCH  42  56
BRANCH  43  67
ATOM     67  C   UNL A   1      38.578  30.050  30.749  1.00  0.00     0.023 A 
ATOM     68  C   UNL A   1      38.422  29.797  32.125  1.00  0.00     0.012 A 
ATOM     69  C   UNL A   1      37.600  30.796  30.065  1.00  0.00     0.148 A 
ATOM     70  C   UNL A   1      37.310  30.287  32.811  1.00  0.00     0.002 A 
ATOM     71  C   UNL A   1      36.518  31.317  30.763  1.00  0.00     0.091 A 
ATOM     72  F   UNL A   1      37.778  31.019  28.756  1.00  0.00    -0.205 F 
ATOM     73  C   UNL A   1      36.366  31.056  32.134  1.00  0.00     0.022 A 
BRANCH  71  74
ATOM     74  S   UNL A   1      35.314  32.414  30.008  1.00  0.00     0.127 S 
ATOM     75  O   UNL A   1      36.151  33.538  29.595  1.00  0.00    -0.237 OA
ATOM     76  O   UNL A   1      34.808  31.587  28.911  1.00  0.00    -0.237 OA
ATOM     77  O   UNL A   1      34.339  32.712  31.047  1.00  0.00    -0.744 OA
ENDBRANCH  71  74
ENDBRANCH  43  67
BRANCH  55  78
ATOM     78  C   UNL A   1      44.661  33.175  29.270  1.00  0.00     0.023 A 
ATOM     79  C   UNL A   1      45.410  33.333  30.451  1.00  0.00     0.012 A 
ATOM     80  C   UNL A   1      44.578  34.238  28.350  1.00  0.00     0.148 A 
ATOM     81  C   UNL A   1      46.068  34.534  30.716  1.00  0.00     0.002 A 
ATOM     82  C   UNL A   1      45.262  35.421  28.603  1.00  0.00     0.091 A 
ATOM     83  F   UNL A   1      43.850  34.063  27.237  1.00  0.00    -0.205 F 
ATOM     84  C   UNL A   1      46.003  35.572  29.788  1.00  0.00     0.022 A 
BRANCH  82  85
ATOM     85  S   UNL A   1      45.304  36.786  27.437  1.00  0.00     0.127 S 
ATOM     86  O   UNL A   1      46.124  37.762  28.150  1.00  0.00    -0.237 OA
ATOM     87  O   UNL A   1      45.949  36.178  26.273  1.00  0.00    -0.237 OA
ATOM     88  O   UNL A   1      43.917  37.179  27.225  1.00  0.00    -0.744 OA
ENDBRANCH  82  85
ENDBRANCH  55  78
ENDBRANCH  29  30
ENDBRANCH  21  24
ENDBRANCH  19  20
ENDBRANCH   1  19
TORSDOF 16
ENDMDL
