MODEL 1
REMARK VINA RESULT:     -12.7      0.000      0.000
REMARK SMILES Cc1cc(C(=O)Nc2ccn(C)n2)sc1/C=C/C(=O)NCCCCNC(=O)c1ccc(-c2c3nc(c(-c4cccc(S(=O)(=O)[O-])c4F)c4ccc([nH]4)c(-c4cccc(S(=O)(=O)[O-])c4F)c4nc(c(-c5cccc(S(=O)(=O)[O-])c5F)c5ccc2[nH]5)C=C4)C=C3)cc1
REMARK SMILES IDX 22 1 21 2 20 3 18 4 19 5 17 7 16 8 15 9 1 10 2 11 3 12 4 13
REMARK SMILES IDX 14 14 5 15 6 16 7 17 8 19 9 20 13 21 10 22 11 23 12 24 23 25
REMARK SMILES IDX 24 26 25 27 26 28 27 30 28 31 29 32 90 33 30 34 89 35 31 36
REMARK SMILES IDX 32 37 33 38 83 39 34 40 88 41 82 42 84 43 35 44 87 45 81 46
REMARK SMILES IDX 80 47 36 49 68 50 48 51 67 52 49 53 52 54 66 55 85 56 50 57
REMARK SMILES IDX 51 58 65 60 86 61 53 62 37 63 38 64 46 65 39 66 41 67 47 68
REMARK SMILES IDX 40 69 42 70 43 71 44 72 45 73 69 74 70 75 78 76 71 77 73 78
REMARK SMILES IDX 79 79 72 80 74 81 75 82 76 83 77 84 54 85 55 86 63 87 56 88
REMARK SMILES IDX 58 89 64 90 57 91 59 92 60 93 61 94 62 95
REMARK H PARENT 20 6 7 18 25 29 84 48 52 59
REMARK Flexibility Score: inf
ROOT
ATOM      1  C   UNL A   1      31.644  28.253  23.335  1.00  0.00     0.023 C 
ENDROOT
BRANCH   1   2
ATOM      2  C   UNL A   1      31.081  26.989  22.684  1.00  0.00     0.116 C 
BRANCH   2   3
ATOM      3  N   UNL A   1      31.756  26.709  21.430  1.00  0.00    -0.353 N 
ATOM      4  C   UNL A   1      32.608  25.702  21.103  1.00  0.00     0.244 C 
ATOM      5  O   UNL A   1      33.013  25.580  19.949  1.00  0.00    -0.270 OA
ATOM      6  H   UNL A   1      31.569  27.349  20.705  1.00  0.00     0.163 HD
BRANCH   4   7
ATOM      7  C   UNL A   1      32.999  24.690  22.108  1.00  0.00     0.072 C 
ATOM      8  C   UNL A   1      33.835  24.943  23.125  1.00  0.00     0.025 C 
BRANCH   8   9
ATOM      9  C   UNL A   1      34.313  23.961  24.043  1.00  0.00     0.031 A 
ATOM     10  C   UNL A   1      36.583  23.328  23.002  1.00  0.00     0.046 C 
ATOM     11  C   UNL A   1      35.438  23.146  23.947  1.00  0.00    -0.032 A 
ATOM     12  C   UNL A   1      35.334  22.028  24.850  1.00  0.00     0.029 A 
ATOM     13  C   UNL A   1      34.200  22.073  25.643  1.00  0.00     0.093 A 
ATOM     14  S   UNL A   1      33.531  23.642  25.537  1.00  0.00    -0.130 S 
BRANCH  13  15
ATOM     15  C   UNL A   1      33.751  21.073  26.608  1.00  0.00     0.266 C 
ATOM     16  O   UNL A   1      33.887  21.254  27.822  1.00  0.00    -0.268 OA
ATOM     17  N   UNL A   1      33.082  19.934  26.217  1.00  0.00    -0.304 N 
ATOM     18  H   UNL A   1      32.530  19.515  26.917  1.00  0.00     0.171 HD
BRANCH  17  19
ATOM     19  C   UNL A   1      33.066  19.291  25.006  1.00  0.00     0.154 A 
ATOM     20  C   UNL A   1      32.180  19.442  23.912  1.00  0.00     0.068 A 
ATOM     21  N   UNL A   1      34.000  18.374  24.745  1.00  0.00    -0.155 NA
ATOM     22  C   UNL A   1      32.512  18.431  23.040  1.00  0.00     0.110 A 
ATOM     23  N   UNL A   1      33.548  17.769  23.629  1.00  0.00    -0.274 N 
ATOM     24  C   UNL A   1      34.097  16.494  23.238  1.00  0.00     0.173 C 
ENDBRANCH  17  19
ENDBRANCH  13  15
ENDBRANCH   8   9
ENDBRANCH   4   7
ENDBRANCH   2   3
ENDBRANCH   1   2
BRANCH   1  25
ATOM     25  C   UNL A   1      32.185  28.039  24.751  1.00  0.00     0.023 C 
BRANCH  25  26
ATOM     26  C   UNL A   1      33.175  29.097  25.224  1.00  0.00     0.116 C 
BRANCH  26  27
ATOM     27  N   UNL A   1      32.533  30.289  25.761  1.00  0.00    -0.352 N 
ATOM     28  C   UNL A   1      32.981  31.112  26.768  1.00  0.00     0.251 C 
ATOM     29  H   UNL A   1      31.673  30.537  25.352  1.00  0.00     0.163 HD
ATOM     30  O   UNL A   1      32.280  32.025  27.183  1.00  0.00    -0.269 OA
BRANCH  28  31
ATOM     31  C   UNL A   1      34.303  30.841  27.373  1.00  0.00     0.039 A 
ATOM     32  C   UNL A   1      35.108  31.921  27.740  1.00  0.00     0.014 A 
ATOM     33  C   UNL A   1      34.713  29.529  27.624  1.00  0.00     0.014 A 
ATOM     34  C   UNL A   1      36.300  31.686  28.428  1.00  0.00     0.010 A 
ATOM     35  C   UNL A   1      35.867  29.301  28.364  1.00  0.00     0.010 A 
ATOM     36  C   UNL A   1      36.670  30.376  28.775  1.00  0.00    -0.014 A 
BRANCH  36  37
ATOM     37  C   UNL A   1      37.882  30.105  29.589  1.00  0.00     0.031 A 
ATOM     38  C   UNL A   1      38.941  29.170  29.077  1.00  0.00     0.074 A 
ATOM     39  C   UNL A   1      37.972  30.618  30.833  1.00  0.00     0.049 A 
ATOM     40  N   UNL A   1      40.027  28.754  29.671  1.00  0.00    -0.248 NA
ATOM     41  C   UNL A   1      38.736  28.605  27.733  1.00  0.00     0.031 C 
ATOM     42  C   UNL A   1      36.965  31.465  31.475  1.00  0.00     0.029 A 
ATOM     43  N   UNL A   1      38.944  30.475  31.791  1.00  0.00    -0.354 N 
ATOM     44  C   UNL A   1      40.616  27.851  28.795  1.00  0.00     0.074 A 
ATOM     45  C   UNL A   1      39.750  27.756  27.640  1.00  0.00     0.031 C 
ATOM     46  C   UNL A   1      37.372  31.767  32.719  1.00  0.00     0.029 A 
ATOM     47  C   UNL A   1      38.656  31.119  32.972  1.00  0.00     0.049 A 
ATOM     48  H   UNL A   1      39.771  29.960  31.646  1.00  0.00     0.167 HD
ATOM     49  C   UNL A   1      41.788  27.185  28.925  1.00  0.00     0.034 A 
ATOM     50  C   UNL A   1      39.346  31.179  34.127  1.00  0.00     0.034 A 
ATOM     51  C   UNL A   1      42.674  27.329  30.047  1.00  0.00     0.049 A 
ATOM     52  C   UNL A   1      40.679  30.487  34.217  1.00  0.00     0.074 A 
ATOM     53  C   UNL A   1      43.929  26.775  30.229  1.00  0.00     0.029 A 
ATOM     54  N   UNL A   1      42.401  28.083  31.177  1.00  0.00    -0.354 N 
ATOM     55  N   UNL A   1      41.299  29.772  33.309  1.00  0.00    -0.248 NA
ATOM     56  C   UNL A   1      41.427  30.641  35.474  1.00  0.00     0.031 C 
ATOM     57  C   UNL A   1      44.412  27.190  31.474  1.00  0.00     0.029 A 
ATOM     58  C   UNL A   1      43.463  28.011  32.062  1.00  0.00     0.049 A 
ATOM     59  H   UNL A   1      41.574  28.595  31.329  1.00  0.00     0.167 HD
ATOM     60  C   UNL A   1      42.523  29.425  33.868  1.00  0.00     0.074 A 
ATOM     61  C   UNL A   1      42.565  30.021  35.188  1.00  0.00     0.031 C 
ATOM     62  C   UNL A   1      43.516  28.666  33.343  1.00  0.00     0.034 A 
BRANCH  49  63
ATOM     63  C   UNL A   1      42.214  26.294  27.788  1.00  0.00     0.023 A 
ATOM     64  C   UNL A   1      43.100  26.797  26.813  1.00  0.00     0.012 A 
ATOM     65  C   UNL A   1      41.790  24.953  27.712  1.00  0.00     0.148 A 
ATOM     66  C   UNL A   1      43.530  25.990  25.761  1.00  0.00     0.002 A 
ATOM     67  C   UNL A   1      42.257  24.144  26.684  1.00  0.00     0.091 A 
ATOM     68  F   UNL A   1      40.929  24.500  28.635  1.00  0.00    -0.205 F 
ATOM     69  C   UNL A   1      43.118  24.662  25.702  1.00  0.00     0.022 A 
BRANCH  67  70
ATOM     70  S   UNL A   1      41.840  22.399  26.565  1.00  0.00     0.127 S 
ATOM     71  O   UNL A   1      40.389  22.454  26.395  1.00  0.00    -0.237 OA
ATOM     72  O   UNL A   1      42.577  21.985  25.370  1.00  0.00    -0.237 OA
ATOM     73  O   UNL A   1      42.306  21.793  27.803  1.00  0.00    -0.744 OA
ENDBRANCH  67  70
ENDBRANCH  49  63
BRANCH  50  74
ATOM     74  C   UNL A   1      38.829  32.000  35.258  1.00  0.00     0.023 A 
ATOM     75  C   UNL A   1      38.805  33.402  35.133  1.00  0.00     0.012 A 
ATOM     76  C   UNL A   1      38.329  31.407  36.433  1.00  0.00     0.148 A 
ATOM     77  C   UNL A   1      38.319  34.203  36.168  1.00  0.00     0.002 A 
ATOM     78  C   UNL A   1      37.797  32.207  37.439  1.00  0.00     0.091 A 
ATOM     79  F   UNL A   1      38.372  30.071  36.540  1.00  0.00    -0.205 F 
ATOM     80  C   UNL A   1      37.805  33.604  37.315  1.00  0.00     0.022 A 
BRANCH  78  81
ATOM     81  S   UNL A   1      36.994  31.514  38.890  1.00  0.00     0.127 S 
ATOM     82  O   UNL A   1      38.032  31.662  39.906  1.00  0.00    -0.237 OA
ATOM     83  O   UNL A   1      35.840  32.397  39.053  1.00  0.00    -0.237 OA
ATOM     84  O   UNL A   1      36.650  30.145  38.524  1.00  0.00    -0.744 OA
ENDBRANCH  78  81
ENDBRANCH  50  74
BRANCH  62  85
ATOM     85  C   UNL A   1      44.755  28.461  34.172  1.00  0.00     0.023 A 
ATOM     86  C   UNL A   1      45.695  29.504  34.289  1.00  0.00     0.012 A 
ATOM     87  C   UNL A   1      44.942  27.274  34.906  1.00  0.00     0.148 A 
ATOM     88  C   UNL A   1      46.814  29.359  35.106  1.00  0.00     0.002 A 
ATOM     89  C   UNL A   1      46.038  27.154  35.754  1.00  0.00     0.091 A 
ATOM     90  F   UNL A   1      44.046  26.286  34.765  1.00  0.00    -0.205 F 
ATOM     91  C   UNL A   1      46.979  28.191  35.848  1.00  0.00     0.022 A 
BRANCH  89  92
ATOM     92  S   UNL A   1      46.276  25.724  36.815  1.00  0.00     0.127 S 
ATOM     93  O   UNL A   1      46.678  24.701  35.852  1.00  0.00    -0.237 OA
ATOM     94  O   UNL A   1      47.342  26.172  37.710  1.00  0.00    -0.237 OA
ATOM     95  O   UNL A   1      44.995  25.498  37.473  1.00  0.00    -0.744 OA
ENDBRANCH  89  92
ENDBRANCH  62  85
ENDBRANCH  36  37
ENDBRANCH  28  31
ENDBRANCH  26  27
ENDBRANCH  25  26
ENDBRANCH   1  25
TORSDOF 17
ENDMDL
MODEL 2
REMARK VINA RESULT:     -12.5      2.257      3.161
REMARK SMILES Cc1cc(C(=O)Nc2ccn(C)n2)sc1/C=C/C(=O)NCCCCNC(=O)c1ccc(-c2c3nc(c(-c4cccc(S(=O)(=O)[O-])c4F)c4ccc([nH]4)c(-c4cccc(S(=O)(=O)[O-])c4F)c4nc(c(-c5cccc(S(=O)(=O)[O-])c5F)c5ccc2[nH]5)C=C4)C=C3)cc1
REMARK SMILES IDX 22 1 21 2 20 3 18 4 19 5 17 7 16 8 15 9 1 10 2 11 3 12 4 13
REMARK SMILES IDX 14 14 5 15 6 16 7 17 8 19 9 20 13 21 10 22 11 23 12 24 23 25
REMARK SMILES IDX 24 26 25 27 26 28 27 30 28 31 29 32 90 33 30 34 89 35 31 36
REMARK SMILES IDX 32 37 33 38 83 39 34 40 88 41 82 42 84 43 35 44 87 45 81 46
REMARK SMILES IDX 80 47 36 49 68 50 48 51 67 52 49 53 52 54 66 55 85 56 50 57
REMARK SMILES IDX 51 58 65 60 86 61 53 62 37 63 38 64 46 65 39 66 41 67 47 68
REMARK SMILES IDX 40 69 42 70 43 71 44 72 45 73 69 74 70 75 78 76 71 77 73 78
REMARK SMILES IDX 79 79 72 80 74 81 75 82 76 83 77 84 54 85 55 86 63 87 56 88
REMARK SMILES IDX 58 89 64 90 57 91 59 92 60 93 61 94 62 95
REMARK H PARENT 20 6 7 18 25 29 84 48 52 59
REMARK Flexibility Score: inf
ROOT
ATOM      1  C   UNL A   1      32.346  30.044  26.616  1.00  0.00     0.023 C 
ENDROOT
BRANCH   1   2
ATOM      2  C   UNL A   1      31.814  29.450  25.311  1.00  0.00     0.116 C 
BRANCH   2   3
ATOM      3  N   UNL A   1      32.847  29.429  24.293  1.00  0.00    -0.353 N 
ATOM      4  C   UNL A   1      33.568  28.386  23.804  1.00  0.00     0.244 C 
ATOM      5  O   UNL A   1      34.347  28.554  22.868  1.00  0.00    -0.270 OA
ATOM      6  H   UNL A   1      33.060  30.305  23.897  1.00  0.00     0.163 HD
BRANCH   4   7
ATOM      7  C   UNL A   1      33.372  27.019  24.334  1.00  0.00     0.072 C 
ATOM      8  C   UNL A   1      33.442  25.915  23.577  1.00  0.00     0.025 C 
BRANCH   8   9
ATOM      9  C   UNL A   1      33.151  24.597  24.039  1.00  0.00     0.031 A 
ATOM     10  C   UNL A   1      30.697  24.313  23.305  1.00  0.00     0.046 C 
ATOM     11  C   UNL A   1      31.931  23.925  24.056  1.00  0.00    -0.032 A 
ATOM     12  C   UNL A   1      31.979  22.809  24.966  1.00  0.00     0.029 A 
ATOM     13  C   UNL A   1      33.227  22.625  25.535  1.00  0.00     0.093 A 
ATOM     14  S   UNL A   1      34.363  23.550  24.654  1.00  0.00    -0.130 S 
BRANCH  13  15
ATOM     15  C   UNL A   1      33.607  21.640  26.546  1.00  0.00     0.266 C 
ATOM     16  O   UNL A   1      34.055  21.993  27.641  1.00  0.00    -0.268 OA
ATOM     17  N   UNL A   1      33.402  20.291  26.358  1.00  0.00    -0.304 N 
ATOM     18  H   UNL A   1      33.357  19.758  27.185  1.00  0.00     0.171 HD
BRANCH  17  19
ATOM     19  C   UNL A   1      33.253  19.572  25.200  1.00  0.00     0.154 A 
ATOM     20  C   UNL A   1      32.144  19.486  24.324  1.00  0.00     0.068 A 
ATOM     21  N   UNL A   1      34.268  18.821  24.767  1.00  0.00    -0.155 NA
ATOM     22  C   UNL A   1      32.471  18.492  23.430  1.00  0.00     0.110 A 
ATOM     23  N   UNL A   1      33.713  18.069  23.796  1.00  0.00    -0.274 N 
ATOM     24  C   UNL A   1      34.399  16.888  23.332  1.00  0.00     0.173 C 
ENDBRANCH  17  19
ENDBRANCH  13  15
ENDBRANCH   8   9
ENDBRANCH   4   7
ENDBRANCH   2   3
ENDBRANCH   1   2
BRANCH   1  25
ATOM     25  C   UNL A   1      31.955  31.506  26.843  1.00  0.00     0.023 C 
BRANCH  25  26
ATOM     26  C   UNL A   1      33.079  32.396  27.363  1.00  0.00     0.116 C 
BRANCH  26  27
ATOM     27  N   UNL A   1      32.654  33.763  27.633  1.00  0.00    -0.352 N 
ATOM     28  C   UNL A   1      33.153  34.635  28.573  1.00  0.00     0.251 C 
ATOM     29  H   UNL A   1      31.921  34.105  27.073  1.00  0.00     0.163 HD
ATOM     30  O   UNL A   1      32.624  35.724  28.752  1.00  0.00    -0.269 OA
BRANCH  28  31
ATOM     31  C   UNL A   1      34.306  34.212  29.395  1.00  0.00     0.039 A 
ATOM     32  C   UNL A   1      34.072  33.457  30.546  1.00  0.00     0.014 A 
ATOM     33  C   UNL A   1      35.610  34.515  28.996  1.00  0.00     0.014 A 
ATOM     34  C   UNL A   1      35.154  32.942  31.261  1.00  0.00     0.010 A 
ATOM     35  C   UNL A   1      36.684  33.948  29.672  1.00  0.00     0.010 A 
ATOM     36  C   UNL A   1      36.467  33.155  30.810  1.00  0.00    -0.014 A 
BRANCH  36  37
ATOM     37  C   UNL A   1      37.630  32.539  31.496  1.00  0.00     0.031 A 
ATOM     38  C   UNL A   1      38.357  31.387  30.861  1.00  0.00     0.074 A 
ATOM     39  C   UNL A   1      37.960  32.949  32.737  1.00  0.00     0.049 A 
ATOM     40  N   UNL A   1      39.342  30.674  31.337  1.00  0.00    -0.248 NA
ATOM     41  C   UNL A   1      37.895  30.960  29.530  1.00  0.00     0.031 C 
ATOM     42  C   UNL A   1      37.271  33.997  33.494  1.00  0.00     0.029 A 
ATOM     43  N   UNL A   1      38.939  32.511  33.593  1.00  0.00    -0.354 N 
ATOM     44  C   UNL A   1      39.594  29.692  30.387  1.00  0.00     0.074 A 
ATOM     45  C   UNL A   1      38.637  29.883  29.319  1.00  0.00     0.031 C 
ATOM     46  C   UNL A   1      37.849  34.121  34.700  1.00  0.00     0.029 A 
ATOM     47  C   UNL A   1      38.934  33.150  34.812  1.00  0.00     0.049 A 
ATOM     48  H   UNL A   1      39.586  31.808  33.357  1.00  0.00     0.167 HD
ATOM     49  C   UNL A   1      40.556  28.740  30.387  1.00  0.00     0.034 A 
ATOM     50  C   UNL A   1      39.713  32.972  35.896  1.00  0.00     0.034 A 
ATOM     51  C   UNL A   1      41.543  28.594  31.421  1.00  0.00     0.049 A 
ATOM     52  C   UNL A   1      40.820  31.954  35.840  1.00  0.00     0.074 A 
ATOM     53  C   UNL A   1      42.618  27.724  31.468  1.00  0.00     0.029 A 
ATOM     54  N   UNL A   1      41.577  29.337  32.590  1.00  0.00    -0.354 N 
ATOM     55  N   UNL A   1      41.148  31.148  34.859  1.00  0.00    -0.248 NA
ATOM     56  C   UNL A   1      41.688  31.847  37.022  1.00  0.00     0.031 C 
ATOM     57  C   UNL A   1      43.300  27.938  32.670  1.00  0.00     0.029 A 
ATOM     58  C   UNL A   1      42.655  28.948  33.367  1.00  0.00     0.049 A 
ATOM     59  H   UNL A   1      40.930  30.038  32.834  1.00  0.00     0.167 HD
ATOM     60  C   UNL A   1      42.282  30.467  35.289  1.00  0.00     0.074 A 
ATOM     61  C   UNL A   1      42.593  30.968  36.613  1.00  0.00     0.031 C 
ATOM     62  C   UNL A   1      42.990  29.503  34.652  1.00  0.00     0.034 A 
BRANCH  49  63
ATOM     63  C   UNL A   1      40.632  27.825  29.193  1.00  0.00     0.023 A 
ATOM     64  C   UNL A   1      39.758  26.721  29.114  1.00  0.00     0.012 A 
ATOM     65  C   UNL A   1      41.518  28.083  28.129  1.00  0.00     0.148 A 
ATOM     66  C   UNL A   1      39.787  25.870  28.011  1.00  0.00     0.002 A 
ATOM     67  C   UNL A   1      41.513  27.252  27.015  1.00  0.00     0.091 A 
ATOM     68  F   UNL A   1      42.359  29.122  28.233  1.00  0.00    -0.205 F 
ATOM     69  C   UNL A   1      40.656  26.140  26.958  1.00  0.00     0.022 A 
BRANCH  67  70
ATOM     70  S   UNL A   1      42.544  27.562  25.576  1.00  0.00     0.127 S 
ATOM     71  O   UNL A   1      43.877  27.610  26.174  1.00  0.00    -0.237 OA
ATOM     72  O   UNL A   1      42.289  26.380  24.751  1.00  0.00    -0.237 OA
ATOM     73  O   UNL A   1      42.065  28.813  25.005  1.00  0.00    -0.744 OA
ENDBRANCH  67  70
ENDBRANCH  49  63
BRANCH  50  74
ATOM     74  C   UNL A   1      39.531  33.843  37.091  1.00  0.00     0.023 A 
ATOM     75  C   UNL A   1      39.967  35.181  37.038  1.00  0.00     0.012 A 
ATOM     76  C   UNL A   1      38.899  33.373  38.258  1.00  0.00     0.148 A 
ATOM     77  C   UNL A   1      39.804  36.028  38.135  1.00  0.00     0.002 A 
ATOM     78  C   UNL A   1      38.692  34.237  39.328  1.00  0.00     0.091 A 
ATOM     79  F   UNL A   1      38.502  32.093  38.296  1.00  0.00    -0.205 F 
ATOM     80  C   UNL A   1      39.157  35.560  39.275  1.00  0.00     0.022 A 
BRANCH  78  81
ATOM     81  S   UNL A   1      37.750  33.754  40.781  1.00  0.00     0.127 S 
ATOM     82  O   UNL A   1      36.664  32.977  40.190  1.00  0.00    -0.237 OA
ATOM     83  O   UNL A   1      38.729  32.970  41.534  1.00  0.00    -0.237 OA
ATOM     84  O   UNL A   1      37.364  35.003  41.425  1.00  0.00    -0.744 OA
ENDBRANCH  78  81
ENDBRANCH  50  74
BRANCH  62  85
ATOM     85  C   UNL A   1      44.199  28.943  35.352  1.00  0.00     0.023 A 
ATOM     86  C   UNL A   1      45.459  29.537  35.148  1.00  0.00     0.012 A 
ATOM     87  C   UNL A   1      44.070  27.891  36.280  1.00  0.00     0.148 A 
ATOM     88  C   UNL A   1      46.579  29.077  35.839  1.00  0.00     0.002 A 
ATOM     89  C   UNL A   1      45.182  27.468  36.999  1.00  0.00     0.091 A 
ATOM     90  F   UNL A   1      42.864  27.326  36.445  1.00  0.00    -0.205 F 
ATOM     91  C   UNL A   1      46.438  28.053  36.773  1.00  0.00     0.022 A 
BRANCH  89  92
ATOM     92  S   UNL A   1      45.072  26.220  38.287  1.00  0.00     0.127 S 
ATOM     93  O   UNL A   1      43.983  26.739  39.113  1.00  0.00    -0.237 OA
ATOM     94  O   UNL A   1      44.740  25.015  37.528  1.00  0.00    -0.237 OA
ATOM     95  O   UNL A   1      46.382  26.188  38.924  1.00  0.00    -0.744 OA
ENDBRANCH  89  92
ENDBRANCH  62  85
ENDBRANCH  36  37
ENDBRANCH  28  31
ENDBRANCH  26  27
ENDBRANCH  25  26
ENDBRANCH   1  25
TORSDOF 17
ENDMDL
MODEL 3
REMARK VINA RESULT:     -12.2      1.769      7.829
REMARK SMILES Cc1cc(C(=O)Nc2ccn(C)n2)sc1/C=C/C(=O)NCCCCNC(=O)c1ccc(-c2c3nc(c(-c4cccc(S(=O)(=O)[O-])c4F)c4ccc([nH]4)c(-c4cccc(S(=O)(=O)[O-])c4F)c4nc(c(-c5cccc(S(=O)(=O)[O-])c5F)c5ccc2[nH]5)C=C4)C=C3)cc1
REMARK SMILES IDX 22 1 21 2 20 3 18 4 19 5 17 7 16 8 15 9 1 10 2 11 3 12 4 13
REMARK SMILES IDX 14 14 5 15 6 16 7 17 8 19 9 20 13 21 10 22 11 23 12 24 23 25
REMARK SMILES IDX 24 26 25 27 26 28 27 30 28 31 29 32 90 33 30 34 89 35 31 36
REMARK SMILES IDX 32 37 33 38 83 39 34 40 88 41 82 42 84 43 35 44 87 45 81 46
REMARK SMILES IDX 80 47 36 49 68 50 48 51 67 52 49 53 52 54 66 55 85 56 50 57
REMARK SMILES IDX 51 58 65 60 86 61 53 62 37 63 38 64 46 65 39 66 41 67 47 68
REMARK SMILES IDX 40 69 42 70 43 71 44 72 45 73 69 74 70 75 78 76 71 77 73 78
REMARK SMILES IDX 79 79 72 80 74 81 75 82 76 83 77 84 54 85 55 86 63 87 56 88
REMARK SMILES IDX 58 89 64 90 57 91 59 92 60 93 61 94 62 95
REMARK H PARENT 20 6 7 18 25 29 84 48 52 59
REMARK Flexibility Score: inf
ROOT
ATOM      1  C   UNL A   1      33.834  28.322  24.389  1.00  0.00     0.023 C 
ENDROOT
BRANCH   1   2
ATOM      2  C   UNL A   1      33.781  28.143  22.872  1.00  0.00     0.116 C 
BRANCH   2   3
ATOM      3  N   UNL A   1      32.451  28.422  22.364  1.00  0.00    -0.353 N 
ATOM      4  C   UNL A   1      31.349  27.628  22.319  1.00  0.00     0.244 C 
ATOM      5  O   UNL A   1      30.274  28.078  21.928  1.00  0.00    -0.270 OA
ATOM      6  H   UNL A   1      32.328  29.327  21.994  1.00  0.00     0.163 HD
BRANCH   4   7
ATOM      7  C   UNL A   1      31.405  26.234  22.812  1.00  0.00     0.072 C 
ATOM      8  C   UNL A   1      30.686  25.790  23.853  1.00  0.00     0.025 C 
BRANCH   8   9
ATOM      9  C   UNL A   1      30.800  24.484  24.416  1.00  0.00     0.031 A 
ATOM     10  C   UNL A   1      29.693  24.806  26.720  1.00  0.00     0.046 C 
ATOM     11  C   UNL A   1      30.500  24.058  25.708  1.00  0.00    -0.032 A 
ATOM     12  C   UNL A   1      31.139  22.798  25.988  1.00  0.00     0.029 A 
ATOM     13  C   UNL A   1      31.819  22.279  24.900  1.00  0.00     0.093 A 
ATOM     14  S   UNL A   1      31.329  23.132  23.502  1.00  0.00    -0.130 S 
BRANCH  13  15
ATOM     15  C   UNL A   1      32.629  21.063  24.854  1.00  0.00     0.266 C 
ATOM     16  O   UNL A   1      32.135  19.960  25.104  1.00  0.00    -0.268 OA
ATOM     17  N   UNL A   1      33.945  21.082  24.451  1.00  0.00    -0.304 N 
ATOM     18  H   UNL A   1      34.293  20.221  24.123  1.00  0.00     0.171 HD
BRANCH  17  19
ATOM     19  C   UNL A   1      34.850  22.113  24.434  1.00  0.00     0.154 A 
ATOM     20  C   UNL A   1      35.362  22.852  23.340  1.00  0.00     0.068 A 
ATOM     21  N   UNL A   1      35.365  22.544  25.588  1.00  0.00    -0.155 NA
ATOM     22  C   UNL A   1      36.361  23.634  23.872  1.00  0.00     0.110 A 
ATOM     23  N   UNL A   1      36.379  23.344  25.204  1.00  0.00    -0.274 N 
ATOM     24  C   UNL A   1      37.394  23.714  26.159  1.00  0.00     0.173 C 
ENDBRANCH  17  19
ENDBRANCH  13  15
ENDBRANCH   8   9
ENDBRANCH   4   7
ENDBRANCH   2   3
ENDBRANCH   1   2
BRANCH   1  25
ATOM     25  C   UNL A   1      33.003  29.497  24.909  1.00  0.00     0.023 C 
BRANCH  25  26
ATOM     26  C   UNL A   1      33.088  29.725  26.415  1.00  0.00     0.116 C 
BRANCH  26  27
ATOM     27  N   UNL A   1      32.931  31.122  26.796  1.00  0.00    -0.352 N 
ATOM     28  C   UNL A   1      33.776  31.891  27.562  1.00  0.00     0.251 C 
ATOM     29  H   UNL A   1      32.121  31.571  26.464  1.00  0.00     0.163 HD
ATOM     30  O   UNL A   1      33.460  33.028  27.885  1.00  0.00    -0.269 OA
BRANCH  28  31
ATOM     31  C   UNL A   1      35.049  31.301  28.028  1.00  0.00     0.039 A 
ATOM     32  C   UNL A   1      36.193  32.101  28.052  1.00  0.00     0.014 A 
ATOM     33  C   UNL A   1      35.092  29.982  28.490  1.00  0.00     0.014 A 
ATOM     34  C   UNL A   1      37.370  31.599  28.608  1.00  0.00     0.010 A 
ATOM     35  C   UNL A   1      36.247  29.508  29.101  1.00  0.00     0.010 A 
ATOM     36  C   UNL A   1      37.396  30.311  29.168  1.00  0.00    -0.014 A 
BRANCH  36  37
ATOM     37  C   UNL A   1      38.606  29.789  29.852  1.00  0.00     0.031 A 
ATOM     38  C   UNL A   1      39.027  30.357  31.177  1.00  0.00     0.074 A 
ATOM     39  C   UNL A   1      39.380  28.881  29.225  1.00  0.00     0.049 A 
ATOM     40  N   UNL A   1      40.088  30.084  31.889  1.00  0.00    -0.248 NA
ATOM     41  C   UNL A   1      38.157  31.389  31.766  1.00  0.00     0.031 C 
ATOM     42  C   UNL A   1      39.124  28.323  27.896  1.00  0.00     0.029 A 
ATOM     43  N   UNL A   1      40.558  28.292  29.610  1.00  0.00    -0.354 N 
ATOM     44  C   UNL A   1      40.037  30.934  32.987  1.00  0.00     0.074 A 
ATOM     45  C   UNL A   1      38.856  31.754  32.832  1.00  0.00     0.031 C 
ATOM     46  C   UNL A   1      40.114  27.472  27.577  1.00  0.00     0.029 A 
ATOM     47  C   UNL A   1      41.085  27.441  28.666  1.00  0.00     0.049 A 
ATOM     48  H   UNL A   1      40.986  28.462  30.480  1.00  0.00     0.167 HD
ATOM     49  C   UNL A   1      40.880  31.003  34.045  1.00  0.00     0.034 A 
ATOM     50  C   UNL A   1      42.222  26.718  28.677  1.00  0.00     0.034 A 
ATOM     51  C   UNL A   1      42.018  30.145  34.223  1.00  0.00     0.049 A 
ATOM     52  C   UNL A   1      43.102  26.761  29.897  1.00  0.00     0.074 A 
ATOM     53  C   UNL A   1      42.877  30.069  35.305  1.00  0.00     0.029 A 
ATOM     54  N   UNL A   1      42.456  29.211  33.298  1.00  0.00    -0.354 N 
ATOM     55  N   UNL A   1      42.945  27.449  31.002  1.00  0.00    -0.248 NA
ATOM     56  C   UNL A   1      44.294  25.900  29.890  1.00  0.00     0.031 C 
ATOM     57  C   UNL A   1      43.839  29.092  35.030  1.00  0.00     0.029 A 
ATOM     58  C   UNL A   1      43.573  28.553  33.782  1.00  0.00     0.049 A 
ATOM     59  H   UNL A   1      42.035  29.041  32.424  1.00  0.00     0.167 HD
ATOM     60  C   UNL A   1      43.993  27.077  31.835  1.00  0.00     0.074 A 
ATOM     61  C   UNL A   1      44.770  26.090  31.114  1.00  0.00     0.031 C 
ATOM     62  C   UNL A   1      44.295  27.524  33.079  1.00  0.00     0.034 A 
BRANCH  49  63
ATOM     63  C   UNL A   1      40.557  31.997  35.129  1.00  0.00     0.023 A 
ATOM     64  C   UNL A   1      41.322  33.178  35.231  1.00  0.00     0.012 A 
ATOM     65  C   UNL A   1      39.473  31.797  36.005  1.00  0.00     0.148 A 
ATOM     66  C   UNL A   1      41.034  34.128  36.209  1.00  0.00     0.002 A 
ATOM     67  C   UNL A   1      39.168  32.769  36.951  1.00  0.00     0.091 A 
ATOM     68  F   UNL A   1      38.773  30.658  35.910  1.00  0.00    -0.205 F 
ATOM     69  C   UNL A   1      39.951  33.930  37.061  1.00  0.00     0.022 A 
BRANCH  67  70
ATOM     70  S   UNL A   1      37.747  32.637  38.045  1.00  0.00     0.127 S 
ATOM     71  O   UNL A   1      36.644  32.929  37.131  1.00  0.00    -0.237 OA
ATOM     72  O   UNL A   1      37.822  31.242  38.483  1.00  0.00    -0.237 OA
ATOM     73  O   UNL A   1      37.966  33.615  39.100  1.00  0.00    -0.744 OA
ENDBRANCH  67  70
ENDBRANCH  49  63
BRANCH  50  74
ATOM     74  C   UNL A   1      42.542  25.821  27.531  1.00  0.00     0.023 A 
ATOM     75  C   UNL A   1      43.356  26.303  26.489  1.00  0.00     0.012 A 
ATOM     76  C   UNL A   1      42.082  24.491  27.484  1.00  0.00     0.148 A 
ATOM     77  C   UNL A   1      43.684  25.489  25.404  1.00  0.00     0.002 A 
ATOM     78  C   UNL A   1      42.456  23.667  26.427  1.00  0.00     0.091 A 
ATOM     79  F   UNL A   1      41.297  24.053  28.478  1.00  0.00    -0.205 F 
ATOM     80  C   UNL A   1      43.243  24.168  25.379  1.00  0.00     0.022 A 
BRANCH  78  81
ATOM     81  S   UNL A   1      42.043  21.919  26.383  1.00  0.00     0.127 S 
ATOM     82  O   UNL A   1      42.404  21.492  27.732  1.00  0.00    -0.237 OA
ATOM     83  O   UNL A   1      40.606  21.949  26.110  1.00  0.00    -0.237 OA
ATOM     84  O   UNL A   1      42.844  21.359  25.301  1.00  0.00    -0.744 OA
ENDBRANCH  78  81
ENDBRANCH  50  74
BRANCH  62  85
ATOM     85  C   UNL A   1      45.494  26.930  33.766  1.00  0.00     0.023 A 
ATOM     86  C   UNL A   1      46.745  27.570  33.663  1.00  0.00     0.012 A 
ATOM     87  C   UNL A   1      45.363  25.793  34.587  1.00  0.00     0.148 A 
ATOM     88  C   UNL A   1      47.852  27.074  34.348  1.00  0.00     0.002 A 
ATOM     89  C   UNL A   1      46.462  25.330  35.302  1.00  0.00     0.091 A 
ATOM     90  F   UNL A   1      44.168  25.186  34.655  1.00  0.00    -0.205 F 
ATOM     91  C   UNL A   1      47.708  25.963  35.177  1.00  0.00     0.022 A 
BRANCH  89  92
ATOM     92  S   UNL A   1      46.342  23.964  36.464  1.00  0.00     0.127 S 
ATOM     93  O   UNL A   1      47.709  23.889  36.977  1.00  0.00    -0.237 OA
ATOM     94  O   UNL A   1      45.356  24.456  37.425  1.00  0.00    -0.237 OA
ATOM     95  O   UNL A   1      45.900  22.815  35.684  1.00  0.00    -0.744 OA
ENDBRANCH  89  92
ENDBRANCH  62  85
ENDBRANCH  36  37
ENDBRANCH  28  31
ENDBRANCH  26  27
ENDBRANCH  25  26
ENDBRANCH   1  25
TORSDOF 17
ENDMDL
