MODEL 1
REMARK VINA RESULT:     -12.9      0.000      0.000
REMARK SMILES O=C(NCCCCNC(=O)c1ccc2c(c1)[C@@H](C1CCOCC1)C(=O)N2)c1ccc(-c2c3nc(c(-c4cccc(S(=O)(=O)[O-])c4F)c4ccc([nH]4)c(-c4cccc(S(=O)(=O)[O-])c4F)c4nc(c(-c5cccc(S(=O)(=O)[O-])c5F)c5ccc2[nH]5)C=C4)C=C3)cc1
REMARK SMILES IDX 4 1 3 2 1 3 2 4 27 6 28 7 89 8 29 9 88 10 30 11 31 12 32 13
REMARK SMILES IDX 82 14 33 15 87 16 81 17 83 18 34 19 86 20 80 21 79 22 35 24
REMARK SMILES IDX 67 25 47 26 66 27 48 28 51 29 65 30 84 31 49 32 50 33 64 35
REMARK SMILES IDX 85 36 52 37 36 38 37 39 45 40 38 41 40 42 46 43 39 44 41 45
REMARK SMILES IDX 42 46 43 47 44 48 68 49 69 50 77 51 70 52 72 53 78 54 71 55
REMARK SMILES IDX 73 56 74 57 75 58 76 59 53 60 54 61 62 62 55 63 57 64 63 65
REMARK SMILES IDX 56 66 58 67 59 68 60 69 61 70 5 71 6 72 7 73 8 74 9 75 10 77
REMARK SMILES IDX 11 78 12 79 16 80 13 81 15 82 14 83 17 84 26 85 24 86 25 88
REMARK SMILES IDX 18 89 19 90 23 91 20 92 22 93 21 94
REMARK H PARENT 3 5 83 23 51 34 8 76 26 87
REMARK Flexibility Score: inf
ROOT
ATOM      1  C   UNL A   1      36.370  21.999  25.680  1.00  0.00     0.116 C 
ENDROOT
BRANCH   1   2
ATOM      2  N   UNL A   1      37.407  20.980  25.584  1.00  0.00    -0.352 N 
ATOM      3  O   UNL A   1      39.497  20.130  25.632  1.00  0.00    -0.269 OA
ATOM      4  C   UNL A   1      38.746  21.063  25.898  1.00  0.00     0.251 C 
ATOM      5  H   UNL A   1      37.108  20.106  25.244  1.00  0.00     0.163 HD
BRANCH   4   6
ATOM      6  C   UNL A   1      39.271  22.301  26.514  1.00  0.00     0.039 A 
ATOM      7  C   UNL A   1      38.751  23.541  26.145  1.00  0.00     0.014 A 
ATOM      8  C   UNL A   1      40.337  22.229  27.413  1.00  0.00     0.014 A 
ATOM      9  C   UNL A   1      39.437  24.699  26.484  1.00  0.00     0.010 A 
ATOM     10  C   UNL A   1      40.949  23.406  27.856  1.00  0.00     0.010 A 
ATOM     11  C   UNL A   1      40.545  24.650  27.346  1.00  0.00    -0.014 A 
BRANCH  11  12
ATOM     12  C   UNL A   1      41.232  25.919  27.709  1.00  0.00     0.031 A 
ATOM     13  C   UNL A   1      42.627  26.227  27.226  1.00  0.00     0.074 A 
ATOM     14  C   UNL A   1      40.568  26.820  28.460  1.00  0.00     0.049 A 
ATOM     15  N   UNL A   1      43.336  27.313  27.405  1.00  0.00    -0.248 NA
ATOM     16  C   UNL A   1      43.321  25.187  26.449  1.00  0.00     0.031 C 
ATOM     17  C   UNL A   1      39.227  26.625  29.018  1.00  0.00     0.029 A 
ATOM     18  N   UNL A   1      40.918  28.079  28.874  1.00  0.00    -0.354 N 
ATOM     19  C   UNL A   1      44.571  27.071  26.814  1.00  0.00     0.074 A 
ATOM     20  C   UNL A   1      44.518  25.730  26.273  1.00  0.00     0.031 C 
ATOM     21  C   UNL A   1      38.850  27.738  29.661  1.00  0.00     0.029 A 
ATOM     22  C   UNL A   1      39.944  28.699  29.623  1.00  0.00     0.049 A 
ATOM     23  H   UNL A   1      41.781  28.500  28.657  1.00  0.00     0.167 HD
ATOM     24  C   UNL A   1      45.646  27.891  26.722  1.00  0.00     0.034 A 
ATOM     25  C   UNL A   1      39.935  29.901  30.231  1.00  0.00     0.034 A 
ATOM     26  C   UNL A   1      45.683  29.237  27.235  1.00  0.00     0.049 A 
ATOM     27  C   UNL A   1      41.135  30.792  30.095  1.00  0.00     0.074 A 
ATOM     28  C   UNL A   1      46.700  30.170  27.128  1.00  0.00     0.029 A 
ATOM     29  N   UNL A   1      44.668  29.837  27.964  1.00  0.00    -0.354 N 
ATOM     30  N   UNL A   1      42.244  30.588  29.428  1.00  0.00    -0.248 NA
ATOM     31  C   UNL A   1      41.069  32.094  30.773  1.00  0.00     0.031 C 
ATOM     32  C   UNL A   1      46.317  31.318  27.831  1.00  0.00     0.029 A 
ATOM     33  C   UNL A   1      45.040  31.120  28.329  1.00  0.00     0.049 A 
ATOM     34  H   UNL A   1      43.808  29.413  28.190  1.00  0.00     0.167 HD
ATOM     35  C   UNL A   1      42.990  31.751  29.568  1.00  0.00     0.074 A 
ATOM     36  C   UNL A   1      42.197  32.661  30.369  1.00  0.00     0.031 C 
ATOM     37  C   UNL A   1      44.224  32.036  29.085  1.00  0.00     0.034 A 
BRANCH  24  38
ATOM     38  C   UNL A   1      46.880  27.366  26.030  1.00  0.00     0.023 A 
ATOM     39  C   UNL A   1      47.068  27.591  24.650  1.00  0.00     0.012 A 
ATOM     40  C   UNL A   1      47.891  26.710  26.763  1.00  0.00     0.148 A 
ATOM     41  C   UNL A   1      48.220  27.137  24.006  1.00  0.00     0.002 A 
ATOM     42  C   UNL A   1      49.057  26.305  26.124  1.00  0.00     0.091 A 
ATOM     43  F   UNL A   1      47.690  26.491  28.070  1.00  0.00    -0.205 F 
ATOM     44  C   UNL A   1      49.217  26.505  24.744  1.00  0.00     0.022 A 
BRANCH  42  45
ATOM     45  S   UNL A   1      50.435  25.560  27.003  1.00  0.00     0.127 S 
ATOM     46  O   UNL A   1      49.813  24.361  27.564  1.00  0.00    -0.237 OA
ATOM     47  O   UNL A   1      51.386  25.302  25.921  1.00  0.00    -0.237 OA
ATOM     48  O   UNL A   1      50.876  26.549  27.976  1.00  0.00    -0.744 OA
ENDBRANCH  42  45
ENDBRANCH  24  38
BRANCH  25  49
ATOM     49  C   UNL A   1      38.731  30.340  30.989  1.00  0.00     0.023 A 
ATOM     50  C   UNL A   1      38.633  30.056  32.364  1.00  0.00     0.012 A 
ATOM     51  C   UNL A   1      37.697  31.059  30.359  1.00  0.00     0.148 A 
ATOM     52  C   UNL A   1      37.509  30.449  33.092  1.00  0.00     0.002 A 
ATOM     53  C   UNL A   1      36.610  31.500  31.102  1.00  0.00     0.091 A 
ATOM     54  F   UNL A   1      37.807  31.313  29.047  1.00  0.00    -0.205 F 
ATOM     55  C   UNL A   1      36.503  31.179  32.462  1.00  0.00     0.022 A 
BRANCH  53  56
ATOM     56  S   UNL A   1      35.338  32.561  30.408  1.00  0.00     0.127 S 
ATOM     57  O   UNL A   1      34.386  32.645  31.512  1.00  0.00    -0.237 OA
ATOM     58  O   UNL A   1      36.085  33.790  30.142  1.00  0.00    -0.237 OA
ATOM     59  O   UNL A   1      34.861  31.876  29.213  1.00  0.00    -0.744 OA
ENDBRANCH  53  56
ENDBRANCH  25  49
BRANCH  37  60
ATOM     60  C   UNL A   1      44.772  33.413  29.353  1.00  0.00     0.023 A 
ATOM     61  C   UNL A   1      45.461  33.687  30.551  1.00  0.00     0.012 A 
ATOM     62  C   UNL A   1      44.640  34.431  28.386  1.00  0.00     0.148 A 
ATOM     63  C   UNL A   1      45.968  34.962  30.803  1.00  0.00     0.002 A 
ATOM     64  C   UNL A   1      45.197  35.681  28.619  1.00  0.00     0.091 A 
ATOM     65  F   UNL A   1      43.963  34.159  27.261  1.00  0.00    -0.205 F 
ATOM     66  C   UNL A   1      45.846  35.955  29.833  1.00  0.00     0.022 A 
BRANCH  64  67
ATOM     67  S   UNL A   1      45.176  36.985  27.384  1.00  0.00     0.127 S 
ATOM     68  O   UNL A   1      45.831  38.081  28.096  1.00  0.00    -0.237 OA
ATOM     69  O   UNL A   1      45.970  36.400  26.302  1.00  0.00    -0.237 OA
ATOM     70  O   UNL A   1      43.774  37.202  27.053  1.00  0.00    -0.744 OA
ENDBRANCH  64  67
ENDBRANCH  37  60
ENDBRANCH  11  12
ENDBRANCH   4   6
ENDBRANCH   1   2
BRANCH   1  71
ATOM     71  C   UNL A   1      34.963  21.426  25.765  1.00  0.00     0.023 C 
BRANCH  71  72
ATOM     72  C   UNL A   1      34.228  21.715  27.067  1.00  0.00     0.023 C 
BRANCH  72  73
ATOM     73  C   UNL A   1      33.274  22.902  27.014  1.00  0.00     0.116 C 
BRANCH  73  74
ATOM     74  N   UNL A   1      31.910  22.550  27.383  1.00  0.00    -0.352 N 
ATOM     75  C   UNL A   1      30.735  23.043  26.872  1.00  0.00     0.251 C 
ATOM     76  H   UNL A   1      31.820  21.871  28.091  1.00  0.00     0.163 HD
ATOM     77  O   UNL A   1      29.650  22.753  27.365  1.00  0.00    -0.269 OA
BRANCH  75  78
ATOM     78  C   UNL A   1      30.796  23.965  25.722  1.00  0.00     0.040 A 
ATOM     79  C   UNL A   1      31.004  23.452  24.423  1.00  0.00     0.016 A 
ATOM     80  C   UNL A   1      30.706  25.342  25.965  1.00  0.00     0.020 A 
ATOM     81  C   UNL A   1      31.224  24.317  23.354  1.00  0.00     0.027 A 
ATOM     82  C   UNL A   1      30.916  26.191  24.892  1.00  0.00    -0.011 A 
ATOM     83  C   UNL A   1      31.185  25.668  23.624  1.00  0.00     0.045 A 
ATOM     84  C   UNL A   1      30.924  27.700  24.822  1.00  0.00     0.114 C 
ATOM     85  N   UNL A   1      31.402  26.695  22.726  1.00  0.00    -0.325 N 
ATOM     86  C   UNL A   1      31.269  27.936  23.330  1.00  0.00     0.232 C 
ATOM     87  H   UNL A   1      31.626  26.562  21.777  1.00  0.00     0.169 HD
ATOM     88  O   UNL A   1      31.371  29.004  22.745  1.00  0.00    -0.274 OA
BRANCH  84  89
ATOM     89  C   UNL A   1      31.867  28.393  25.830  1.00  0.00     0.010 C 
ATOM     90  C   UNL A   1      31.616  29.910  25.901  1.00  0.00     0.033 C 
ATOM     91  C   UNL A   1      33.362  28.125  25.581  1.00  0.00     0.033 C 
ATOM     92  C   UNL A   1      32.590  30.594  26.853  1.00  0.00     0.160 C 
ATOM     93  C   UNL A   1      34.225  28.910  26.563  1.00  0.00     0.160 C 
ATOM     94  O   UNL A   1      33.937  30.304  26.487  1.00  0.00    -0.381 OA
ENDBRANCH  84  89
ENDBRANCH  75  78
ENDBRANCH  73  74
ENDBRANCH  72  73
ENDBRANCH  71  72
ENDBRANCH   1  71
TORSDOF 15
ENDMDL
MODEL 2
REMARK VINA RESULT:     -12.9      4.648     10.096
REMARK SMILES O=C(NCCCCNC(=O)c1ccc2c(c1)[C@@H](C1CCOCC1)C(=O)N2)c1ccc(-c2c3nc(c(-c4cccc(S(=O)(=O)[O-])c4F)c4ccc([nH]4)c(-c4cccc(S(=O)(=O)[O-])c4F)c4nc(c(-c5cccc(S(=O)(=O)[O-])c5F)c5ccc2[nH]5)C=C4)C=C3)cc1
REMARK SMILES IDX 4 1 3 2 1 3 2 4 27 6 28 7 89 8 29 9 88 10 30 11 31 12 32 13
REMARK SMILES IDX 82 14 33 15 87 16 81 17 83 18 34 19 86 20 80 21 79 22 35 24
REMARK SMILES IDX 67 25 47 26 66 27 48 28 51 29 65 30 84 31 49 32 50 33 64 35
REMARK SMILES IDX 85 36 52 37 36 38 37 39 45 40 38 41 40 42 46 43 39 44 41 45
REMARK SMILES IDX 42 46 43 47 44 48 68 49 69 50 77 51 70 52 72 53 78 54 71 55
REMARK SMILES IDX 73 56 74 57 75 58 76 59 53 60 54 61 62 62 55 63 57 64 63 65
REMARK SMILES IDX 56 66 58 67 59 68 60 69 61 70 5 71 6 72 7 73 8 74 9 75 10 77
REMARK SMILES IDX 11 78 12 79 16 80 13 81 15 82 14 83 17 84 26 85 24 86 25 88
REMARK SMILES IDX 18 89 19 90 23 91 20 92 22 93 21 94
REMARK H PARENT 3 5 83 23 51 34 8 76 26 87
REMARK Flexibility Score: inf
ROOT
ATOM      1  C   UNL A   1      32.601  29.465  25.984  1.00  0.00     0.116 C 
ENDROOT
BRANCH   1   2
ATOM      2  N   UNL A   1      32.315  30.839  26.376  1.00  0.00    -0.352 N 
ATOM      3  O   UNL A   1      32.592  32.786  27.485  1.00  0.00    -0.269 OA
ATOM      4  C   UNL A   1      33.057  31.698  27.158  1.00  0.00     0.251 C 
ATOM      5  H   UNL A   1      31.468  31.207  26.034  1.00  0.00     0.163 HD
BRANCH   4   6
ATOM      6  C   UNL A   1      34.392  31.275  27.633  1.00  0.00     0.039 A 
ATOM      7  C   UNL A   1      34.617  29.949  27.999  1.00  0.00     0.014 A 
ATOM      8  C   UNL A   1      35.406  32.224  27.782  1.00  0.00     0.014 A 
ATOM      9  C   UNL A   1      35.757  29.623  28.721  1.00  0.00     0.010 A 
ATOM     10  C   UNL A   1      36.608  31.861  28.398  1.00  0.00     0.010 A 
ATOM     11  C   UNL A   1      36.771  30.572  28.931  1.00  0.00    -0.014 A 
BRANCH  11  12
ATOM     12  C   UNL A   1      37.990  30.172  29.683  1.00  0.00     0.031 A 
ATOM     13  C   UNL A   1      38.211  30.599  31.112  1.00  0.00     0.074 A 
ATOM     14  C   UNL A   1      38.893  29.378  29.073  1.00  0.00     0.049 A 
ATOM     15  N   UNL A   1      39.191  30.282  31.920  1.00  0.00    -0.248 NA
ATOM     16  C   UNL A   1      37.216  31.503  31.712  1.00  0.00     0.031 C 
ATOM     17  C   UNL A   1      38.810  28.924  27.681  1.00  0.00     0.029 A 
ATOM     18  N   UNL A   1      40.047  28.803  29.539  1.00  0.00    -0.354 N 
ATOM     19  C   UNL A   1      38.961  30.983  33.099  1.00  0.00     0.074 A 
ATOM     20  C   UNL A   1      37.750  31.749  32.900  1.00  0.00     0.031 C 
ATOM     21  C   UNL A   1      39.839  28.108  27.421  1.00  0.00     0.029 A 
ATOM     22  C   UNL A   1      40.693  28.034  28.599  1.00  0.00     0.049 A 
ATOM     23  H   UNL A   1      40.381  28.928  30.456  1.00  0.00     0.167 HD
ATOM     24  C   UNL A   1      39.686  30.982  34.245  1.00  0.00     0.034 A 
ATOM     25  C   UNL A   1      41.855  27.357  28.667  1.00  0.00     0.034 A 
ATOM     26  C   UNL A   1      40.874  30.193  34.450  1.00  0.00     0.049 A 
ATOM     27  C   UNL A   1      42.625  27.363  29.955  1.00  0.00     0.074 A 
ATOM     28  C   UNL A   1      41.638  30.071  35.598  1.00  0.00     0.029 A 
ATOM     29  N   UNL A   1      41.482  29.408  33.483  1.00  0.00    -0.354 N 
ATOM     30  N   UNL A   1      42.324  27.935  31.094  1.00  0.00    -0.248 NA
ATOM     31  C   UNL A   1      43.882  26.602  29.975  1.00  0.00     0.031 C 
ATOM     32  C   UNL A   1      42.731  29.246  35.312  1.00  0.00     0.029 A 
ATOM     33  C   UNL A   1      42.620  28.811  34.002  1.00  0.00     0.049 A 
ATOM     34  H   UNL A   1      41.154  29.290  32.562  1.00  0.00     0.167 HD
ATOM     35  C   UNL A   1      43.330  27.569  31.980  1.00  0.00     0.074 A 
ATOM     36  C   UNL A   1      44.238  26.711  31.247  1.00  0.00     0.031 C 
ATOM     37  C   UNL A   1      43.491  27.920  33.279  1.00  0.00     0.034 A 
BRANCH  24  38
ATOM     38  C   UNL A   1      39.214  31.855  35.383  1.00  0.00     0.023 A 
ATOM     39  C   UNL A   1      38.340  31.334  36.359  1.00  0.00     0.012 A 
ATOM     40  C   UNL A   1      39.695  33.173  35.523  1.00  0.00     0.148 A 
ATOM     41  C   UNL A   1      37.921  32.122  37.432  1.00  0.00     0.002 A 
ATOM     42  C   UNL A   1      39.312  33.935  36.621  1.00  0.00     0.091 A 
ATOM     43  F   UNL A   1      40.513  33.658  34.579  1.00  0.00    -0.205 F 
ATOM     44  C   UNL A   1      38.416  33.417  37.568  1.00  0.00     0.022 A 
BRANCH  42  45
ATOM     45  S   UNL A   1      39.960  35.581  36.932  1.00  0.00     0.127 S 
ATOM     46  O   UNL A   1      39.310  35.920  38.197  1.00  0.00    -0.237 OA
ATOM     47  O   UNL A   1      41.398  35.330  37.035  1.00  0.00    -0.237 OA
ATOM     48  O   UNL A   1      39.566  36.393  35.790  1.00  0.00    -0.744 OA
ENDBRANCH  42  45
ENDBRANCH  24  38
BRANCH  25  49
ATOM     49  C   UNL A   1      42.336  26.587  27.486  1.00  0.00     0.023 A 
ATOM     50  C   UNL A   1      43.089  27.238  26.491  1.00  0.00     0.012 A 
ATOM     51  C   UNL A   1      42.071  25.210  27.358  1.00  0.00     0.148 A 
ATOM     52  C   UNL A   1      43.540  26.539  25.371  1.00  0.00     0.002 A 
ATOM     53  C   UNL A   1      42.574  24.507  26.272  1.00  0.00     0.091 A 
ATOM     54  F   UNL A   1      41.345  24.611  28.314  1.00  0.00    -0.205 F 
ATOM     55  C   UNL A   1      43.290  25.172  25.267  1.00  0.00     0.022 A 
BRANCH  53  56
ATOM     56  S   UNL A   1      42.420  22.724  26.125  1.00  0.00     0.127 S 
ATOM     57  O   UNL A   1      43.034  22.478  24.823  1.00  0.00    -0.237 OA
ATOM     58  O   UNL A   1      43.200  22.260  27.273  1.00  0.00    -0.237 OA
ATOM     59  O   UNL A   1      40.993  22.442  26.214  1.00  0.00    -0.744 OA
ENDBRANCH  53  56
ENDBRANCH  25  49
BRANCH  37  60
ATOM     60  C   UNL A   1      44.662  27.325  34.018  1.00  0.00     0.023 A 
ATOM     61  C   UNL A   1      45.922  27.953  33.981  1.00  0.00     0.012 A 
ATOM     62  C   UNL A   1      44.495  26.157  34.789  1.00  0.00     0.148 A 
ATOM     63  C   UNL A   1      47.008  27.403  34.662  1.00  0.00     0.002 A 
ATOM     64  C   UNL A   1      45.566  25.648  35.511  1.00  0.00     0.091 A 
ATOM     65  F   UNL A   1      43.293  25.561  34.796  1.00  0.00    -0.205 F 
ATOM     66  C   UNL A   1      46.828  26.259  35.436  1.00  0.00     0.022 A 
BRANCH  64  67
ATOM     67  S   UNL A   1      45.398  24.240  36.612  1.00  0.00     0.127 S 
ATOM     68  O   UNL A   1      44.968  23.190  35.691  1.00  0.00    -0.237 OA
ATOM     69  O   UNL A   1      46.760  24.082  37.125  1.00  0.00    -0.237 OA
ATOM     70  O   UNL A   1      44.417  24.631  37.617  1.00  0.00    -0.744 OA
ENDBRANCH  64  67
ENDBRANCH  37  60
ENDBRANCH  11  12
ENDBRANCH   4   6
ENDBRANCH   1   2
BRANCH   1  71
ATOM     71  C   UNL A   1      33.099  29.335  24.552  1.00  0.00     0.023 C 
BRANCH  71  72
ATOM     72  C   UNL A   1      32.562  28.130  23.791  1.00  0.00     0.023 C 
BRANCH  72  73
ATOM     73  C   UNL A   1      33.591  27.400  22.937  1.00  0.00     0.116 C 
BRANCH  73  74
ATOM     74  N   UNL A   1      33.076  27.023  21.629  1.00  0.00    -0.352 N 
ATOM     75  C   UNL A   1      32.522  25.826  21.243  1.00  0.00     0.251 C 
ATOM     76  H   UNL A   1      33.132  27.714  20.930  1.00  0.00     0.163 HD
ATOM     77  O   UNL A   1      32.246  25.596  20.072  1.00  0.00    -0.269 OA
BRANCH  75  78
ATOM     78  C   UNL A   1      32.289  24.793  22.270  1.00  0.00     0.040 A 
ATOM     79  C   UNL A   1      31.107  24.827  23.042  1.00  0.00     0.016 A 
ATOM     80  C   UNL A   1      33.287  23.834  22.492  1.00  0.00     0.020 A 
ATOM     81  C   UNL A   1      30.947  23.958  24.119  1.00  0.00     0.027 A 
ATOM     82  C   UNL A   1      33.111  22.970  23.559  1.00  0.00    -0.011 A 
ATOM     83  C   UNL A   1      31.965  23.059  24.354  1.00  0.00     0.045 A 
ATOM     84  C   UNL A   1      33.998  21.865  24.082  1.00  0.00     0.114 C 
ATOM     85  N   UNL A   1      32.027  22.132  25.377  1.00  0.00    -0.325 N 
ATOM     86  C   UNL A   1      33.185  21.373  25.307  1.00  0.00     0.232 C 
ATOM     87  H   UNL A   1      31.336  22.025  26.069  1.00  0.00     0.169 HD
ATOM     88  O   UNL A   1      33.461  20.460  26.069  1.00  0.00    -0.274 OA
BRANCH  84  89
ATOM     89  C   UNL A   1      35.452  22.287  24.387  1.00  0.00     0.010 C 
ATOM     90  C   UNL A   1      36.336  21.080  24.752  1.00  0.00     0.033 C 
ATOM     91  C   UNL A   1      35.579  23.370  25.473  1.00  0.00     0.033 C 
ATOM     92  C   UNL A   1      37.753  21.512  25.109  1.00  0.00     0.160 C 
ATOM     93  C   UNL A   1      37.044  23.668  25.773  1.00  0.00     0.160 C 
ATOM     94  O   UNL A   1      37.733  22.481  26.156  1.00  0.00    -0.381 OA
ENDBRANCH  84  89
ENDBRANCH  75  78
ENDBRANCH  73  74
ENDBRANCH  72  73
ENDBRANCH  71  72
ENDBRANCH   1  71
TORSDOF 15
ENDMDL
MODEL 3
REMARK VINA RESULT:     -12.9      1.375      1.618
REMARK SMILES O=C(NCCCCNC(=O)c1ccc2c(c1)[C@@H](C1CCOCC1)C(=O)N2)c1ccc(-c2c3nc(c(-c4cccc(S(=O)(=O)[O-])c4F)c4ccc([nH]4)c(-c4cccc(S(=O)(=O)[O-])c4F)c4nc(c(-c5cccc(S(=O)(=O)[O-])c5F)c5ccc2[nH]5)C=C4)C=C3)cc1
REMARK SMILES IDX 4 1 3 2 1 3 2 4 27 6 28 7 89 8 29 9 88 10 30 11 31 12 32 13
REMARK SMILES IDX 82 14 33 15 87 16 81 17 83 18 34 19 86 20 80 21 79 22 35 24
REMARK SMILES IDX 67 25 47 26 66 27 48 28 51 29 65 30 84 31 49 32 50 33 64 35
REMARK SMILES IDX 85 36 52 37 36 38 37 39 45 40 38 41 40 42 46 43 39 44 41 45
REMARK SMILES IDX 42 46 43 47 44 48 68 49 69 50 77 51 70 52 72 53 78 54 71 55
REMARK SMILES IDX 73 56 74 57 75 58 76 59 53 60 54 61 62 62 55 63 57 64 63 65
REMARK SMILES IDX 56 66 58 67 59 68 60 69 61 70 5 71 6 72 7 73 8 74 9 75 10 77
REMARK SMILES IDX 11 78 12 79 16 80 13 81 15 82 14 83 17 84 26 85 24 86 25 88
REMARK SMILES IDX 18 89 19 90 23 91 20 92 22 93 21 94
REMARK H PARENT 3 5 83 23 51 34 8 76 26 87
REMARK Flexibility Score: inf
ROOT
ATOM      1  C   UNL A   1      36.159  22.237  25.648  1.00  0.00     0.116 C 
ENDROOT
BRANCH   1   2
ATOM      2  N   UNL A   1      37.161  21.188  25.515  1.00  0.00    -0.352 N 
ATOM      3  O   UNL A   1      39.225  20.273  25.503  1.00  0.00    -0.269 OA
ATOM      4  C   UNL A   1      38.509  21.225  25.798  1.00  0.00     0.251 C 
ATOM      5  H   UNL A   1      36.827  20.328  25.171  1.00  0.00     0.163 HD
BRANCH   4   6
ATOM      6  C   UNL A   1      39.086  22.439  26.417  1.00  0.00     0.039 A 
ATOM      7  C   UNL A   1      38.552  23.694  26.128  1.00  0.00     0.014 A 
ATOM      8  C   UNL A   1      40.213  22.329  27.234  1.00  0.00     0.014 A 
ATOM      9  C   UNL A   1      39.270  24.835  26.456  1.00  0.00     0.010 A 
ATOM     10  C   UNL A   1      40.865  23.487  27.672  1.00  0.00     0.010 A 
ATOM     11  C   UNL A   1      40.436  24.750  27.235  1.00  0.00    -0.014 A 
BRANCH  11  12
ATOM     12  C   UNL A   1      41.157  26.001  27.591  1.00  0.00     0.031 A 
ATOM     13  C   UNL A   1      42.547  26.284  27.079  1.00  0.00     0.074 A 
ATOM     14  C   UNL A   1      40.529  26.911  28.362  1.00  0.00     0.049 A 
ATOM     15  N   UNL A   1      43.282  27.353  27.250  1.00  0.00    -0.248 NA
ATOM     16  C   UNL A   1      43.203  25.235  26.281  1.00  0.00     0.031 C 
ATOM     17  C   UNL A   1      39.196  26.741  28.949  1.00  0.00     0.029 A 
ATOM     18  N   UNL A   1      40.914  28.160  28.777  1.00  0.00    -0.354 N 
ATOM     19  C   UNL A   1      44.499  27.089  26.630  1.00  0.00     0.074 A 
ATOM     20  C   UNL A   1      44.406  25.753  26.082  1.00  0.00     0.031 C 
ATOM     21  C   UNL A   1      38.857  27.857  29.607  1.00  0.00     0.029 A 
ATOM     22  C   UNL A   1      39.971  28.795  29.551  1.00  0.00     0.049 A 
ATOM     23  H   UNL A   1      41.781  28.563  28.544  1.00  0.00     0.167 HD
ATOM     24  C   UNL A   1      45.589  27.888  26.520  1.00  0.00     0.034 A 
ATOM     25  C   UNL A   1      40.000  29.992  30.167  1.00  0.00     0.034 A 
ATOM     26  C   UNL A   1      45.666  29.229  27.040  1.00  0.00     0.049 A 
ATOM     27  C   UNL A   1      41.216  30.859  30.011  1.00  0.00     0.074 A 
ATOM     28  C   UNL A   1      46.700  30.141  26.918  1.00  0.00     0.029 A 
ATOM     29  N   UNL A   1      44.680  29.845  27.796  1.00  0.00    -0.354 N 
ATOM     30  N   UNL A   1      42.305  30.636  29.318  1.00  0.00    -0.248 NA
ATOM     31  C   UNL A   1      41.192  32.157  30.698  1.00  0.00     0.031 C 
ATOM     32  C   UNL A   1      46.357  31.292  27.636  1.00  0.00     0.029 A 
ATOM     33  C   UNL A   1      45.087  31.117  28.161  1.00  0.00     0.049 A 
ATOM     34  H   UNL A   1      43.817  29.437  28.038  1.00  0.00     0.167 HD
ATOM     35  C   UNL A   1      43.079  31.783  29.449  1.00  0.00     0.074 A 
ATOM     36  C   UNL A   1      42.322  32.703  30.273  1.00  0.00     0.031 C 
ATOM     37  C   UNL A   1      44.307  32.045  28.941  1.00  0.00     0.034 A 
BRANCH  24  38
ATOM     38  C   UNL A   1      46.797  27.342  25.797  1.00  0.00     0.023 A 
ATOM     39  C   UNL A   1      47.639  26.406  26.433  1.00  0.00     0.012 A 
ATOM     40  C   UNL A   1      47.058  27.705  24.460  1.00  0.00     0.148 A 
ATOM     41  C   UNL A   1      48.741  25.871  25.764  1.00  0.00     0.002 A 
ATOM     42  C   UNL A   1      48.130  27.130  23.785  1.00  0.00     0.091 A 
ATOM     43  F   UNL A   1      46.259  28.607  23.875  1.00  0.00    -0.205 F 
ATOM     44  C   UNL A   1      48.979  26.225  24.439  1.00  0.00     0.022 A 
BRANCH  42  45
ATOM     45  S   UNL A   1      48.469  27.455  22.051  1.00  0.00     0.127 S 
ATOM     46  O   UNL A   1      47.265  28.181  21.647  1.00  0.00    -0.237 OA
ATOM     47  O   UNL A   1      49.679  28.275  22.123  1.00  0.00    -0.237 OA
ATOM     48  O   UNL A   1      48.653  26.154  21.424  1.00  0.00    -0.744 OA
ENDBRANCH  42  45
ENDBRANCH  24  38
BRANCH  25  49
ATOM     49  C   UNL A   1      38.823  30.451  30.954  1.00  0.00     0.023 A 
ATOM     50  C   UNL A   1      38.783  30.223  32.342  1.00  0.00     0.012 A 
ATOM     51  C   UNL A   1      37.757  31.135  30.337  1.00  0.00     0.148 A 
ATOM     52  C   UNL A   1      37.683  30.635  33.098  1.00  0.00     0.002 A 
ATOM     53  C   UNL A   1      36.696  31.596  31.105  1.00  0.00     0.091 A 
ATOM     54  F   UNL A   1      37.812  31.336  29.013  1.00  0.00    -0.205 F 
ATOM     55  C   UNL A   1      36.646  31.329  32.480  1.00  0.00     0.022 A 
BRANCH  53  56
ATOM     56  S   UNL A   1      35.386  32.616  30.420  1.00  0.00     0.127 S 
ATOM     57  O   UNL A   1      36.114  33.829  30.055  1.00  0.00    -0.237 OA
ATOM     58  O   UNL A   1      34.934  31.804  29.289  1.00  0.00    -0.237 OA
ATOM     59  O   UNL A   1      34.403  32.765  31.485  1.00  0.00    -0.744 OA
ENDBRANCH  53  56
ENDBRANCH  25  49
BRANCH  37  60
ATOM     60  C   UNL A   1      44.890  33.408  29.205  1.00  0.00     0.023 A 
ATOM     61  C   UNL A   1      45.613  33.658  30.388  1.00  0.00     0.012 A 
ATOM     62  C   UNL A   1      44.756  34.436  28.250  1.00  0.00     0.148 A 
ATOM     63  C   UNL A   1      46.152  34.920  30.637  1.00  0.00     0.002 A 
ATOM     64  C   UNL A   1      45.344  35.673  28.478  1.00  0.00     0.091 A 
ATOM     65  F   UNL A   1      44.046  34.187  27.139  1.00  0.00    -0.205 F 
ATOM     66  C   UNL A   1      46.028  35.923  29.678  1.00  0.00     0.022 A 
BRANCH  64  67
ATOM     67  S   UNL A   1      45.321  36.986  27.254  1.00  0.00     0.127 S 
ATOM     68  O   UNL A   1      46.046  38.051  27.943  1.00  0.00    -0.237 OA
ATOM     69  O   UNL A   1      46.045  36.380  26.135  1.00  0.00    -0.237 OA
ATOM     70  O   UNL A   1      43.915  37.259  26.984  1.00  0.00    -0.744 OA
ENDBRANCH  64  67
ENDBRANCH  37  60
ENDBRANCH  11  12
ENDBRANCH   4   6
ENDBRANCH   1   2
BRANCH   1  71
ATOM     71  C   UNL A   1      34.777  21.820  25.165  1.00  0.00     0.023 C 
BRANCH  71  72
ATOM     72  C   UNL A   1      33.787  21.475  26.269  1.00  0.00     0.023 C 
BRANCH  72  73
ATOM     73  C   UNL A   1      33.170  22.676  26.975  1.00  0.00     0.116 C 
BRANCH  73  74
ATOM     74  N   UNL A   1      31.786  22.453  27.369  1.00  0.00    -0.352 N 
ATOM     75  C   UNL A   1      30.653  23.052  26.876  1.00  0.00     0.251 C 
ATOM     76  H   UNL A   1      31.646  21.787  28.081  1.00  0.00     0.163 HD
ATOM     77  O   UNL A   1      29.555  22.866  27.389  1.00  0.00    -0.269 OA
BRANCH  75  78
ATOM     78  C   UNL A   1      30.780  23.962  25.722  1.00  0.00     0.040 A 
ATOM     79  C   UNL A   1      31.028  23.432  24.437  1.00  0.00     0.016 A 
ATOM     80  C   UNL A   1      30.711  25.343  25.949  1.00  0.00     0.020 A 
ATOM     81  C   UNL A   1      31.309  24.282  23.369  1.00  0.00     0.027 A 
ATOM     82  C   UNL A   1      30.981  26.176  24.878  1.00  0.00    -0.011 A 
ATOM     83  C   UNL A   1      31.289  25.636  23.626  1.00  0.00     0.045 A 
ATOM     84  C   UNL A   1      31.025  27.685  24.796  1.00  0.00     0.114 C 
ATOM     85  N   UNL A   1      31.564  26.650  22.729  1.00  0.00    -0.325 N 
ATOM     86  C   UNL A   1      31.433  27.899  23.316  1.00  0.00     0.232 C 
ATOM     87  H   UNL A   1      31.821  26.503  21.790  1.00  0.00     0.169 HD
ATOM     88  O   UNL A   1      31.582  28.959  22.727  1.00  0.00    -0.274 OA
BRANCH  84  89
ATOM     89  C   UNL A   1      31.942  28.367  25.834  1.00  0.00     0.010 C 
ATOM     90  C   UNL A   1      31.724  29.889  25.881  1.00  0.00     0.033 C 
ATOM     91  C   UNL A   1      33.439  28.062  25.648  1.00  0.00     0.033 C 
ATOM     92  C   UNL A   1      32.674  30.561  26.864  1.00  0.00     0.160 C 
ATOM     93  C   UNL A   1      34.280  28.838  26.657  1.00  0.00     0.160 C 
ATOM     94  O   UNL A   1      34.028  30.237  26.556  1.00  0.00    -0.381 OA
ENDBRANCH  84  89
ENDBRANCH  75  78
ENDBRANCH  73  74
ENDBRANCH  72  73
ENDBRANCH  71  72
ENDBRANCH   1  71
TORSDOF 15
ENDMDL
