MODEL 1
REMARK VINA RESULT:     -11.7      0.000      0.000
REMARK SMILES CCCCCNC(=O)N1Cc2nc[nH]c2C[C@@H]1C(=O)NCCCCNC(=O)c1ccc(-c2c3nc(c(-c4cccc(S(=O)(=O)[O-])c4F)c4ccc([nH]4)c(-c4cccc(S(=O)(=O)[O-])c4F)c4nc(c(-c5cccc(S(=O)(=O)[O-])c5F)c5ccc2[nH]5)C=C4)C=C3)cc1
REMARK SMILES IDX 21 1 20 2 18 3 19 4 17 6 9 7 10 8 11 9 16 10 12 11 15 12
REMARK SMILES IDX 13 13 14 14 7 16 6 17 8 19 5 20 4 21 3 22 2 23 1 24 22 25
REMARK SMILES IDX 23 26 24 27 25 28 26 29 27 31 28 32 29 33 90 34 30 35 89 36
REMARK SMILES IDX 31 37 32 38 33 39 83 40 34 41 88 42 82 43 84 44 35 45 87 46
REMARK SMILES IDX 81 47 80 48 36 50 68 51 48 52 67 53 49 54 52 55 66 56 85 57
REMARK SMILES IDX 50 58 51 59 65 61 86 62 53 63 37 64 38 65 46 66 39 67 41 68
REMARK SMILES IDX 47 69 40 70 42 71 43 72 44 73 45 74 69 75 70 76 78 77 71 78
REMARK SMILES IDX 73 79 79 80 72 81 74 82 75 83 76 84 77 85 54 86 55 87 63 88
REMARK SMILES IDX 56 89 58 90 64 91 57 92 59 93 60 94 61 95 62 96
REMARK H PARENT 20 5 14 15 6 18 25 30 84 49 52 60
REMARK Flexibility Score: inf
ROOT
ATOM      1  C   UNL A   1      36.062  21.427  24.632  1.00  0.00     0.116 C 
ENDROOT
BRANCH   1   2
ATOM      2  N   UNL A   1      35.467  22.566  23.893  1.00  0.00    -0.354 N 
ATOM      3  C   UNL A   1      34.661  23.657  24.023  1.00  0.00     0.243 C 
ATOM      4  O   UNL A   1      34.620  24.312  22.962  1.00  0.00    -0.273 OA
ATOM      5  H   UNL A   1      35.768  22.516  22.957  1.00  0.00     0.163 HD
BRANCH   3   6
ATOM      6  C   UNL A   1      33.958  24.307  25.295  1.00  0.00     0.182 C 
ATOM      7  N   UNL A   1      32.719  23.675  25.852  1.00  0.00    -0.306 N 
ATOM      8  C   UNL A   1      31.664  24.450  26.548  1.00  0.00     0.180 C 
ATOM      9  C   UNL A   1      31.813  25.912  26.425  1.00  0.00     0.081 A 
ATOM     10  C   UNL A   1      33.890  25.852  24.995  1.00  0.00     0.091 C 
ATOM     11  N   UNL A   1      30.985  26.839  27.009  1.00  0.00    -0.240 NA
ATOM     12  C   UNL A   1      32.837  26.531  25.767  1.00  0.00     0.042 A 
ATOM     13  C   UNL A   1      31.518  28.005  26.716  1.00  0.00     0.197 A 
ATOM     14  N   UNL A   1      32.658  27.869  25.968  1.00  0.00    -0.348 N 
ATOM     15  H   UNL A   1      33.235  28.595  25.639  1.00  0.00     0.167 HD
BRANCH   7  16
ATOM     16  C   UNL A   1      32.785  22.404  26.407  1.00  0.00     0.318 C 
ATOM     17  N   UNL A   1      31.907  21.526  25.851  1.00  0.00    -0.338 N 
ATOM     18  H   UNL A   1      30.986  21.504  26.198  1.00  0.00     0.165 HD
ATOM     19  O   UNL A   1      33.610  22.075  27.253  1.00  0.00    -0.249 OA
BRANCH  17  20
ATOM     20  C   UNL A   1      32.256  20.627  24.785  1.00  0.00     0.117 C 
BRANCH  20  21
ATOM     21  C   UNL A   1      32.655  19.291  25.351  1.00  0.00     0.021 C 
BRANCH  21  22
ATOM     22  C   UNL A   1      33.825  18.623  24.638  1.00  0.00     0.002 C 
BRANCH  22  23
ATOM     23  C   UNL A   1      33.897  17.098  24.537  1.00  0.00    -0.003 C 
ATOM     24  C   UNL A   1      34.205  16.647  23.131  1.00  0.00     0.004 C 
ENDBRANCH  22  23
ENDBRANCH  21  22
ENDBRANCH  20  21
ENDBRANCH  17  20
ENDBRANCH   7  16
ENDBRANCH   3   6
ENDBRANCH   1   2
BRANCH   1  25
ATOM     25  C   UNL A   1      37.584  21.298  24.519  1.00  0.00     0.023 C 
BRANCH  25  26
ATOM     26  C   UNL A   1      38.201  19.958  24.962  1.00  0.00     0.023 C 
BRANCH  26  27
ATOM     27  C   UNL A   1      39.208  19.969  26.121  1.00  0.00     0.116 C 
BRANCH  27  28
ATOM     28  N   UNL A   1      40.407  19.157  25.919  1.00  0.00    -0.352 N 
ATOM     29  C   UNL A   1      41.698  19.636  25.746  1.00  0.00     0.251 C 
ATOM     30  H   UNL A   1      40.288  18.180  25.903  1.00  0.00     0.163 HD
ATOM     31  O   UNL A   1      42.549  18.969  25.155  1.00  0.00    -0.269 OA
BRANCH  29  32
ATOM     32  C   UNL A   1      42.061  20.946  26.327  1.00  0.00     0.039 A 
ATOM     33  C   UNL A   1      42.400  22.067  25.558  1.00  0.00     0.014 A 
ATOM     34  C   UNL A   1      42.040  21.034  27.710  1.00  0.00     0.014 A 
ATOM     35  C   UNL A   1      42.664  23.290  26.195  1.00  0.00     0.010 A 
ATOM     36  C   UNL A   1      42.187  22.264  28.307  1.00  0.00     0.010 A 
ATOM     37  C   UNL A   1      42.562  23.381  27.586  1.00  0.00    -0.014 A 
BRANCH  37  38
ATOM     38  C   UNL A   1      42.590  24.643  28.333  1.00  0.00     0.031 A 
ATOM     39  C   UNL A   1      41.357  25.456  28.159  1.00  0.00     0.074 A 
ATOM     40  C   UNL A   1      43.456  24.933  29.337  1.00  0.00     0.049 A 
ATOM     41  N   UNL A   1      41.253  26.580  27.536  1.00  0.00    -0.248 NA
ATOM     42  C   UNL A   1      40.069  24.895  28.595  1.00  0.00     0.031 C 
ATOM     43  C   UNL A   1      44.509  24.086  29.913  1.00  0.00     0.029 A 
ATOM     44  N   UNL A   1      43.481  26.024  30.159  1.00  0.00    -0.354 N 
ATOM     45  C   UNL A   1      39.931  26.987  27.702  1.00  0.00     0.074 A 
ATOM     46  C   UNL A   1      39.215  25.830  28.172  1.00  0.00     0.031 C 
ATOM     47  C   UNL A   1      44.907  24.598  31.104  1.00  0.00     0.029 A 
ATOM     48  C   UNL A   1      44.254  25.878  31.314  1.00  0.00     0.049 A 
ATOM     49  H   UNL A   1      42.991  26.853  29.953  1.00  0.00     0.167 HD
ATOM     50  C   UNL A   1      39.593  28.306  27.666  1.00  0.00     0.034 A 
ATOM     51  C   UNL A   1      44.322  26.734  32.369  1.00  0.00     0.034 A 
ATOM     52  C   UNL A   1      40.684  29.107  27.162  1.00  0.00     0.049 A 
ATOM     53  C   UNL A   1      43.849  28.049  31.869  1.00  0.00     0.074 A 
ATOM     54  C   UNL A   1      41.436  29.117  26.004  1.00  0.00     0.029 A 
ATOM     55  N   UNL A   1      41.412  29.815  28.089  1.00  0.00    -0.354 N 
ATOM     56  N   UNL A   1      44.503  28.761  30.994  1.00  0.00    -0.248 NA
ATOM     57  C   UNL A   1      42.440  28.375  32.017  1.00  0.00     0.031 C 
ATOM     58  C   UNL A   1      42.769  29.374  26.443  1.00  0.00     0.029 A 
ATOM     59  C   UNL A   1      42.735  29.585  27.823  1.00  0.00     0.049 A 
ATOM     60  H   UNL A   1      41.052  30.382  28.808  1.00  0.00     0.167 HD
ATOM     61  C   UNL A   1      43.515  29.273  30.164  1.00  0.00     0.074 A 
ATOM     62  C   UNL A   1      42.267  29.098  30.907  1.00  0.00     0.031 C 
ATOM     63  C   UNL A   1      43.759  29.516  28.842  1.00  0.00     0.034 A 
BRANCH  50  64
ATOM     64  C   UNL A   1      38.445  28.951  28.410  1.00  0.00     0.023 A 
ATOM     65  C   UNL A   1      37.558  29.748  27.648  1.00  0.00     0.012 A 
ATOM     66  C   UNL A   1      38.350  29.055  29.815  1.00  0.00     0.148 A 
ATOM     67  C   UNL A   1      36.683  30.658  28.248  1.00  0.00     0.002 A 
ATOM     68  C   UNL A   1      37.424  29.908  30.410  1.00  0.00     0.091 A 
ATOM     69  F   UNL A   1      39.238  28.437  30.596  1.00  0.00    -0.205 F 
ATOM     70  C   UNL A   1      36.615  30.737  29.633  1.00  0.00     0.022 A 
BRANCH  68  71
ATOM     71  S   UNL A   1      37.260  30.018  32.197  1.00  0.00     0.127 S 
ATOM     72  O   UNL A   1      38.539  30.616  32.570  1.00  0.00    -0.237 OA
ATOM     73  O   UNL A   1      36.099  30.896  32.336  1.00  0.00    -0.237 OA
ATOM     74  O   UNL A   1      37.035  28.653  32.655  1.00  0.00    -0.744 OA
ENDBRANCH  68  71
ENDBRANCH  50  64
BRANCH  51  75
ATOM     75  C   UNL A   1      44.605  26.529  33.819  1.00  0.00     0.023 A 
ATOM     76  C   UNL A   1      45.861  26.885  34.352  1.00  0.00     0.012 A 
ATOM     77  C   UNL A   1      43.563  26.276  34.735  1.00  0.00     0.148 A 
ATOM     78  C   UNL A   1      46.052  27.038  35.734  1.00  0.00     0.002 A 
ATOM     79  C   UNL A   1      43.745  26.455  36.108  1.00  0.00     0.091 A 
ATOM     80  F   UNL A   1      42.368  25.929  34.257  1.00  0.00    -0.205 F 
ATOM     81  C   UNL A   1      44.989  26.845  36.610  1.00  0.00     0.022 A 
BRANCH  79  82
ATOM     82  S   UNL A   1      42.389  26.261  37.279  1.00  0.00     0.127 S 
ATOM     83  O   UNL A   1      41.918  24.901  36.991  1.00  0.00    -0.237 OA
ATOM     84  O   UNL A   1      43.079  26.402  38.564  1.00  0.00    -0.237 OA
ATOM     85  O   UNL A   1      41.432  27.297  36.955  1.00  0.00    -0.744 OA
ENDBRANCH  79  82
ENDBRANCH  51  75
BRANCH  63  86
ATOM     86  C   UNL A   1      45.183  29.444  28.348  1.00  0.00     0.023 A 
ATOM     87  C   UNL A   1      45.776  28.238  27.918  1.00  0.00     0.012 A 
ATOM     88  C   UNL A   1      45.872  30.650  28.137  1.00  0.00     0.148 A 
ATOM     89  C   UNL A   1      47.035  28.235  27.310  1.00  0.00     0.002 A 
ATOM     90  C   UNL A   1      47.099  30.648  27.487  1.00  0.00     0.091 A 
ATOM     91  F   UNL A   1      45.295  31.790  28.548  1.00  0.00    -0.205 F 
ATOM     92  C   UNL A   1      47.690  29.442  27.080  1.00  0.00     0.022 A 
BRANCH  90  93
ATOM     93  S   UNL A   1      47.926  32.178  27.047  1.00  0.00     0.127 S 
ATOM     94  O   UNL A   1      46.978  32.781  26.115  1.00  0.00    -0.237 OA
ATOM     95  O   UNL A   1      48.033  32.861  28.338  1.00  0.00    -0.237 OA
ATOM     96  O   UNL A   1      49.210  31.789  26.475  1.00  0.00    -0.744 OA
ENDBRANCH  90  93
ENDBRANCH  63  86
ENDBRANCH  37  38
ENDBRANCH  29  32
ENDBRANCH  27  28
ENDBRANCH  26  27
ENDBRANCH  25  26
ENDBRANCH   1  25
TORSDOF 19
ENDMDL
MODEL 2
REMARK VINA RESULT:     -11.4      1.854      2.160
REMARK SMILES CCCCCNC(=O)N1Cc2nc[nH]c2C[C@@H]1C(=O)NCCCCNC(=O)c1ccc(-c2c3nc(c(-c4cccc(S(=O)(=O)[O-])c4F)c4ccc([nH]4)c(-c4cccc(S(=O)(=O)[O-])c4F)c4nc(c(-c5cccc(S(=O)(=O)[O-])c5F)c5ccc2[nH]5)C=C4)C=C3)cc1
REMARK SMILES IDX 21 1 20 2 18 3 19 4 17 6 9 7 10 8 11 9 16 10 12 11 15 12
REMARK SMILES IDX 13 13 14 14 7 16 6 17 8 19 5 20 4 21 3 22 2 23 1 24 22 25
REMARK SMILES IDX 23 26 24 27 25 28 26 29 27 31 28 32 29 33 90 34 30 35 89 36
REMARK SMILES IDX 31 37 32 38 33 39 83 40 34 41 88 42 82 43 84 44 35 45 87 46
REMARK SMILES IDX 81 47 80 48 36 50 68 51 48 52 67 53 49 54 52 55 66 56 85 57
REMARK SMILES IDX 50 58 51 59 65 61 86 62 53 63 37 64 38 65 46 66 39 67 41 68
REMARK SMILES IDX 47 69 40 70 42 71 43 72 44 73 45 74 69 75 70 76 78 77 71 78
REMARK SMILES IDX 73 79 79 80 72 81 74 82 75 83 76 84 77 85 54 86 55 87 63 88
REMARK SMILES IDX 56 89 58 90 64 91 57 92 59 93 60 94 61 95 62 96
REMARK H PARENT 20 5 14 15 6 18 25 30 84 49 52 60
REMARK Flexibility Score: inf
ROOT
ATOM      1  C   UNL A   1      36.349  22.459  25.568  1.00  0.00     0.116 C 
ENDROOT
BRANCH   1   2
ATOM      2  N   UNL A   1      35.298  22.634  26.598  1.00  0.00    -0.354 N 
ATOM      3  C   UNL A   1      34.134  23.285  26.877  1.00  0.00     0.243 C 
ATOM      4  O   UNL A   1      33.660  22.905  27.968  1.00  0.00    -0.273 OA
ATOM      5  H   UNL A   1      35.527  22.068  27.370  1.00  0.00     0.163 HD
BRANCH   3   6
ATOM      6  C   UNL A   1      33.226  24.253  25.998  1.00  0.00     0.182 C 
ATOM      7  N   UNL A   1      32.536  23.711  24.785  1.00  0.00    -0.306 N 
ATOM      8  C   UNL A   1      32.226  24.542  23.597  1.00  0.00     0.180 C 
ATOM      9  C   UNL A   1      32.871  25.868  23.608  1.00  0.00     0.081 A 
ATOM     10  C   UNL A   1      34.076  25.565  25.802  1.00  0.00     0.091 C 
ATOM     11  N   UNL A   1      32.709  26.830  22.640  1.00  0.00    -0.240 NA
ATOM     12  C   UNL A   1      33.660  26.335  24.619  1.00  0.00     0.042 A 
ATOM     13  C   UNL A   1      33.384  27.871  23.076  1.00  0.00     0.197 A 
ATOM     14  N   UNL A   1      33.974  27.621  24.288  1.00  0.00    -0.348 N 
ATOM     15  H   UNL A   1      34.519  28.248  24.816  1.00  0.00     0.167 HD
BRANCH   7  16
ATOM     16  C   UNL A   1      31.550  22.744  24.927  1.00  0.00     0.318 C 
ATOM     17  N   UNL A   1      31.895  21.538  24.401  1.00  0.00    -0.338 N 
ATOM     18  H   UNL A   1      31.742  21.387  23.441  1.00  0.00     0.165 HD
ATOM     19  O   UNL A   1      30.505  22.927  25.544  1.00  0.00    -0.249 OA
BRANCH  17  20
ATOM     20  C   UNL A   1      32.470  20.472  25.176  1.00  0.00     0.117 C 
BRANCH  20  21
ATOM     21  C   UNL A   1      33.114  19.465  24.264  1.00  0.00     0.021 C 
BRANCH  21  22
ATOM     22  C   UNL A   1      33.383  18.109  24.905  1.00  0.00     0.002 C 
BRANCH  22  23
ATOM     23  C   UNL A   1      33.926  16.951  24.063  1.00  0.00    -0.003 C 
ATOM     24  C   UNL A   1      34.975  16.165  24.808  1.00  0.00     0.004 C 
ENDBRANCH  22  23
ENDBRANCH  21  22
ENDBRANCH  20  21
ENDBRANCH  17  20
ENDBRANCH   7  16
ENDBRANCH   3   6
ENDBRANCH   1   2
BRANCH   1  25
ATOM     25  C   UNL A   1      36.251  21.168  24.748  1.00  0.00     0.023 C 
BRANCH  25  26
ATOM     26  C   UNL A   1      37.274  20.063  25.071  1.00  0.00     0.023 C 
BRANCH  26  27
ATOM     27  C   UNL A   1      38.729  20.475  25.340  1.00  0.00     0.116 C 
BRANCH  27  28
ATOM     28  N   UNL A   1      39.649  19.376  25.631  1.00  0.00    -0.352 N 
ATOM     29  C   UNL A   1      41.007  19.497  25.895  1.00  0.00     0.251 C 
ATOM     30  H   UNL A   1      39.272  18.467  25.640  1.00  0.00     0.163 HD
ATOM     31  O   UNL A   1      41.779  18.559  25.690  1.00  0.00    -0.269 OA
BRANCH  29  32
ATOM     32  C   UNL A   1      41.515  20.756  26.478  1.00  0.00     0.039 A 
ATOM     33  C   UNL A   1      42.192  21.734  25.738  1.00  0.00     0.014 A 
ATOM     34  C   UNL A   1      41.279  20.950  27.829  1.00  0.00     0.014 A 
ATOM     35  C   UNL A   1      42.579  22.931  26.361  1.00  0.00     0.010 A 
ATOM     36  C   UNL A   1      41.560  22.172  28.392  1.00  0.00     0.010 A 
ATOM     37  C   UNL A   1      42.263  23.144  27.706  1.00  0.00    -0.014 A 
BRANCH  37  38
ATOM     38  C   UNL A   1      42.411  24.430  28.393  1.00  0.00     0.031 A 
ATOM     39  C   UNL A   1      41.221  25.312  28.252  1.00  0.00     0.074 A 
ATOM     40  C   UNL A   1      43.350  24.706  29.333  1.00  0.00     0.049 A 
ATOM     41  N   UNL A   1      41.149  26.414  27.587  1.00  0.00    -0.248 NA
ATOM     42  C   UNL A   1      39.929  24.851  28.784  1.00  0.00     0.031 C 
ATOM     43  C   UNL A   1      44.382  23.819  29.886  1.00  0.00     0.029 A 
ATOM     44  N   UNL A   1      43.488  25.827  30.103  1.00  0.00    -0.354 N 
ATOM     45  C   UNL A   1      39.866  26.909  27.808  1.00  0.00     0.074 A 
ATOM     46  C   UNL A   1      39.110  25.820  28.368  1.00  0.00     0.031 C 
ATOM     47  C   UNL A   1      44.879  24.353  31.029  1.00  0.00     0.029 A 
ATOM     48  C   UNL A   1      44.318  25.679  31.219  1.00  0.00     0.049 A 
ATOM     49  H   UNL A   1      43.038  26.676  29.888  1.00  0.00     0.167 HD
ATOM     50  C   UNL A   1      39.606  28.245  27.732  1.00  0.00     0.034 A 
ATOM     51  C   UNL A   1      44.498  26.573  32.229  1.00  0.00     0.034 A 
ATOM     52  C   UNL A   1      40.712  28.954  27.133  1.00  0.00     0.049 A 
ATOM     53  C   UNL A   1      44.077  27.893  31.699  1.00  0.00     0.074 A 
ATOM     54  C   UNL A   1      41.395  28.869  25.936  1.00  0.00     0.029 A 
ATOM     55  N   UNL A   1      41.535  29.653  27.985  1.00  0.00    -0.354 N 
ATOM     56  N   UNL A   1      44.721  28.525  30.757  1.00  0.00    -0.248 NA
ATOM     57  C   UNL A   1      42.702  28.312  31.910  1.00  0.00     0.031 C 
ATOM     58  C   UNL A   1      42.765  29.060  26.288  1.00  0.00     0.029 A 
ATOM     59  C   UNL A   1      42.824  29.329  27.657  1.00  0.00     0.049 A 
ATOM     60  H   UNL A   1      41.252  30.269  28.698  1.00  0.00     0.167 HD
ATOM     61  C   UNL A   1      43.719  29.065  29.962  1.00  0.00     0.074 A 
ATOM     62  C   UNL A   1      42.508  28.999  30.780  1.00  0.00     0.031 C 
ATOM     63  C   UNL A   1      43.899  29.237  28.619  1.00  0.00     0.034 A 
BRANCH  50  64
ATOM     64  C   UNL A   1      38.545  28.990  28.510  1.00  0.00     0.023 A 
ATOM     65  C   UNL A   1      37.778  29.940  27.795  1.00  0.00     0.012 A 
ATOM     66  C   UNL A   1      38.449  29.023  29.918  1.00  0.00     0.148 A 
ATOM     67  C   UNL A   1      37.024  30.921  28.445  1.00  0.00     0.002 A 
ATOM     68  C   UNL A   1      37.637  29.953  30.561  1.00  0.00     0.091 A 
ATOM     69  F   UNL A   1      39.239  28.248  30.664  1.00  0.00    -0.205 F 
ATOM     70  C   UNL A   1      36.951  30.927  29.832  1.00  0.00     0.022 A 
BRANCH  68  71
ATOM     71  S   UNL A   1      37.469  29.979  32.350  1.00  0.00     0.127 S 
ATOM     72  O   UNL A   1      37.121  28.589  32.630  1.00  0.00    -0.237 OA
ATOM     73  O   UNL A   1      38.812  30.380  32.769  1.00  0.00    -0.237 OA
ATOM     74  O   UNL A   1      36.436  30.967  32.633  1.00  0.00    -0.744 OA
ENDBRANCH  68  71
ENDBRANCH  50  64
BRANCH  51  75
ATOM     75  C   UNL A   1      44.853  26.409  33.669  1.00  0.00     0.023 A 
ATOM     76  C   UNL A   1      46.154  26.720  34.117  1.00  0.00     0.012 A 
ATOM     77  C   UNL A   1      43.853  26.246  34.651  1.00  0.00     0.148 A 
ATOM     78  C   UNL A   1      46.430  26.917  35.479  1.00  0.00     0.002 A 
ATOM     79  C   UNL A   1      44.122  26.469  36.002  1.00  0.00     0.091 A 
ATOM     80  F   UNL A   1      42.618  25.943  34.253  1.00  0.00    -0.205 F 
ATOM     81  C   UNL A   1      45.410  26.813  36.420  1.00  0.00     0.022 A 
BRANCH  79  82
ATOM     82  S   UNL A   1      42.826  26.390  37.254  1.00  0.00     0.127 S 
ATOM     83  O   UNL A   1      42.276  25.045  37.051  1.00  0.00    -0.237 OA
ATOM     84  O   UNL A   1      43.594  26.549  38.492  1.00  0.00    -0.237 OA
ATOM     85  O   UNL A   1      41.903  27.459  36.936  1.00  0.00    -0.744 OA
ENDBRANCH  79  82
ENDBRANCH  51  75
BRANCH  63  86
ATOM     86  C   UNL A   1      45.286  29.056  28.050  1.00  0.00     0.023 A 
ATOM     87  C   UNL A   1      46.262  30.074  28.096  1.00  0.00     0.012 A 
ATOM     88  C   UNL A   1      45.667  27.770  27.635  1.00  0.00     0.148 A 
ATOM     89  C   UNL A   1      47.583  29.818  27.716  1.00  0.00     0.002 A 
ATOM     90  C   UNL A   1      46.991  27.507  27.306  1.00  0.00     0.091 A 
ATOM     91  F   UNL A   1      44.729  26.811  27.599  1.00  0.00    -0.205 F 
ATOM     92  C   UNL A   1      47.950  28.530  27.335  1.00  0.00     0.022 A 
BRANCH  90  93
ATOM     93  S   UNL A   1      47.548  25.842  26.936  1.00  0.00     0.127 S 
ATOM     94  O   UNL A   1      48.971  26.046  26.681  1.00  0.00    -0.237 OA
ATOM     95  O   UNL A   1      47.245  25.125  28.176  1.00  0.00    -0.237 OA
ATOM     96  O   UNL A   1      46.761  25.402  25.790  1.00  0.00    -0.744 OA
ENDBRANCH  90  93
ENDBRANCH  63  86
ENDBRANCH  37  38
ENDBRANCH  29  32
ENDBRANCH  27  28
ENDBRANCH  26  27
ENDBRANCH  25  26
ENDBRANCH   1  25
TORSDOF 19
ENDMDL
MODEL 3
REMARK VINA RESULT:     -11.1      2.868      7.699
REMARK SMILES CCCCCNC(=O)N1Cc2nc[nH]c2C[C@@H]1C(=O)NCCCCNC(=O)c1ccc(-c2c3nc(c(-c4cccc(S(=O)(=O)[O-])c4F)c4ccc([nH]4)c(-c4cccc(S(=O)(=O)[O-])c4F)c4nc(c(-c5cccc(S(=O)(=O)[O-])c5F)c5ccc2[nH]5)C=C4)C=C3)cc1
REMARK SMILES IDX 21 1 20 2 18 3 19 4 17 6 9 7 10 8 11 9 16 10 12 11 15 12
REMARK SMILES IDX 13 13 14 14 7 16 6 17 8 19 5 20 4 21 3 22 2 23 1 24 22 25
REMARK SMILES IDX 23 26 24 27 25 28 26 29 27 31 28 32 29 33 90 34 30 35 89 36
REMARK SMILES IDX 31 37 32 38 33 39 83 40 34 41 88 42 82 43 84 44 35 45 87 46
REMARK SMILES IDX 81 47 80 48 36 50 68 51 48 52 67 53 49 54 52 55 66 56 85 57
REMARK SMILES IDX 50 58 51 59 65 61 86 62 53 63 37 64 38 65 46 66 39 67 41 68
REMARK SMILES IDX 47 69 40 70 42 71 43 72 44 73 45 74 69 75 70 76 78 77 71 78
REMARK SMILES IDX 73 79 79 80 72 81 74 82 75 83 76 84 77 85 54 86 55 87 63 88
REMARK SMILES IDX 56 89 58 90 64 91 57 92 59 93 60 94 61 95 62 96
REMARK H PARENT 20 5 14 15 6 18 25 30 84 49 52 60
REMARK Flexibility Score: inf
ROOT
ATOM      1  C   UNL A   1      34.177  28.267  26.468  1.00  0.00     0.116 C 
ENDROOT
BRANCH   1   2
ATOM      2  N   UNL A   1      33.380  27.018  26.488  1.00  0.00    -0.354 N 
ATOM      3  C   UNL A   1      32.301  26.396  25.935  1.00  0.00     0.243 C 
ATOM      4  O   UNL A   1      32.199  25.224  26.351  1.00  0.00    -0.273 OA
ATOM      5  H   UNL A   1      33.781  26.409  27.149  1.00  0.00     0.163 HD
BRANCH   3   6
ATOM      6  C   UNL A   1      31.318  26.828  24.759  1.00  0.00     0.182 C 
ATOM      7  N   UNL A   1      31.690  26.523  23.342  1.00  0.00    -0.306 N 
ATOM      8  C   UNL A   1      31.260  27.362  22.198  1.00  0.00     0.180 C 
ATOM      9  C   UNL A   1      30.654  28.648  22.592  1.00  0.00     0.081 A 
ATOM     10  C   UNL A   1      30.910  28.317  25.079  1.00  0.00     0.091 C 
ATOM     11  N   UNL A   1      30.146  29.579  21.719  1.00  0.00    -0.240 NA
ATOM     12  C   UNL A   1      30.460  29.047  23.884  1.00  0.00     0.042 A 
ATOM     13  C   UNL A   1      29.639  30.522  22.482  1.00  0.00     0.197 A 
ATOM     14  N   UNL A   1      29.796  30.237  23.813  1.00  0.00    -0.348 N 
ATOM     15  H   UNL A   1      29.489  30.784  24.572  1.00  0.00     0.167 HD
BRANCH   7  16
ATOM     16  C   UNL A   1      31.779  25.202  22.922  1.00  0.00     0.318 C 
ATOM     17  N   UNL A   1      32.988  24.885  22.385  1.00  0.00    -0.338 N 
ATOM     18  H   UNL A   1      33.140  25.077  21.432  1.00  0.00     0.165 HD
ATOM     19  O   UNL A   1      30.890  24.375  23.096  1.00  0.00    -0.249 OA
BRANCH  17  20
ATOM     20  C   UNL A   1      34.053  24.282  23.139  1.00  0.00     0.117 C 
BRANCH  20  21
ATOM     21  C   UNL A   1      34.063  22.795  22.914  1.00  0.00     0.021 C 
BRANCH  21  22
ATOM     22  C   UNL A   1      33.734  21.965  24.149  1.00  0.00     0.002 C 
BRANCH  22  23
ATOM     23  C   UNL A   1      32.355  21.317  24.298  1.00  0.00    -0.003 C 
ATOM     24  C   UNL A   1      31.621  21.842  25.507  1.00  0.00     0.004 C 
ENDBRANCH  22  23
ENDBRANCH  21  22
ENDBRANCH  20  21
ENDBRANCH  17  20
ENDBRANCH   7  16
ENDBRANCH   3   6
ENDBRANCH   1   2
BRANCH   1  25
ATOM     25  C   UNL A   1      33.870  29.257  27.595  1.00  0.00     0.023 C 
BRANCH  25  26
ATOM     26  C   UNL A   1      33.736  30.739  27.199  1.00  0.00     0.023 C 
BRANCH  26  27
ATOM     27  C   UNL A   1      34.860  31.704  27.603  1.00  0.00     0.116 C 
BRANCH  27  28
ATOM     28  N   UNL A   1      34.612  32.484  28.816  1.00  0.00    -0.352 N 
ATOM     29  C   UNL A   1      35.045  32.163  30.095  1.00  0.00     0.251 C 
ATOM     30  H   UNL A   1      34.090  33.312  28.716  1.00  0.00     0.163 HD
ATOM     31  O   UNL A   1      34.453  32.585  31.090  1.00  0.00    -0.269 OA
BRANCH  29  32
ATOM     32  C   UNL A   1      36.265  31.344  30.255  1.00  0.00     0.039 A 
ATOM     33  C   UNL A   1      36.245  29.960  30.469  1.00  0.00     0.014 A 
ATOM     34  C   UNL A   1      37.474  32.015  30.171  1.00  0.00     0.014 A 
ATOM     35  C   UNL A   1      37.456  29.252  30.541  1.00  0.00     0.010 A 
ATOM     36  C   UNL A   1      38.642  31.292  30.127  1.00  0.00     0.010 A 
ATOM     37  C   UNL A   1      38.665  29.933  30.375  1.00  0.00    -0.014 A 
BRANCH  37  38
ATOM     38  C   UNL A   1      39.964  29.275  30.204  1.00  0.00     0.031 A 
ATOM     39  C   UNL A   1      40.640  28.965  31.493  1.00  0.00     0.074 A 
ATOM     40  C   UNL A   1      40.397  28.693  29.057  1.00  0.00     0.049 A 
ATOM     41  N   UNL A   1      41.711  29.514  31.958  1.00  0.00    -0.248 NA
ATOM     42  C   UNL A   1      39.980  28.053  32.440  1.00  0.00     0.031 C 
ATOM     43  C   UNL A   1      39.693  28.563  27.774  1.00  0.00     0.029 A 
ATOM     44  N   UNL A   1      41.531  27.962  28.841  1.00  0.00    -0.354 N 
ATOM     45  C   UNL A   1      41.993  28.851  33.149  1.00  0.00     0.074 A 
ATOM     46  C   UNL A   1      40.799  28.122  33.491  1.00  0.00     0.031 C 
ATOM     47  C   UNL A   1      40.310  27.629  27.008  1.00  0.00     0.029 A 
ATOM     48  C   UNL A   1      41.528  27.199  27.670  1.00  0.00     0.049 A 
ATOM     49  H   UNL A   1      42.293  27.972  29.464  1.00  0.00     0.167 HD
ATOM     50  C   UNL A   1      43.268  28.771  33.623  1.00  0.00     0.034 A 
ATOM     51  C   UNL A   1      42.447  26.266  27.298  1.00  0.00     0.034 A 
ATOM     52  C   UNL A   1      44.143  29.672  32.911  1.00  0.00     0.049 A 
ATOM     53  C   UNL A   1      43.677  26.561  28.074  1.00  0.00     0.074 A 
ATOM     54  C   UNL A   1      44.160  31.032  32.671  1.00  0.00     0.029 A 
ATOM     55  N   UNL A   1      44.972  29.114  31.967  1.00  0.00    -0.354 N 
ATOM     56  N   UNL A   1      44.399  27.632  27.895  1.00  0.00    -0.248 NA
ATOM     57  C   UNL A   1      43.869  25.879  29.344  1.00  0.00     0.031 C 
ATOM     58  C   UNL A   1      44.573  31.152  31.311  1.00  0.00     0.029 A 
ATOM     59  C   UNL A   1      44.860  29.872  30.833  1.00  0.00     0.049 A 
ATOM     60  H   UNL A   1      45.540  28.318  32.083  1.00  0.00     0.167 HD
ATOM     61  C   UNL A   1      44.762  28.017  29.178  1.00  0.00     0.074 A 
ATOM     62  C   UNL A   1      44.507  26.844  30.013  1.00  0.00     0.031 C 
ATOM     63  C   UNL A   1      44.951  29.333  29.494  1.00  0.00     0.034 A 
BRANCH  50  64
ATOM     64  C   UNL A   1      43.836  27.647  34.460  1.00  0.00     0.023 A 
ATOM     65  C   UNL A   1      44.656  28.016  35.553  1.00  0.00     0.012 A 
ATOM     66  C   UNL A   1      43.854  26.287  34.081  1.00  0.00     0.148 A 
ATOM     67  C   UNL A   1      45.505  27.100  36.181  1.00  0.00     0.002 A 
ATOM     68  C   UNL A   1      44.644  25.363  34.758  1.00  0.00     0.091 A 
ATOM     69  F   UNL A   1      43.212  25.887  32.981  1.00  0.00    -0.205 F 
ATOM     70  C   UNL A   1      45.498  25.770  35.784  1.00  0.00     0.022 A 
BRANCH  68  71
ATOM     71  S   UNL A   1      44.643  23.620  34.317  1.00  0.00     0.127 S 
ATOM     72  O   UNL A   1      45.647  23.087  35.232  1.00  0.00    -0.237 OA
ATOM     73  O   UNL A   1      43.263  23.239  34.617  1.00  0.00    -0.237 OA
ATOM     74  O   UNL A   1      44.980  23.574  32.900  1.00  0.00    -0.744 OA
ENDBRANCH  68  71
ENDBRANCH  50  64
BRANCH  51  75
ATOM     75  C   UNL A   1      42.355  25.040  26.455  1.00  0.00     0.023 A 
ATOM     76  C   UNL A   1      43.337  24.777  25.478  1.00  0.00     0.012 A 
ATOM     77  C   UNL A   1      41.491  23.980  26.804  1.00  0.00     0.148 A 
ATOM     78  C   UNL A   1      43.488  23.499  24.918  1.00  0.00     0.002 A 
ATOM     79  C   UNL A   1      41.658  22.702  26.267  1.00  0.00     0.091 A 
ATOM     80  F   UNL A   1      40.548  24.205  27.718  1.00  0.00    -0.205 F 
ATOM     81  C   UNL A   1      42.663  22.456  25.328  1.00  0.00     0.022 A 
BRANCH  79  82
ATOM     82  S   UNL A   1      40.645  21.309  26.799  1.00  0.00     0.127 S 
ATOM     83  O   UNL A   1      39.314  21.685  26.311  1.00  0.00    -0.237 OA
ATOM     84  O   UNL A   1      41.263  20.195  26.074  1.00  0.00    -0.237 OA
ATOM     85  O   UNL A   1      40.754  21.267  28.242  1.00  0.00    -0.744 OA
ENDBRANCH  79  82
ENDBRANCH  51  75
BRANCH  63  86
ATOM     86  C   UNL A   1      44.993  30.343  28.373  1.00  0.00     0.023 A 
ATOM     87  C   UNL A   1      43.824  30.855  27.771  1.00  0.00     0.012 A 
ATOM     88  C   UNL A   1      46.230  30.925  28.053  1.00  0.00     0.148 A 
ATOM     89  C   UNL A   1      43.892  31.910  26.856  1.00  0.00     0.002 A 
ATOM     90  C   UNL A   1      46.288  32.006  27.183  1.00  0.00     0.091 A 
ATOM     91  F   UNL A   1      47.333  30.430  28.635  1.00  0.00    -0.205 F 
ATOM     92  C   UNL A   1      45.123  32.496  26.574  1.00  0.00     0.022 A 
BRANCH  90  93
ATOM     93  S   UNL A   1      47.824  32.883  26.884  1.00  0.00     0.127 S 
ATOM     94  O   UNL A   1      48.106  33.462  28.194  1.00  0.00    -0.237 OA
ATOM     95  O   UNL A   1      48.730  31.805  26.484  1.00  0.00    -0.237 OA
ATOM     96  O   UNL A   1      47.538  33.840  25.821  1.00  0.00    -0.744 OA
ENDBRANCH  90  93
ENDBRANCH  63  86
ENDBRANCH  37  38
ENDBRANCH  29  32
ENDBRANCH  27  28
ENDBRANCH  26  27
ENDBRANCH  25  26
ENDBRANCH   1  25
TORSDOF 19
ENDMDL
