MODEL 1
REMARK VINA RESULT:     -12.0      0.000      0.000
REMARK SMILES O=C1N[C@H](C(=O)N[C@H]2C=C[C@@H](C(=O)NCCCCNC(=O)c3ccc(-c4c5nc(c(-c6cccc(S(=O)(=O)[O-])c6F)c6ccc([nH]6)c(-c6cccc(S(=O)(=O)[O-])c6F)c6nc(c(-c7cccc(S(=O)(=O)[O-])c7F)c7ccc4[nH]7)C=C6)C=C5)cc3)C2)CS1
REMARK SMILES IDX 17 1 16 2 15 3 14 4 12 5 13 6 11 8 8 9 9 10 85 11 10 12 7 13
REMARK SMILES IDX 5 14 6 15 4 17 1 18 2 19 3 20 87 21 86 23 18 24 19 25 20 26
REMARK SMILES IDX 21 28 22 29 23 30 84 31 24 32 83 33 25 34 26 35 27 36 77 37
REMARK SMILES IDX 28 38 82 39 76 40 78 41 29 42 81 43 75 44 74 45 30 47 62 48
REMARK SMILES IDX 42 49 61 50 43 51 46 52 60 53 79 54 44 55 45 56 59 58 80 59
REMARK SMILES IDX 47 60 31 61 32 62 40 63 33 64 35 65 41 66 34 67 36 68 37 69
REMARK SMILES IDX 38 70 39 71 63 72 64 73 72 74 65 75 67 76 73 77 66 78 68 79
REMARK SMILES IDX 69 80 70 81 71 82 48 83 49 84 57 85 50 86 52 87 58 88 51 89
REMARK SMILES IDX 53 90 54 91 55 92 56 93
REMARK H PARENT 14 7 7 16 3 22 19 27 78 46 46 57
REMARK Flexibility Score: inf
ROOT
ATOM      1  C   UNL A   1      31.768  28.979  26.386  1.00  0.00     0.023 C 
ENDROOT
BRANCH   1   2
ATOM      2  C   UNL A   1      31.355  27.899  25.391  1.00  0.00     0.023 C 
BRANCH   2   3
ATOM      3  C   UNL A   1      32.183  26.620  25.446  1.00  0.00     0.116 C 
BRANCH   3   4
ATOM      4  N   UNL A   1      32.184  25.895  24.192  1.00  0.00    -0.356 N 
ATOM      5  C   UNL A   1      32.270  24.561  23.937  1.00  0.00     0.227 C 
ATOM      6  O   UNL A   1      32.118  24.196  22.767  1.00  0.00    -0.274 OA
ATOM      7  H   UNL A   1      32.110  26.463  23.391  1.00  0.00     0.163 HD
BRANCH   5   8
ATOM      8  C   UNL A   1      32.604  23.525  25.018  1.00  0.00     0.103 C 
ATOM      9  C   UNL A   1      32.457  21.053  25.049  1.00  0.00     0.106 C 
ATOM     10  C   UNL A   1      33.872  21.549  24.997  1.00  0.00    -0.006 C 
ATOM     11  C   UNL A   1      31.629  22.345  25.026  1.00  0.00     0.047 C 
ATOM     12  C   UNL A   1      33.952  22.885  24.952  1.00  0.00    -0.016 C 
BRANCH   9  13
ATOM     13  N   UNL A   1      32.248  20.197  23.892  1.00  0.00    -0.348 N 
ATOM     14  C   UNL A   1      32.545  18.890  23.656  1.00  0.00     0.243 C 
ATOM     15  O   UNL A   1      32.175  18.428  22.571  1.00  0.00    -0.273 OA
ATOM     16  H   UNL A   1      31.810  20.650  23.136  1.00  0.00     0.164 HD
BRANCH  14  17
ATOM     17  C   UNL A   1      33.148  17.952  24.714  1.00  0.00     0.182 C 
ATOM     18  O   UNL A   1      32.710  14.494  25.371  1.00  0.00    -0.262 OA
ATOM     19  C   UNL A   1      33.176  15.589  25.128  1.00  0.00     0.279 C 
ATOM     20  N   UNL A   1      32.441  16.713  24.911  1.00  0.00    -0.334 N 
ATOM     21  S   UNL A   1      34.876  15.947  24.995  1.00  0.00    -0.062 SA
ATOM     22  H   UNL A   1      31.457  16.681  24.889  1.00  0.00     0.165 HD
ATOM     23  C   UNL A   1      34.613  17.650  24.422  1.00  0.00     0.115 C 
ENDBRANCH  14  17
ENDBRANCH   9  13
ENDBRANCH   5   8
ENDBRANCH   3   4
ENDBRANCH   2   3
ENDBRANCH   1   2
BRANCH   1  24
ATOM     24  C   UNL A   1      32.782  29.986  25.861  1.00  0.00     0.116 C 
BRANCH  24  25
ATOM     25  N   UNL A   1      32.540  31.343  26.332  1.00  0.00    -0.352 N 
ATOM     26  C   UNL A   1      33.256  32.074  27.251  1.00  0.00     0.251 C 
ATOM     27  H   UNL A   1      31.760  31.797  25.941  1.00  0.00     0.163 HD
ATOM     28  O   UNL A   1      32.845  33.169  27.624  1.00  0.00    -0.269 OA
BRANCH  26  29
ATOM     29  C   UNL A   1      34.506  31.516  27.807  1.00  0.00     0.039 A 
ATOM     30  C   UNL A   1      35.594  32.365  28.013  1.00  0.00     0.014 A 
ATOM     31  C   UNL A   1      34.583  30.168  28.168  1.00  0.00     0.014 A 
ATOM     32  C   UNL A   1      36.738  31.876  28.647  1.00  0.00     0.010 A 
ATOM     33  C   UNL A   1      35.686  29.708  28.878  1.00  0.00     0.010 A 
ATOM     34  C   UNL A   1      36.779  30.553  29.119  1.00  0.00    -0.014 A 
BRANCH  34  35
ATOM     35  C   UNL A   1      37.949  30.038  29.876  1.00  0.00     0.031 A 
ATOM     36  C   UNL A   1      38.216  30.520  31.276  1.00  0.00     0.074 A 
ATOM     37  C   UNL A   1      38.821  29.204  29.271  1.00  0.00     0.049 A 
ATOM     38  N   UNL A   1      39.212  30.230  32.072  1.00  0.00    -0.248 NA
ATOM     39  C   UNL A   1      37.253  31.477  31.848  1.00  0.00     0.031 C 
ATOM     40  C   UNL A   1      38.718  28.728  27.890  1.00  0.00     0.029 A 
ATOM     41  N   UNL A   1      39.978  28.630  29.734  1.00  0.00    -0.354 N 
ATOM     42  C   UNL A   1      39.018  30.992  33.217  1.00  0.00     0.074 A 
ATOM     43  C   UNL A   1      37.831  31.788  32.998  1.00  0.00     0.031 C 
ATOM     44  C   UNL A   1      39.762  27.929  27.621  1.00  0.00     0.029 A 
ATOM     45  C   UNL A   1      40.628  27.864  28.794  1.00  0.00     0.049 A 
ATOM     46  H   UNL A   1      40.313  28.756  30.652  1.00  0.00     0.167 HD
ATOM     47  C   UNL A   1      39.744  31.008  34.360  1.00  0.00     0.034 A 
ATOM     48  C   UNL A   1      41.794  27.192  28.866  1.00  0.00     0.034 A 
ATOM     49  C   UNL A   1      40.902  30.188  34.587  1.00  0.00     0.049 A 
ATOM     50  C   UNL A   1      42.566  27.203  30.157  1.00  0.00     0.074 A 
ATOM     51  C   UNL A   1      41.654  30.064  35.743  1.00  0.00     0.029 A 
ATOM     52  N   UNL A   1      41.488  29.364  33.639  1.00  0.00    -0.354 N 
ATOM     53  N   UNL A   1      42.278  27.804  31.286  1.00  0.00    -0.248 NA
ATOM     54  C   UNL A   1      43.804  26.412  30.198  1.00  0.00     0.031 C 
ATOM     55  C   UNL A   1      42.714  29.191  35.481  1.00  0.00     0.029 A 
ATOM     56  C   UNL A   1      42.600  28.739  34.176  1.00  0.00     0.049 A 
ATOM     57  H   UNL A   1      41.160  29.242  32.719  1.00  0.00     0.167 HD
ATOM     58  C   UNL A   1      43.277  27.436  32.180  1.00  0.00     0.074 A 
ATOM     59  C   UNL A   1      44.166  26.542  31.466  1.00  0.00     0.031 C 
ATOM     60  C   UNL A   1      43.449  27.813  33.471  1.00  0.00     0.034 A 
BRANCH  47  61
ATOM     61  C   UNL A   1      39.278  31.913  35.472  1.00  0.00     0.023 A 
ATOM     62  C   UNL A   1      38.390  31.419  36.450  1.00  0.00     0.012 A 
ATOM     63  C   UNL A   1      39.756  33.234  35.579  1.00  0.00     0.148 A 
ATOM     64  C   UNL A   1      37.954  32.235  37.493  1.00  0.00     0.002 A 
ATOM     65  C   UNL A   1      39.356  34.026  36.649  1.00  0.00     0.091 A 
ATOM     66  F   UNL A   1      40.583  33.693  34.629  1.00  0.00    -0.205 F 
ATOM     67  C   UNL A   1      38.445  33.533  37.598  1.00  0.00     0.022 A 
BRANCH  65  68
ATOM     68  S   UNL A   1      39.994  35.682  36.921  1.00  0.00     0.127 S 
ATOM     69  O   UNL A   1      39.284  36.076  38.137  1.00  0.00    -0.237 OA
ATOM     70  O   UNL A   1      41.424  35.433  37.103  1.00  0.00    -0.237 OA
ATOM     71  O   UNL A   1      39.657  36.445  35.727  1.00  0.00    -0.744 OA
ENDBRANCH  65  68
ENDBRANCH  47  61
BRANCH  48  72
ATOM     72  C   UNL A   1      42.275  26.406  27.694  1.00  0.00     0.023 A 
ATOM     73  C   UNL A   1      43.121  27.018  26.748  1.00  0.00     0.012 A 
ATOM     74  C   UNL A   1      41.920  25.054  27.523  1.00  0.00     0.148 A 
ATOM     75  C   UNL A   1      43.574  26.311  25.635  1.00  0.00     0.002 A 
ATOM     76  C   UNL A   1      42.422  24.338  26.442  1.00  0.00     0.091 A 
ATOM     77  F   UNL A   1      41.108  24.493  28.429  1.00  0.00    -0.205 F 
ATOM     78  C   UNL A   1      43.233  24.969  25.487  1.00  0.00     0.022 A 
BRANCH  76  79
ATOM     79  S   UNL A   1      42.144  22.576  26.240  1.00  0.00     0.127 S 
ATOM     80  O   UNL A   1      42.851  22.303  24.992  1.00  0.00    -0.237 OA
ATOM     81  O   UNL A   1      42.779  22.033  27.440  1.00  0.00    -0.237 OA
ATOM     82  O   UNL A   1      40.698  22.406  26.197  1.00  0.00    -0.744 OA
ENDBRANCH  76  79
ENDBRANCH  48  72
BRANCH  60  83
ATOM     83  C   UNL A   1      44.619  27.230  34.221  1.00  0.00     0.023 A 
ATOM     84  C   UNL A   1      45.861  27.894  34.222  1.00  0.00     0.012 A 
ATOM     85  C   UNL A   1      44.461  26.056  34.987  1.00  0.00     0.148 A 
ATOM     86  C   UNL A   1      46.939  27.382  34.943  1.00  0.00     0.002 A 
ATOM     87  C   UNL A   1      45.523  25.581  35.745  1.00  0.00     0.091 A 
ATOM     88  F   UNL A   1      43.276  25.429  34.959  1.00  0.00    -0.205 F 
ATOM     89  C   UNL A   1      46.766  26.233  35.714  1.00  0.00     0.022 A 
BRANCH  87  90
ATOM     90  S   UNL A   1      45.366  24.170  36.846  1.00  0.00     0.127 S 
ATOM     91  O   UNL A   1      44.336  24.629  37.775  1.00  0.00    -0.237 OA
ATOM     92  O   UNL A   1      44.936  23.111  35.931  1.00  0.00    -0.237 OA
ATOM     93  O   UNL A   1      46.686  23.966  37.428  1.00  0.00    -0.744 OA
ENDBRANCH  87  90
ENDBRANCH  60  83
ENDBRANCH  34  35
ENDBRANCH  26  29
ENDBRANCH  24  25
ENDBRANCH   1  24
TORSDOF 16
ENDMDL
MODEL 2
REMARK VINA RESULT:     -11.9      2.569      8.225
REMARK SMILES O=C1N[C@H](C(=O)N[C@H]2C=C[C@@H](C(=O)NCCCCNC(=O)c3ccc(-c4c5nc(c(-c6cccc(S(=O)(=O)[O-])c6F)c6ccc([nH]6)c(-c6cccc(S(=O)(=O)[O-])c6F)c6nc(c(-c7cccc(S(=O)(=O)[O-])c7F)c7ccc4[nH]7)C=C6)C=C5)cc3)C2)CS1
REMARK SMILES IDX 17 1 16 2 15 3 14 4 12 5 13 6 11 8 8 9 9 10 85 11 10 12 7 13
REMARK SMILES IDX 5 14 6 15 4 17 1 18 2 19 3 20 87 21 86 23 18 24 19 25 20 26
REMARK SMILES IDX 21 28 22 29 23 30 84 31 24 32 83 33 25 34 26 35 27 36 77 37
REMARK SMILES IDX 28 38 82 39 76 40 78 41 29 42 81 43 75 44 74 45 30 47 62 48
REMARK SMILES IDX 42 49 61 50 43 51 46 52 60 53 79 54 44 55 45 56 59 58 80 59
REMARK SMILES IDX 47 60 31 61 32 62 40 63 33 64 35 65 41 66 34 67 36 68 37 69
REMARK SMILES IDX 38 70 39 71 63 72 64 73 72 74 65 75 67 76 73 77 66 78 68 79
REMARK SMILES IDX 69 80 70 81 71 82 48 83 49 84 57 85 50 86 52 87 58 88 51 89
REMARK SMILES IDX 53 90 54 91 55 92 56 93
REMARK H PARENT 14 7 7 16 3 22 19 27 78 46 46 57
REMARK Flexibility Score: inf
ROOT
ATOM      1  C   UNL A   1      31.685  31.971  26.876  1.00  0.00     0.023 C 
ENDROOT
BRANCH   1   2
ATOM      2  C   UNL A   1      31.926  30.470  26.753  1.00  0.00     0.023 C 
BRANCH   2   3
ATOM      3  C   UNL A   1      33.308  30.079  26.238  1.00  0.00     0.116 C 
BRANCH   3   4
ATOM      4  N   UNL A   1      33.299  29.690  24.843  1.00  0.00    -0.356 N 
ATOM      5  C   UNL A   1      32.887  28.540  24.243  1.00  0.00     0.227 C 
ATOM      6  O   UNL A   1      32.871  28.517  23.009  1.00  0.00    -0.274 OA
ATOM      7  H   UNL A   1      33.650  30.372  24.226  1.00  0.00     0.163 HD
BRANCH   5   8
ATOM      8  C   UNL A   1      32.510  27.278  25.031  1.00  0.00     0.103 C 
ATOM      9  C   UNL A   1      32.309  24.902  24.361  1.00  0.00     0.106 C 
ATOM     10  C   UNL A   1      33.506  25.161  25.226  1.00  0.00    -0.006 C 
ATOM     11  C   UNL A   1      31.679  26.293  24.204  1.00  0.00     0.047 C 
ATOM     12  C   UNL A   1      33.632  26.451  25.567  1.00  0.00    -0.016 C 
BRANCH   9  13
ATOM     13  N   UNL A   1      32.784  24.325  23.114  1.00  0.00    -0.348 N 
ATOM     14  C   UNL A   1      32.970  23.037  22.714  1.00  0.00     0.243 C 
ATOM     15  O   UNL A   1      33.335  22.870  21.546  1.00  0.00    -0.273 OA
ATOM     16  H   UNL A   1      33.016  24.994  22.430  1.00  0.00     0.164 HD
BRANCH  14  17
ATOM     17  C   UNL A   1      32.594  21.820  23.574  1.00  0.00     0.182 C 
ATOM     18  O   UNL A   1      32.169  18.385  22.795  1.00  0.00    -0.262 OA
ATOM     19  C   UNL A   1      32.529  19.439  23.279  1.00  0.00     0.279 C 
ATOM     20  N   UNL A   1      32.140  20.667  22.838  1.00  0.00    -0.334 N 
ATOM     21  S   UNL A   1      33.621  19.602  24.626  1.00  0.00    -0.062 SA
ATOM     22  H   UNL A   1      31.568  20.765  22.044  1.00  0.00     0.165 HD
ATOM     23  C   UNL A   1      33.739  21.409  24.490  1.00  0.00     0.115 C 
ENDBRANCH  14  17
ENDBRANCH   9  13
ENDBRANCH   5   8
ENDBRANCH   3   4
ENDBRANCH   2   3
ENDBRANCH   1   2
BRANCH   1  24
ATOM     24  C   UNL A   1      32.864  32.773  27.411  1.00  0.00     0.116 C 
BRANCH  24  25
ATOM     25  N   UNL A   1      32.528  34.158  27.710  1.00  0.00    -0.352 N 
ATOM     26  C   UNL A   1      33.080  34.992  28.654  1.00  0.00     0.251 C 
ATOM     27  H   UNL A   1      31.809  34.550  27.164  1.00  0.00     0.163 HD
ATOM     28  O   UNL A   1      32.596  36.102  28.856  1.00  0.00    -0.269 OA
BRANCH  26  29
ATOM     29  C   UNL A   1      34.238  34.526  29.444  1.00  0.00     0.039 A 
ATOM     30  C   UNL A   1      34.019  33.985  30.712  1.00  0.00     0.014 A 
ATOM     31  C   UNL A   1      35.530  34.578  28.911  1.00  0.00     0.014 A 
ATOM     32  C   UNL A   1      35.090  33.434  31.419  1.00  0.00     0.010 A 
ATOM     33  C   UNL A   1      36.575  33.948  29.577  1.00  0.00     0.010 A 
ATOM     34  C   UNL A   1      36.369  33.375  30.841  1.00  0.00    -0.014 A 
BRANCH  34  35
ATOM     35  C   UNL A   1      37.502  32.712  31.536  1.00  0.00     0.031 A 
ATOM     36  C   UNL A   1      38.215  31.556  30.887  1.00  0.00     0.074 A 
ATOM     37  C   UNL A   1      37.833  33.092  32.787  1.00  0.00     0.049 A 
ATOM     38  N   UNL A   1      39.185  30.818  31.358  1.00  0.00    -0.248 NA
ATOM     39  C   UNL A   1      37.758  31.159  29.545  1.00  0.00     0.031 C 
ATOM     40  C   UNL A   1      37.165  34.145  33.557  1.00  0.00     0.029 A 
ATOM     41  N   UNL A   1      38.797  32.619  33.641  1.00  0.00    -0.354 N 
ATOM     42  C   UNL A   1      39.429  29.849  30.392  1.00  0.00     0.074 A 
ATOM     43  C   UNL A   1      38.478  30.069  29.325  1.00  0.00     0.031 C 
ATOM     44  C   UNL A   1      37.745  34.243  34.763  1.00  0.00     0.029 A 
ATOM     45  C   UNL A   1      38.799  33.239  34.870  1.00  0.00     0.049 A 
ATOM     46  H   UNL A   1      39.428  31.902  33.399  1.00  0.00     0.167 HD
ATOM     47  C   UNL A   1      40.376  28.882  30.378  1.00  0.00     0.034 A 
ATOM     48  C   UNL A   1      39.557  33.018  35.962  1.00  0.00     0.034 A 
ATOM     49  C   UNL A   1      41.343  28.690  31.425  1.00  0.00     0.049 A 
ATOM     50  C   UNL A   1      40.622  31.957  35.909  1.00  0.00     0.074 A 
ATOM     51  C   UNL A   1      42.400  27.797  31.464  1.00  0.00     0.029 A 
ATOM     52  N   UNL A   1      41.364  29.388  32.622  1.00  0.00    -0.354 N 
ATOM     53  N   UNL A   1      40.943  31.158  34.921  1.00  0.00    -0.248 NA
ATOM     54  C   UNL A   1      41.455  31.792  37.109  1.00  0.00     0.031 C 
ATOM     55  C   UNL A   1      43.039  27.933  32.701  1.00  0.00     0.029 A 
ATOM     56  C   UNL A   1      42.405  28.938  33.415  1.00  0.00     0.049 A 
ATOM     57  H   UNL A   1      40.731  30.100  32.870  1.00  0.00     0.167 HD
ATOM     58  C   UNL A   1      42.036  30.422  35.365  1.00  0.00     0.074 A 
ATOM     59  C   UNL A   1      42.335  30.886  36.704  1.00  0.00     0.031 C 
ATOM     60  C   UNL A   1      42.723  29.442  34.727  1.00  0.00     0.034 A 
BRANCH  47  61
ATOM     61  C   UNL A   1      40.442  27.983  29.170  1.00  0.00     0.023 A 
ATOM     62  C   UNL A   1      39.547  26.898  29.057  1.00  0.00     0.012 A 
ATOM     63  C   UNL A   1      41.352  28.238  28.126  1.00  0.00     0.148 A 
ATOM     64  C   UNL A   1      39.583  26.059  27.943  1.00  0.00     0.002 A 
ATOM     65  C   UNL A   1      41.348  27.428  26.996  1.00  0.00     0.091 A 
ATOM     66  F   UNL A   1      42.208  29.261  28.260  1.00  0.00    -0.205 F 
ATOM     67  C   UNL A   1      40.476  26.331  26.910  1.00  0.00     0.022 A 
BRANCH  65  68
ATOM     68  S   UNL A   1      42.400  27.741  25.575  1.00  0.00     0.127 S 
ATOM     69  O   UNL A   1      43.725  27.783  26.192  1.00  0.00    -0.237 OA
ATOM     70  O   UNL A   1      42.151  26.562  24.745  1.00  0.00    -0.237 OA
ATOM     71  O   UNL A   1      41.938  28.997  25.001  1.00  0.00    -0.744 OA
ENDBRANCH  65  68
ENDBRANCH  47  61
BRANCH  48  72
ATOM     72  C   UNL A   1      39.373  33.857  37.180  1.00  0.00     0.023 A 
ATOM     73  C   UNL A   1      39.828  35.191  37.180  1.00  0.00     0.012 A 
ATOM     74  C   UNL A   1      38.732  33.351  38.327  1.00  0.00     0.148 A 
ATOM     75  C   UNL A   1      39.681  35.993  38.311  1.00  0.00     0.002 A 
ATOM     76  C   UNL A   1      38.537  34.175  39.430  1.00  0.00     0.091 A 
ATOM     77  F   UNL A   1      38.314  32.079  38.310  1.00  0.00    -0.205 F 
ATOM     78  C   UNL A   1      39.028  35.489  39.432  1.00  0.00     0.022 A 
BRANCH  76  79
ATOM     79  S   UNL A   1      37.592  33.655  40.866  1.00  0.00     0.127 S 
ATOM     80  O   UNL A   1      37.410  34.917  41.578  1.00  0.00    -0.237 OA
ATOM     81  O   UNL A   1      36.382  33.114  40.249  1.00  0.00    -0.237 OA
ATOM     82  O   UNL A   1      38.417  32.662  41.543  1.00  0.00    -0.744 OA
ENDBRANCH  76  79
ENDBRANCH  48  72
BRANCH  60  83
ATOM     83  C   UNL A   1      43.898  28.829  35.444  1.00  0.00     0.023 A 
ATOM     84  C   UNL A   1      45.183  29.388  35.301  1.00  0.00     0.012 A 
ATOM     85  C   UNL A   1      43.710  27.740  36.320  1.00  0.00     0.148 A 
ATOM     86  C   UNL A   1      46.270  28.851  35.989  1.00  0.00     0.002 A 
ATOM     87  C   UNL A   1      44.787  27.245  37.043  1.00  0.00     0.091 A 
ATOM     88  F   UNL A   1      42.483  27.212  36.428  1.00  0.00    -0.205 F 
ATOM     89  C   UNL A   1      46.070  27.789  36.868  1.00  0.00     0.022 A 
BRANCH  87  90
ATOM     90  S   UNL A   1      44.609  25.946  38.272  1.00  0.00     0.127 S 
ATOM     91  O   UNL A   1      45.997  25.722  38.671  1.00  0.00    -0.237 OA
ATOM     92  O   UNL A   1      43.778  26.594  39.288  1.00  0.00    -0.237 OA
ATOM     93  O   UNL A   1      43.968  24.831  37.588  1.00  0.00    -0.744 OA
ENDBRANCH  87  90
ENDBRANCH  60  83
ENDBRANCH  34  35
ENDBRANCH  26  29
ENDBRANCH  24  25
ENDBRANCH   1  24
TORSDOF 16
ENDMDL
MODEL 3
REMARK VINA RESULT:     -11.8      5.408     10.870
REMARK SMILES O=C1N[C@H](C(=O)N[C@H]2C=C[C@@H](C(=O)NCCCCNC(=O)c3ccc(-c4c5nc(c(-c6cccc(S(=O)(=O)[O-])c6F)c6ccc([nH]6)c(-c6cccc(S(=O)(=O)[O-])c6F)c6nc(c(-c7cccc(S(=O)(=O)[O-])c7F)c7ccc4[nH]7)C=C6)C=C5)cc3)C2)CS1
REMARK SMILES IDX 17 1 16 2 15 3 14 4 12 5 13 6 11 8 8 9 9 10 85 11 10 12 7 13
REMARK SMILES IDX 5 14 6 15 4 17 1 18 2 19 3 20 87 21 86 23 18 24 19 25 20 26
REMARK SMILES IDX 21 28 22 29 23 30 84 31 24 32 83 33 25 34 26 35 27 36 77 37
REMARK SMILES IDX 28 38 82 39 76 40 78 41 29 42 81 43 75 44 74 45 30 47 62 48
REMARK SMILES IDX 42 49 61 50 43 51 46 52 60 53 79 54 44 55 45 56 59 58 80 59
REMARK SMILES IDX 47 60 31 61 32 62 40 63 33 64 35 65 41 66 34 67 36 68 37 69
REMARK SMILES IDX 38 70 39 71 63 72 64 73 72 74 65 75 67 76 73 77 66 78 68 79
REMARK SMILES IDX 69 80 70 81 71 82 48 83 49 84 57 85 50 86 52 87 58 88 51 89
REMARK SMILES IDX 53 90 54 91 55 92 56 93
REMARK H PARENT 14 7 7 16 3 22 19 27 78 46 46 57
REMARK Flexibility Score: inf
ROOT
ATOM      1  C   UNL A   1      35.130  21.794  24.588  1.00  0.00     0.023 C 
ENDROOT
BRANCH   1   2
ATOM      2  C   UNL A   1      33.780  22.105  25.227  1.00  0.00     0.023 C 
BRANCH   2   3
ATOM      3  C   UNL A   1      33.714  23.426  25.986  1.00  0.00     0.116 C 
BRANCH   3   4
ATOM      4  N   UNL A   1      32.376  23.750  26.436  1.00  0.00    -0.356 N 
ATOM      5  C   UNL A   1      31.531  24.750  26.065  1.00  0.00     0.227 C 
ATOM      6  O   UNL A   1      30.384  24.723  26.521  1.00  0.00    -0.274 OA
ATOM      7  H   UNL A   1      32.019  23.146  27.127  1.00  0.00     0.163 HD
BRANCH   5   8
ATOM      8  C   UNL A   1      31.964  25.918  25.168  1.00  0.00     0.103 C 
ATOM      9  C   UNL A   1      30.689  27.409  23.656  1.00  0.00     0.106 C 
ATOM     10  C   UNL A   1      31.158  28.106  24.899  1.00  0.00    -0.006 C 
ATOM     11  C   UNL A   1      31.185  25.970  23.851  1.00  0.00     0.047 C 
ATOM     12  C   UNL A   1      31.823  27.294  25.731  1.00  0.00    -0.016 C 
BRANCH   9  13
ATOM     13  N   UNL A   1      29.242  27.532  23.602  1.00  0.00    -0.348 N 
ATOM     14  C   UNL A   1      28.424  28.502  23.108  1.00  0.00     0.243 C 
ATOM     15  O   UNL A   1      27.210  28.279  23.159  1.00  0.00    -0.273 OA
ATOM     16  H   UNL A   1      28.763  26.770  23.999  1.00  0.00     0.164 HD
BRANCH  14  17
ATOM     17  C   UNL A   1      28.936  29.745  22.362  1.00  0.00     0.182 C 
ATOM     18  O   UNL A   1      27.404  31.929  20.024  1.00  0.00    -0.262 OA
ATOM     19  C   UNL A   1      27.979  31.463  20.987  1.00  0.00     0.279 C 
ATOM     20  N   UNL A   1      28.160  30.133  21.212  1.00  0.00    -0.334 N 
ATOM     21  S   UNL A   1      28.681  32.393  22.282  1.00  0.00    -0.062 SA
ATOM     22  H   UNL A   1      27.775  29.457  20.609  1.00  0.00     0.165 HD
ATOM     23  C   UNL A   1      29.074  30.939  23.298  1.00  0.00     0.115 C 
ENDBRANCH  14  17
ENDBRANCH   9  13
ENDBRANCH   5   8
ENDBRANCH   3   4
ENDBRANCH   2   3
ENDBRANCH   1   2
BRANCH   1  24
ATOM     24  C   UNL A   1      36.343  22.164  25.431  1.00  0.00     0.116 C 
BRANCH  24  25
ATOM     25  N   UNL A   1      37.334  21.099  25.508  1.00  0.00    -0.352 N 
ATOM     26  C   UNL A   1      38.650  21.178  25.899  1.00  0.00     0.251 C 
ATOM     27  H   UNL A   1      37.020  20.205  25.245  1.00  0.00     0.163 HD
ATOM     28  O   UNL A   1      39.385  20.200  25.793  1.00  0.00    -0.269 OA
BRANCH  26  29
ATOM     29  C   UNL A   1      39.178  22.457  26.416  1.00  0.00     0.039 A 
ATOM     30  C   UNL A   1      40.343  22.447  27.187  1.00  0.00     0.014 A 
ATOM     31  C   UNL A   1      38.551  23.665  26.098  1.00  0.00     0.014 A 
ATOM     32  C   UNL A   1      40.916  23.657  27.581  1.00  0.00     0.010 A 
ATOM     33  C   UNL A   1      39.174  24.867  26.415  1.00  0.00     0.010 A 
ATOM     34  C   UNL A   1      40.358  24.878  27.165  1.00  0.00    -0.014 A 
BRANCH  34  35
ATOM     35  C   UNL A   1      41.003  26.175  27.496  1.00  0.00     0.031 A 
ATOM     36  C   UNL A   1      42.426  26.439  27.085  1.00  0.00     0.074 A 
ATOM     37  C   UNL A   1      40.337  27.080  28.243  1.00  0.00     0.049 A 
ATOM     38  N   UNL A   1      43.174  27.483  27.330  1.00  0.00    -0.248 NA
ATOM     39  C   UNL A   1      43.109  25.379  26.324  1.00  0.00     0.031 C 
ATOM     40  C   UNL A   1      38.982  26.909  28.772  1.00  0.00     0.029 A 
ATOM     41  N   UNL A   1      40.720  28.314  28.707  1.00  0.00    -0.354 N 
ATOM     42  C   UNL A   1      44.421  27.192  26.789  1.00  0.00     0.074 A 
ATOM     43  C   UNL A   1      44.341  25.858  26.238  1.00  0.00     0.031 C 
ATOM     44  C   UNL A   1      38.645  27.999  29.479  1.00  0.00     0.029 A 
ATOM     45  C   UNL A   1      39.768  28.930  29.487  1.00  0.00     0.049 A 
ATOM     46  H   UNL A   1      41.594  28.719  28.502  1.00  0.00     0.167 HD
ATOM     47  C   UNL A   1      45.524  27.974  26.729  1.00  0.00     0.034 A 
ATOM     48  C   UNL A   1      39.800  30.107  30.141  1.00  0.00     0.034 A 
ATOM     49  C   UNL A   1      45.588  29.313  27.247  1.00  0.00     0.049 A 
ATOM     50  C   UNL A   1      41.029  30.970  30.034  1.00  0.00     0.074 A 
ATOM     51  C   UNL A   1      46.630  30.220  27.156  1.00  0.00     0.029 A 
ATOM     52  N   UNL A   1      44.578  29.936  27.963  1.00  0.00    -0.354 N 
ATOM     53  N   UNL A   1      42.142  30.744  29.379  1.00  0.00    -0.248 NA
ATOM     54  C   UNL A   1      40.992  32.267  30.725  1.00  0.00     0.031 C 
ATOM     55  C   UNL A   1      46.261  31.378  27.849  1.00  0.00     0.029 A 
ATOM     56  C   UNL A   1      44.975  31.208  28.335  1.00  0.00     0.049 A 
ATOM     57  H   UNL A   1      43.706  29.530  28.176  1.00  0.00     0.167 HD
ATOM     58  C   UNL A   1      42.922  31.882  29.548  1.00  0.00     0.074 A 
ATOM     59  C   UNL A   1      42.144  32.805  30.349  1.00  0.00     0.031 C 
ATOM     60  C   UNL A   1      44.173  32.136  29.092  1.00  0.00     0.034 A 
BRANCH  47  61
ATOM     61  C   UNL A   1      46.743  27.414  26.041  1.00  0.00     0.023 A 
ATOM     62  C   UNL A   1      46.906  27.594  24.651  1.00  0.00     0.012 A 
ATOM     63  C   UNL A   1      47.749  26.754  26.773  1.00  0.00     0.148 A 
ATOM     64  C   UNL A   1      48.030  27.093  23.996  1.00  0.00     0.002 A 
ATOM     65  C   UNL A   1      48.890  26.301  26.121  1.00  0.00     0.091 A 
ATOM     66  F   UNL A   1      47.568  26.573  28.089  1.00  0.00    -0.205 F 
ATOM     67  C   UNL A   1      49.025  26.457  24.732  1.00  0.00     0.022 A 
BRANCH  65  68
ATOM     68  S   UNL A   1      50.267  25.543  26.990  1.00  0.00     0.127 S 
ATOM     69  O   UNL A   1      51.217  25.322  25.901  1.00  0.00    -0.237 OA
ATOM     70  O   UNL A   1      50.651  26.595  27.931  1.00  0.00    -0.237 OA
ATOM     71  O   UNL A   1      49.737  24.336  27.610  1.00  0.00    -0.744 OA
ENDBRANCH  65  68
ENDBRANCH  47  61
BRANCH  48  72
ATOM     72  C   UNL A   1      38.609  30.565  30.912  1.00  0.00     0.023 A 
ATOM     73  C   UNL A   1      38.546  30.326  32.299  1.00  0.00     0.012 A 
ATOM     74  C   UNL A   1      37.552  31.253  30.286  1.00  0.00     0.148 A 
ATOM     75  C   UNL A   1      37.438  30.731  33.041  1.00  0.00     0.002 A 
ATOM     76  C   UNL A   1      36.477  31.705  31.042  1.00  0.00     0.091 A 
ATOM     77  F   UNL A   1      37.628  31.464  28.965  1.00  0.00    -0.205 F 
ATOM     78  C   UNL A   1      36.408  31.428  32.416  1.00  0.00     0.022 A 
BRANCH  76  79
ATOM     79  S   UNL A   1      35.171  32.724  30.349  1.00  0.00     0.127 S 
ATOM     80  O   UNL A   1      34.650  31.862  29.291  1.00  0.00    -0.237 OA
ATOM     81  O   UNL A   1      34.283  32.896  31.497  1.00  0.00    -0.237 OA
ATOM     82  O   UNL A   1      35.820  33.949  29.902  1.00  0.00    -0.744 OA
ENDBRANCH  76  79
ENDBRANCH  48  72
BRANCH  60  83
ATOM     83  C   UNL A   1      44.773  33.482  29.404  1.00  0.00     0.023 A 
ATOM     84  C   UNL A   1      45.470  33.683  30.611  1.00  0.00     0.012 A 
ATOM     85  C   UNL A   1      44.707  34.529  28.461  1.00  0.00     0.148 A 
ATOM     86  C   UNL A   1      46.060  34.914  30.894  1.00  0.00     0.002 A 
ATOM     87  C   UNL A   1      45.343  35.734  28.725  1.00  0.00     0.091 A 
ATOM     88  F   UNL A   1      44.025  34.324  27.325  1.00  0.00    -0.205 F 
ATOM     89  C   UNL A   1      46.007  35.935  29.946  1.00  0.00     0.022 A 
BRANCH  87  90
ATOM     90  S   UNL A   1      45.416  37.070  27.525  1.00  0.00     0.127 S 
ATOM     91  O   UNL A   1      43.998  37.359  27.315  1.00  0.00    -0.237 OA
ATOM     92  O   UNL A   1      46.148  38.104  28.258  1.00  0.00    -0.237 OA
ATOM     93  O   UNL A   1      46.121  36.534  26.369  1.00  0.00    -0.744 OA
ENDBRANCH  87  90
ENDBRANCH  60  83
ENDBRANCH  34  35
ENDBRANCH  26  29
ENDBRANCH  24  25
ENDBRANCH   1  24
TORSDOF 16
ENDMDL
