MODEL 1
REMARK VINA RESULT:     -11.2      0.000      0.000
REMARK SMILES C/C=C/C[C@H](Cc1cccc(F)c1)C(=O)NCCCCNC(=O)c1ccc(-c2c3nc(c(-c4cccc(S(=O)(=O)[O-])c4F)c4ccc([nH]4)c(-c4cccc(S(=O)(=O)[O-])c4F)c4nc(c(-c5cccc(S(=O)(=O)[O-])c5F)c5ccc2[nH]5)C=C4)C=C3)cc1
REMARK SMILES IDX 19 1 18 2 17 3 16 4 14 5 15 6 5 8 4 9 3 10 1 11 2 12 6 13
REMARK SMILES IDX 7 14 8 15 13 16 9 17 11 18 10 19 12 20 20 21 21 22 22 23
REMARK SMILES IDX 23 25 24 26 25 27 86 28 26 29 85 30 27 31 28 32 29 33 79 34
REMARK SMILES IDX 30 35 84 36 78 37 80 38 31 39 83 40 77 41 76 42 32 44 64 45
REMARK SMILES IDX 44 46 63 47 45 48 48 49 62 50 81 51 46 52 47 53 61 55 82 56
REMARK SMILES IDX 49 57 33 58 34 59 42 60 35 61 37 62 43 63 36 64 38 65 39 66
REMARK SMILES IDX 40 67 41 68 65 69 66 70 74 71 67 72 69 73 75 74 68 75 70 76
REMARK SMILES IDX 71 77 72 78 73 79 50 80 51 81 59 82 52 83 54 84 60 85 53 86
REMARK SMILES IDX 55 87 56 88 57 89 58 90
REMARK H PARENT 16 7 21 24 80 43 48 54
REMARK Flexibility Score: inf
ROOT
ATOM      1  C   UNL A   1      37.887  19.347  24.855  1.00  0.00     0.023 C 
ENDROOT
BRANCH   1   2
ATOM      2  C   UNL A   1      36.533  20.049  24.830  1.00  0.00     0.023 C 
BRANCH   2   3
ATOM      3  C   UNL A   1      36.506  21.442  25.442  1.00  0.00     0.116 C 
BRANCH   3   4
ATOM      4  N   UNL A   1      35.652  21.568  26.600  1.00  0.00    -0.356 N 
ATOM      5  C   UNL A   1      34.304  21.703  26.688  1.00  0.00     0.223 C 
ATOM      6  O   UNL A   1      33.799  21.566  27.808  1.00  0.00    -0.275 OA
ATOM      7  H   UNL A   1      36.123  21.554  27.464  1.00  0.00     0.163 HD
BRANCH   5   8
ATOM      8  C   UNL A   1      33.400  22.020  25.498  1.00  0.00     0.086 C 
BRANCH   8   9
ATOM      9  C   UNL A   1      33.003  23.521  25.504  1.00  0.00     0.040 C 
BRANCH   9  10
ATOM     10  C   UNL A   1      31.984  23.944  24.478  1.00  0.00    -0.031 C 
ATOM     11  C   UNL A   1      30.036  25.331  23.710  1.00  0.00     0.035 C 
ATOM     12  C   UNL A   1      31.159  24.993  24.638  1.00  0.00    -0.035 C 
ENDBRANCH   9  10
ENDBRANCH   8   9
BRANCH   8  13
ATOM     13  C   UNL A   1      32.230  21.067  25.183  1.00  0.00     0.049 C 
BRANCH  13  14
ATOM     14  C   UNL A   1      32.470  19.672  24.634  1.00  0.00    -0.044 A 
ATOM     15  C   UNL A   1      32.422  19.317  23.278  1.00  0.00     0.004 A 
ATOM     16  C   UNL A   1      32.813  18.666  25.556  1.00  0.00     0.043 A 
ATOM     17  C   UNL A   1      32.776  18.029  22.852  1.00  0.00     0.003 A 
ATOM     18  C   UNL A   1      33.135  17.381  25.126  1.00  0.00     0.123 A 
ATOM     19  C   UNL A   1      33.137  17.057  23.778  1.00  0.00     0.039 A 
ATOM     20  F   UNL A   1      33.458  16.446  26.030  1.00  0.00    -0.207 F 
ENDBRANCH  13  14
ENDBRANCH   8  13
ENDBRANCH   5   8
ENDBRANCH   3   4
ENDBRANCH   2   3
ENDBRANCH   1   2
BRANCH   1  21
ATOM     21  C   UNL A   1      38.951  19.987  25.739  1.00  0.00     0.116 C 
BRANCH  21  22
ATOM     22  N   UNL A   1      40.115  19.146  25.980  1.00  0.00    -0.352 N 
ATOM     23  C   UNL A   1      41.362  19.518  26.434  1.00  0.00     0.251 C 
ATOM     24  H   UNL A   1      39.995  18.187  25.795  1.00  0.00     0.163 HD
ATOM     25  O   UNL A   1      42.244  18.687  26.565  1.00  0.00    -0.269 OA
BRANCH  23  26
ATOM     26  C   UNL A   1      41.624  20.947  26.710  1.00  0.00     0.039 A 
ATOM     27  C   UNL A   1      42.133  21.303  27.960  1.00  0.00     0.014 A 
ATOM     28  C   UNL A   1      41.427  21.916  25.722  1.00  0.00     0.014 A 
ATOM     29  C   UNL A   1      42.505  22.627  28.200  1.00  0.00     0.010 A 
ATOM     30  C   UNL A   1      41.875  23.216  25.936  1.00  0.00     0.010 A 
ATOM     31  C   UNL A   1      42.408  23.588  27.179  1.00  0.00    -0.014 A 
BRANCH  31  32
ATOM     32  C   UNL A   1      42.842  24.990  27.400  1.00  0.00     0.031 A 
ATOM     33  C   UNL A   1      41.900  25.973  28.039  1.00  0.00     0.074 A 
ATOM     34  C   UNL A   1      44.052  25.396  26.966  1.00  0.00     0.049 A 
ATOM     35  N   UNL A   1      42.085  27.242  28.293  1.00  0.00    -0.248 NA
ATOM     36  C   UNL A   1      40.565  25.477  28.417  1.00  0.00     0.031 C 
ATOM     37  C   UNL A   1      45.019  24.561  26.252  1.00  0.00     0.029 A 
ATOM     38  N   UNL A   1      44.668  26.620  27.045  1.00  0.00    -0.354 N 
ATOM     39  C   UNL A   1      40.886  27.701  28.824  1.00  0.00     0.074 A 
ATOM     40  C   UNL A   1      39.964  26.588  28.819  1.00  0.00     0.031 C 
ATOM     41  C   UNL A   1      46.111  25.291  25.973  1.00  0.00     0.029 A 
ATOM     42  C   UNL A   1      45.918  26.651  26.469  1.00  0.00     0.049 A 
ATOM     43  H   UNL A   1      44.254  27.405  27.475  1.00  0.00     0.167 HD
ATOM     44  C   UNL A   1      40.593  28.926  29.316  1.00  0.00     0.034 A 
ATOM     45  C   UNL A   1      46.808  27.658  26.360  1.00  0.00     0.034 A 
ATOM     46  C   UNL A   1      41.536  30.005  29.396  1.00  0.00     0.049 A 
ATOM     47  C   UNL A   1      46.477  28.996  26.967  1.00  0.00     0.074 A 
ATOM     48  C   UNL A   1      41.371  31.243  29.989  1.00  0.00     0.029 A 
ATOM     49  N   UNL A   1      42.819  29.974  28.873  1.00  0.00    -0.354 N 
ATOM     50  N   UNL A   1      45.403  29.358  27.627  1.00  0.00    -0.248 NA
ATOM     51  C   UNL A   1      47.488  30.057  26.845  1.00  0.00     0.031 C 
ATOM     52  C   UNL A   1      42.552  31.968  29.812  1.00  0.00     0.029 A 
ATOM     53  C   UNL A   1      43.455  31.176  29.118  1.00  0.00     0.049 A 
ATOM     54  H   UNL A   1      43.217  29.209  28.399  1.00  0.00     0.167 HD
ATOM     55  C   UNL A   1      45.617  30.674  28.016  1.00  0.00     0.074 A 
ATOM     56  C   UNL A   1      46.935  31.042  27.540  1.00  0.00     0.031 C 
ATOM     57  C   UNL A   1      44.787  31.510  28.688  1.00  0.00     0.034 A 
BRANCH  44  58
ATOM     58  C   UNL A   1      39.221  29.145  29.896  1.00  0.00     0.023 A 
ATOM     59  C   UNL A   1      38.932  28.642  31.181  1.00  0.00     0.012 A 
ATOM     60  C   UNL A   1      38.260  29.922  29.222  1.00  0.00     0.148 A 
ATOM     61  C   UNL A   1      37.697  28.890  31.778  1.00  0.00     0.002 A 
ATOM     62  C   UNL A   1      37.047  30.199  29.840  1.00  0.00     0.091 A 
ATOM     63  F   UNL A   1      38.552  30.374  27.995  1.00  0.00    -0.205 F 
ATOM     64  C   UNL A   1      36.761  29.677  31.113  1.00  0.00     0.022 A 
BRANCH  62  65
ATOM     65  S   UNL A   1      35.801  31.264  29.107  1.00  0.00     0.127 S 
ATOM     66  O   UNL A   1      35.142  30.349  28.175  1.00  0.00    -0.237 OA
ATOM     67  O   UNL A   1      34.994  31.636  30.269  1.00  0.00    -0.237 OA
ATOM     68  O   UNL A   1      36.525  32.366  28.487  1.00  0.00    -0.744 OA
ENDBRANCH  62  65
ENDBRANCH  44  58
BRANCH  45  69
ATOM     69  C   UNL A   1      48.134  27.408  25.726  1.00  0.00     0.023 A 
ATOM     70  C   UNL A   1      49.205  26.966  26.529  1.00  0.00     0.012 A 
ATOM     71  C   UNL A   1      48.330  27.552  24.340  1.00  0.00     0.148 A 
ATOM     72  C   UNL A   1      50.453  26.694  25.965  1.00  0.00     0.002 A 
ATOM     73  C   UNL A   1      49.560  27.228  23.776  1.00  0.00     0.091 A 
ATOM     74  F   UNL A   1      47.304  27.987  23.595  1.00  0.00    -0.205 F 
ATOM     75  C   UNL A   1      50.627  26.813  24.589  1.00  0.00     0.022 A 
BRANCH  73  76
ATOM     76  S   UNL A   1      49.834  27.223  22.000  1.00  0.00     0.127 S 
ATOM     77  O   UNL A   1      49.627  28.628  21.661  1.00  0.00    -0.237 OA
ATOM     78  O   UNL A   1      51.221  26.765  21.909  1.00  0.00    -0.237 OA
ATOM     79  O   UNL A   1      48.859  26.288  21.457  1.00  0.00    -0.744 OA
ENDBRANCH  73  76
ENDBRANCH  45  69
BRANCH  57  80
ATOM     80  C   UNL A   1      45.255  32.914  28.961  1.00  0.00     0.023 A 
ATOM     81  C   UNL A   1      45.953  33.184  30.153  1.00  0.00     0.012 A 
ATOM     82  C   UNL A   1      45.146  33.915  27.976  1.00  0.00     0.148 A 
ATOM     83  C   UNL A   1      46.532  34.434  30.366  1.00  0.00     0.002 A 
ATOM     84  C   UNL A   1      45.763  35.145  28.175  1.00  0.00     0.091 A 
ATOM     85  F   UNL A   1      44.468  33.635  26.853  1.00  0.00    -0.205 F 
ATOM     86  C   UNL A   1      46.451  35.407  29.372  1.00  0.00     0.022 A 
BRANCH  84  87
ATOM     87  S   UNL A   1      45.803  36.425  26.915  1.00  0.00     0.127 S 
ATOM     88  O   UNL A   1      44.426  36.915  26.944  1.00  0.00    -0.237 OA
ATOM     89  O   UNL A   1      46.794  37.357  27.454  1.00  0.00    -0.237 OA
ATOM     90  O   UNL A   1      46.200  35.763  25.679  1.00  0.00    -0.744 OA
ENDBRANCH  84  87
ENDBRANCH  57  80
ENDBRANCH  31  32
ENDBRANCH  23  26
ENDBRANCH  21  22
ENDBRANCH   1  21
TORSDOF 18
ENDMDL
MODEL 2
REMARK VINA RESULT:     -11.2      6.209      9.994
REMARK SMILES C/C=C/C[C@H](Cc1cccc(F)c1)C(=O)NCCCCNC(=O)c1ccc(-c2c3nc(c(-c4cccc(S(=O)(=O)[O-])c4F)c4ccc([nH]4)c(-c4cccc(S(=O)(=O)[O-])c4F)c4nc(c(-c5cccc(S(=O)(=O)[O-])c5F)c5ccc2[nH]5)C=C4)C=C3)cc1
REMARK SMILES IDX 19 1 18 2 17 3 16 4 14 5 15 6 5 8 4 9 3 10 1 11 2 12 6 13
REMARK SMILES IDX 7 14 8 15 13 16 9 17 11 18 10 19 12 20 20 21 21 22 22 23
REMARK SMILES IDX 23 25 24 26 25 27 86 28 26 29 85 30 27 31 28 32 29 33 79 34
REMARK SMILES IDX 30 35 84 36 78 37 80 38 31 39 83 40 77 41 76 42 32 44 64 45
REMARK SMILES IDX 44 46 63 47 45 48 48 49 62 50 81 51 46 52 47 53 61 55 82 56
REMARK SMILES IDX 49 57 33 58 34 59 42 60 35 61 37 62 43 63 36 64 38 65 39 66
REMARK SMILES IDX 40 67 41 68 65 69 66 70 74 71 67 72 69 73 75 74 68 75 70 76
REMARK SMILES IDX 71 77 72 78 73 79 50 80 51 81 59 82 52 83 54 84 60 85 53 86
REMARK SMILES IDX 55 87 56 88 57 89 58 90
REMARK H PARENT 16 7 21 24 80 43 48 54
REMARK Flexibility Score: inf
ROOT
ATOM      1  C   UNL A   1      31.330  31.837  26.390  1.00  0.00     0.023 C 
ENDROOT
BRANCH   1   2
ATOM      2  C   UNL A   1      31.350  30.459  25.735  1.00  0.00     0.023 C 
BRANCH   2   3
ATOM      3  C   UNL A   1      32.598  29.629  25.996  1.00  0.00     0.116 C 
BRANCH   3   4
ATOM      4  N   UNL A   1      33.452  29.458  24.843  1.00  0.00    -0.356 N 
ATOM      5  C   UNL A   1      33.295  28.683  23.739  1.00  0.00     0.223 C 
ATOM      6  O   UNL A   1      34.065  28.889  22.794  1.00  0.00    -0.275 OA
ATOM      7  H   UNL A   1      34.281  29.988  24.861  1.00  0.00     0.163 HD
BRANCH   5   8
ATOM      8  C   UNL A   1      32.240  27.585  23.612  1.00  0.00     0.086 C 
BRANCH   8   9
ATOM      9  C   UNL A   1      32.891  26.187  23.787  1.00  0.00     0.040 C 
BRANCH   9  10
ATOM     10  C   UNL A   1      32.636  25.494  25.101  1.00  0.00    -0.031 C 
ATOM     11  C   UNL A   1      31.335  23.944  26.590  1.00  0.00     0.035 C 
ATOM     12  C   UNL A   1      31.716  24.529  25.266  1.00  0.00    -0.035 C 
ENDBRANCH   9  10
ENDBRANCH   8   9
BRANCH   8  13
ATOM     13  C   UNL A   1      31.227  27.661  22.452  1.00  0.00     0.049 C 
BRANCH  13  14
ATOM     14  C   UNL A   1      30.000  28.552  22.528  1.00  0.00    -0.044 A 
ATOM     15  C   UNL A   1      29.909  29.851  22.008  1.00  0.00     0.004 A 
ATOM     16  C   UNL A   1      28.848  28.011  23.128  1.00  0.00     0.043 A 
ATOM     17  C   UNL A   1      28.697  30.554  22.019  1.00  0.00     0.003 A 
ATOM     18  C   UNL A   1      27.655  28.729  23.161  1.00  0.00     0.123 A 
ATOM     19  C   UNL A   1      27.564  29.991  22.594  1.00  0.00     0.039 A 
ATOM     20  F   UNL A   1      26.575  28.185  23.739  1.00  0.00    -0.207 F 
ENDBRANCH  13  14
ENDBRANCH   8  13
ENDBRANCH   5   8
ENDBRANCH   3   4
ENDBRANCH   2   3
ENDBRANCH   1   2
BRANCH   1  21
ATOM     21  C   UNL A   1      32.673  32.355  26.888  1.00  0.00     0.116 C 
BRANCH  21  22
ATOM     22  N   UNL A   1      32.612  33.667  27.518  1.00  0.00    -0.352 N 
ATOM     23  C   UNL A   1      33.481  34.219  28.434  1.00  0.00     0.251 C 
ATOM     24  H   UNL A   1      31.851  34.233  27.255  1.00  0.00     0.163 HD
ATOM     25  O   UNL A   1      33.277  35.333  28.886  1.00  0.00    -0.269 OA
BRANCH  23  26
ATOM     26  C   UNL A   1      34.636  33.418  28.896  1.00  0.00     0.039 A 
ATOM     27  C   UNL A   1      35.920  33.829  28.536  1.00  0.00     0.014 A 
ATOM     28  C   UNL A   1      34.453  32.308  29.725  1.00  0.00     0.014 A 
ATOM     29  C   UNL A   1      37.028  33.162  29.061  1.00  0.00     0.010 A 
ATOM     30  C   UNL A   1      35.557  31.699  30.312  1.00  0.00     0.010 A 
ATOM     31  C   UNL A   1      36.856  32.112  29.979  1.00  0.00    -0.014 A 
BRANCH  31  32
ATOM     32  C   UNL A   1      38.022  31.421  30.584  1.00  0.00     0.031 A 
ATOM     33  C   UNL A   1      38.443  31.753  31.989  1.00  0.00     0.074 A 
ATOM     34  C   UNL A   1      38.742  30.549  29.850  1.00  0.00     0.049 A 
ATOM     35  N   UNL A   1      39.445  31.277  32.681  1.00  0.00    -0.248 NA
ATOM     36  C   UNL A   1      37.655  32.772  32.704  1.00  0.00     0.031 C 
ATOM     37  C   UNL A   1      38.488  30.212  28.448  1.00  0.00     0.029 A 
ATOM     38  N   UNL A   1      39.846  29.801  30.175  1.00  0.00    -0.354 N 
ATOM     39  C   UNL A   1      39.429  31.960  33.890  1.00  0.00     0.074 A 
ATOM     40  C   UNL A   1      38.346  32.914  33.826  1.00  0.00     0.031 C 
ATOM     41  C   UNL A   1      39.399  29.313  28.040  1.00  0.00     0.029 A 
ATOM     42  C   UNL A   1      40.314  29.023  29.140  1.00  0.00     0.049 A 
ATOM     43  H   UNL A   1      40.265  29.818  31.067  1.00  0.00     0.167 HD
ATOM     44  C   UNL A   1      40.216  31.777  34.975  1.00  0.00     0.034 A 
ATOM     45  C   UNL A   1      41.356  28.170  29.088  1.00  0.00     0.034 A 
ATOM     46  C   UNL A   1      41.237  30.772  35.065  1.00  0.00     0.049 A 
ATOM     47  C   UNL A   1      42.180  27.944  30.328  1.00  0.00     0.074 A 
ATOM     48  C   UNL A   1      42.004  30.428  36.163  1.00  0.00     0.029 A 
ATOM     49  N   UNL A   1      41.630  29.949  34.022  1.00  0.00    -0.354 N 
ATOM     50  N   UNL A   1      42.035  28.471  31.520  1.00  0.00    -0.248 NA
ATOM     51  C   UNL A   1      43.292  26.986  30.230  1.00  0.00     0.031 C 
ATOM     52  C   UNL A   1      42.873  29.404  35.780  1.00  0.00     0.029 A 
ATOM     53  C   UNL A   1      42.638  29.104  34.446  1.00  0.00     0.049 A 
ATOM     54  H   UNL A   1      41.248  29.964  33.115  1.00  0.00     0.167 HD
ATOM     55  C   UNL A   1      43.018  27.895  32.316  1.00  0.00     0.074 A 
ATOM     56  C   UNL A   1      43.739  26.958  31.479  1.00  0.00     0.031 C 
ATOM     57  C   UNL A   1      43.310  28.137  33.618  1.00  0.00     0.034 A 
BRANCH  44  58
ATOM     58  C   UNL A   1      39.947  32.619  36.193  1.00  0.00     0.023 A 
ATOM     59  C   UNL A   1      40.591  33.867  36.321  1.00  0.00     0.012 A 
ATOM     60  C   UNL A   1      38.995  32.228  37.154  1.00  0.00     0.148 A 
ATOM     61  C   UNL A   1      40.310  34.703  37.399  1.00  0.00     0.002 A 
ATOM     62  C   UNL A   1      38.691  33.085  38.204  1.00  0.00     0.091 A 
ATOM     63  F   UNL A   1      38.408  31.030  37.021  1.00  0.00    -0.205 F 
ATOM     64  C   UNL A   1      39.352  34.318  38.332  1.00  0.00     0.022 A 
BRANCH  62  65
ATOM     65  S   UNL A   1      37.419  32.723  39.420  1.00  0.00     0.127 S 
ATOM     66  O   UNL A   1      37.557  33.853  40.337  1.00  0.00    -0.237 OA
ATOM     67  O   UNL A   1      36.203  32.743  38.606  1.00  0.00    -0.237 OA
ATOM     68  O   UNL A   1      37.757  31.422  39.983  1.00  0.00    -0.744 OA
ENDBRANCH  62  65
ENDBRANCH  44  58
BRANCH  45  69
ATOM     69  C   UNL A   1      41.619  27.398  27.839  1.00  0.00     0.023 A 
ATOM     70  C   UNL A   1      42.153  28.067  26.719  1.00  0.00     0.012 A 
ATOM     71  C   UNL A   1      41.394  26.011  27.766  1.00  0.00     0.148 A 
ATOM     72  C   UNL A   1      42.438  27.371  25.543  1.00  0.00     0.002 A 
ATOM     73  C   UNL A   1      41.730  25.314  26.610  1.00  0.00     0.091 A 
ATOM     74  F   UNL A   1      40.870  25.395  28.836  1.00  0.00    -0.205 F 
ATOM     75  C   UNL A   1      42.239  25.995  25.493  1.00  0.00     0.022 A 
BRANCH  73  76
ATOM     76  S   UNL A   1      41.632  23.522  26.502  1.00  0.00     0.127 S 
ATOM     77  O   UNL A   1      42.349  23.257  25.258  1.00  0.00    -0.237 OA
ATOM     78  O   UNL A   1      42.333  23.107  27.718  1.00  0.00    -0.237 OA
ATOM     79  O   UNL A   1      40.211  23.209  26.496  1.00  0.00    -0.744 OA
ENDBRANCH  73  76
ENDBRANCH  45  69
BRANCH  57  80
ATOM     80  C   UNL A   1      44.457  27.390  34.243  1.00  0.00     0.023 A 
ATOM     81  C   UNL A   1      45.739  27.970  34.233  1.00  0.00     0.012 A 
ATOM     82  C   UNL A   1      44.235  26.204  34.972  1.00  0.00     0.148 A 
ATOM     83  C   UNL A   1      46.789  27.378  34.934  1.00  0.00     0.002 A 
ATOM     84  C   UNL A   1      45.274  25.644  35.705  1.00  0.00     0.091 A 
ATOM     85  F   UNL A   1      43.006  25.667  34.958  1.00  0.00    -0.205 F 
ATOM     86  C   UNL A   1      46.553  26.226  35.682  1.00  0.00     0.022 A 
BRANCH  84  87
ATOM     87  S   UNL A   1      45.046  24.222  36.780  1.00  0.00     0.127 S 
ATOM     88  O   UNL A   1      46.414  23.963  37.224  1.00  0.00    -0.237 OA
ATOM     89  O   UNL A   1      44.160  24.757  37.815  1.00  0.00    -0.237 OA
ATOM     90  O   UNL A   1      44.454  23.180  35.952  1.00  0.00    -0.744 OA
ENDBRANCH  84  87
ENDBRANCH  57  80
ENDBRANCH  31  32
ENDBRANCH  23  26
ENDBRANCH  21  22
ENDBRANCH   1  21
TORSDOF 18
ENDMDL
MODEL 3
REMARK VINA RESULT:     -11.2      2.698      8.605
REMARK SMILES C/C=C/C[C@H](Cc1cccc(F)c1)C(=O)NCCCCNC(=O)c1ccc(-c2c3nc(c(-c4cccc(S(=O)(=O)[O-])c4F)c4ccc([nH]4)c(-c4cccc(S(=O)(=O)[O-])c4F)c4nc(c(-c5cccc(S(=O)(=O)[O-])c5F)c5ccc2[nH]5)C=C4)C=C3)cc1
REMARK SMILES IDX 19 1 18 2 17 3 16 4 14 5 15 6 5 8 4 9 3 10 1 11 2 12 6 13
REMARK SMILES IDX 7 14 8 15 13 16 9 17 11 18 10 19 12 20 20 21 21 22 22 23
REMARK SMILES IDX 23 25 24 26 25 27 86 28 26 29 85 30 27 31 28 32 29 33 79 34
REMARK SMILES IDX 30 35 84 36 78 37 80 38 31 39 83 40 77 41 76 42 32 44 64 45
REMARK SMILES IDX 44 46 63 47 45 48 48 49 62 50 81 51 46 52 47 53 61 55 82 56
REMARK SMILES IDX 49 57 33 58 34 59 42 60 35 61 37 62 43 63 36 64 38 65 39 66
REMARK SMILES IDX 40 67 41 68 65 69 66 70 74 71 67 72 69 73 75 74 68 75 70 76
REMARK SMILES IDX 71 77 72 78 73 79 50 80 51 81 59 82 52 83 54 84 60 85 53 86
REMARK SMILES IDX 55 87 56 88 57 89 58 90
REMARK H PARENT 16 7 21 24 80 43 48 54
REMARK Flexibility Score: inf
ROOT
ATOM      1  C   UNL A   1      35.610  21.687  26.092  1.00  0.00     0.023 C 
ENDROOT
BRANCH   1   2
ATOM      2  C   UNL A   1      34.925  23.014  26.407  1.00  0.00     0.023 C 
BRANCH   2   3
ATOM      3  C   UNL A   1      33.628  23.275  25.654  1.00  0.00     0.116 C 
BRANCH   3   4
ATOM      4  N   UNL A   1      32.456  23.356  26.495  1.00  0.00    -0.356 N 
ATOM      5  C   UNL A   1      31.402  24.211  26.454  1.00  0.00     0.223 C 
ATOM      6  O   UNL A   1      30.420  23.924  27.149  1.00  0.00    -0.275 OA
ATOM      7  H   UNL A   1      32.415  22.683  27.212  1.00  0.00     0.163 HD
BRANCH   5   8
ATOM      8  C   UNL A   1      31.373  25.489  25.617  1.00  0.00     0.086 C 
BRANCH   8   9
ATOM      9  C   UNL A   1      30.915  26.692  26.483  1.00  0.00     0.040 C 
BRANCH   9  10
ATOM     10  C   UNL A   1      31.993  27.657  26.905  1.00  0.00    -0.031 C 
ATOM     11  C   UNL A   1      34.292  28.653  26.720  1.00  0.00     0.035 C 
ATOM     12  C   UNL A   1      33.145  27.825  26.233  1.00  0.00    -0.035 C 
ENDBRANCH   9  10
ENDBRANCH   8   9
BRANCH   8  13
ATOM     13  C   UNL A   1      30.725  25.443  24.219  1.00  0.00     0.049 C 
BRANCH  13  14
ATOM     14  C   UNL A   1      29.973  26.635  23.654  1.00  0.00    -0.044 A 
ATOM     15  C   UNL A   1      28.592  26.848  23.768  1.00  0.00     0.004 A 
ATOM     16  C   UNL A   1      30.731  27.627  23.005  1.00  0.00     0.043 A 
ATOM     17  C   UNL A   1      28.001  28.038  23.320  1.00  0.00     0.003 A 
ATOM     18  C   UNL A   1      30.131  28.793  22.536  1.00  0.00     0.123 A 
ATOM     19  C   UNL A   1      28.773  29.016  22.704  1.00  0.00     0.039 A 
ATOM     20  F   UNL A   1      30.882  29.719  21.923  1.00  0.00    -0.207 F 
ENDBRANCH  13  14
ENDBRANCH   8  13
ENDBRANCH   5   8
ENDBRANCH   3   4
ENDBRANCH   2   3
ENDBRANCH   1   2
BRANCH   1  21
ATOM     21  C   UNL A   1      36.822  21.767  25.171  1.00  0.00     0.116 C 
BRANCH  21  22
ATOM     22  N   UNL A   1      37.791  20.697  25.362  1.00  0.00    -0.352 N 
ATOM     23  C   UNL A   1      39.039  20.764  25.942  1.00  0.00     0.251 C 
ATOM     24  H   UNL A   1      37.519  19.810  25.033  1.00  0.00     0.163 HD
ATOM     25  O   UNL A   1      39.744  19.772  26.007  1.00  0.00    -0.269 OA
BRANCH  23  26
ATOM     26  C   UNL A   1      39.526  22.070  26.438  1.00  0.00     0.039 A 
ATOM     27  C   UNL A   1      40.581  22.086  27.353  1.00  0.00     0.014 A 
ATOM     28  C   UNL A   1      38.987  23.266  25.957  1.00  0.00     0.014 A 
ATOM     29  C   UNL A   1      41.139  23.305  27.738  1.00  0.00     0.010 A 
ATOM     30  C   UNL A   1      39.599  24.474  26.278  1.00  0.00     0.010 A 
ATOM     31  C   UNL A   1      40.673  24.508  27.179  1.00  0.00    -0.014 A 
BRANCH  31  32
ATOM     32  C   UNL A   1      41.284  25.811  27.542  1.00  0.00     0.031 A 
ATOM     33  C   UNL A   1      42.702  26.112  27.139  1.00  0.00     0.074 A 
ATOM     34  C   UNL A   1      40.592  26.693  28.290  1.00  0.00     0.049 A 
ATOM     35  N   UNL A   1      43.417  27.179  27.382  1.00  0.00    -0.248 NA
ATOM     36  C   UNL A   1      43.424  25.068  26.389  1.00  0.00     0.031 C 
ATOM     37  C   UNL A   1      39.243  26.480  28.819  1.00  0.00     0.029 A 
ATOM     38  N   UNL A   1      40.934  27.940  28.752  1.00  0.00    -0.354 N 
ATOM     39  C   UNL A   1      44.674  26.922  26.850  1.00  0.00     0.074 A 
ATOM     40  C   UNL A   1      44.642  25.583  26.307  1.00  0.00     0.031 C 
ATOM     41  C   UNL A   1      38.868  27.564  29.518  1.00  0.00     0.029 A 
ATOM     42  C   UNL A   1      39.952  28.541  29.506  1.00  0.00     0.049 A 
ATOM     43  H   UNL A   1      41.803  28.365  28.561  1.00  0.00     0.167 HD
ATOM     44  C   UNL A   1      45.745  27.744  26.777  1.00  0.00     0.034 A 
ATOM     45  C   UNL A   1      39.927  29.746  30.112  1.00  0.00     0.034 A 
ATOM     46  C   UNL A   1      45.747  29.102  27.243  1.00  0.00     0.049 A 
ATOM     47  C   UNL A   1      41.113  30.663  29.966  1.00  0.00     0.074 A 
ATOM     48  C   UNL A   1      46.742  30.053  27.105  1.00  0.00     0.029 A 
ATOM     49  N   UNL A   1      44.706  29.703  27.932  1.00  0.00    -0.354 N 
ATOM     50  N   UNL A   1      42.227  30.469  29.303  1.00  0.00    -0.248 NA
ATOM     51  C   UNL A   1      41.030  31.976  30.623  1.00  0.00     0.031 C 
ATOM     52  C   UNL A   1      46.307  31.227  27.724  1.00  0.00     0.029 A 
ATOM     53  C   UNL A   1      45.037  31.010  28.237  1.00  0.00     0.049 A 
ATOM     54  H   UNL A   1      43.857  29.264  28.168  1.00  0.00     0.167 HD
ATOM     55  C   UNL A   1      42.965  31.638  29.444  1.00  0.00     0.074 A 
ATOM     56  C   UNL A   1      42.163  32.547  30.235  1.00  0.00     0.031 C 
ATOM     57  C   UNL A   1      44.206  31.923  28.977  1.00  0.00     0.034 A 
BRANCH  44  58
ATOM     58  C   UNL A   1      46.982  27.235  26.087  1.00  0.00     0.023 A 
ATOM     59  C   UNL A   1      47.160  27.503  24.714  1.00  0.00     0.012 A 
ATOM     60  C   UNL A   1      48.002  26.583  26.806  1.00  0.00     0.148 A 
ATOM     61  C   UNL A   1      48.327  27.110  24.061  1.00  0.00     0.002 A 
ATOM     62  C   UNL A   1      49.178  26.231  26.157  1.00  0.00     0.091 A 
ATOM     63  F   UNL A   1      47.802  26.324  28.105  1.00  0.00    -0.205 F 
ATOM     64  C   UNL A   1      49.339  26.486  24.784  1.00  0.00     0.022 A 
BRANCH  62  65
ATOM     65  S   UNL A   1      50.576  25.491  27.008  1.00  0.00     0.127 S 
ATOM     66  O   UNL A   1      51.490  25.226  25.898  1.00  0.00    -0.237 OA
ATOM     67  O   UNL A   1      50.998  26.572  27.900  1.00  0.00    -0.237 OA
ATOM     68  O   UNL A   1      50.059  24.308  27.682  1.00  0.00    -0.744 OA
ENDBRANCH  62  65
ENDBRANCH  44  58
BRANCH  45  69
ATOM     69  C   UNL A   1      38.698  30.185  30.833  1.00  0.00     0.023 A 
ATOM     70  C   UNL A   1      38.577  29.913  32.210  1.00  0.00     0.012 A 
ATOM     71  C   UNL A   1      37.679  30.908  30.185  1.00  0.00     0.148 A 
ATOM     72  C   UNL A   1      37.454  30.335  32.924  1.00  0.00     0.002 A 
ATOM     73  C   UNL A   1      36.588  31.372  30.913  1.00  0.00     0.091 A 
ATOM     74  F   UNL A   1      37.804  31.144  28.871  1.00  0.00    -0.205 F 
ATOM     75  C   UNL A   1      36.467  31.074  32.279  1.00  0.00     0.022 A 
BRANCH  73  76
ATOM     76  S   UNL A   1      35.336  32.444  30.194  1.00  0.00     0.127 S 
ATOM     77  O   UNL A   1      36.123  33.618  29.825  1.00  0.00    -0.237 OA
ATOM     78  O   UNL A   1      34.861  31.641  29.067  1.00  0.00    -0.237 OA
ATOM     79  O   UNL A   1      34.347  32.646  31.243  1.00  0.00    -0.744 OA
ENDBRANCH  73  76
ENDBRANCH  45  69
BRANCH  57  80
ATOM     80  C   UNL A   1      44.798  33.269  29.299  1.00  0.00     0.023 A 
ATOM     81  C   UNL A   1      45.568  33.418  30.467  1.00  0.00     0.012 A 
ATOM     82  C   UNL A   1      44.726  34.328  28.373  1.00  0.00     0.148 A 
ATOM     83  C   UNL A   1      46.254  34.605  30.716  1.00  0.00     0.002 A 
ATOM     84  C   UNL A   1      45.448  35.492  28.604  1.00  0.00     0.091 A 
ATOM     85  F   UNL A   1      43.979  34.164  27.272  1.00  0.00    -0.205 F 
ATOM     86  C   UNL A   1      46.208  35.634  29.778  1.00  0.00     0.022 A 
BRANCH  84  87
ATOM     87  S   UNL A   1      45.537  36.833  27.411  1.00  0.00     0.127 S 
ATOM     88  O   UNL A   1      44.139  37.256  27.334  1.00  0.00    -0.237 OA
ATOM     89  O   UNL A   1      46.426  37.783  28.079  1.00  0.00    -0.237 OA
ATOM     90  O   UNL A   1      46.076  36.252  26.189  1.00  0.00    -0.744 OA
ENDBRANCH  84  87
ENDBRANCH  57  80
ENDBRANCH  31  32
ENDBRANCH  23  26
ENDBRANCH  21  22
ENDBRANCH   1  21
TORSDOF 18
ENDMDL
