MODEL 1
REMARK VINA RESULT:     -11.2      0.000      0.000
REMARK SMILES C[C@@H](C(=O)NCCCCNC(=O)c1ccc(-c2c3nc(c(-c4cccc(S(=O)(=O)[O-])c4F)c4ccc([nH]4)c(-c4cccc(S(=O)(=O)[O-])c4F)c4nc(c(-c5cccc(S(=O)(=O)[O-])c5F)c5ccc2[nH]5)C=C4)C=C3)cc1)[C@@H](C)c1ccc(OC(F)(F)F)cc1
REMARK SMILES IDX 7 1 6 2 5 3 3 4 4 5 2 7 1 8 76 9 77 10 78 11 79 12 88 13
REMARK SMILES IDX 80 14 87 15 81 16 82 17 83 18 84 19 85 20 86 21 8 22 9 23
REMARK SMILES IDX 10 24 11 25 12 27 13 28 14 29 75 30 15 31 74 32 16 33 17 34
REMARK SMILES IDX 18 35 68 36 19 37 73 38 67 39 69 40 20 41 72 42 66 43 65 44
REMARK SMILES IDX 21 46 53 47 33 48 52 49 34 50 37 51 51 52 70 53 35 54 36 55
REMARK SMILES IDX 50 57 71 58 38 59 22 60 23 61 31 62 24 63 26 64 32 65 25 66
REMARK SMILES IDX 27 67 28 68 29 69 30 70 54 71 55 72 63 73 56 74 58 75 64 76
REMARK SMILES IDX 57 77 59 78 60 79 61 80 62 81 39 82 40 83 48 84 41 85 43 86
REMARK SMILES IDX 49 87 42 88 44 89 45 90 46 91 47 92
REMARK H PARENT 5 6 10 26 69 45 37 56
REMARK Flexibility Score: inf
ROOT
ATOM      1  C   UNL A   1      35.681  22.597  23.741  1.00  0.00     0.023 C 
ENDROOT
BRANCH   1   2
ATOM      2  C   UNL A   1      34.748  23.328  22.775  1.00  0.00     0.116 C 
BRANCH   2   3
ATOM      3  N   UNL A   1      34.224  24.529  23.402  1.00  0.00    -0.356 N 
ATOM      4  C   UNL A   1      32.930  24.858  23.691  1.00  0.00     0.223 C 
ATOM      5  O   UNL A   1      32.668  26.027  23.965  1.00  0.00    -0.275 OA
ATOM      6  H   UNL A   1      34.897  25.202  23.655  1.00  0.00     0.163 HD
BRANCH   4   7
ATOM      7  C   UNL A   1      31.873  23.755  23.685  1.00  0.00     0.082 C 
ATOM      8  C   UNL A   1      30.513  24.462  23.560  1.00  0.00     0.018 C 
BRANCH   7   9
ATOM      9  C   UNL A   1      31.977  22.835  24.951  1.00  0.00     0.028 C 
ATOM     10  C   UNL A   1      30.678  22.951  25.782  1.00  0.00     0.013 C 
BRANCH   9  11
ATOM     11  C   UNL A   1      32.324  21.350  24.696  1.00  0.00    -0.044 A 
ATOM     12  C   UNL A   1      32.164  20.797  23.413  1.00  0.00     0.008 A 
ATOM     13  C   UNL A   1      32.708  20.458  25.709  1.00  0.00     0.008 A 
ATOM     14  C   UNL A   1      32.393  19.438  23.161  1.00  0.00     0.047 A 
ATOM     15  C   UNL A   1      32.898  19.087  25.469  1.00  0.00     0.047 A 
ATOM     16  C   UNL A   1      32.745  18.569  24.190  1.00  0.00     0.129 A 
BRANCH  16  17
ATOM     17  O   UNL A   1      32.902  17.267  23.814  1.00  0.00    -0.406 OA
BRANCH  17  18
ATOM     18  C   UNL A   1      34.220  16.745  23.790  1.00  0.00     0.573 C 
ATOM     19  F   UNL A   1      35.138  17.732  23.877  1.00  0.00    -0.132 F 
ATOM     20  F   UNL A   1      34.413  15.853  24.784  1.00  0.00    -0.132 F 
ATOM     21  F   UNL A   1      34.406  16.108  22.612  1.00  0.00    -0.132 F 
ENDBRANCH  17  18
ENDBRANCH  16  17
ENDBRANCH   9  11
ENDBRANCH   7   9
ENDBRANCH   4   7
ENDBRANCH   2   3
ENDBRANCH   1   2
BRANCH   1  22
ATOM     22  C   UNL A   1      35.952  23.356  25.043  1.00  0.00     0.023 C 
BRANCH  22  23
ATOM     23  C   UNL A   1      36.145  22.476  26.273  1.00  0.00     0.116 C 
BRANCH  23  24
ATOM     24  N   UNL A   1      37.173  21.466  26.076  1.00  0.00    -0.352 N 
ATOM     25  C   UNL A   1      38.536  21.600  26.089  1.00  0.00     0.251 C 
ATOM     26  H   UNL A   1      36.840  20.555  25.910  1.00  0.00     0.163 HD
ATOM     27  O   UNL A   1      39.238  20.652  25.730  1.00  0.00    -0.269 OA
BRANCH  25  28
ATOM     28  C   UNL A   1      39.163  22.872  26.505  1.00  0.00     0.039 A 
ATOM     29  C   UNL A   1      40.058  22.853  27.578  1.00  0.00     0.014 A 
ATOM     30  C   UNL A   1      38.868  24.078  25.861  1.00  0.00     0.014 A 
ATOM     31  C   UNL A   1      40.689  24.034  27.972  1.00  0.00     0.010 A 
ATOM     32  C   UNL A   1      39.557  25.239  26.206  1.00  0.00     0.010 A 
ATOM     33  C   UNL A   1      40.469  25.232  27.270  1.00  0.00    -0.014 A 
BRANCH  33  34
ATOM     34  C   UNL A   1      41.218  26.463  27.636  1.00  0.00     0.031 A 
ATOM     35  C   UNL A   1      42.646  26.662  27.203  1.00  0.00     0.074 A 
ATOM     36  C   UNL A   1      40.613  27.394  28.399  1.00  0.00     0.049 A 
ATOM     37  N   UNL A   1      43.426  27.695  27.393  1.00  0.00    -0.248 NA
ATOM     38  C   UNL A   1      43.292  25.552  26.482  1.00  0.00     0.031 C 
ATOM     39  C   UNL A   1      39.269  27.273  28.970  1.00  0.00     0.029 A 
ATOM     40  N   UNL A   1      41.048  28.619  28.837  1.00  0.00    -0.354 N 
ATOM     41  C   UNL A   1      44.652  27.360  26.831  1.00  0.00     0.074 A 
ATOM     42  C   UNL A   1      44.529  26.007  26.334  1.00  0.00     0.031 C 
ATOM     43  C   UNL A   1      38.986  28.383  29.669  1.00  0.00     0.029 A 
ATOM     44  C   UNL A   1      40.132  29.284  29.616  1.00  0.00     0.049 A 
ATOM     45  H   UNL A   1      41.935  28.986  28.615  1.00  0.00     0.167 HD
ATOM     46  C   UNL A   1      45.766  28.121  26.704  1.00  0.00     0.034 A 
ATOM     47  C   UNL A   1      40.203  30.487  30.218  1.00  0.00     0.034 A 
ATOM     48  C   UNL A   1      45.878  29.474  27.180  1.00  0.00     0.049 A 
ATOM     49  C   UNL A   1      41.431  31.331  30.017  1.00  0.00     0.074 A 
ATOM     50  C   UNL A   1      46.941  30.351  27.041  1.00  0.00     0.029 A 
ATOM     51  N   UNL A   1      44.897  30.149  27.890  1.00  0.00    -0.354 N 
ATOM     52  N   UNL A   1      42.518  31.058  29.336  1.00  0.00    -0.248 NA
ATOM     53  C   UNL A   1      41.424  32.668  30.628  1.00  0.00     0.031 C 
ATOM     54  C   UNL A   1      46.610  31.547  27.687  1.00  0.00     0.029 A 
ATOM     55  C   UNL A   1      45.329  31.429  28.200  1.00  0.00     0.049 A 
ATOM     56  H   UNL A   1      44.021  29.774  28.137  1.00  0.00     0.167 HD
ATOM     57  C   UNL A   1      43.312  32.196  29.417  1.00  0.00     0.074 A 
ATOM     58  C   UNL A   1      42.563  33.175  30.176  1.00  0.00     0.031 C 
ATOM     59  C   UNL A   1      44.559  32.406  28.926  1.00  0.00     0.034 A 
BRANCH  46  60
ATOM     60  C   UNL A   1      46.937  27.528  25.962  1.00  0.00     0.023 A 
ATOM     61  C   UNL A   1      47.763  26.589  26.615  1.00  0.00     0.012 A 
ATOM     62  C   UNL A   1      47.183  27.838  24.610  1.00  0.00     0.148 A 
ATOM     63  C   UNL A   1      48.830  25.991  25.946  1.00  0.00     0.002 A 
ATOM     64  C   UNL A   1      48.220  27.204  23.935  1.00  0.00     0.091 A 
ATOM     65  F   UNL A   1      46.399  28.745  24.010  1.00  0.00    -0.205 F 
ATOM     66  C   UNL A   1      49.052  26.290  24.605  1.00  0.00     0.022 A 
BRANCH  64  67
ATOM     67  S   UNL A   1      48.545  27.456  22.187  1.00  0.00     0.127 S 
ATOM     68  O   UNL A   1      49.804  28.199  22.226  1.00  0.00    -0.237 OA
ATOM     69  O   UNL A   1      48.662  26.083  21.696  1.00  0.00    -0.237 OA
ATOM     70  O   UNL A   1      47.403  28.195  21.667  1.00  0.00    -0.744 OA
ENDBRANCH  64  67
ENDBRANCH  46  60
BRANCH  47  71
ATOM     71  C   UNL A   1      39.052  30.988  31.022  1.00  0.00     0.023 A 
ATOM     72  C   UNL A   1      39.029  30.786  32.416  1.00  0.00     0.012 A 
ATOM     73  C   UNL A   1      37.988  31.678  30.411  1.00  0.00     0.148 A 
ATOM     74  C   UNL A   1      37.947  31.226  33.180  1.00  0.00     0.002 A 
ATOM     75  C   UNL A   1      36.944  32.169  31.186  1.00  0.00     0.091 A 
ATOM     76  F   UNL A   1      38.020  31.850  29.082  1.00  0.00    -0.205 F 
ATOM     77  C   UNL A   1      36.911  31.926  32.568  1.00  0.00     0.022 A 
BRANCH  75  78
ATOM     78  S   UNL A   1      35.646  33.202  30.500  1.00  0.00     0.127 S 
ATOM     79  O   UNL A   1      34.809  32.218  29.818  1.00  0.00    -0.237 OA
ATOM     80  O   UNL A   1      35.054  33.787  31.704  1.00  0.00    -0.237 OA
ATOM     81  O   UNL A   1      36.325  34.163  29.642  1.00  0.00    -0.744 OA
ENDBRANCH  75  78
ENDBRANCH  47  71
BRANCH  59  82
ATOM     82  C   UNL A   1      45.181  33.755  29.179  1.00  0.00     0.023 A 
ATOM     83  C   UNL A   1      45.910  33.978  30.366  1.00  0.00     0.012 A 
ATOM     84  C   UNL A   1      45.072  34.791  28.232  1.00  0.00     0.148 A 
ATOM     85  C   UNL A   1      46.472  35.226  30.630  1.00  0.00     0.002 A 
ATOM     86  C   UNL A   1      45.680  36.017  28.478  1.00  0.00     0.091 A 
ATOM     87  F   UNL A   1      44.361  34.570  27.117  1.00  0.00    -0.205 F 
ATOM     88  C   UNL A   1      46.365  36.242  29.682  1.00  0.00     0.022 A 
BRANCH  86  89
ATOM     89  S   UNL A   1      45.675  37.350  27.274  1.00  0.00     0.127 S 
ATOM     90  O   UNL A   1      44.243  37.560  27.067  1.00  0.00    -0.237 OA
ATOM     91  O   UNL A   1      46.351  38.427  27.998  1.00  0.00    -0.237 OA
ATOM     92  O   UNL A   1      46.409  36.848  26.120  1.00  0.00    -0.744 OA
ENDBRANCH  86  89
ENDBRANCH  59  82
ENDBRANCH  33  34
ENDBRANCH  25  28
ENDBRANCH  23  24
ENDBRANCH  22  23
ENDBRANCH   1  22
TORSDOF 18
ENDMDL
MODEL 2
REMARK VINA RESULT:     -11.2      3.558      4.877
REMARK SMILES C[C@@H](C(=O)NCCCCNC(=O)c1ccc(-c2c3nc(c(-c4cccc(S(=O)(=O)[O-])c4F)c4ccc([nH]4)c(-c4cccc(S(=O)(=O)[O-])c4F)c4nc(c(-c5cccc(S(=O)(=O)[O-])c5F)c5ccc2[nH]5)C=C4)C=C3)cc1)[C@@H](C)c1ccc(OC(F)(F)F)cc1
REMARK SMILES IDX 7 1 6 2 5 3 3 4 4 5 2 7 1 8 76 9 77 10 78 11 79 12 88 13
REMARK SMILES IDX 80 14 87 15 81 16 82 17 83 18 84 19 85 20 86 21 8 22 9 23
REMARK SMILES IDX 10 24 11 25 12 27 13 28 14 29 75 30 15 31 74 32 16 33 17 34
REMARK SMILES IDX 18 35 68 36 19 37 73 38 67 39 69 40 20 41 72 42 66 43 65 44
REMARK SMILES IDX 21 46 53 47 33 48 52 49 34 50 37 51 51 52 70 53 35 54 36 55
REMARK SMILES IDX 50 57 71 58 38 59 22 60 23 61 31 62 24 63 26 64 32 65 25 66
REMARK SMILES IDX 27 67 28 68 29 69 30 70 54 71 55 72 63 73 56 74 58 75 64 76
REMARK SMILES IDX 57 77 59 78 60 79 61 80 62 81 39 82 40 83 48 84 41 85 43 86
REMARK SMILES IDX 49 87 42 88 44 89 45 90 46 91 47 92
REMARK H PARENT 5 6 10 26 69 45 37 56
REMARK Flexibility Score: inf
ROOT
ATOM      1  C   UNL A   1      35.409  22.877  23.534  1.00  0.00     0.023 C 
ENDROOT
BRANCH   1   2
ATOM      2  C   UNL A   1      34.162  23.649  23.100  1.00  0.00     0.116 C 
BRANCH   2   3
ATOM      3  N   UNL A   1      33.017  23.231  23.891  1.00  0.00    -0.356 N 
ATOM      4  C   UNL A   1      32.325  23.925  24.842  1.00  0.00     0.223 C 
ATOM      5  O   UNL A   1      31.570  23.305  25.589  1.00  0.00    -0.275 OA
ATOM      6  H   UNL A   1      32.694  22.317  23.717  1.00  0.00     0.163 HD
BRANCH   4   7
ATOM      7  C   UNL A   1      32.501  25.440  24.919  1.00  0.00     0.082 C 
ATOM      8  C   UNL A   1      33.716  25.687  25.829  1.00  0.00     0.018 C 
BRANCH   7   9
ATOM      9  C   UNL A   1      31.199  26.158  25.418  1.00  0.00     0.028 C 
ATOM     10  C   UNL A   1      31.410  26.663  26.865  1.00  0.00     0.013 C 
BRANCH   9  11
ATOM     11  C   UNL A   1      30.654  27.295  24.523  1.00  0.00    -0.044 A 
ATOM     12  C   UNL A   1      31.202  28.586  24.607  1.00  0.00     0.008 A 
ATOM     13  C   UNL A   1      29.546  27.148  23.673  1.00  0.00     0.008 A 
ATOM     14  C   UNL A   1      30.683  29.659  23.870  1.00  0.00     0.047 A 
ATOM     15  C   UNL A   1      28.997  28.230  22.964  1.00  0.00     0.047 A 
ATOM     16  C   UNL A   1      29.566  29.493  23.056  1.00  0.00     0.129 A 
BRANCH  16  17
ATOM     17  O   UNL A   1      29.143  30.625  22.424  1.00  0.00    -0.406 OA
BRANCH  17  18
ATOM     18  C   UNL A   1      28.251  31.475  23.128  1.00  0.00     0.573 C 
ATOM     19  F   UNL A   1      27.531  32.239  22.279  1.00  0.00    -0.132 F 
ATOM     20  F   UNL A   1      27.420  30.765  23.920  1.00  0.00    -0.132 F 
ATOM     21  F   UNL A   1      28.978  32.300  23.914  1.00  0.00    -0.132 F 
ENDBRANCH  17  18
ENDBRANCH  16  17
ENDBRANCH   9  11
ENDBRANCH   7   9
ENDBRANCH   4   7
ENDBRANCH   2   3
ENDBRANCH   1   2
BRANCH   1  22
ATOM     22  C   UNL A   1      35.197  21.987  24.762  1.00  0.00     0.023 C 
BRANCH  22  23
ATOM     23  C   UNL A   1      36.249  22.140  25.855  1.00  0.00     0.116 C 
BRANCH  23  24
ATOM     24  N   UNL A   1      37.289  21.125  25.770  1.00  0.00    -0.352 N 
ATOM     25  C   UNL A   1      38.643  21.253  25.931  1.00  0.00     0.251 C 
ATOM     26  H   UNL A   1      36.972  20.216  25.567  1.00  0.00     0.163 HD
ATOM     27  O   UNL A   1      39.375  20.303  25.649  1.00  0.00    -0.269 OA
BRANCH  25  28
ATOM     28  C   UNL A   1      39.227  22.522  26.415  1.00  0.00     0.039 A 
ATOM     29  C   UNL A   1      40.226  22.466  27.390  1.00  0.00     0.014 A 
ATOM     30  C   UNL A   1      38.789  23.759  25.932  1.00  0.00     0.014 A 
ATOM     31  C   UNL A   1      40.817  23.646  27.842  1.00  0.00     0.010 A 
ATOM     32  C   UNL A   1      39.434  24.930  26.328  1.00  0.00     0.010 A 
ATOM     33  C   UNL A   1      40.450  24.888  27.292  1.00  0.00    -0.014 A 
BRANCH  33  34
ATOM     34  C   UNL A   1      41.152  26.129  27.711  1.00  0.00     0.031 A 
ATOM     35  C   UNL A   1      42.595  26.364  27.354  1.00  0.00     0.074 A 
ATOM     36  C   UNL A   1      40.488  27.038  28.452  1.00  0.00     0.049 A 
ATOM     37  N   UNL A   1      43.342  27.412  27.597  1.00  0.00    -0.248 NA
ATOM     38  C   UNL A   1      43.302  25.278  26.655  1.00  0.00     0.031 C 
ATOM     39  C   UNL A   1      39.119  26.881  28.952  1.00  0.00     0.029 A 
ATOM     40  N   UNL A   1      40.873  28.266  28.926  1.00  0.00    -0.354 N 
ATOM     41  C   UNL A   1      44.602  27.110  27.095  1.00  0.00     0.074 A 
ATOM     42  C   UNL A   1      44.535  25.760  26.577  1.00  0.00     0.031 C 
ATOM     43  C   UNL A   1      38.776  27.976  29.648  1.00  0.00     0.029 A 
ATOM     44  C   UNL A   1      39.903  28.902  29.664  1.00  0.00     0.049 A 
ATOM     45  H   UNL A   1      41.762  28.655  28.754  1.00  0.00     0.167 HD
ATOM     46  C   UNL A   1      45.704  27.895  27.035  1.00  0.00     0.034 A 
ATOM     47  C   UNL A   1      39.917  30.098  30.283  1.00  0.00     0.034 A 
ATOM     48  C   UNL A   1      45.762  29.245  27.531  1.00  0.00     0.049 A 
ATOM     49  C   UNL A   1      41.135  30.971  30.155  1.00  0.00     0.074 A 
ATOM     50  C   UNL A   1      46.811  30.145  27.457  1.00  0.00     0.029 A 
ATOM     51  N   UNL A   1      44.731  29.889  28.197  1.00  0.00    -0.354 N 
ATOM     52  N   UNL A   1      42.262  30.729  29.528  1.00  0.00    -0.248 NA
ATOM     53  C   UNL A   1      41.067  32.299  30.780  1.00  0.00     0.031 C 
ATOM     54  C   UNL A   1      46.421  31.326  28.099  1.00  0.00     0.029 A 
ATOM     55  C   UNL A   1      45.118  31.174  28.544  1.00  0.00     0.049 A 
ATOM     56  H   UNL A   1      43.852  29.492  28.394  1.00  0.00     0.167 HD
ATOM     57  C   UNL A   1      43.025  31.883  29.663  1.00  0.00     0.074 A 
ATOM     58  C   UNL A   1      42.216  32.836  30.394  1.00  0.00     0.031 C 
ATOM     59  C   UNL A   1      44.291  32.125  29.240  1.00  0.00     0.034 A 
BRANCH  46  60
ATOM     60  C   UNL A   1      46.925  27.337  26.348  1.00  0.00     0.023 A 
ATOM     61  C   UNL A   1      47.128  27.606  24.978  1.00  0.00     0.012 A 
ATOM     62  C   UNL A   1      47.902  26.613  27.060  1.00  0.00     0.148 A 
ATOM     63  C   UNL A   1      48.266  27.140  24.321  1.00  0.00     0.002 A 
ATOM     64  C   UNL A   1      49.056  26.191  26.410  1.00  0.00     0.091 A 
ATOM     65  F   UNL A   1      47.684  26.352  28.357  1.00  0.00    -0.205 F 
ATOM     66  C   UNL A   1      49.234  26.443  25.038  1.00  0.00     0.022 A 
BRANCH  64  67
ATOM     67  S   UNL A   1      50.401  25.355  27.255  1.00  0.00     0.127 S 
ATOM     68  O   UNL A   1      51.287  25.020  26.141  1.00  0.00    -0.237 OA
ATOM     69  O   UNL A   1      50.906  26.404  28.141  1.00  0.00    -0.237 OA
ATOM     70  O   UNL A   1      49.803  24.216  27.937  1.00  0.00    -0.744 OA
ENDBRANCH  64  67
ENDBRANCH  46  60
BRANCH  47  71
ATOM     71  C   UNL A   1      38.715  30.564  31.031  1.00  0.00     0.023 A 
ATOM     72  C   UNL A   1      38.635  30.365  32.423  1.00  0.00     0.012 A 
ATOM     73  C   UNL A   1      37.659  31.219  30.370  1.00  0.00     0.148 A 
ATOM     74  C   UNL A   1      37.506  30.772  33.136  1.00  0.00     0.002 A 
ATOM     75  C   UNL A   1      36.566  31.679  31.096  1.00  0.00     0.091 A 
ATOM     76  F   UNL A   1      37.747  31.389  29.043  1.00  0.00    -0.205 F 
ATOM     77  C   UNL A   1      36.478  31.438  32.475  1.00  0.00     0.022 A 
BRANCH  75  78
ATOM     78  S   UNL A   1      35.269  32.669  30.347  1.00  0.00     0.127 S 
ATOM     79  O   UNL A   1      34.809  31.795  29.271  1.00  0.00    -0.237 OA
ATOM     80  O   UNL A   1      34.328  32.828  31.457  1.00  0.00    -0.237 OA
ATOM     81  O   UNL A   1      35.914  33.906  29.929  1.00  0.00    -0.744 OA
ENDBRANCH  75  78
ENDBRANCH  47  71
BRANCH  59  82
ATOM     82  C   UNL A   1      44.869  33.484  29.540  1.00  0.00     0.023 A 
ATOM     83  C   UNL A   1      45.615  33.682  30.721  1.00  0.00     0.012 A 
ATOM     84  C   UNL A   1      44.702  34.556  28.643  1.00  0.00     0.148 A 
ATOM     85  C   UNL A   1      46.138  34.937  31.029  1.00  0.00     0.002 A 
ATOM     86  C   UNL A   1      45.272  35.791  28.930  1.00  0.00     0.091 A 
ATOM     87  F   UNL A   1      43.976  34.358  27.533  1.00  0.00    -0.205 F 
ATOM     88  C   UNL A   1      45.974  35.989  30.130  1.00  0.00     0.022 A 
BRANCH  86  89
ATOM     89  S   UNL A   1      45.192  37.175  27.788  1.00  0.00     0.127 S 
ATOM     90  O   UNL A   1      43.761  37.241  27.497  1.00  0.00    -0.237 OA
ATOM     91  O   UNL A   1      45.702  38.280  28.600  1.00  0.00    -0.237 OA
ATOM     92  O   UNL A   1      46.045  36.812  26.663  1.00  0.00    -0.744 OA
ENDBRANCH  86  89
ENDBRANCH  59  82
ENDBRANCH  33  34
ENDBRANCH  25  28
ENDBRANCH  23  24
ENDBRANCH  22  23
ENDBRANCH   1  22
TORSDOF 18
ENDMDL
MODEL 3
REMARK VINA RESULT:     -11.1      6.034     12.414
REMARK SMILES C[C@@H](C(=O)NCCCCNC(=O)c1ccc(-c2c3nc(c(-c4cccc(S(=O)(=O)[O-])c4F)c4ccc([nH]4)c(-c4cccc(S(=O)(=O)[O-])c4F)c4nc(c(-c5cccc(S(=O)(=O)[O-])c5F)c5ccc2[nH]5)C=C4)C=C3)cc1)[C@@H](C)c1ccc(OC(F)(F)F)cc1
REMARK SMILES IDX 7 1 6 2 5 3 3 4 4 5 2 7 1 8 76 9 77 10 78 11 79 12 88 13
REMARK SMILES IDX 80 14 87 15 81 16 82 17 83 18 84 19 85 20 86 21 8 22 9 23
REMARK SMILES IDX 10 24 11 25 12 27 13 28 14 29 75 30 15 31 74 32 16 33 17 34
REMARK SMILES IDX 18 35 68 36 19 37 73 38 67 39 69 40 20 41 72 42 66 43 65 44
REMARK SMILES IDX 21 46 53 47 33 48 52 49 34 50 37 51 51 52 70 53 35 54 36 55
REMARK SMILES IDX 50 57 71 58 38 59 22 60 23 61 31 62 24 63 26 64 32 65 25 66
REMARK SMILES IDX 27 67 28 68 29 69 30 70 54 71 55 72 63 73 56 74 58 75 64 76
REMARK SMILES IDX 57 77 59 78 60 79 61 80 62 81 39 82 40 83 48 84 41 85 43 86
REMARK SMILES IDX 49 87 42 88 44 89 45 90 46 91 47 92
REMARK H PARENT 5 6 10 26 69 45 37 56
REMARK Flexibility Score: inf
ROOT
ATOM      1  C   UNL A   1      35.807  33.067  30.612  1.00  0.00     0.023 C 
ENDROOT
BRANCH   1   2
ATOM      2  C   UNL A   1      34.857  32.374  31.590  1.00  0.00     0.116 C 
BRANCH   2   3
ATOM      3  N   UNL A   1      34.823  33.098  32.849  1.00  0.00    -0.356 N 
ATOM      4  C   UNL A   1      35.820  33.287  33.763  1.00  0.00     0.223 C 
ATOM      5  O   UNL A   1      35.519  33.687  34.886  1.00  0.00    -0.275 OA
ATOM      6  H   UNL A   1      33.958  33.511  33.075  1.00  0.00     0.163 HD
BRANCH   4   7
ATOM      7  C   UNL A   1      37.263  33.016  33.343  1.00  0.00     0.082 C 
ATOM      8  C   UNL A   1      37.800  31.947  34.309  1.00  0.00     0.018 C 
BRANCH   7   9
ATOM      9  C   UNL A   1      38.126  34.326  33.328  1.00  0.00     0.028 C 
ATOM     10  C   UNL A   1      38.802  34.514  34.706  1.00  0.00     0.013 C 
BRANCH   9  11
ATOM     11  C   UNL A   1      39.168  34.451  32.192  1.00  0.00    -0.044 A 
ATOM     12  C   UNL A   1      38.761  34.379  30.849  1.00  0.00     0.008 A 
ATOM     13  C   UNL A   1      40.551  34.535  32.415  1.00  0.00     0.008 A 
ATOM     14  C   UNL A   1      39.684  34.410  29.795  1.00  0.00     0.047 A 
ATOM     15  C   UNL A   1      41.482  34.524  31.363  1.00  0.00     0.047 A 
ATOM     16  C   UNL A   1      41.052  34.465  30.044  1.00  0.00     0.129 A 
BRANCH  16  17
ATOM     17  O   UNL A   1      41.840  34.452  28.930  1.00  0.00    -0.406 OA
BRANCH  17  18
ATOM     18  C   UNL A   1      42.118  35.695  28.308  1.00  0.00     0.573 C 
ATOM     19  F   UNL A   1      41.395  36.692  28.862  1.00  0.00    -0.132 F 
ATOM     20  F   UNL A   1      43.432  35.994  28.374  1.00  0.00    -0.132 F 
ATOM     21  F   UNL A   1      41.772  35.607  27.003  1.00  0.00    -0.132 F 
ENDBRANCH  17  18
ENDBRANCH  16  17
ENDBRANCH   9  11
ENDBRANCH   7   9
ENDBRANCH   4   7
ENDBRANCH   2   3
ENDBRANCH   1   2
BRANCH   1  22
ATOM     22  C   UNL A   1      35.099  33.827  29.486  1.00  0.00     0.023 C 
BRANCH  22  23
ATOM     23  C   UNL A   1      35.281  33.230  28.095  1.00  0.00     0.116 C 
BRANCH  23  24
ATOM     24  N   UNL A   1      34.324  32.170  27.816  1.00  0.00    -0.352 N 
ATOM     25  C   UNL A   1      34.514  30.814  27.788  1.00  0.00     0.251 C 
ATOM     26  H   UNL A   1      33.408  32.472  27.619  1.00  0.00     0.163 HD
ATOM     27  O   UNL A   1      33.613  30.089  27.362  1.00  0.00    -0.269 OA
BRANCH  25  28
ATOM     28  C   UNL A   1      35.791  30.223  28.240  1.00  0.00     0.039 A 
ATOM     29  C   UNL A   1      36.893  30.286  27.384  1.00  0.00     0.014 A 
ATOM     30  C   UNL A   1      35.907  29.598  29.486  1.00  0.00     0.014 A 
ATOM     31  C   UNL A   1      38.120  29.764  27.798  1.00  0.00     0.010 A 
ATOM     32  C   UNL A   1      37.150  29.148  29.927  1.00  0.00     0.010 A 
ATOM     33  C   UNL A   1      38.269  29.219  29.086  1.00  0.00    -0.014 A 
BRANCH  33  34
ATOM     34  C   UNL A   1      39.601  28.754  29.552  1.00  0.00     0.031 A 
ATOM     35  C   UNL A   1      40.324  29.461  30.667  1.00  0.00     0.074 A 
ATOM     36  C   UNL A   1      40.179  27.704  28.937  1.00  0.00     0.049 A 
ATOM     37  N   UNL A   1      41.467  29.156  31.228  1.00  0.00    -0.248 NA
ATOM     38  C   UNL A   1      39.699  30.678  31.211  1.00  0.00     0.031 C 
ATOM     39  C   UNL A   1      39.629  26.998  27.777  1.00  0.00     0.029 A 
ATOM     40  N   UNL A   1      41.360  27.052  29.190  1.00  0.00    -0.354 N 
ATOM     41  C   UNL A   1      41.705  30.144  32.176  1.00  0.00     0.074 A 
ATOM     42  C   UNL A   1      40.611  31.086  32.083  1.00  0.00     0.031 C 
ATOM     43  C   UNL A   1      40.463  26.005  27.429  1.00  0.00     0.029 A 
ATOM     44  C   UNL A   1      41.614  26.015  28.324  1.00  0.00     0.049 A 
ATOM     45  H   UNL A   1      41.967  27.305  29.924  1.00  0.00     0.167 HD
ATOM     46  C   UNL A   1      42.718  30.239  33.070  1.00  0.00     0.034 A 
ATOM     47  C   UNL A   1      42.657  25.165  28.259  1.00  0.00     0.034 A 
ATOM     48  C   UNL A   1      43.793  29.287  33.176  1.00  0.00     0.049 A 
ATOM     49  C   UNL A   1      43.742  25.261  29.296  1.00  0.00     0.074 A 
ATOM     50  C   UNL A   1      44.831  29.260  34.092  1.00  0.00     0.029 A 
ATOM     51  N   UNL A   1      43.974  28.198  32.337  1.00  0.00    -0.354 N 
ATOM     52  N   UNL A   1      43.859  26.105  30.292  1.00  0.00    -0.248 NA
ATOM     53  C   UNL A   1      44.814  24.258  29.228  1.00  0.00     0.031 C 
ATOM     54  C   UNL A   1      45.652  28.166  33.792  1.00  0.00     0.029 A 
ATOM     55  C   UNL A   1      45.107  27.494  32.709  1.00  0.00     0.049 A 
ATOM     56  H   UNL A   1      43.383  27.961  31.587  1.00  0.00     0.167 HD
ATOM     57  C   UNL A   1      45.003  25.721  30.983  1.00  0.00     0.074 A 
ATOM     58  C   UNL A   1      45.517  24.543  30.315  1.00  0.00     0.031 C 
ATOM     59  C   UNL A   1      45.588  26.302  32.059  1.00  0.00     0.034 A 
BRANCH  46  60
ATOM     60  C   UNL A   1      42.679  31.380  34.055  1.00  0.00     0.023 A 
ATOM     61  C   UNL A   1      43.358  32.578  33.748  1.00  0.00     0.012 A 
ATOM     62  C   UNL A   1      41.921  31.302  35.240  1.00  0.00     0.148 A 
ATOM     63  C   UNL A   1      43.309  33.668  34.616  1.00  0.00     0.002 A 
ATOM     64  C   UNL A   1      41.840  32.408  36.079  1.00  0.00     0.091 A 
ATOM     65  F   UNL A   1      41.297  30.151  35.524  1.00  0.00    -0.205 F 
ATOM     66  C   UNL A   1      42.543  33.586  35.775  1.00  0.00     0.022 A 
BRANCH  64  67
ATOM     67  S   UNL A   1      40.818  32.438  37.555  1.00  0.00     0.127 S 
ATOM     68  O   UNL A   1      39.652  31.668  37.123  1.00  0.00    -0.237 OA
ATOM     69  O   UNL A   1      41.669  31.759  38.532  1.00  0.00    -0.237 OA
ATOM     70  O   UNL A   1      40.563  33.843  37.841  1.00  0.00    -0.744 OA
ENDBRANCH  64  67
ENDBRANCH  46  60
BRANCH  47  71
ATOM     71  C   UNL A   1      42.695  24.112  27.205  1.00  0.00     0.023 A 
ATOM     72  C   UNL A   1      43.403  24.341  26.009  1.00  0.00     0.012 A 
ATOM     73  C   UNL A   1      42.044  22.877  27.391  1.00  0.00     0.148 A 
ATOM     74  C   UNL A   1      43.428  23.376  25.002  1.00  0.00     0.002 A 
ATOM     75  C   UNL A   1      42.126  21.896  26.410  1.00  0.00     0.091 A 
ATOM     76  F   UNL A   1      41.364  22.681  28.530  1.00  0.00    -0.205 F 
ATOM     77  C   UNL A   1      42.799  22.150  25.206  1.00  0.00     0.022 A 
BRANCH  75  78
ATOM     78  S   UNL A   1      41.467  20.243  26.653  1.00  0.00     0.127 S 
ATOM     79  O   UNL A   1      42.184  19.809  27.850  1.00  0.00    -0.237 OA
ATOM     80  O   UNL A   1      40.042  20.510  26.851  1.00  0.00    -0.237 OA
ATOM     81  O   UNL A   1      41.774  19.516  25.429  1.00  0.00    -0.744 OA
ENDBRANCH  75  78
ENDBRANCH  47  71
BRANCH  59  82
ATOM     82  C   UNL A   1      46.842  25.658  32.593  1.00  0.00     0.023 A 
ATOM     83  C   UNL A   1      46.761  24.763  33.680  1.00  0.00     0.012 A 
ATOM     84  C   UNL A   1      48.094  25.914  32.003  1.00  0.00     0.148 A 
ATOM     85  C   UNL A   1      47.911  24.176  34.204  1.00  0.00     0.002 A 
ATOM     86  C   UNL A   1      49.231  25.284  32.497  1.00  0.00     0.091 A 
ATOM     87  F   UNL A   1      48.158  26.780  30.982  1.00  0.00    -0.205 F 
ATOM     88  C   UNL A   1      49.145  24.429  33.607  1.00  0.00     0.022 A 
BRANCH  86  89
ATOM     89  S   UNL A   1      50.845  25.476  31.732  1.00  0.00     0.127 S 
ATOM     90  O   UNL A   1      50.590  25.001  30.373  1.00  0.00    -0.237 OA
ATOM     91  O   UNL A   1      51.072  26.917  31.841  1.00  0.00    -0.237 OA
ATOM     92  O   UNL A   1      51.759  24.661  32.521  1.00  0.00    -0.744 OA
ENDBRANCH  86  89
ENDBRANCH  59  82
ENDBRANCH  33  34
ENDBRANCH  25  28
ENDBRANCH  23  24
ENDBRANCH  22  23
ENDBRANCH   1  22
TORSDOF 18
ENDMDL
