MODEL 1
REMARK VINA RESULT:     -13.1      0.000      0.000
REMARK SMILES O=C(NCCCCNC(=O)C1CC[NH+]([C@H]2CC(=O)N(c3ccc4c(c3)OCCO4)C2=O)CC1)c1ccc(-c2c3nc(c(-c4cccc(S(=O)(=O)[O-])c4F)c4ccc([nH]4)c(-c4cccc(S(=O)(=O)[O-])c4F)c4nc(c(-c5cccc(S(=O)(=O)[O-])c5F)c5ccc2[nH]5)C=C4)C=C3)cc1
REMARK SMILES IDX 5 1 4 2 3 3 1 4 2 5 34 7 35 8 96 9 36 10 95 11 37 12 38 13
REMARK SMILES IDX 39 14 89 15 40 16 94 17 88 18 90 19 41 20 93 21 87 22 86 23
REMARK SMILES IDX 42 25 74 26 54 27 73 28 55 29 58 30 72 31 91 32 56 33 57 34
REMARK SMILES IDX 71 36 92 37 59 38 43 39 44 40 52 41 45 42 47 43 53 44 46 45
REMARK SMILES IDX 48 46 49 47 50 48 51 49 75 50 76 51 84 52 77 53 79 54 85 55
REMARK SMILES IDX 78 56 80 57 81 58 82 59 83 60 60 61 61 62 69 63 62 64 64 65
REMARK SMILES IDX 70 66 63 67 65 68 66 69 67 70 68 71 6 72 7 73 8 74 9 75
REMARK SMILES IDX 10 77 11 78 12 79 33 80 13 81 32 82 14 83 15 85 16 86 30 87
REMARK SMILES IDX 17 88 19 89 31 90 18 91 20 92 21 93 25 94 22 95 24 96 23 97
REMARK SMILES IDX 26 98 29 99 27 100 28 101
REMARK H PARENT 3 6 90 24 58 35 8 76 14 84
REMARK Flexibility Score: inf
ROOT
ATOM      1  C   UNL A   1      38.199  19.439  24.624  1.00  0.00     0.023 C 
ENDROOT
BRANCH   1   2
ATOM      2  C   UNL A   1      39.017  19.937  25.803  1.00  0.00     0.116 C 
BRANCH   2   3
ATOM      3  N   UNL A   1      40.201  19.131  26.059  1.00  0.00    -0.352 N 
ATOM      4  O   UNL A   1      42.386  18.757  26.496  1.00  0.00    -0.269 OA
ATOM      5  C   UNL A   1      41.453  19.550  26.452  1.00  0.00     0.251 C 
ATOM      6  H   UNL A   1      40.094  18.159  25.935  1.00  0.00     0.163 HD
BRANCH   5   7
ATOM      7  C   UNL A   1      41.648  20.978  26.775  1.00  0.00     0.039 A 
ATOM      8  C   UNL A   1      41.448  21.944  25.789  1.00  0.00     0.014 A 
ATOM      9  C   UNL A   1      42.118  21.340  28.038  1.00  0.00     0.014 A 
ATOM     10  C   UNL A   1      41.901  23.237  25.999  1.00  0.00     0.010 A 
ATOM     11  C   UNL A   1      42.459  22.672  28.286  1.00  0.00     0.010 A 
ATOM     12  C   UNL A   1      42.398  23.622  27.256  1.00  0.00    -0.014 A 
BRANCH  12  13
ATOM     13  C   UNL A   1      42.777  25.043  27.471  1.00  0.00     0.031 A 
ATOM     14  C   UNL A   1      41.844  26.019  28.133  1.00  0.00     0.074 A 
ATOM     15  C   UNL A   1      44.002  25.440  27.073  1.00  0.00     0.049 A 
ATOM     16  N   UNL A   1      42.050  27.278  28.428  1.00  0.00    -0.248 NA
ATOM     17  C   UNL A   1      40.506  25.532  28.503  1.00  0.00     0.031 C 
ATOM     18  C   UNL A   1      44.980  24.587  26.388  1.00  0.00     0.029 A 
ATOM     19  N   UNL A   1      44.641  26.645  27.191  1.00  0.00    -0.354 N 
ATOM     20  C   UNL A   1      40.859  27.747  28.971  1.00  0.00     0.074 A 
ATOM     21  C   UNL A   1      39.931  26.636  28.961  1.00  0.00     0.031 C 
ATOM     22  C   UNL A   1      46.108  25.282  26.190  1.00  0.00     0.029 A 
ATOM     23  C   UNL A   1      45.911  26.644  26.665  1.00  0.00     0.049 A 
ATOM     24  H   UNL A   1      44.230  27.436  27.612  1.00  0.00     0.167 HD
ATOM     25  C   UNL A   1      40.571  28.985  29.441  1.00  0.00     0.034 A 
ATOM     26  C   UNL A   1      46.816  27.635  26.556  1.00  0.00     0.034 A 
ATOM     27  C   UNL A   1      41.512  30.075  29.472  1.00  0.00     0.049 A 
ATOM     28  C   UNL A   1      46.469  28.991  27.094  1.00  0.00     0.074 A 
ATOM     29  C   UNL A   1      41.340  31.346  29.993  1.00  0.00     0.029 A 
ATOM     30  N   UNL A   1      42.797  30.032  28.949  1.00  0.00    -0.354 N 
ATOM     31  N   UNL A   1      45.383  29.378  27.716  1.00  0.00    -0.248 NA
ATOM     32  C   UNL A   1      47.484  30.040  26.938  1.00  0.00     0.031 C 
ATOM     33  C   UNL A   1      42.506  32.082  29.749  1.00  0.00     0.029 A 
ATOM     34  C   UNL A   1      43.421  31.257  29.116  1.00  0.00     0.049 A 
ATOM     35  H   UNL A   1      43.205  29.244  28.522  1.00  0.00     0.167 HD
ATOM     36  C   UNL A   1      45.595  30.708  28.057  1.00  0.00     0.074 A 
ATOM     37  C   UNL A   1      46.925  31.049  27.592  1.00  0.00     0.031 C 
ATOM     38  C   UNL A   1      44.761  31.571  28.687  1.00  0.00     0.034 A 
BRANCH  25  39
ATOM     39  C   UNL A   1      39.181  29.232  29.974  1.00  0.00     0.023 A 
ATOM     40  C   UNL A   1      38.856  28.864  31.295  1.00  0.00     0.012 A 
ATOM     41  C   UNL A   1      38.213  29.886  29.185  1.00  0.00     0.148 A 
ATOM     42  C   UNL A   1      37.581  29.105  31.809  1.00  0.00     0.002 A 
ATOM     43  C   UNL A   1      36.959  30.166  29.719  1.00  0.00     0.091 A 
ATOM     44  F   UNL A   1      38.530  30.215  27.925  1.00  0.00    -0.205 F 
ATOM     45  C   UNL A   1      36.638  29.764  31.026  1.00  0.00     0.022 A 
BRANCH  43  46
ATOM     46  S   UNL A   1      35.704  31.082  28.818  1.00  0.00     0.127 S 
ATOM     47  O   UNL A   1      35.046  30.017  28.063  1.00  0.00    -0.237 OA
ATOM     48  O   UNL A   1      34.900  31.649  29.900  1.00  0.00    -0.237 OA
ATOM     49  O   UNL A   1      36.422  32.065  28.018  1.00  0.00    -0.744 OA
ENDBRANCH  43  46
ENDBRANCH  25  39
BRANCH  26  50
ATOM     50  C   UNL A   1      48.146  27.359  25.947  1.00  0.00     0.023 A 
ATOM     51  C   UNL A   1      49.192  26.879  26.758  1.00  0.00     0.012 A 
ATOM     52  C   UNL A   1      48.368  27.532  24.567  1.00  0.00     0.148 A 
ATOM     53  C   UNL A   1      50.445  26.604  26.211  1.00  0.00     0.002 A 
ATOM     54  C   UNL A   1      49.600  27.199  24.018  1.00  0.00     0.091 A 
ATOM     55  F   UNL A   1      47.361  27.999  23.815  1.00  0.00    -0.205 F 
ATOM     56  C   UNL A   1      50.645  26.753  24.840  1.00  0.00     0.022 A 
BRANCH  54  57
ATOM     57  S   UNL A   1      49.903  27.226  22.248  1.00  0.00     0.127 S 
ATOM     58  O   UNL A   1      49.631  28.623  21.921  1.00  0.00    -0.237 OA
ATOM     59  O   UNL A   1      51.313  26.837  22.179  1.00  0.00    -0.237 OA
ATOM     60  O   UNL A   1      48.984  26.252  21.676  1.00  0.00    -0.744 OA
ENDBRANCH  54  57
ENDBRANCH  26  50
BRANCH  38  61
ATOM     61  C   UNL A   1      45.279  32.960  28.952  1.00  0.00     0.023 A 
ATOM     62  C   UNL A   1      45.931  33.253  30.166  1.00  0.00     0.012 A 
ATOM     63  C   UNL A   1      45.157  33.966  27.973  1.00  0.00     0.148 A 
ATOM     64  C   UNL A   1      46.415  34.535  30.419  1.00  0.00     0.002 A 
ATOM     65  C   UNL A   1      45.691  35.226  28.210  1.00  0.00     0.091 A 
ATOM     66  F   UNL A   1      44.514  33.674  26.833  1.00  0.00    -0.205 F 
ATOM     67  C   UNL A   1      46.306  35.518  29.437  1.00  0.00     0.022 A 
BRANCH  65  68
ATOM     68  S   UNL A   1      45.684  36.521  26.965  1.00  0.00     0.127 S 
ATOM     69  O   UNL A   1      44.259  36.832  26.867  1.00  0.00    -0.237 OA
ATOM     70  O   UNL A   1      46.494  37.563  27.598  1.00  0.00    -0.237 OA
ATOM     71  O   UNL A   1      46.280  35.935  25.773  1.00  0.00    -0.744 OA
ENDBRANCH  65  68
ENDBRANCH  38  61
ENDBRANCH  12  13
ENDBRANCH   5   7
ENDBRANCH   2   3
ENDBRANCH   1   2
BRANCH   1  72
ATOM     72  C   UNL A   1      36.767  19.050  24.971  1.00  0.00     0.023 C 
BRANCH  72  73
ATOM     73  C   UNL A   1      35.774  20.210  24.941  1.00  0.00     0.116 C 
BRANCH  73  74
ATOM     74  N   UNL A   1      34.386  19.783  25.057  1.00  0.00    -0.356 N 
ATOM     75  C   UNL A   1      33.244  20.537  25.053  1.00  0.00     0.223 C 
ATOM     76  H   UNL A   1      34.250  18.813  25.153  1.00  0.00     0.163 HD
ATOM     77  O   UNL A   1      32.149  19.982  25.102  1.00  0.00    -0.275 OA
BRANCH  75  78
ATOM     78  C   UNL A   1      33.394  22.047  25.052  1.00  0.00     0.089 C 
ATOM     79  C   UNL A   1      33.637  22.507  26.503  1.00  0.00     0.075 C 
ATOM     80  C   UNL A   1      32.275  22.758  24.274  1.00  0.00     0.075 C 
ATOM     81  C   UNL A   1      32.452  23.196  27.167  1.00  0.00     0.263 C 
ATOM     82  C   UNL A   1      31.205  23.401  25.141  1.00  0.00     0.263 C 
ATOM     83  N   UNL A   1      31.735  24.122  26.296  1.00  0.00    -0.324 N 
ATOM     84  H   UNL A   1      30.905  24.474  26.776  1.00  0.00     0.348 HD
BRANCH  83  85
ATOM     85  C   UNL A   1      32.396  25.427  26.090  1.00  0.00     0.284 C 
ATOM     86  C   UNL A   1      33.291  25.636  24.876  1.00  0.00     0.176 C 
ATOM     87  C   UNL A   1      31.423  26.604  26.039  1.00  0.00     0.292 C 
ATOM     88  C   UNL A   1      32.747  26.837  24.187  1.00  0.00     0.240 C 
ATOM     89  N   UNL A   1      31.674  27.315  24.886  1.00  0.00    -0.245 N 
ATOM     90  O   UNL A   1      30.570  26.844  26.884  1.00  0.00    -0.267 OA
ATOM     91  O   UNL A   1      33.264  27.299  23.175  1.00  0.00    -0.274 OA
BRANCH  89  92
ATOM     92  C   UNL A   1      30.958  28.458  24.478  1.00  0.00     0.056 A 
ATOM     93  C   UNL A   1      31.133  29.683  25.133  1.00  0.00     0.031 A 
ATOM     94  C   UNL A   1      30.090  28.380  23.381  1.00  0.00     0.077 A 
ATOM     95  C   UNL A   1      30.480  30.826  24.665  1.00  0.00     0.052 A 
ATOM     96  C   UNL A   1      29.398  29.508  22.953  1.00  0.00     0.163 A 
ATOM     97  C   UNL A   1      29.598  30.735  23.591  1.00  0.00     0.161 A 
ATOM     98  O   UNL A   1      28.522  29.329  21.914  1.00  0.00    -0.486 OA
ATOM     99  O   UNL A   1      28.962  31.888  23.212  1.00  0.00    -0.486 OA
ATOM    100  C   UNL A   1      28.102  30.575  21.351  1.00  0.00     0.271 C 
ATOM    101  C   UNL A   1      27.795  31.595  22.437  1.00  0.00     0.271 C 
ENDBRANCH  89  92
ENDBRANCH  83  85
ENDBRANCH  75  78
ENDBRANCH  73  74
ENDBRANCH  72  73
ENDBRANCH   1  72
TORSDOF 16
ENDMDL
MODEL 2
REMARK VINA RESULT:     -12.9      5.585     10.409
REMARK SMILES O=C(NCCCCNC(=O)C1CC[NH+]([C@H]2CC(=O)N(c3ccc4c(c3)OCCO4)C2=O)CC1)c1ccc(-c2c3nc(c(-c4cccc(S(=O)(=O)[O-])c4F)c4ccc([nH]4)c(-c4cccc(S(=O)(=O)[O-])c4F)c4nc(c(-c5cccc(S(=O)(=O)[O-])c5F)c5ccc2[nH]5)C=C4)C=C3)cc1
REMARK SMILES IDX 5 1 4 2 3 3 1 4 2 5 34 7 35 8 96 9 36 10 95 11 37 12 38 13
REMARK SMILES IDX 39 14 89 15 40 16 94 17 88 18 90 19 41 20 93 21 87 22 86 23
REMARK SMILES IDX 42 25 74 26 54 27 73 28 55 29 58 30 72 31 91 32 56 33 57 34
REMARK SMILES IDX 71 36 92 37 59 38 43 39 44 40 52 41 45 42 47 43 53 44 46 45
REMARK SMILES IDX 48 46 49 47 50 48 51 49 75 50 76 51 84 52 77 53 79 54 85 55
REMARK SMILES IDX 78 56 80 57 81 58 82 59 83 60 60 61 61 62 69 63 62 64 64 65
REMARK SMILES IDX 70 66 63 67 65 68 66 69 67 70 68 71 6 72 7 73 8 74 9 75
REMARK SMILES IDX 10 77 11 78 12 79 33 80 13 81 32 82 14 83 15 85 16 86 30 87
REMARK SMILES IDX 17 88 19 89 31 90 18 91 20 92 21 93 25 94 22 95 24 96 23 97
REMARK SMILES IDX 26 98 29 99 27 100 28 101
REMARK H PARENT 3 6 90 24 58 35 8 76 14 84
REMARK Flexibility Score: inf
ROOT
ATOM      1  C   UNL A   1      31.645  31.736  26.574  1.00  0.00     0.023 C 
ENDROOT
BRANCH   1   2
ATOM      2  C   UNL A   1      32.801  32.461  27.242  1.00  0.00     0.116 C 
BRANCH   2   3
ATOM      3  N   UNL A   1      32.498  33.849  27.561  1.00  0.00    -0.352 N 
ATOM      4  O   UNL A   1      32.630  35.767  28.746  1.00  0.00    -0.269 OA
ATOM      5  C   UNL A   1      33.091  34.658  28.505  1.00  0.00     0.251 C 
ATOM      6  H   UNL A   1      31.776  34.262  27.034  1.00  0.00     0.163 HD
BRANCH   5   7
ATOM      7  C   UNL A   1      34.261  34.139  29.243  1.00  0.00     0.039 A 
ATOM      8  C   UNL A   1      35.541  34.306  28.716  1.00  0.00     0.014 A 
ATOM      9  C   UNL A   1      34.066  33.409  30.416  1.00  0.00     0.014 A 
ATOM     10  C   UNL A   1      36.596  33.582  29.247  1.00  0.00     0.010 A 
ATOM     11  C   UNL A   1      35.157  32.779  31.021  1.00  0.00     0.010 A 
ATOM     12  C   UNL A   1      36.423  32.822  30.416  1.00  0.00    -0.014 A 
BRANCH  12  13
ATOM     13  C   UNL A   1      37.603  32.144  31.012  1.00  0.00     0.031 A 
ATOM     14  C   UNL A   1      38.062  32.442  32.413  1.00  0.00     0.074 A 
ATOM     15  C   UNL A   1      38.251  31.227  30.267  1.00  0.00     0.049 A 
ATOM     16  N   UNL A   1      39.047  31.900  33.085  1.00  0.00    -0.248 NA
ATOM     17  C   UNL A   1      37.338  33.484  33.156  1.00  0.00     0.031 C 
ATOM     18  C   UNL A   1      37.916  30.881  28.882  1.00  0.00     0.029 A 
ATOM     19  N   UNL A   1      39.313  30.414  30.562  1.00  0.00    -0.354 N 
ATOM     20  C   UNL A   1      39.094  32.566  34.305  1.00  0.00     0.074 A 
ATOM     21  C   UNL A   1      38.038  33.556  34.280  1.00  0.00     0.031 C 
ATOM     22  C   UNL A   1      38.723  29.896  28.466  1.00  0.00     0.029 A 
ATOM     23  C   UNL A   1      39.677  29.591  29.523  1.00  0.00     0.049 A 
ATOM     24  H   UNL A   1      39.771  30.418  31.435  1.00  0.00     0.167 HD
ATOM     25  C   UNL A   1      39.933  32.363  35.350  1.00  0.00     0.034 A 
ATOM     26  C   UNL A   1      40.681  28.701  29.419  1.00  0.00     0.034 A 
ATOM     27  C   UNL A   1      40.961  31.354  35.375  1.00  0.00     0.049 A 
ATOM     28  C   UNL A   1      41.586  28.494  30.597  1.00  0.00     0.074 A 
ATOM     29  C   UNL A   1      41.816  31.022  36.411  1.00  0.00     0.029 A 
ATOM     30  N   UNL A   1      41.288  30.526  34.311  1.00  0.00    -0.354 N 
ATOM     31  N   UNL A   1      41.533  29.045  31.785  1.00  0.00    -0.248 NA
ATOM     32  C   UNL A   1      42.674  27.523  30.428  1.00  0.00     0.031 C 
ATOM     33  C   UNL A   1      42.684  30.021  35.961  1.00  0.00     0.029 A 
ATOM     34  C   UNL A   1      42.342  29.697  34.659  1.00  0.00     0.049 A 
ATOM     35  H   UNL A   1      40.835  30.526  33.436  1.00  0.00     0.167 HD
ATOM     36  C   UNL A   1      42.559  28.463  32.519  1.00  0.00     0.074 A 
ATOM     37  C   UNL A   1      43.200  27.500  31.645  1.00  0.00     0.031 C 
ATOM     38  C   UNL A   1      42.943  28.712  33.794  1.00  0.00     0.034 A 
BRANCH  25  39
ATOM     39  C   UNL A   1      39.770  33.241  36.566  1.00  0.00     0.023 A 
ATOM     40  C   UNL A   1      40.329  34.535  36.583  1.00  0.00     0.012 A 
ATOM     41  C   UNL A   1      39.009  32.806  37.671  1.00  0.00     0.148 A 
ATOM     42  C   UNL A   1      40.168  35.366  37.692  1.00  0.00     0.002 A 
ATOM     43  C   UNL A   1      38.814  33.658  38.754  1.00  0.00     0.091 A 
ATOM     44  F   UNL A   1      38.499  31.568  37.650  1.00  0.00    -0.205 F 
ATOM     45  C   UNL A   1      39.404  34.932  38.772  1.00  0.00     0.022 A 
BRANCH  43  46
ATOM     46  S   UNL A   1      37.778  33.221  40.155  1.00  0.00     0.127 S 
ATOM     47  O   UNL A   1      36.500  32.943  39.501  1.00  0.00    -0.237 OA
ATOM     48  O   UNL A   1      38.460  32.041  40.687  1.00  0.00    -0.237 OA
ATOM     49  O   UNL A   1      37.790  34.379  41.039  1.00  0.00    -0.744 OA
ENDBRANCH  43  46
ENDBRANCH  25  39
BRANCH  26  50
ATOM     50  C   UNL A   1      40.848  27.915  28.165  1.00  0.00     0.023 A 
ATOM     51  C   UNL A   1      41.485  28.507  27.058  1.00  0.00     0.012 A 
ATOM     52  C   UNL A   1      40.419  26.577  28.080  1.00  0.00     0.148 A 
ATOM     53  C   UNL A   1      41.663  27.790  25.875  1.00  0.00     0.002 A 
ATOM     54  C   UNL A   1      40.654  25.848  26.921  1.00  0.00     0.091 A 
ATOM     55  F   UNL A   1      39.808  26.036  29.143  1.00  0.00    -0.205 F 
ATOM     56  C   UNL A   1      41.259  26.458  25.811  1.00  0.00     0.022 A 
BRANCH  54  57
ATOM     57  S   UNL A   1      40.294  24.094  26.797  1.00  0.00     0.127 S 
ATOM     58  O   UNL A   1      38.929  24.105  26.278  1.00  0.00    -0.237 OA
ATOM     59  O   UNL A   1      41.314  23.644  25.847  1.00  0.00    -0.237 OA
ATOM     60  O   UNL A   1      40.455  23.563  28.144  1.00  0.00    -0.744 OA
ENDBRANCH  54  57
ENDBRANCH  26  50
BRANCH  38  61
ATOM     61  C   UNL A   1      44.085  27.897  34.341  1.00  0.00     0.023 A 
ATOM     62  C   UNL A   1      45.411  28.354  34.205  1.00  0.00     0.012 A 
ATOM     63  C   UNL A   1      43.836  26.694  35.033  1.00  0.00     0.148 A 
ATOM     64  C   UNL A   1      46.473  27.607  34.709  1.00  0.00     0.002 A 
ATOM     65  C   UNL A   1      44.897  25.984  35.581  1.00  0.00     0.091 A 
ATOM     66  F   UNL A   1      42.570  26.265  35.134  1.00  0.00    -0.205 F 
ATOM     67  C   UNL A   1      46.216  26.429  35.407  1.00  0.00     0.022 A 
BRANCH  65  68
ATOM     68  S   UNL A   1      44.651  24.511  36.580  1.00  0.00     0.127 S 
ATOM     69  O   UNL A   1      46.008  24.241  37.052  1.00  0.00    -0.237 OA
ATOM     70  O   UNL A   1      43.729  24.987  37.611  1.00  0.00    -0.237 OA
ATOM     71  O   UNL A   1      44.090  23.508  35.685  1.00  0.00    -0.744 OA
ENDBRANCH  65  68
ENDBRANCH  38  61
ENDBRANCH  12  13
ENDBRANCH   5   7
ENDBRANCH   2   3
ENDBRANCH   1   2
BRANCH   1  72
ATOM     72  C   UNL A   1      31.800  30.222  26.516  1.00  0.00     0.023 C 
BRANCH  72  73
ATOM     73  C   UNL A   1      32.108  29.672  25.125  1.00  0.00     0.116 C 
BRANCH  73  74
ATOM     74  N   UNL A   1      30.930  29.172  24.430  1.00  0.00    -0.356 N 
ATOM     75  C   UNL A   1      30.616  27.890  24.068  1.00  0.00     0.223 C 
ATOM     76  H   UNL A   1      30.264  29.855  24.184  1.00  0.00     0.163 HD
ATOM     77  O   UNL A   1      29.534  27.656  23.535  1.00  0.00    -0.275 OA
BRANCH  75  78
ATOM     78  C   UNL A   1      31.664  26.816  24.290  1.00  0.00     0.089 C 
ATOM     79  C   UNL A   1      31.726  25.935  23.027  1.00  0.00     0.075 C 
ATOM     80  C   UNL A   1      31.502  26.093  25.638  1.00  0.00     0.075 C 
ATOM     81  C   UNL A   1      31.102  24.553  23.175  1.00  0.00     0.263 C 
ATOM     82  C   UNL A   1      30.878  24.711  25.547  1.00  0.00     0.263 C 
ATOM     83  N   UNL A   1      31.394  23.899  24.447  1.00  0.00    -0.324 N 
ATOM     84  H   UNL A   1      30.872  23.024  24.512  1.00  0.00     0.348 HD
BRANCH  83  85
ATOM     85  C   UNL A   1      32.747  23.315  24.555  1.00  0.00     0.284 C 
ATOM     86  C   UNL A   1      33.461  23.308  25.900  1.00  0.00     0.176 C 
ATOM     87  C   UNL A   1      32.824  21.862  24.087  1.00  0.00     0.292 C 
ATOM     88  C   UNL A   1      33.825  21.887  26.146  1.00  0.00     0.240 C 
ATOM     89  N   UNL A   1      33.409  21.122  25.092  1.00  0.00    -0.245 N 
ATOM     90  O   UNL A   1      32.419  21.452  23.007  1.00  0.00    -0.267 OA
ATOM     91  O   UNL A   1      34.446  21.535  27.143  1.00  0.00    -0.274 OA
BRANCH  89  92
ATOM     92  C   UNL A   1      33.627  19.731  25.038  1.00  0.00     0.056 A 
ATOM     93  C   UNL A   1      34.834  19.214  24.552  1.00  0.00     0.031 A 
ATOM     94  C   UNL A   1      32.642  18.854  25.511  1.00  0.00     0.077 A 
ATOM     95  C   UNL A   1      35.069  17.838  24.582  1.00  0.00     0.052 A 
ATOM     96  C   UNL A   1      32.857  17.479  25.487  1.00  0.00     0.163 A 
ATOM     97  C   UNL A   1      34.075  16.971  25.029  1.00  0.00     0.161 A 
ATOM     98  O   UNL A   1      31.818  16.692  25.909  1.00  0.00    -0.486 OA
ATOM     99  O   UNL A   1      34.360  15.631  24.992  1.00  0.00    -0.486 OA
ATOM    100  C   UNL A   1      32.233  15.343  26.141  1.00  0.00     0.271 C 
ATOM    101  C   UNL A   1      33.159  14.853  25.038  1.00  0.00     0.271 C 
ENDBRANCH  89  92
ENDBRANCH  83  85
ENDBRANCH  75  78
ENDBRANCH  73  74
ENDBRANCH  72  73
ENDBRANCH   1  72
TORSDOF 16
ENDMDL
MODEL 3
REMARK VINA RESULT:     -12.8      5.573     11.664
REMARK SMILES O=C(NCCCCNC(=O)C1CC[NH+]([C@H]2CC(=O)N(c3ccc4c(c3)OCCO4)C2=O)CC1)c1ccc(-c2c3nc(c(-c4cccc(S(=O)(=O)[O-])c4F)c4ccc([nH]4)c(-c4cccc(S(=O)(=O)[O-])c4F)c4nc(c(-c5cccc(S(=O)(=O)[O-])c5F)c5ccc2[nH]5)C=C4)C=C3)cc1
REMARK SMILES IDX 5 1 4 2 3 3 1 4 2 5 34 7 35 8 96 9 36 10 95 11 37 12 38 13
REMARK SMILES IDX 39 14 89 15 40 16 94 17 88 18 90 19 41 20 93 21 87 22 86 23
REMARK SMILES IDX 42 25 74 26 54 27 73 28 55 29 58 30 72 31 91 32 56 33 57 34
REMARK SMILES IDX 71 36 92 37 59 38 43 39 44 40 52 41 45 42 47 43 53 44 46 45
REMARK SMILES IDX 48 46 49 47 50 48 51 49 75 50 76 51 84 52 77 53 79 54 85 55
REMARK SMILES IDX 78 56 80 57 81 58 82 59 83 60 60 61 61 62 69 63 62 64 64 65
REMARK SMILES IDX 70 66 63 67 65 68 66 69 67 70 68 71 6 72 7 73 8 74 9 75
REMARK SMILES IDX 10 77 11 78 12 79 33 80 13 81 32 82 14 83 15 85 16 86 30 87
REMARK SMILES IDX 17 88 19 89 31 90 18 91 20 92 21 93 25 94 22 95 24 96 23 97
REMARK SMILES IDX 26 98 29 99 27 100 28 101
REMARK H PARENT 3 6 90 24 58 35 8 76 14 84
REMARK Flexibility Score: inf
ROOT
ATOM      1  C   UNL A   1      31.064  32.175  26.844  1.00  0.00     0.023 C 
ENDROOT
BRANCH   1   2
ATOM      2  C   UNL A   1      32.436  32.823  26.900  1.00  0.00     0.116 C 
BRANCH   2   3
ATOM      3  N   UNL A   1      32.419  34.146  27.507  1.00  0.00    -0.352 N 
ATOM      4  O   UNL A   1      33.018  35.743  28.989  1.00  0.00    -0.269 OA
ATOM      5  C   UNL A   1      33.247  34.649  28.486  1.00  0.00     0.251 C 
ATOM      6  H   UNL A   1      31.726  34.762  27.174  1.00  0.00     0.163 HD
BRANCH   5   7
ATOM      7  C   UNL A   1      34.384  33.822  28.940  1.00  0.00     0.039 A 
ATOM      8  C   UNL A   1      34.146  32.670  29.690  1.00  0.00     0.014 A 
ATOM      9  C   UNL A   1      35.688  34.249  28.690  1.00  0.00     0.014 A 
ATOM     10  C   UNL A   1      35.198  32.060  30.353  1.00  0.00     0.010 A 
ATOM     11  C   UNL A   1      36.758  33.556  29.262  1.00  0.00     0.010 A 
ATOM     12  C   UNL A   1      36.520  32.483  30.136  1.00  0.00    -0.014 A 
BRANCH  12  13
ATOM     13  C   UNL A   1      37.628  31.737  30.786  1.00  0.00     0.031 A 
ATOM     14  C   UNL A   1      38.433  30.708  30.039  1.00  0.00     0.074 A 
ATOM     15  C   UNL A   1      37.915  32.019  32.072  1.00  0.00     0.049 A 
ATOM     16  N   UNL A   1      39.456  30.007  30.459  1.00  0.00    -0.248 NA
ATOM     17  C   UNL A   1      38.040  30.416  28.653  1.00  0.00     0.031 C 
ATOM     18  C   UNL A   1      37.178  32.975  32.907  1.00  0.00     0.029 A 
ATOM     19  N   UNL A   1      38.898  31.547  32.901  1.00  0.00    -0.354 N 
ATOM     20  C   UNL A   1      39.797  29.159  29.411  1.00  0.00     0.074 A 
ATOM     21  C   UNL A   1      38.868  29.431  28.335  1.00  0.00     0.031 C 
ATOM     22  C   UNL A   1      37.763  33.052  34.109  1.00  0.00     0.029 A 
ATOM     23  C   UNL A   1      38.867  32.103  34.158  1.00  0.00     0.049 A 
ATOM     24  H   UNL A   1      39.562  30.875  32.623  1.00  0.00     0.167 HD
ATOM     25  C   UNL A   1      40.798  28.246  29.351  1.00  0.00     0.034 A 
ATOM     26  C   UNL A   1      39.628  31.864  35.241  1.00  0.00     0.034 A 
ATOM     27  C   UNL A   1      41.735  28.005  30.418  1.00  0.00     0.049 A 
ATOM     28  C   UNL A   1      40.733  30.854  35.138  1.00  0.00     0.074 A 
ATOM     29  C   UNL A   1      42.827  27.154  30.429  1.00  0.00     0.029 A 
ATOM     30  N   UNL A   1      41.685  28.602  31.670  1.00  0.00    -0.354 N 
ATOM     31  N   UNL A   1      41.117  30.155  34.098  1.00  0.00    -0.248 NA
ATOM     32  C   UNL A   1      41.525  30.620  36.351  1.00  0.00     0.031 C 
ATOM     33  C   UNL A   1      43.412  27.206  31.699  1.00  0.00     0.029 A 
ATOM     34  C   UNL A   1      42.713  28.123  32.466  1.00  0.00     0.049 A 
ATOM     35  H   UNL A   1      41.017  29.269  31.951  1.00  0.00     0.167 HD
ATOM     36  C   UNL A   1      42.218  29.422  34.521  1.00  0.00     0.074 A 
ATOM     37  C   UNL A   1      42.452  29.783  35.905  1.00  0.00     0.031 C 
ATOM     38  C   UNL A   1      42.961  28.523  33.829  1.00  0.00     0.034 A 
BRANCH  25  39
ATOM     39  C   UNL A   1      40.944  27.443  28.082  1.00  0.00     0.023 A 
ATOM     40  C   UNL A   1      41.575  28.010  26.956  1.00  0.00     0.012 A 
ATOM     41  C   UNL A   1      40.512  26.102  28.025  1.00  0.00     0.148 A 
ATOM     42  C   UNL A   1      41.736  27.271  25.783  1.00  0.00     0.002 A 
ATOM     43  C   UNL A   1      40.719  25.358  26.869  1.00  0.00     0.091 A 
ATOM     44  F   UNL A   1      39.899  25.581  29.097  1.00  0.00    -0.205 F 
ATOM     45  C   UNL A   1      41.318  25.944  25.743  1.00  0.00     0.022 A 
BRANCH  43  46
ATOM     46  S   UNL A   1      40.289  23.617  26.747  1.00  0.00     0.127 S 
ATOM     47  O   UNL A   1      38.907  23.687  26.274  1.00  0.00    -0.237 OA
ATOM     48  O   UNL A   1      41.248  23.131  25.755  1.00  0.00    -0.237 OA
ATOM     49  O   UNL A   1      40.467  23.066  28.083  1.00  0.00    -0.744 OA
ENDBRANCH  43  46
ENDBRANCH  25  39
BRANCH  26  50
ATOM     50  C   UNL A   1      39.391  32.628  36.497  1.00  0.00     0.023 A 
ATOM     51  C   UNL A   1      40.068  33.844  36.705  1.00  0.00     0.012 A 
ATOM     52  C   UNL A   1      38.471  32.176  37.463  1.00  0.00     0.148 A 
ATOM     53  C   UNL A   1      39.857  34.583  37.868  1.00  0.00     0.002 A 
ATOM     54  C   UNL A   1      38.219  32.947  38.591  1.00  0.00     0.091 A 
ATOM     55  F   UNL A   1      37.844  31.012  37.248  1.00  0.00    -0.205 F 
ATOM     56  C   UNL A   1      38.924  34.142  38.805  1.00  0.00     0.022 A 
BRANCH  54  57
ATOM     57  S   UNL A   1      36.939  32.528  39.777  1.00  0.00     0.127 S 
ATOM     58  O   UNL A   1      35.740  32.556  38.944  1.00  0.00    -0.237 OA
ATOM     59  O   UNL A   1      37.358  31.194  40.212  1.00  0.00    -0.237 OA
ATOM     60  O   UNL A   1      37.013  33.547  40.814  1.00  0.00    -0.744 OA
ENDBRANCH  54  57
ENDBRANCH  26  50
BRANCH  38  61
ATOM     61  C   UNL A   1      44.128  27.897  34.546  1.00  0.00     0.023 A 
ATOM     62  C   UNL A   1      45.368  28.565  34.599  1.00  0.00     0.012 A 
ATOM     63  C   UNL A   1      43.979  26.662  35.208  1.00  0.00     0.148 A 
ATOM     64  C   UNL A   1      46.452  27.994  35.261  1.00  0.00     0.002 A 
ATOM     65  C   UNL A   1      45.050  26.126  35.914  1.00  0.00     0.091 A 
ATOM     66  F   UNL A   1      42.799  26.032  35.129  1.00  0.00    -0.205 F 
ATOM     67  C   UNL A   1      46.291  26.781  35.928  1.00  0.00     0.022 A 
BRANCH  65  68
ATOM     68  S   UNL A   1      44.903  24.621  36.884  1.00  0.00     0.127 S 
ATOM     69  O   UNL A   1      44.149  23.756  35.978  1.00  0.00    -0.237 OA
ATOM     70  O   UNL A   1      46.302  24.237  37.071  1.00  0.00    -0.237 OA
ATOM     71  O   UNL A   1      44.211  24.998  38.108  1.00  0.00    -0.744 OA
ENDBRANCH  65  68
ENDBRANCH  38  61
ENDBRANCH  12  13
ENDBRANCH   5   7
ENDBRANCH   2   3
ENDBRANCH   1   2
BRANCH   1  72
ATOM     72  C   UNL A   1      30.638  31.720  25.453  1.00  0.00     0.023 C 
BRANCH  72  73
ATOM     73  C   UNL A   1      31.094  30.310  25.084  1.00  0.00     0.116 C 
BRANCH  73  74
ATOM     74  N   UNL A   1      30.667  29.897  23.754  1.00  0.00    -0.356 N 
ATOM     75  C   UNL A   1      30.829  28.690  23.127  1.00  0.00     0.223 C 
ATOM     76  H   UNL A   1      30.194  30.584  23.231  1.00  0.00     0.163 HD
ATOM     77  O   UNL A   1      30.339  28.513  22.014  1.00  0.00    -0.275 OA
BRANCH  75  78
ATOM     78  C   UNL A   1      31.672  27.640  23.825  1.00  0.00     0.089 C 
ATOM     79  C   UNL A   1      33.126  27.786  23.332  1.00  0.00     0.075 C 
ATOM     80  C   UNL A   1      31.051  26.235  23.759  1.00  0.00     0.075 C 
ATOM     81  C   UNL A   1      33.592  26.700  22.370  1.00  0.00     0.263 C 
ATOM     82  C   UNL A   1      31.691  25.304  22.742  1.00  0.00     0.263 C 
ATOM     83  N   UNL A   1      33.151  25.355  22.728  1.00  0.00    -0.324 N 
ATOM     84  H   UNL A   1      33.420  24.698  21.995  1.00  0.00     0.348 HD
BRANCH  83  85
ATOM     85  C   UNL A   1      33.906  24.722  23.830  1.00  0.00     0.284 C 
ATOM     86  C   UNL A   1      33.271  24.604  25.209  1.00  0.00     0.176 C 
ATOM     87  C   UNL A   1      34.371  23.302  23.513  1.00  0.00     0.292 C 
ATOM     88  C   UNL A   1      33.343  23.159  25.554  1.00  0.00     0.240 C 
ATOM     89  N   UNL A   1      33.952  22.479  24.536  1.00  0.00    -0.245 N 
ATOM     90  O   UNL A   1      34.996  22.977  22.512  1.00  0.00    -0.267 OA
ATOM     91  O   UNL A   1      32.939  22.722  26.626  1.00  0.00    -0.274 OA
BRANCH  89  92
ATOM     92  C   UNL A   1      34.174  21.088  24.586  1.00  0.00     0.056 A 
ATOM     93  C   UNL A   1      35.474  20.571  24.622  1.00  0.00     0.031 A 
ATOM     94  C   UNL A   1      33.081  20.212  24.639  1.00  0.00     0.077 A 
ATOM     95  C   UNL A   1      35.677  19.195  24.756  1.00  0.00     0.052 A 
ATOM     96  C   UNL A   1      33.287  18.838  24.716  1.00  0.00     0.163 A 
ATOM     97  C   UNL A   1      34.587  18.329  24.781  1.00  0.00     0.161 A 
ATOM     98  O   UNL A   1      32.166  18.051  24.699  1.00  0.00    -0.486 OA
ATOM     99  O   UNL A   1      34.862  16.990  24.872  1.00  0.00    -0.486 OA
ATOM    100  C   UNL A   1      32.454  16.706  25.090  1.00  0.00     0.271 C 
ATOM    101  C   UNL A   1      33.740  16.209  24.448  1.00  0.00     0.271 C 
ENDBRANCH  89  92
ENDBRANCH  83  85
ENDBRANCH  75  78
ENDBRANCH  73  74
ENDBRANCH  72  73
ENDBRANCH   1  72
TORSDOF 16
ENDMDL
