MODEL 1
REMARK VINA RESULT:     -12.3      0.000      0.000
REMARK SMILES CC1(C)CSC[C@H]([NH2+][C@H](C(=O)NCCCCNC(=O)c2ccc(-c3c4nc(c(-c5cccc(S(=O)(=O)[O-])c5F)c5ccc([nH]5)c(-c5cccc(S(=O)(=O)[O-])c5F)c5nc(c(-c6cccc(S(=O)(=O)[O-])c6F)c6ccc3[nH]6)C=C5)C=C4)cc2)c2ccccc2)C1
REMARK SMILES IDX 15 1 14 2 13 3 12 4 10 5 11 6 9 8 8 9 7 12 1 13 2 14 3 15
REMARK SMILES IDX 4 16 89 17 5 18 6 19 83 20 84 21 88 22 85 23 87 24 86 25
REMARK SMILES IDX 16 26 17 27 18 28 19 30 20 31 21 32 82 33 22 34 81 35 23 36
REMARK SMILES IDX 24 37 25 38 75 39 26 40 80 41 74 42 76 43 27 44 79 45 73 46
REMARK SMILES IDX 72 47 28 49 60 50 40 51 59 52 41 53 44 54 58 55 77 56 42 57
REMARK SMILES IDX 43 58 57 60 78 61 45 62 29 63 30 64 38 65 31 66 33 67 39 68
REMARK SMILES IDX 32 69 34 70 35 71 36 72 37 73 61 74 62 75 70 76 63 77 65 78
REMARK SMILES IDX 71 79 64 80 66 81 67 82 68 83 69 84 46 85 47 86 55 87 48 88
REMARK SMILES IDX 50 89 56 90 49 91 51 92 52 93 53 94 54 95
REMARK H PARENT 12 7 8 10 8 11 17 29 76 48 44 59
REMARK Flexibility Score: inf
ROOT
ATOM      1  C   UNL A   1      31.401  28.878  24.738  1.00  0.00     0.023 C 
ENDROOT
BRANCH   1   2
ATOM      2  C   UNL A   1      31.371  28.918  23.204  1.00  0.00     0.023 C 
BRANCH   2   3
ATOM      3  C   UNL A   1      30.789  27.666  22.547  1.00  0.00     0.116 C 
BRANCH   3   4
ATOM      4  N   UNL A   1      31.747  27.092  21.626  1.00  0.00    -0.351 N 
ATOM      5  C   UNL A   1      32.388  25.892  21.638  1.00  0.00     0.283 C 
ATOM      6  O   UNL A   1      33.278  25.756  20.791  1.00  0.00    -0.268 OA
ATOM      7  H   UNL A   1      31.972  27.668  20.860  1.00  0.00     0.163 HD
BRANCH   5   8
ATOM      8  C   UNL A   1      31.970  24.765  22.624  1.00  0.00     0.304 C 
BRANCH   8   9
ATOM      9  N   UNL A   1      32.546  23.417  22.346  1.00  0.00    -0.329 N 
ATOM     10  H   UNL A   1      31.905  22.950  21.704  1.00  0.00     0.347 HD
ATOM     11  H   UNL A   1      33.482  23.629  22.001  1.00  0.00     0.347 HD
BRANCH   9  12
ATOM     12  C   UNL A   1      32.798  22.478  23.453  1.00  0.00     0.193 C 
ATOM     13  C   UNL A   1      34.535  22.176  26.162  1.00  0.00     0.012 C 
ATOM     14  C   UNL A   1      34.866  21.541  24.796  1.00  0.00    -0.021 C 
ATOM     15  C   UNL A   1      36.405  21.461  24.677  1.00  0.00     0.012 C 
ATOM     16  C   UNL A   1      34.331  20.097  24.719  1.00  0.00     0.076 C 
ATOM     17  C   UNL A   1      34.339  22.439  23.639  1.00  0.00     0.073 C 
ATOM     18  S   UNL A   1      32.529  19.980  24.626  1.00  0.00    -0.155 SA
ATOM     19  C   UNL A   1      32.292  21.047  23.182  1.00  0.00     0.134 C 
ENDBRANCH   9  12
ENDBRANCH   8   9
BRANCH   8  20
ATOM     20  C   UNL A   1      32.311  25.173  24.063  1.00  0.00     0.019 A 
ATOM     21  C   UNL A   1      31.374  25.041  25.097  1.00  0.00     0.010 A 
ATOM     22  C   UNL A   1      33.563  25.747  24.362  1.00  0.00     0.010 A 
ATOM     23  C   UNL A   1      31.671  25.503  26.384  1.00  0.00     0.001 A 
ATOM     24  C   UNL A   1      33.854  26.213  25.642  1.00  0.00     0.001 A 
ATOM     25  C   UNL A   1      32.905  26.097  26.652  1.00  0.00     0.000 A 
ENDBRANCH   8  20
ENDBRANCH   5   8
ENDBRANCH   3   4
ENDBRANCH   2   3
ENDBRANCH   1   2
BRANCH   1  26
ATOM     26  C   UNL A   1      32.594  29.583  25.375  1.00  0.00     0.116 C 
BRANCH  26  27
ATOM     27  N   UNL A   1      32.240  30.907  25.866  1.00  0.00    -0.352 N 
ATOM     28  C   UNL A   1      32.782  31.615  26.909  1.00  0.00     0.251 C 
ATOM     29  H   UNL A   1      31.509  31.357  25.382  1.00  0.00     0.163 HD
ATOM     30  O   UNL A   1      32.211  32.623  27.327  1.00  0.00    -0.269 OA
BRANCH  28  31
ATOM     31  C   UNL A   1      34.040  31.159  27.535  1.00  0.00     0.039 A 
ATOM     32  C   UNL A   1      35.035  32.095  27.826  1.00  0.00     0.014 A 
ATOM     33  C   UNL A   1      34.235  29.808  27.836  1.00  0.00     0.014 A 
ATOM     34  C   UNL A   1      36.202  31.684  28.473  1.00  0.00     0.010 A 
ATOM     35  C   UNL A   1      35.363  29.415  28.550  1.00  0.00     0.010 A 
ATOM     36  C   UNL A   1      36.362  30.347  28.870  1.00  0.00    -0.014 A 
BRANCH  36  37
ATOM     37  C   UNL A   1      37.560  29.904  29.631  1.00  0.00     0.031 A 
ATOM     38  C   UNL A   1      37.810  30.420  31.023  1.00  0.00     0.074 A 
ATOM     39  C   UNL A   1      38.466  29.103  29.037  1.00  0.00     0.049 A 
ATOM     40  N   UNL A   1      38.818  30.182  31.822  1.00  0.00    -0.248 NA
ATOM     41  C   UNL A   1      36.811  31.346  31.581  1.00  0.00     0.031 C 
ATOM     42  C   UNL A   1      38.376  28.591  27.668  1.00  0.00     0.029 A 
ATOM     43  N   UNL A   1      39.655  28.596  29.501  1.00  0.00    -0.354 N 
ATOM     44  C   UNL A   1      38.597  30.955  32.955  1.00  0.00     0.074 A 
ATOM     45  C   UNL A   1      37.375  31.695  32.728  1.00  0.00     0.031 C 
ATOM     46  C   UNL A   1      39.454  27.834  27.408  1.00  0.00     0.029 A 
ATOM     47  C   UNL A   1      40.330  27.834  28.575  1.00  0.00     0.049 A 
ATOM     48  H   UNL A   1      39.992  28.761  30.411  1.00  0.00     0.167 HD
ATOM     49  C   UNL A   1      39.328  31.025  34.094  1.00  0.00     0.034 A 
ATOM     50  C   UNL A   1      41.523  27.213  28.653  1.00  0.00     0.034 A 
ATOM     51  C   UNL A   1      40.523  30.261  34.329  1.00  0.00     0.049 A 
ATOM     52  C   UNL A   1      42.305  27.291  29.937  1.00  0.00     0.074 A 
ATOM     53  C   UNL A   1      41.284  30.188  35.483  1.00  0.00     0.029 A 
ATOM     54  N   UNL A   1      41.143  29.451  33.391  1.00  0.00    -0.354 N 
ATOM     55  N   UNL A   1      41.995  27.895  31.059  1.00  0.00    -0.248 NA
ATOM     56  C   UNL A   1      43.588  26.573  29.976  1.00  0.00     0.031 C 
ATOM     57  C   UNL A   1      42.385  29.363  35.230  1.00  0.00     0.029 A 
ATOM     58  C   UNL A   1      42.288  28.889  33.931  1.00  0.00     0.049 A 
ATOM     59  H   UNL A   1      40.818  29.297  32.474  1.00  0.00     0.167 HD
ATOM     60  C   UNL A   1      43.021  27.597  31.948  1.00  0.00     0.074 A 
ATOM     61  C   UNL A   1      43.953  26.744  31.240  1.00  0.00     0.031 C 
ATOM     62  C   UNL A   1      43.183  28.001  33.233  1.00  0.00     0.034 A 
BRANCH  49  63
ATOM     63  C   UNL A   1      38.833  31.935  35.190  1.00  0.00     0.023 A 
ATOM     64  C   UNL A   1      38.885  33.333  35.016  1.00  0.00     0.012 A 
ATOM     65  C   UNL A   1      38.275  31.407  36.371  1.00  0.00     0.148 A 
ATOM     66  C   UNL A   1      38.430  34.192  36.016  1.00  0.00     0.002 A 
ATOM     67  C   UNL A   1      37.778  32.269  37.342  1.00  0.00     0.091 A 
ATOM     68  F   UNL A   1      38.251  30.077  36.529  1.00  0.00    -0.205 F 
ATOM     69  C   UNL A   1      37.868  33.661  37.172  1.00  0.00     0.022 A 
BRANCH  67  70
ATOM     70  S   UNL A   1      36.959  31.683  38.830  1.00  0.00     0.127 S 
ATOM     71  O   UNL A   1      35.781  32.547  38.878  1.00  0.00    -0.237 OA
ATOM     72  O   UNL A   1      36.677  30.286  38.494  1.00  0.00    -0.237 OA
ATOM     73  O   UNL A   1      37.914  31.866  39.913  1.00  0.00    -0.744 OA
ENDBRANCH  67  70
ENDBRANCH  49  63
BRANCH  50  74
ATOM     74  C   UNL A   1      42.020  26.400  27.506  1.00  0.00     0.023 A 
ATOM     75  C   UNL A   1      42.788  27.023  26.504  1.00  0.00     0.012 A 
ATOM     76  C   UNL A   1      41.753  25.021  27.410  1.00  0.00     0.148 A 
ATOM     77  C   UNL A   1      43.255  26.296  25.409  1.00  0.00     0.002 A 
ATOM     78  C   UNL A   1      42.268  24.291  26.344  1.00  0.00     0.091 A 
ATOM     79  F   UNL A   1      41.014  24.448  28.369  1.00  0.00    -0.205 F 
ATOM     80  C   UNL A   1      43.002  24.930  25.332  1.00  0.00     0.022 A 
BRANCH  78  81
ATOM     81  S   UNL A   1      42.102  22.507  26.225  1.00  0.00     0.127 S 
ATOM     82  O   UNL A   1      42.728  22.064  27.469  1.00  0.00    -0.237 OA
ATOM     83  O   UNL A   1      40.650  22.343  26.173  1.00  0.00    -0.237 OA
ATOM     84  O   UNL A   1      42.795  22.128  25.001  1.00  0.00    -0.744 OA
ENDBRANCH  78  81
ENDBRANCH  50  74
BRANCH  62  85
ATOM     85  C   UNL A   1      44.388  27.492  33.981  1.00  0.00     0.023 A 
ATOM     86  C   UNL A   1      45.589  28.228  33.969  1.00  0.00     0.012 A 
ATOM     87  C   UNL A   1      44.304  26.319  34.757  1.00  0.00     0.148 A 
ATOM     88  C   UNL A   1      46.699  27.786  34.688  1.00  0.00     0.002 A 
ATOM     89  C   UNL A   1      45.397  25.913  35.515  1.00  0.00     0.091 A 
ATOM     90  F   UNL A   1      43.158  25.622  34.742  1.00  0.00    -0.205 F 
ATOM     91  C   UNL A   1      46.598  26.636  35.470  1.00  0.00     0.022 A 
BRANCH  89  92
ATOM     92  S   UNL A   1      45.328  24.505  36.627  1.00  0.00     0.127 S 
ATOM     93  O   UNL A   1      46.623  24.595  37.302  1.00  0.00    -0.237 OA
ATOM     94  O   UNL A   1      44.177  24.832  37.470  1.00  0.00    -0.237 OA
ATOM     95  O   UNL A   1      45.146  23.332  35.783  1.00  0.00    -0.744 OA
ENDBRANCH  89  92
ENDBRANCH  62  85
ENDBRANCH  36  37
ENDBRANCH  28  31
ENDBRANCH  26  27
ENDBRANCH   1  26
TORSDOF 17
ENDMDL
MODEL 2
REMARK VINA RESULT:     -12.1      2.012      8.366
REMARK SMILES CC1(C)CSC[C@H]([NH2+][C@H](C(=O)NCCCCNC(=O)c2ccc(-c3c4nc(c(-c5cccc(S(=O)(=O)[O-])c5F)c5ccc([nH]5)c(-c5cccc(S(=O)(=O)[O-])c5F)c5nc(c(-c6cccc(S(=O)(=O)[O-])c6F)c6ccc3[nH]6)C=C5)C=C4)cc2)c2ccccc2)C1
REMARK SMILES IDX 15 1 14 2 13 3 12 4 10 5 11 6 9 8 8 9 7 12 1 13 2 14 3 15
REMARK SMILES IDX 4 16 89 17 5 18 6 19 83 20 84 21 88 22 85 23 87 24 86 25
REMARK SMILES IDX 16 26 17 27 18 28 19 30 20 31 21 32 82 33 22 34 81 35 23 36
REMARK SMILES IDX 24 37 25 38 75 39 26 40 80 41 74 42 76 43 27 44 79 45 73 46
REMARK SMILES IDX 72 47 28 49 60 50 40 51 59 52 41 53 44 54 58 55 77 56 42 57
REMARK SMILES IDX 43 58 57 60 78 61 45 62 29 63 30 64 38 65 31 66 33 67 39 68
REMARK SMILES IDX 32 69 34 70 35 71 36 72 37 73 61 74 62 75 70 76 63 77 65 78
REMARK SMILES IDX 71 79 64 80 66 81 67 82 68 83 69 84 46 85 47 86 55 87 48 88
REMARK SMILES IDX 50 89 56 90 49 91 51 92 52 93 53 94 54 95
REMARK H PARENT 12 7 8 10 8 11 17 29 76 48 44 59
REMARK Flexibility Score: inf
ROOT
ATOM      1  C   UNL A   1      31.028  31.972  26.271  1.00  0.00     0.023 C 
ENDROOT
BRANCH   1   2
ATOM      2  C   UNL A   1      31.046  30.673  25.454  1.00  0.00     0.023 C 
BRANCH   2   3
ATOM      3  C   UNL A   1      32.224  29.748  25.756  1.00  0.00     0.116 C 
BRANCH   3   4
ATOM      4  N   UNL A   1      33.129  29.703  24.628  1.00  0.00    -0.351 N 
ATOM      5  C   UNL A   1      33.188  28.858  23.563  1.00  0.00     0.283 C 
ATOM      6  O   UNL A   1      34.185  28.977  22.843  1.00  0.00    -0.268 OA
ATOM      7  H   UNL A   1      33.820  30.405  24.631  1.00  0.00     0.163 HD
BRANCH   5   8
ATOM      8  C   UNL A   1      32.037  27.856  23.265  1.00  0.00     0.304 C 
BRANCH   8   9
ATOM      9  N   UNL A   1      31.284  28.096  21.999  1.00  0.00    -0.329 N 
ATOM     10  H   UNL A   1      31.825  28.771  21.459  1.00  0.00     0.347 HD
ATOM     11  H   UNL A   1      31.179  27.159  21.609  1.00  0.00     0.347 HD
BRANCH   9  12
ATOM     12  C   UNL A   1      29.900  28.599  22.046  1.00  0.00     0.193 C 
ATOM     13  C   UNL A   1      28.028  30.955  20.870  1.00  0.00     0.012 C 
ATOM     14  C   UNL A   1      28.664  30.917  22.274  1.00  0.00    -0.021 C 
ATOM     15  C   UNL A   1      28.967  32.374  22.691  1.00  0.00     0.012 C 
ATOM     16  C   UNL A   1      27.672  30.348  23.310  1.00  0.00     0.076 C 
ATOM     17  C   UNL A   1      30.008  30.135  22.239  1.00  0.00     0.073 C 
ATOM     18  S   UNL A   1      27.347  28.579  23.127  1.00  0.00    -0.155 SA
ATOM     19  C   UNL A   1      29.064  28.009  23.200  1.00  0.00     0.134 C 
ENDBRANCH   9  12
ENDBRANCH   8   9
BRANCH   8  20
ATOM     20  C   UNL A   1      32.576  26.419  23.269  1.00  0.00     0.019 A 
ATOM     21  C   UNL A   1      32.490  25.608  22.130  1.00  0.00     0.010 A 
ATOM     22  C   UNL A   1      33.120  25.867  24.446  1.00  0.00     0.010 A 
ATOM     23  C   UNL A   1      32.904  24.273  22.180  1.00  0.00     0.001 A 
ATOM     24  C   UNL A   1      33.525  24.535  24.496  1.00  0.00     0.001 A 
ATOM     25  C   UNL A   1      33.411  23.736  23.364  1.00  0.00     0.000 A 
ENDBRANCH   8  20
ENDBRANCH   5   8
ENDBRANCH   3   4
ENDBRANCH   2   3
ENDBRANCH   1   2
BRANCH   1  26
ATOM     26  C   UNL A   1      32.364  32.349  26.905  1.00  0.00     0.116 C 
BRANCH  26  27
ATOM     27  N   UNL A   1      32.394  33.747  27.309  1.00  0.00    -0.352 N 
ATOM     28  C   UNL A   1      33.192  34.360  28.241  1.00  0.00     0.251 C 
ATOM     29  H   UNL A   1      31.752  34.335  26.848  1.00  0.00     0.163 HD
ATOM     30  O   UNL A   1      32.930  35.504  28.617  1.00  0.00    -0.269 OA
BRANCH  28  31
ATOM     31  C   UNL A   1      34.356  33.642  28.801  1.00  0.00     0.039 A 
ATOM     32  C   UNL A   1      35.634  34.178  28.630  1.00  0.00     0.014 A 
ATOM     33  C   UNL A   1      34.183  32.443  29.498  1.00  0.00     0.014 A 
ATOM     34  C   UNL A   1      36.734  33.540  29.209  1.00  0.00     0.010 A 
ATOM     35  C   UNL A   1      35.268  31.852  30.137  1.00  0.00     0.010 A 
ATOM     36  C   UNL A   1      36.557  32.390  29.995  1.00  0.00    -0.014 A 
BRANCH  36  37
ATOM     37  C   UNL A   1      37.702  31.741  30.685  1.00  0.00     0.031 A 
ATOM     38  C   UNL A   1      38.520  30.692  29.981  1.00  0.00     0.074 A 
ATOM     39  C   UNL A   1      37.954  32.037  31.976  1.00  0.00     0.049 A 
ATOM     40  N   UNL A   1      39.525  29.988  30.435  1.00  0.00    -0.248 NA
ATOM     41  C   UNL A   1      38.143  30.372  28.595  1.00  0.00     0.031 C 
ATOM     42  C   UNL A   1      37.191  32.984  32.792  1.00  0.00     0.029 A 
ATOM     43  N   UNL A   1      38.909  31.555  32.836  1.00  0.00    -0.354 N 
ATOM     44  C   UNL A   1      39.874  29.118  29.409  1.00  0.00     0.074 A 
ATOM     45  C   UNL A   1      38.953  29.359  28.320  1.00  0.00     0.031 C 
ATOM     46  C   UNL A   1      37.714  33.023  34.028  1.00  0.00     0.029 A 
ATOM     47  C   UNL A   1      38.826  32.080  34.105  1.00  0.00     0.049 A 
ATOM     48  H   UNL A   1      39.590  30.895  32.570  1.00  0.00     0.167 HD
ATOM     49  C   UNL A   1      40.885  28.217  29.365  1.00  0.00     0.034 A 
ATOM     50  C   UNL A   1      39.555  31.825  35.209  1.00  0.00     0.034 A 
ATOM     51  C   UNL A   1      41.820  28.005  30.436  1.00  0.00     0.049 A 
ATOM     52  C   UNL A   1      40.685  30.834  35.126  1.00  0.00     0.074 A 
ATOM     53  C   UNL A   1      42.935  27.186  30.455  1.00  0.00     0.029 A 
ATOM     54  N   UNL A   1      41.742  28.601  31.685  1.00  0.00    -0.354 N 
ATOM     55  N   UNL A   1      41.103  30.142  34.094  1.00  0.00    -0.248 NA
ATOM     56  C   UNL A   1      41.465  30.613  36.353  1.00  0.00     0.031 C 
ATOM     57  C   UNL A   1      43.510  27.259  31.728  1.00  0.00     0.029 A 
ATOM     58  C   UNL A   1      42.777  28.154  32.489  1.00  0.00     0.049 A 
ATOM     59  H   UNL A   1      41.053  29.249  31.960  1.00  0.00     0.167 HD
ATOM     60  C   UNL A   1      42.217  29.437  34.534  1.00  0.00     0.074 A 
ATOM     61  C   UNL A   1      42.419  29.799  35.922  1.00  0.00     0.031 C 
ATOM     62  C   UNL A   1      42.998  28.560  33.854  1.00  0.00     0.034 A 
BRANCH  49  63
ATOM     63  C   UNL A   1      41.055  27.416  28.098  1.00  0.00     0.023 A 
ATOM     64  C   UNL A   1      41.636  28.017  26.962  1.00  0.00     0.012 A 
ATOM     65  C   UNL A   1      40.683  26.058  28.045  1.00  0.00     0.148 A 
ATOM     66  C   UNL A   1      41.805  27.294  25.782  1.00  0.00     0.002 A 
ATOM     67  C   UNL A   1      40.901  25.330  26.880  1.00  0.00     0.091 A 
ATOM     68  F   UNL A   1      40.115  25.507  29.126  1.00  0.00    -0.205 F 
ATOM     69  C   UNL A   1      41.447  25.950  25.744  1.00  0.00     0.022 A 
BRANCH  67  70
ATOM     70  S   UNL A   1      40.552  23.572  26.758  1.00  0.00     0.127 S 
ATOM     71  O   UNL A   1      39.148  23.578  26.352  1.00  0.00    -0.237 OA
ATOM     72  O   UNL A   1      41.486  23.146  25.714  1.00  0.00    -0.237 OA
ATOM     73  O   UNL A   1      40.820  23.016  28.076  1.00  0.00    -0.744 OA
ENDBRANCH  67  70
ENDBRANCH  49  63
BRANCH  50  74
ATOM     74  C   UNL A   1      39.289  32.573  36.471  1.00  0.00     0.023 A 
ATOM     75  C   UNL A   1      39.943  33.799  36.695  1.00  0.00     0.012 A 
ATOM     76  C   UNL A   1      38.385  32.089  37.437  1.00  0.00     0.148 A 
ATOM     77  C   UNL A   1      39.728  34.516  37.873  1.00  0.00     0.002 A 
ATOM     78  C   UNL A   1      38.135  32.835  38.583  1.00  0.00     0.091 A 
ATOM     79  F   UNL A   1      37.779  30.916  37.209  1.00  0.00    -0.205 F 
ATOM     80  C   UNL A   1      38.819  34.039  38.812  1.00  0.00     0.022 A 
BRANCH  78  81
ATOM     81  S   UNL A   1      36.889  32.366  39.789  1.00  0.00     0.127 S 
ATOM     82  O   UNL A   1      37.392  31.075  40.251  1.00  0.00    -0.237 OA
ATOM     83  O   UNL A   1      36.991  33.452  40.763  1.00  0.00    -0.237 OA
ATOM     84  O   UNL A   1      35.629  32.328  39.060  1.00  0.00    -0.744 OA
ENDBRANCH  78  81
ENDBRANCH  50  74
BRANCH  62  85
ATOM     85  C   UNL A   1      44.175  27.961  34.580  1.00  0.00     0.023 A 
ATOM     86  C   UNL A   1      45.398  28.658  34.637  1.00  0.00     0.012 A 
ATOM     87  C   UNL A   1      44.043  26.739  35.270  1.00  0.00     0.148 A 
ATOM     88  C   UNL A   1      46.482  28.131  35.338  1.00  0.00     0.002 A 
ATOM     89  C   UNL A   1      45.111  26.247  36.011  1.00  0.00     0.091 A 
ATOM     90  F   UNL A   1      42.877  26.082  35.190  1.00  0.00    -0.205 F 
ATOM     91  C   UNL A   1      46.335  26.933  36.034  1.00  0.00     0.022 A 
BRANCH  89  92
ATOM     92  S   UNL A   1      44.982  24.766  37.020  1.00  0.00     0.127 S 
ATOM     93  O   UNL A   1      46.374  24.551  37.413  1.00  0.00    -0.237 OA
ATOM     94  O   UNL A   1      44.103  25.207  38.104  1.00  0.00    -0.237 OA
ATOM     95  O   UNL A   1      44.412  23.739  36.158  1.00  0.00    -0.744 OA
ENDBRANCH  89  92
ENDBRANCH  62  85
ENDBRANCH  36  37
ENDBRANCH  28  31
ENDBRANCH  26  27
ENDBRANCH   1  26
TORSDOF 17
ENDMDL
MODEL 3
REMARK VINA RESULT:     -12.1      1.969      3.754
REMARK SMILES CC1(C)CSC[C@H]([NH2+][C@H](C(=O)NCCCCNC(=O)c2ccc(-c3c4nc(c(-c5cccc(S(=O)(=O)[O-])c5F)c5ccc([nH]5)c(-c5cccc(S(=O)(=O)[O-])c5F)c5nc(c(-c6cccc(S(=O)(=O)[O-])c6F)c6ccc3[nH]6)C=C5)C=C4)cc2)c2ccccc2)C1
REMARK SMILES IDX 15 1 14 2 13 3 12 4 10 5 11 6 9 8 8 9 7 12 1 13 2 14 3 15
REMARK SMILES IDX 4 16 89 17 5 18 6 19 83 20 84 21 88 22 85 23 87 24 86 25
REMARK SMILES IDX 16 26 17 27 18 28 19 30 20 31 21 32 82 33 22 34 81 35 23 36
REMARK SMILES IDX 24 37 25 38 75 39 26 40 80 41 74 42 76 43 27 44 79 45 73 46
REMARK SMILES IDX 72 47 28 49 60 50 40 51 59 52 41 53 44 54 58 55 77 56 42 57
REMARK SMILES IDX 43 58 57 60 78 61 45 62 29 63 30 64 38 65 31 66 33 67 39 68
REMARK SMILES IDX 32 69 34 70 35 71 36 72 37 73 61 74 62 75 70 76 63 77 65 78
REMARK SMILES IDX 71 79 64 80 66 81 67 82 68 83 69 84 46 85 47 86 55 87 48 88
REMARK SMILES IDX 50 89 56 90 49 91 51 92 52 93 53 94 54 95
REMARK H PARENT 12 7 8 10 8 11 17 29 76 48 44 59
REMARK Flexibility Score: inf
ROOT
ATOM      1  C   UNL A   1      31.273  31.954  26.185  1.00  0.00     0.023 C 
ENDROOT
BRANCH   1   2
ATOM      2  C   UNL A   1      31.191  30.532  25.614  1.00  0.00     0.023 C 
BRANCH   2   3
ATOM      3  C   UNL A   1      32.456  29.697  25.805  1.00  0.00     0.116 C 
BRANCH   3   4
ATOM      4  N   UNL A   1      33.269  29.736  24.608  1.00  0.00    -0.351 N 
ATOM      5  C   UNL A   1      33.265  28.945  23.500  1.00  0.00     0.283 C 
ATOM      6  O   UNL A   1      34.197  29.131  22.710  1.00  0.00    -0.268 OA
ATOM      7  H   UNL A   1      33.938  30.458  24.592  1.00  0.00     0.163 HD
BRANCH   5   8
ATOM      8  C   UNL A   1      32.121  27.924  23.244  1.00  0.00     0.304 C 
BRANCH   8   9
ATOM      9  N   UNL A   1      31.336  28.134  21.992  1.00  0.00    -0.329 N 
ATOM     10  H   UNL A   1      31.853  28.812  21.431  1.00  0.00     0.347 HD
ATOM     11  H   UNL A   1      31.239  27.191  21.616  1.00  0.00     0.347 HD
BRANCH   9  12
ATOM     12  C   UNL A   1      29.945  28.614  22.064  1.00  0.00     0.193 C 
ATOM     13  C   UNL A   1      27.994  30.895  20.868  1.00  0.00     0.012 C 
ATOM     14  C   UNL A   1      28.672  30.916  22.254  1.00  0.00    -0.021 C 
ATOM     15  C   UNL A   1      28.960  32.391  22.613  1.00  0.00     0.012 C 
ATOM     16  C   UNL A   1      27.723  30.364  23.337  1.00  0.00     0.076 C 
ATOM     17  C   UNL A   1      30.029  30.157  22.203  1.00  0.00     0.073 C 
ATOM     18  S   UNL A   1      27.426  28.584  23.223  1.00  0.00    -0.155 SA
ATOM     19  C   UNL A   1      29.155  28.048  23.262  1.00  0.00     0.134 C 
ENDBRANCH   9  12
ENDBRANCH   8   9
BRANCH   8  20
ATOM     20  C   UNL A   1      32.681  26.495  23.256  1.00  0.00     0.019 A 
ATOM     21  C   UNL A   1      32.201  25.519  22.371  1.00  0.00     0.010 A 
ATOM     22  C   UNL A   1      33.655  26.120  24.203  1.00  0.00     0.010 A 
ATOM     23  C   UNL A   1      32.658  24.200  22.458  1.00  0.00     0.001 A 
ATOM     24  C   UNL A   1      34.103  24.805  24.293  1.00  0.00     0.001 A 
ATOM     25  C   UNL A   1      33.600  23.842  23.424  1.00  0.00     0.000 A 
ENDBRANCH   8  20
ENDBRANCH   5   8
ENDBRANCH   3   4
ENDBRANCH   2   3
ENDBRANCH   1   2
BRANCH   1  26
ATOM     26  C   UNL A   1      32.400  32.179  27.189  1.00  0.00     0.116 C 
BRANCH  26  27
ATOM     27  N   UNL A   1      32.641  33.595  27.421  1.00  0.00    -0.352 N 
ATOM     28  C   UNL A   1      33.605  34.192  28.194  1.00  0.00     0.251 C 
ATOM     29  H   UNL A   1      32.028  34.212  26.958  1.00  0.00     0.163 HD
ATOM     30  O   UNL A   1      33.525  35.393  28.457  1.00  0.00    -0.269 OA
BRANCH  28  31
ATOM     31  C   UNL A   1      34.728  33.389  28.721  1.00  0.00     0.039 A 
ATOM     32  C   UNL A   1      36.034  33.714  28.343  1.00  0.00     0.014 A 
ATOM     33  C   UNL A   1      34.492  32.320  29.590  1.00  0.00     0.014 A 
ATOM     34  C   UNL A   1      37.106  33.001  28.884  1.00  0.00     0.010 A 
ATOM     35  C   UNL A   1      35.565  31.663  30.186  1.00  0.00     0.010 A 
ATOM     36  C   UNL A   1      36.883  31.992  29.834  1.00  0.00    -0.014 A 
BRANCH  36  37
ATOM     37  C   UNL A   1      38.014  31.276  30.482  1.00  0.00     0.031 A 
ATOM     38  C   UNL A   1      38.403  31.594  31.901  1.00  0.00     0.074 A 
ATOM     39  C   UNL A   1      38.744  30.399  29.764  1.00  0.00     0.049 A 
ATOM     40  N   UNL A   1      39.384  31.106  32.616  1.00  0.00    -0.248 NA
ATOM     41  C   UNL A   1      37.602  32.612  32.599  1.00  0.00     0.031 C 
ATOM     42  C   UNL A   1      38.514  30.056  28.359  1.00  0.00     0.029 A 
ATOM     43  N   UNL A   1      39.843  29.653  30.111  1.00  0.00    -0.354 N 
ATOM     44  C   UNL A   1      39.343  31.783  33.829  1.00  0.00     0.074 A 
ATOM     45  C   UNL A   1      38.261  32.739  33.742  1.00  0.00     0.031 C 
ATOM     46  C   UNL A   1      39.433  29.159  27.968  1.00  0.00     0.029 A 
ATOM     47  C   UNL A   1      40.339  28.889  29.080  1.00  0.00     0.049 A 
ATOM     48  H   UNL A   1      40.238  29.663  31.012  1.00  0.00     0.167 HD
ATOM     49  C   UNL A   1      40.118  31.609  34.927  1.00  0.00     0.034 A 
ATOM     50  C   UNL A   1      41.408  28.070  29.031  1.00  0.00     0.034 A 
ATOM     51  C   UNL A   1      41.170  30.633  35.021  1.00  0.00     0.049 A 
ATOM     52  C   UNL A   1      42.241  27.880  30.271  1.00  0.00     0.074 A 
ATOM     53  C   UNL A   1      41.950  30.313  36.118  1.00  0.00     0.029 A 
ATOM     54  N   UNL A   1      41.604  29.833  33.976  1.00  0.00    -0.354 N 
ATOM     55  N   UNL A   1      42.083  28.407  31.461  1.00  0.00    -0.248 NA
ATOM     56  C   UNL A   1      43.380  26.956  30.170  1.00  0.00     0.031 C 
ATOM     57  C   UNL A   1      42.880  29.344  35.726  1.00  0.00     0.029 A 
ATOM     58  C   UNL A   1      42.653  29.032  34.396  1.00  0.00     0.049 A 
ATOM     59  H   UNL A   1      41.222  29.832  33.068  1.00  0.00     0.167 HD
ATOM     60  C   UNL A   1      43.075  27.849  32.259  1.00  0.00     0.074 A 
ATOM     61  C   UNL A   1      43.816  26.930  31.422  1.00  0.00     0.031 C 
ATOM     62  C   UNL A   1      43.353  28.084  33.566  1.00  0.00     0.034 A 
BRANCH  49  63
ATOM     63  C   UNL A   1      39.831  32.470  36.131  1.00  0.00     0.023 A 
ATOM     64  C   UNL A   1      40.523  33.686  36.304  1.00  0.00     0.012 A 
ATOM     65  C   UNL A   1      38.845  32.099  37.067  1.00  0.00     0.148 A 
ATOM     66  C   UNL A   1      40.271  34.498  37.409  1.00  0.00     0.002 A 
ATOM     67  C   UNL A   1      38.563  32.938  38.139  1.00  0.00     0.091 A 
ATOM     68  F   UNL A   1      38.209  30.932  36.899  1.00  0.00    -0.205 F 
ATOM     69  C   UNL A   1      39.285  34.130  38.319  1.00  0.00     0.022 A 
BRANCH  67  70
ATOM     70  S   UNL A   1      37.254  32.594  39.320  1.00  0.00     0.127 S 
ATOM     71  O   UNL A   1      37.460  33.655  40.305  1.00  0.00    -0.237 OA
ATOM     72  O   UNL A   1      36.052  32.750  38.500  1.00  0.00    -0.237 OA
ATOM     73  O   UNL A   1      37.491  31.241  39.800  1.00  0.00    -0.744 OA
ENDBRANCH  67  70
ENDBRANCH  49  63
BRANCH  50  74
ATOM     74  C   UNL A   1      41.713  27.310  27.785  1.00  0.00     0.023 A 
ATOM     75  C   UNL A   1      42.229  27.996  26.669  1.00  0.00     0.012 A 
ATOM     76  C   UNL A   1      41.513  25.918  27.704  1.00  0.00     0.148 A 
ATOM     77  C   UNL A   1      42.509  27.318  25.483  1.00  0.00     0.002 A 
ATOM     78  C   UNL A   1      41.846  25.240  26.537  1.00  0.00     0.091 A 
ATOM     79  F   UNL A   1      41.014  25.285  28.774  1.00  0.00    -0.205 F 
ATOM     80  C   UNL A   1      42.325  25.940  25.419  1.00  0.00     0.022 A 
BRANCH  78  81
ATOM     81  S   UNL A   1      41.763  23.451  26.402  1.00  0.00     0.127 S 
ATOM     82  O   UNL A   1      42.459  23.214  25.139  1.00  0.00    -0.237 OA
ATOM     83  O   UNL A   1      42.491  23.025  27.597  1.00  0.00    -0.237 OA
ATOM     84  O   UNL A   1      40.345  23.120  26.412  1.00  0.00    -0.744 OA
ENDBRANCH  78  81
ENDBRANCH  50  74
BRANCH  62  85
ATOM     85  C   UNL A   1      44.478  27.303  34.194  1.00  0.00     0.023 A 
ATOM     86  C   UNL A   1      45.793  27.807  34.158  1.00  0.00     0.012 A 
ATOM     87  C   UNL A   1      44.217  26.103  34.885  1.00  0.00     0.148 A 
ATOM     88  C   UNL A   1      46.837  27.111  34.768  1.00  0.00     0.002 A 
ATOM     89  C   UNL A   1      45.252  25.443  35.537  1.00  0.00     0.091 A 
ATOM     90  F   UNL A   1      42.963  25.629  34.894  1.00  0.00    -0.205 F 
ATOM     91  C   UNL A   1      46.564  25.937  35.467  1.00  0.00     0.022 A 
BRANCH  89  92
ATOM     92  S   UNL A   1      44.980  23.981  36.545  1.00  0.00     0.127 S 
ATOM     93  O   UNL A   1      44.359  24.554  37.739  1.00  0.00    -0.237 OA
ATOM     94  O   UNL A   1      44.077  23.192  35.707  1.00  0.00    -0.237 OA
ATOM     95  O   UNL A   1      46.292  23.383  36.752  1.00  0.00    -0.744 OA
ENDBRANCH  89  92
ENDBRANCH  62  85
ENDBRANCH  36  37
ENDBRANCH  28  31
ENDBRANCH  26  27
ENDBRANCH   1  26
TORSDOF 17
ENDMDL
