MODEL 1
REMARK VINA RESULT:     -11.7      0.000      0.000
REMARK SMILES C[C@@H](C(=O)NCCCCNC(=O)c1ccc(-c2c3nc(c(-c4cccc(S(=O)(=O)[O-])c4F)c4ccc([nH]4)c(-c4cccc(S(=O)(=O)[O-])c4F)c4nc(c(-c5cccc(S(=O)(=O)[O-])c5F)c5ccc2[nH]5)C=C4)C=C3)cc1)c1ccc(C[C@@H]2CCC[C@@H]2O)cc1
REMARK SMILES IDX 7 1 6 2 5 3 3 4 4 5 2 7 1 8 76 9 77 10 88 11 78 12 87 13
REMARK SMILES IDX 79 14 80 15 81 16 82 17 85 18 83 19 84 20 86 21 8 23 9 24
REMARK SMILES IDX 10 25 11 26 12 28 13 29 14 30 75 31 15 32 74 33 16 34 17 35
REMARK SMILES IDX 18 36 68 37 19 38 73 39 67 40 69 41 20 42 72 43 66 44 65 45
REMARK SMILES IDX 21 47 53 48 33 49 52 50 34 51 37 52 51 53 70 54 35 55 36 56
REMARK SMILES IDX 50 58 71 59 38 60 22 61 23 62 31 63 24 64 26 65 32 66 25 67
REMARK SMILES IDX 27 68 28 69 29 70 30 71 54 72 55 73 63 74 56 75 58 76 64 77
REMARK SMILES IDX 57 78 59 79 60 80 61 81 62 82 39 83 40 84 48 85 41 86 43 87
REMARK SMILES IDX 49 88 42 89 44 90 45 91 46 92 47 93
REMARK H PARENT 5 6 86 22 10 27 69 46 37 57
REMARK Flexibility Score: inf
ROOT
ATOM      1  C   UNL A   1      32.757  27.428  26.793  1.00  0.00     0.023 C 
ENDROOT
BRANCH   1   2
ATOM      2  C   UNL A   1      32.689  26.083  26.068  1.00  0.00     0.116 C 
BRANCH   2   3
ATOM      3  N   UNL A   1      31.706  25.212  26.676  1.00  0.00    -0.356 N 
ATOM      4  C   UNL A   1      30.753  24.424  26.100  1.00  0.00     0.227 C 
ATOM      5  O   UNL A   1      29.974  23.849  26.864  1.00  0.00    -0.274 OA
ATOM      6  H   UNL A   1      31.728  25.184  27.660  1.00  0.00     0.163 HD
BRANCH   4   7
ATOM      7  C   UNL A   1      30.715  24.238  24.567  1.00  0.00     0.105 C 
ATOM      8  C   UNL A   1      31.971  23.527  24.047  1.00  0.00     0.023 C 
BRANCH   7   9
ATOM      9  C   UNL A   1      30.480  25.575  23.862  1.00  0.00    -0.036 A 
ATOM     10  C   UNL A   1      31.391  26.100  22.937  1.00  0.00     0.005 A 
ATOM     11  C   UNL A   1      29.356  26.347  24.197  1.00  0.00     0.005 A 
ATOM     12  C   UNL A   1      31.198  27.360  22.374  1.00  0.00     0.004 A 
ATOM     13  C   UNL A   1      29.180  27.624  23.654  1.00  0.00     0.004 A 
ATOM     14  C   UNL A   1      30.122  28.159  22.766  1.00  0.00    -0.048 A 
BRANCH  14  15
ATOM     15  C   UNL A   1      30.001  29.579  22.272  1.00  0.00     0.041 C 
BRANCH  15  16
ATOM     16  C   UNL A   1      28.672  30.327  22.541  1.00  0.00     0.022 C 
ATOM     17  C   UNL A   1      27.893  30.770  21.296  1.00  0.00     0.007 C 
ATOM     18  C   UNL A   1      28.749  31.619  23.362  1.00  0.00     0.117 C 
ATOM     19  C   UNL A   1      28.173  32.263  21.102  1.00  0.00     0.003 C 
ATOM     20  C   UNL A   1      28.937  32.731  22.336  1.00  0.00     0.032 C 
BRANCH  18  21
ATOM     21  O   UNL A   1      29.748  31.589  24.361  1.00  0.00    -0.393 OA
ATOM     22  H   UNL A   1      30.524  32.086  24.057  1.00  0.00     0.210 HD
ENDBRANCH  18  21
ENDBRANCH  15  16
ENDBRANCH  14  15
ENDBRANCH   7   9
ENDBRANCH   4   7
ENDBRANCH   2   3
ENDBRANCH   1   2
BRANCH   1  23
ATOM     23  C   UNL A   1      31.969  28.557  26.123  1.00  0.00     0.023 C 
BRANCH  23  24
ATOM     24  C   UNL A   1      32.810  29.712  25.593  1.00  0.00     0.116 C 
BRANCH  24  25
ATOM     25  N   UNL A   1      32.379  31.008  26.098  1.00  0.00    -0.352 N 
ATOM     26  C   UNL A   1      32.969  31.796  27.055  1.00  0.00     0.251 C 
ATOM     27  H   UNL A   1      31.554  31.367  25.699  1.00  0.00     0.163 HD
ATOM     28  O   UNL A   1      32.400  32.811  27.448  1.00  0.00    -0.269 OA
BRANCH  26  29
ATOM     29  C   UNL A   1      34.272  31.400  27.629  1.00  0.00     0.039 A 
ATOM     30  C   UNL A   1      35.286  32.356  27.724  1.00  0.00     0.014 A 
ATOM     31  C   UNL A   1      34.483  30.099  28.095  1.00  0.00     0.014 A 
ATOM     32  C   UNL A   1      36.492  32.024  28.346  1.00  0.00     0.010 A 
ATOM     33  C   UNL A   1      35.656  29.792  28.777  1.00  0.00     0.010 A 
ATOM     34  C   UNL A   1      36.674  30.750  28.907  1.00  0.00    -0.014 A 
BRANCH  34  35
ATOM     35  C   UNL A   1      37.912  30.403  29.651  1.00  0.00     0.031 A 
ATOM     36  C   UNL A   1      38.907  29.443  29.062  1.00  0.00     0.074 A 
ATOM     37  C   UNL A   1      38.090  30.877  30.900  1.00  0.00     0.049 A 
ATOM     38  N   UNL A   1      40.010  28.975  29.586  1.00  0.00    -0.248 NA
ATOM     39  C   UNL A   1      38.613  28.918  27.718  1.00  0.00     0.031 C 
ATOM     40  C   UNL A   1      37.154  31.748  31.617  1.00  0.00     0.029 A 
ATOM     41  N   UNL A   1      39.105  30.671  31.800  1.00  0.00    -0.354 N 
ATOM     42  C   UNL A   1      40.519  28.074  28.659  1.00  0.00     0.074 A 
ATOM     43  C   UNL A   1      39.590  28.037  27.551  1.00  0.00     0.031 C 
ATOM     44  C   UNL A   1      37.638  32.000  32.843  1.00  0.00     0.029 A 
ATOM     45  C   UNL A   1      38.904  31.292  33.011  1.00  0.00     0.049 A 
ATOM     46  H   UNL A   1      39.903  30.131  31.598  1.00  0.00     0.167 HD
ATOM     47  C   UNL A   1      41.671  27.364  28.709  1.00  0.00     0.034 A 
ATOM     48  C   UNL A   1      39.650  31.287  34.133  1.00  0.00     0.034 A 
ATOM     49  C   UNL A   1      42.618  27.442  29.788  1.00  0.00     0.049 A 
ATOM     50  C   UNL A   1      40.953  30.534  34.142  1.00  0.00     0.074 A 
ATOM     51  C   UNL A   1      43.860  26.840  29.887  1.00  0.00     0.029 A 
ATOM     52  N   UNL A   1      42.428  28.160  30.959  1.00  0.00    -0.354 N 
ATOM     53  N   UNL A   1      41.501  29.824  33.186  1.00  0.00    -0.248 NA
ATOM     54  C   UNL A   1      41.759  30.611  35.369  1.00  0.00     0.031 C 
ATOM     55  C   UNL A   1      44.413  27.180  31.126  1.00  0.00     0.029 A 
ATOM     56  C   UNL A   1      43.524  28.011  31.790  1.00  0.00     0.049 A 
ATOM     57  H   UNL A   1      41.629  28.697  31.168  1.00  0.00     0.167 HD
ATOM     58  C   UNL A   1      42.729  29.400  33.682  1.00  0.00     0.074 A 
ATOM     59  C   UNL A   1      42.853  29.951  35.015  1.00  0.00     0.031 C 
ATOM     60  C   UNL A   1      43.662  28.612  33.092  1.00  0.00     0.034 A 
BRANCH  47  61
ATOM     61  C   UNL A   1      42.003  26.484  27.533  1.00  0.00     0.023 A 
ATOM     62  C   UNL A   1      42.717  27.023  26.443  1.00  0.00     0.012 A 
ATOM     63  C   UNL A   1      41.667  25.116  27.529  1.00  0.00     0.148 A 
ATOM     64  C   UNL A   1      43.059  26.226  25.352  1.00  0.00     0.002 A 
ATOM     65  C   UNL A   1      42.051  24.316  26.458  1.00  0.00     0.091 A 
ATOM     66  F   UNL A   1      40.970  24.625  28.564  1.00  0.00    -0.205 F 
ATOM     67  C   UNL A   1      42.737  24.872  25.364  1.00  0.00     0.022 A 
BRANCH  65  68
ATOM     68  S   UNL A   1      41.752  22.546  26.415  1.00  0.00     0.127 S 
ATOM     69  O   UNL A   1      42.403  22.168  25.162  1.00  0.00    -0.237 OA
ATOM     70  O   UNL A   1      42.438  22.087  27.622  1.00  0.00    -0.237 OA
ATOM     71  O   UNL A   1      40.304  22.384  26.441  1.00  0.00    -0.744 OA
ENDBRANCH  65  68
ENDBRANCH  47  61
BRANCH  48  72
ATOM     72  C   UNL A   1      39.218  32.083  35.317  1.00  0.00     0.023 A 
ATOM     73  C   UNL A   1      38.385  31.485  36.282  1.00  0.00     0.012 A 
ATOM     74  C   UNL A   1      39.653  33.408  35.510  1.00  0.00     0.148 A 
ATOM     75  C   UNL A   1      37.967  32.203  37.404  1.00  0.00     0.002 A 
ATOM     76  C   UNL A   1      39.277  34.099  36.657  1.00  0.00     0.091 A 
ATOM     77  F   UNL A   1      40.436  33.963  34.576  1.00  0.00    -0.205 F 
ATOM     78  C   UNL A   1      38.420  33.504  37.597  1.00  0.00     0.022 A 
BRANCH  76  79
ATOM     79  S   UNL A   1      39.920  35.729  37.054  1.00  0.00     0.127 S 
ATOM     80  O   UNL A   1      39.182  36.054  38.271  1.00  0.00    -0.237 OA
ATOM     81  O   UNL A   1      41.343  35.453  37.249  1.00  0.00    -0.237 OA
ATOM     82  O   UNL A   1      39.626  36.558  35.891  1.00  0.00    -0.744 OA
ENDBRANCH  76  79
ENDBRANCH  48  72
BRANCH  60  83
ATOM     83  C   UNL A   1      44.921  28.320  33.865  1.00  0.00     0.023 A 
ATOM     84  C   UNL A   1      46.021  29.194  33.768  1.00  0.00     0.012 A 
ATOM     85  C   UNL A   1      44.982  27.224  34.748  1.00  0.00     0.148 A 
ATOM     86  C   UNL A   1      47.175  28.966  34.515  1.00  0.00     0.002 A 
ATOM     87  C   UNL A   1      46.118  27.030  35.526  1.00  0.00     0.091 A 
ATOM     88  F   UNL A   1      43.933  26.392  34.812  1.00  0.00    -0.205 F 
ATOM     89  C   UNL A   1      47.220  27.892  35.402  1.00  0.00     0.022 A 
BRANCH  87  90
ATOM     90  S   UNL A   1      46.226  25.732  36.763  1.00  0.00     0.127 S 
ATOM     91  O   UNL A   1      45.711  26.409  37.952  1.00  0.00    -0.237 OA
ATOM     92  O   UNL A   1      45.341  24.704  36.215  1.00  0.00    -0.237 OA
ATOM     93  O   UNL A   1      47.631  25.349  36.820  1.00  0.00    -0.744 OA
ENDBRANCH  87  90
ENDBRANCH  60  83
ENDBRANCH  34  35
ENDBRANCH  26  29
ENDBRANCH  24  25
ENDBRANCH  23  24
ENDBRANCH   1  23
TORSDOF 18
ENDMDL
MODEL 2
REMARK VINA RESULT:     -11.5      2.387      4.334
REMARK SMILES C[C@@H](C(=O)NCCCCNC(=O)c1ccc(-c2c3nc(c(-c4cccc(S(=O)(=O)[O-])c4F)c4ccc([nH]4)c(-c4cccc(S(=O)(=O)[O-])c4F)c4nc(c(-c5cccc(S(=O)(=O)[O-])c5F)c5ccc2[nH]5)C=C4)C=C3)cc1)c1ccc(C[C@@H]2CCC[C@@H]2O)cc1
REMARK SMILES IDX 7 1 6 2 5 3 3 4 4 5 2 7 1 8 76 9 77 10 88 11 78 12 87 13
REMARK SMILES IDX 79 14 80 15 81 16 82 17 85 18 83 19 84 20 86 21 8 23 9 24
REMARK SMILES IDX 10 25 11 26 12 28 13 29 14 30 75 31 15 32 74 33 16 34 17 35
REMARK SMILES IDX 18 36 68 37 19 38 73 39 67 40 69 41 20 42 72 43 66 44 65 45
REMARK SMILES IDX 21 47 53 48 33 49 52 50 34 51 37 52 51 53 70 54 35 55 36 56
REMARK SMILES IDX 50 58 71 59 38 60 22 61 23 62 31 63 24 64 26 65 32 66 25 67
REMARK SMILES IDX 27 68 28 69 29 70 30 71 54 72 55 73 63 74 56 75 58 76 64 77
REMARK SMILES IDX 57 78 59 79 60 80 61 81 62 82 39 83 40 84 48 85 41 86 43 87
REMARK SMILES IDX 49 88 42 89 44 90 45 91 46 92 47 93
REMARK H PARENT 5 6 86 22 10 27 69 46 37 57
REMARK Flexibility Score: inf
ROOT
ATOM      1  C   UNL A   1      31.155  31.198  25.761  1.00  0.00     0.023 C 
ENDROOT
BRANCH   1   2
ATOM      2  C   UNL A   1      32.306  30.267  26.146  1.00  0.00     0.116 C 
BRANCH   2   3
ATOM      3  N   UNL A   1      31.886  29.302  27.140  1.00  0.00    -0.356 N 
ATOM      4  C   UNL A   1      31.632  27.967  27.019  1.00  0.00     0.227 C 
ATOM      5  O   UNL A   1      31.190  27.394  28.017  1.00  0.00    -0.274 OA
ATOM      6  H   UNL A   1      31.762  29.667  28.047  1.00  0.00     0.163 HD
BRANCH   4   7
ATOM      7  C   UNL A   1      31.948  27.229  25.699  1.00  0.00     0.105 C 
ATOM      8  C   UNL A   1      30.681  26.976  24.871  1.00  0.00     0.023 C 
BRANCH   7   9
ATOM      9  C   UNL A   1      32.723  25.938  25.969  1.00  0.00    -0.036 A 
ATOM     10  C   UNL A   1      34.058  25.774  25.575  1.00  0.00     0.005 A 
ATOM     11  C   UNL A   1      32.069  24.847  26.563  1.00  0.00     0.005 A 
ATOM     12  C   UNL A   1      34.715  24.559  25.754  1.00  0.00     0.004 A 
ATOM     13  C   UNL A   1      32.721  23.619  26.713  1.00  0.00     0.004 A 
ATOM     14  C   UNL A   1      34.041  23.452  26.273  1.00  0.00    -0.048 A 
BRANCH  14  15
ATOM     15  C   UNL A   1      34.707  22.101  26.322  1.00  0.00     0.041 C 
BRANCH  15  16
ATOM     16  C   UNL A   1      34.509  21.153  25.114  1.00  0.00     0.022 C 
ATOM     17  C   UNL A   1      34.147  21.832  23.786  1.00  0.00     0.007 C 
ATOM     18  C   UNL A   1      33.428  20.074  25.240  1.00  0.00     0.117 C 
ATOM     19  C   UNL A   1      32.637  21.661  23.594  1.00  0.00     0.003 C 
ATOM     20  C   UNL A   1      32.159  20.716  24.691  1.00  0.00     0.032 C 
BRANCH  18  21
ATOM     21  O   UNL A   1      33.291  19.570  26.553  1.00  0.00    -0.393 OA
ATOM     22  H   UNL A   1      33.795  18.744  26.637  1.00  0.00     0.210 HD
ENDBRANCH  18  21
ENDBRANCH  15  16
ENDBRANCH  14  15
ENDBRANCH   7   9
ENDBRANCH   4   7
ENDBRANCH   2   3
ENDBRANCH   1   2
BRANCH   1  23
ATOM     23  C   UNL A   1      31.239  32.602  26.368  1.00  0.00     0.023 C 
BRANCH  23  24
ATOM     24  C   UNL A   1      32.528  32.910  27.119  1.00  0.00     0.116 C 
BRANCH  24  25
ATOM     25  N   UNL A   1      32.564  34.262  27.658  1.00  0.00    -0.352 N 
ATOM     26  C   UNL A   1      33.423  34.793  28.588  1.00  0.00     0.251 C 
ATOM     27  H   UNL A   1      31.880  34.877  27.309  1.00  0.00     0.163 HD
ATOM     28  O   UNL A   1      33.232  35.926  29.022  1.00  0.00    -0.269 OA
BRANCH  26  29
ATOM     29  C   UNL A   1      34.555  33.984  29.086  1.00  0.00     0.039 A 
ATOM     30  C   UNL A   1      35.851  34.319  28.685  1.00  0.00     0.014 A 
ATOM     31  C   UNL A   1      34.342  32.917  29.962  1.00  0.00     0.014 A 
ATOM     32  C   UNL A   1      36.940  33.623  29.216  1.00  0.00     0.010 A 
ATOM     33  C   UNL A   1      35.430  32.273  30.544  1.00  0.00     0.010 A 
ATOM     34  C   UNL A   1      36.740  32.618  30.174  1.00  0.00    -0.014 A 
BRANCH  34  35
ATOM     35  C   UNL A   1      37.886  31.926  30.819  1.00  0.00     0.031 A 
ATOM     36  C   UNL A   1      38.623  30.838  30.088  1.00  0.00     0.074 A 
ATOM     37  C   UNL A   1      38.198  32.210  32.098  1.00  0.00     0.049 A 
ATOM     38  N   UNL A   1      39.604  30.082  30.508  1.00  0.00    -0.248 NA
ATOM     39  C   UNL A   1      38.184  30.540  28.714  1.00  0.00     0.031 C 
ATOM     40  C   UNL A   1      37.501  33.184  32.944  1.00  0.00     0.029 A 
ATOM     41  N   UNL A   1      39.163  31.687  32.923  1.00  0.00    -0.354 N 
ATOM     42  C   UNL A   1      39.873  29.197  29.472  1.00  0.00     0.074 A 
ATOM     43  C   UNL A   1      38.932  29.488  28.413  1.00  0.00     0.031 C 
ATOM     44  C   UNL A   1      38.061  33.187  34.164  1.00  0.00     0.029 A 
ATOM     45  C   UNL A   1      39.138  32.202  34.198  1.00  0.00     0.049 A 
ATOM     46  H   UNL A   1      39.812  31.009  32.629  1.00  0.00     0.167 HD
ATOM     47  C   UNL A   1      40.836  28.248  29.394  1.00  0.00     0.034 A 
ATOM     48  C   UNL A   1      39.892  31.910  35.276  1.00  0.00     0.034 A 
ATOM     49  C   UNL A   1      41.803  27.996  30.428  1.00  0.00     0.049 A 
ATOM     50  C   UNL A   1      40.990  30.889  35.146  1.00  0.00     0.074 A 
ATOM     51  C   UNL A   1      42.878  27.126  30.406  1.00  0.00     0.029 A 
ATOM     52  N   UNL A   1      41.809  28.607  31.672  1.00  0.00    -0.354 N 
ATOM     53  N   UNL A   1      41.339  30.183  34.098  1.00  0.00    -0.248 NA
ATOM     54  C   UNL A   1      41.823  30.653  36.333  1.00  0.00     0.031 C 
ATOM     55  C   UNL A   1      43.525  27.198  31.643  1.00  0.00     0.029 A 
ATOM     56  C   UNL A   1      42.864  28.129  32.430  1.00  0.00     0.049 A 
ATOM     57  H   UNL A   1      41.158  29.282  31.973  1.00  0.00     0.167 HD
ATOM     58  C   UNL A   1      42.451  29.446  34.488  1.00  0.00     0.074 A 
ATOM     59  C   UNL A   1      42.731  29.808  35.862  1.00  0.00     0.031 C 
ATOM     60  C   UNL A   1      43.167  28.539  33.777  1.00  0.00     0.034 A 
BRANCH  47  61
ATOM     61  C   UNL A   1      40.930  27.449  28.121  1.00  0.00     0.023 A 
ATOM     62  C   UNL A   1      41.601  27.996  27.008  1.00  0.00     0.012 A 
ATOM     63  C   UNL A   1      40.414  26.140  28.042  1.00  0.00     0.148 A 
ATOM     64  C   UNL A   1      41.726  27.268  25.825  1.00  0.00     0.002 A 
ATOM     65  C   UNL A   1      40.581  25.405  26.874  1.00  0.00     0.091 A 
ATOM     66  F   UNL A   1      39.760  25.645  29.102  1.00  0.00    -0.205 F 
ATOM     67  C   UNL A   1      41.226  25.971  25.761  1.00  0.00     0.022 A 
BRANCH  65  68
ATOM     68  S   UNL A   1      40.042  23.699  26.719  1.00  0.00     0.127 S 
ATOM     69  O   UNL A   1      41.038  23.158  25.795  1.00  0.00    -0.237 OA
ATOM     70  O   UNL A   1      40.158  23.211  28.094  1.00  0.00    -0.237 OA
ATOM     71  O   UNL A   1      38.679  23.754  26.208  1.00  0.00    -0.744 OA
ENDBRANCH  65  68
ENDBRANCH  47  61
BRANCH  48  72
ATOM     72  C   UNL A   1      39.681  32.648  36.553  1.00  0.00     0.023 A 
ATOM     73  C   UNL A   1      40.438  33.807  36.812  1.00  0.00     0.012 A 
ATOM     74  C   UNL A   1      38.717  32.234  37.492  1.00  0.00     0.148 A 
ATOM     75  C   UNL A   1      40.260  34.523  37.996  1.00  0.00     0.002 A 
ATOM     76  C   UNL A   1      38.508  32.982  38.645  1.00  0.00     0.091 A 
ATOM     77  F   UNL A   1      38.015  31.122  37.234  1.00  0.00    -0.205 F 
ATOM     78  C   UNL A   1      39.290  34.118  38.907  1.00  0.00     0.022 A 
BRANCH  76  79
ATOM     79  S   UNL A   1      37.190  32.611  39.808  1.00  0.00     0.127 S 
ATOM     80  O   UNL A   1      36.014  32.628  38.943  1.00  0.00    -0.237 OA
ATOM     81  O   UNL A   1      37.580  31.287  40.295  1.00  0.00    -0.237 OA
ATOM     82  O   UNL A   1      37.251  33.661  40.818  1.00  0.00    -0.744 OA
ENDBRANCH  76  79
ENDBRANCH  48  72
BRANCH  60  83
ATOM     83  C   UNL A   1      44.346  27.893  34.454  1.00  0.00     0.023 A 
ATOM     84  C   UNL A   1      45.609  28.514  34.406  1.00  0.00     0.012 A 
ATOM     85  C   UNL A   1      44.183  26.712  35.206  1.00  0.00     0.148 A 
ATOM     86  C   UNL A   1      46.699  27.955  35.070  1.00  0.00     0.002 A 
ATOM     87  C   UNL A   1      45.264  26.186  35.905  1.00  0.00     0.091 A 
ATOM     88  F   UNL A   1      42.979  26.125  35.224  1.00  0.00    -0.205 F 
ATOM     89  C   UNL A   1      46.526  26.799  35.828  1.00  0.00     0.022 A 
BRANCH  87  90
ATOM     90  S   UNL A   1      45.109  24.758  36.983  1.00  0.00     0.127 S 
ATOM     91  O   UNL A   1      44.646  23.730  36.052  1.00  0.00    -0.237 OA
ATOM     92  O   UNL A   1      46.481  24.576  37.459  1.00  0.00    -0.237 OA
ATOM     93  O   UNL A   1      44.157  25.140  38.018  1.00  0.00    -0.744 OA
ENDBRANCH  87  90
ENDBRANCH  60  83
ENDBRANCH  34  35
ENDBRANCH  26  29
ENDBRANCH  24  25
ENDBRANCH  23  24
ENDBRANCH   1  23
TORSDOF 18
ENDMDL
MODEL 3
REMARK VINA RESULT:     -11.5      5.920     10.583
REMARK SMILES C[C@@H](C(=O)NCCCCNC(=O)c1ccc(-c2c3nc(c(-c4cccc(S(=O)(=O)[O-])c4F)c4ccc([nH]4)c(-c4cccc(S(=O)(=O)[O-])c4F)c4nc(c(-c5cccc(S(=O)(=O)[O-])c5F)c5ccc2[nH]5)C=C4)C=C3)cc1)c1ccc(C[C@@H]2CCC[C@@H]2O)cc1
REMARK SMILES IDX 7 1 6 2 5 3 3 4 4 5 2 7 1 8 76 9 77 10 88 11 78 12 87 13
REMARK SMILES IDX 79 14 80 15 81 16 82 17 85 18 83 19 84 20 86 21 8 23 9 24
REMARK SMILES IDX 10 25 11 26 12 28 13 29 14 30 75 31 15 32 74 33 16 34 17 35
REMARK SMILES IDX 18 36 68 37 19 38 73 39 67 40 69 41 20 42 72 43 66 44 65 45
REMARK SMILES IDX 21 47 53 48 33 49 52 50 34 51 37 52 51 53 70 54 35 55 36 56
REMARK SMILES IDX 50 58 71 59 38 60 22 61 23 62 31 63 24 64 26 65 32 66 25 67
REMARK SMILES IDX 27 68 28 69 29 70 30 71 54 72 55 73 63 74 56 75 58 76 64 77
REMARK SMILES IDX 57 78 59 79 60 80 61 81 62 82 39 83 40 84 48 85 41 86 43 87
REMARK SMILES IDX 49 88 42 89 44 90 45 91 46 92 47 93
REMARK H PARENT 5 6 86 22 10 27 69 46 37 57
REMARK Flexibility Score: inf
ROOT
ATOM      1  C   UNL A   1      39.128  22.901  26.462  1.00  0.00     0.023 C 
ENDROOT
BRANCH   1   2
ATOM      2  C   UNL A   1      37.856  23.608  25.990  1.00  0.00     0.116 C 
BRANCH   2   3
ATOM      3  N   UNL A   1      37.657  23.425  24.568  1.00  0.00    -0.356 N 
ATOM      4  C   UNL A   1      36.513  23.184  23.863  1.00  0.00     0.227 C 
ATOM      5  O   UNL A   1      36.641  22.972  22.656  1.00  0.00    -0.274 OA
ATOM      6  H   UNL A   1      38.475  23.484  24.022  1.00  0.00     0.163 HD
BRANCH   4   7
ATOM      7  C   UNL A   1      35.138  23.236  24.565  1.00  0.00     0.105 C 
ATOM      8  C   UNL A   1      34.220  22.095  24.106  1.00  0.00     0.023 C 
BRANCH   7   9
ATOM      9  C   UNL A   1      34.484  24.606  24.382  1.00  0.00    -0.036 A 
ATOM     10  C   UNL A   1      34.010  25.045  23.138  1.00  0.00     0.005 A 
ATOM     11  C   UNL A   1      34.416  25.493  25.468  1.00  0.00     0.005 A 
ATOM     12  C   UNL A   1      33.497  26.332  22.979  1.00  0.00     0.004 A 
ATOM     13  C   UNL A   1      33.930  26.794  25.298  1.00  0.00     0.004 A 
ATOM     14  C   UNL A   1      33.502  27.238  24.041  1.00  0.00    -0.048 A 
BRANCH  14  15
ATOM     15  C   UNL A   1      33.092  28.673  23.826  1.00  0.00     0.041 C 
BRANCH  15  16
ATOM     16  C   UNL A   1      31.608  29.044  24.062  1.00  0.00     0.022 C 
ATOM     17  C   UNL A   1      30.796  28.045  24.897  1.00  0.00     0.007 C 
ATOM     18  C   UNL A   1      30.726  29.233  22.823  1.00  0.00     0.117 C 
ATOM     19  C   UNL A   1      29.965  27.213  23.915  1.00  0.00     0.003 C 
ATOM     20  C   UNL A   1      30.132  27.857  22.544  1.00  0.00     0.032 C 
BRANCH  18  21
ATOM     21  O   UNL A   1      31.419  29.790  21.724  1.00  0.00    -0.393 OA
ATOM     22  H   UNL A   1      32.110  29.174  21.431  1.00  0.00     0.210 HD
ENDBRANCH  18  21
ENDBRANCH  15  16
ENDBRANCH  14  15
ENDBRANCH   7   9
ENDBRANCH   4   7
ENDBRANCH   2   3
ENDBRANCH   1   2
BRANCH   1  23
ATOM     23  C   UNL A   1      39.368  21.526  25.832  1.00  0.00     0.023 C 
BRANCH  23  24
ATOM     24  C   UNL A   1      39.849  20.446  26.792  1.00  0.00     0.116 C 
BRANCH  24  25
ATOM     25  N   UNL A   1      40.796  19.523  26.182  1.00  0.00    -0.352 N 
ATOM     26  C   UNL A   1      42.099  19.749  25.813  1.00  0.00     0.251 C 
ATOM     27  H   UNL A   1      40.456  18.615  26.012  1.00  0.00     0.163 HD
ATOM     28  O   UNL A   1      42.720  18.887  25.196  1.00  0.00    -0.269 OA
BRANCH  26  29
ATOM     29  C   UNL A   1      42.737  21.044  26.133  1.00  0.00     0.039 A 
ATOM     30  C   UNL A   1      43.030  21.927  25.092  1.00  0.00     0.014 A 
ATOM     31  C   UNL A   1      43.020  21.394  27.456  1.00  0.00     0.014 A 
ATOM     32  C   UNL A   1      43.549  23.191  25.383  1.00  0.00     0.010 A 
ATOM     33  C   UNL A   1      43.469  22.678  27.749  1.00  0.00     0.010 A 
ATOM     34  C   UNL A   1      43.741  23.589  26.716  1.00  0.00    -0.014 A 
BRANCH  34  35
ATOM     35  C   UNL A   1      44.207  24.958  27.053  1.00  0.00     0.031 A 
ATOM     36  C   UNL A   1      43.240  25.977  27.591  1.00  0.00     0.074 A 
ATOM     37  C   UNL A   1      45.479  25.312  26.783  1.00  0.00     0.049 A 
ATOM     38  N   UNL A   1      43.448  27.234  27.884  1.00  0.00    -0.248 NA
ATOM     39  C   UNL A   1      41.852  25.534  27.803  1.00  0.00     0.031 C 
ATOM     40  C   UNL A   1      46.490  24.439  26.179  1.00  0.00     0.029 A 
ATOM     41  N   UNL A   1      46.132  26.507  26.952  1.00  0.00    -0.354 N 
ATOM     42  C   UNL A   1      42.215  27.742  28.275  1.00  0.00     0.074 A 
ATOM     43  C   UNL A   1      41.257  26.666  28.153  1.00  0.00     0.031 C 
ATOM     44  C   UNL A   1      47.632  25.128  26.029  1.00  0.00     0.029 A 
ATOM     45  C   UNL A   1      47.431  26.495  26.501  1.00  0.00     0.049 A 
ATOM     46  H   UNL A   1      45.710  27.298  27.359  1.00  0.00     0.167 HD
ATOM     47  C   UNL A   1      41.911  28.983  28.724  1.00  0.00     0.034 A 
ATOM     48  C   UNL A   1      48.355  27.475  26.465  1.00  0.00     0.034 A 
ATOM     49  C   UNL A   1      42.877  30.036  28.893  1.00  0.00     0.049 A 
ATOM     50  C   UNL A   1      48.008  28.830  27.021  1.00  0.00     0.074 A 
ATOM     51  C   UNL A   1      42.688  31.296  29.434  1.00  0.00     0.029 A 
ATOM     52  N   UNL A   1      44.209  29.957  28.518  1.00  0.00    -0.354 N 
ATOM     53  N   UNL A   1      46.879  29.240  27.547  1.00  0.00    -0.248 NA
ATOM     54  C   UNL A   1      49.070  29.845  27.015  1.00  0.00     0.031 C 
ATOM     55  C   UNL A   1      43.903  31.985  29.370  1.00  0.00     0.029 A 
ATOM     56  C   UNL A   1      44.854  31.147  28.808  1.00  0.00     0.049 A 
ATOM     57  H   UNL A   1      44.633  29.170  28.106  1.00  0.00     0.167 HD
ATOM     58  C   UNL A   1      47.106  30.546  27.965  1.00  0.00     0.074 A 
ATOM     59  C   UNL A   1      48.486  30.851  27.651  1.00  0.00     0.031 C 
ATOM     60  C   UNL A   1      46.243  31.419  28.543  1.00  0.00     0.034 A 
BRANCH  47  61
ATOM     61  C   UNL A   1      40.485  29.254  29.124  1.00  0.00     0.023 A 
ATOM     62  C   UNL A   1      39.546  29.619  28.137  1.00  0.00     0.012 A 
ATOM     63  C   UNL A   1      40.058  29.091  30.456  1.00  0.00     0.148 A 
ATOM     64  C   UNL A   1      38.214  29.851  28.475  1.00  0.00     0.002 A 
ATOM     65  C   UNL A   1      38.719  29.281  30.777  1.00  0.00     0.091 A 
ATOM     66  F   UNL A   1      40.969  28.765  31.385  1.00  0.00    -0.205 F 
ATOM     67  C   UNL A   1      37.798  29.672  29.791  1.00  0.00     0.022 A 
BRANCH  65  68
ATOM     68  S   UNL A   1      38.070  28.999  32.428  1.00  0.00     0.127 S 
ATOM     69  O   UNL A   1      38.419  27.597  32.647  1.00  0.00    -0.237 OA
ATOM     70  O   UNL A   1      38.838  29.951  33.230  1.00  0.00    -0.237 OA
ATOM     71  O   UNL A   1      36.643  29.284  32.351  1.00  0.00    -0.744 OA
ENDBRANCH  65  68
ENDBRANCH  47  61
BRANCH  48  72
ATOM     72  C   UNL A   1      49.724  27.188  25.949  1.00  0.00     0.023 A 
ATOM     73  C   UNL A   1      50.696  26.669  26.826  1.00  0.00     0.012 A 
ATOM     74  C   UNL A   1      50.057  27.391  24.596  1.00  0.00     0.148 A 
ATOM     75  C   UNL A   1      51.985  26.386  26.372  1.00  0.00     0.002 A 
ATOM     76  C   UNL A   1      51.327  27.056  24.139  1.00  0.00     0.091 A 
ATOM     77  F   UNL A   1      49.122  27.896  23.779  1.00  0.00    -0.205 F 
ATOM     78  C   UNL A   1      52.298  26.569  25.029  1.00  0.00     0.022 A 
BRANCH  76  79
ATOM     79  S   UNL A   1      51.776  27.132  22.401  1.00  0.00     0.127 S 
ATOM     80  O   UNL A   1      52.848  26.145  22.325  1.00  0.00    -0.237 OA
ATOM     81  O   UNL A   1      50.526  26.739  21.749  1.00  0.00    -0.237 OA
ATOM     82  O   UNL A   1      52.167  28.515  22.159  1.00  0.00    -0.744 OA
ENDBRANCH  76  79
ENDBRANCH  48  72
BRANCH  60  83
ATOM     83  C   UNL A   1      46.768  32.782  28.908  1.00  0.00     0.023 A 
ATOM     84  C   UNL A   1      47.392  32.982  30.155  1.00  0.00     0.012 A 
ATOM     85  C   UNL A   1      46.716  33.843  27.982  1.00  0.00     0.148 A 
ATOM     86  C   UNL A   1      47.928  34.225  30.488  1.00  0.00     0.002 A 
ATOM     87  C   UNL A   1      47.295  35.066  28.302  1.00  0.00     0.091 A 
ATOM     88  F   UNL A   1      46.101  33.640  26.808  1.00  0.00    -0.205 F 
ATOM     89  C   UNL A   1      47.890  35.262  29.559  1.00  0.00     0.022 A 
BRANCH  87  90
ATOM     90  S   UNL A   1      47.379  36.426  27.131  1.00  0.00     0.127 S 
ATOM     91  O   UNL A   1      45.964  36.725  26.919  1.00  0.00    -0.237 OA
ATOM     92  O   UNL A   1      48.112  37.442  27.886  1.00  0.00    -0.237 OA
ATOM     93  O   UNL A   1      48.090  35.909  25.969  1.00  0.00    -0.744 OA
ENDBRANCH  87  90
ENDBRANCH  60  83
ENDBRANCH  34  35
ENDBRANCH  26  29
ENDBRANCH  24  25
ENDBRANCH  23  24
ENDBRANCH   1  23
TORSDOF 18
ENDMDL
