MODEL 1
REMARK VINA RESULT:     -12.3      0.000      0.000
REMARK SMILES CCCc1cc(S(F)(F)(F)(F)F)cc2c1O[C@@H](C(F)(F)F)C(C(=O)NCCCCNC(=O)c1ccc(-c3c4nc(c(-c5cccc(S(=O)(=O)[O-])c5F)c5ccc([nH]5)c(-c5cccc(S(=O)(=O)[O-])c5F)c5nc(c(-c6cccc(S(=O)(=O)[O-])c6F)c6ccc3[nH]6)C=C5)C=C4)cc1)=C2
REMARK SMILES IDX 28 1 27 2 26 3 25 4 23 5 24 6 22 8 4 9 5 10 15 11 6 12 14 13
REMARK SMILES IDX 16 14 13 15 96 16 17 17 3 18 2 19 1 20 7 21 8 22 9 23 10 24
REMARK SMILES IDX 11 25 12 26 18 27 19 28 20 29 21 30 29 31 30 32 31 33 32 35
REMARK SMILES IDX 33 36 34 37 95 38 35 39 94 40 36 41 37 42 38 43 88 44 39 45
REMARK SMILES IDX 93 46 87 47 89 48 40 49 92 50 86 51 85 52 41 54 73 55 53 56
REMARK SMILES IDX 72 57 54 58 57 59 71 60 90 61 55 62 56 63 70 65 91 66 58 67
REMARK SMILES IDX 42 68 43 69 51 70 44 71 46 72 52 73 45 74 47 75 48 76 49 77
REMARK SMILES IDX 50 78 74 79 75 80 83 81 76 82 78 83 84 84 77 85 79 86 80 87
REMARK SMILES IDX 81 88 82 89 59 90 60 91 68 92 61 93 63 94 69 95 62 96 64 97
REMARK SMILES IDX 65 98 66 99 67 100
REMARK H PARENT 25 7 30 34 89 53 57 64
REMARK Flexibility Score: inf
ROOT
ATOM      1  C   UNL A   1      33.127  27.652  26.748  1.00  0.00     0.023 C 
ENDROOT
BRANCH   1   2
ATOM      2  C   UNL A   1      31.781  28.286  26.436  1.00  0.00     0.023 C 
BRANCH   2   3
ATOM      3  C   UNL A   1      30.809  27.213  25.976  1.00  0.00     0.116 C 
BRANCH   3   4
ATOM      4  N   UNL A   1      30.312  27.545  24.633  1.00  0.00    -0.352 N 
ATOM      5  C   UNL A   1      30.821  26.819  23.460  1.00  0.00     0.251 C 
ATOM      6  O   UNL A   1      30.392  27.106  22.299  1.00  0.00    -0.270 OA
ATOM      7  H   UNL A   1      29.638  28.253  24.519  1.00  0.00     0.163 HD
BRANCH   5   8
ATOM      8  C   UNL A   1      31.862  25.725  23.636  1.00  0.00     0.067 C 
ATOM      9  C   UNL A   1      34.791  22.747  23.610  1.00  0.00    -0.004 A 
ATOM     10  C   UNL A   1      34.450  21.441  23.912  1.00  0.00     0.032 A 
ATOM     11  C   UNL A   1      33.798  23.696  23.574  1.00  0.00     0.131 A 
ATOM     12  C   UNL A   1      33.150  21.093  24.167  1.00  0.00     0.108 A 
ATOM     13  C   UNL A   1      32.478  23.386  23.843  1.00  0.00     0.019 A 
ATOM     14  O   UNL A   1      34.134  24.963  23.162  1.00  0.00    -0.475 OA
ATOM     15  C   UNL A   1      32.169  22.063  24.139  1.00  0.00     0.036 A 
ATOM     16  C   UNL A   1      31.497  24.453  23.740  1.00  0.00     0.025 C 
ATOM     17  C   UNL A   1      33.345  26.064  23.694  1.00  0.00     0.314 C 
BRANCH   9  18
ATOM     18  C   UNL A   1      36.241  23.154  23.407  1.00  0.00     0.039 C 
BRANCH  18  19
ATOM     19  C   UNL A   1      36.875  23.462  24.754  1.00  0.00     0.001 C 
ATOM     20  C   UNL A   1      37.745  22.292  25.184  1.00  0.00     0.004 C 
ENDBRANCH  18  19
ENDBRANCH   9  18
BRANCH  12  21
ATOM     21  S   UNL A   1      32.722  19.374  24.538  1.00  0.00     0.310 S 
ATOM     22  F   UNL A   1      34.154  18.705  24.395  1.00  0.00    -0.094 F 
ATOM     23  F   UNL A   1      32.494  19.049  23.013  1.00  0.00    -0.094 F 
ATOM     24  F   UNL A   1      32.176  17.976  24.946  1.00  0.00    -0.094 F 
ATOM     25  F   UNL A   1      33.087  19.663  26.047  1.00  0.00    -0.094 F 
ATOM     26  F   UNL A   1      33.382  20.750  24.130  1.00  0.00    -0.094 F 
ENDBRANCH  12  21
BRANCH  17  27
ATOM     27  C   UNL A   1      33.603  27.307  22.859  1.00  0.00     0.429 C 
ATOM     28  F   UNL A   1      34.883  27.655  22.965  1.00  0.00    -0.167 F 
ATOM     29  F   UNL A   1      33.316  27.055  21.586  1.00  0.00    -0.167 F 
ATOM     30  F   UNL A   1      32.836  28.303  23.297  1.00  0.00    -0.167 F 
ENDBRANCH  17  27
ENDBRANCH   5   8
ENDBRANCH   3   4
ENDBRANCH   2   3
ENDBRANCH   1   2
BRANCH   1  31
ATOM     31  C   UNL A   1      34.240  28.616  26.371  1.00  0.00     0.116 C 
BRANCH  31  32
ATOM     32  N   UNL A   1      33.826  29.990  26.686  1.00  0.00    -0.352 N 
ATOM     33  C   UNL A   1      34.701  30.855  27.492  1.00  0.00     0.251 C 
ATOM     34  H   UNL A   1      32.963  30.333  26.359  1.00  0.00     0.163 HD
ATOM     35  O   UNL A   1      34.342  32.043  27.765  1.00  0.00    -0.269 OA
BRANCH  33  36
ATOM     36  C   UNL A   1      36.033  30.328  27.999  1.00  0.00     0.039 A 
ATOM     37  C   UNL A   1      37.182  30.463  27.238  1.00  0.00     0.014 A 
ATOM     38  C   UNL A   1      36.062  29.743  29.191  1.00  0.00     0.014 A 
ATOM     39  C   UNL A   1      38.270  29.684  27.698  1.00  0.00     0.010 A 
ATOM     40  C   UNL A   1      37.201  29.118  29.636  1.00  0.00     0.010 A 
ATOM     41  C   UNL A   1      38.357  29.161  28.907  1.00  0.00    -0.014 A 
BRANCH  41  42
ATOM     42  C   UNL A   1      39.671  28.633  29.458  1.00  0.00     0.031 A 
ATOM     43  C   UNL A   1      40.107  27.390  28.993  1.00  0.00     0.074 A 
ATOM     44  C   UNL A   1      40.340  29.379  30.414  1.00  0.00     0.049 A 
ATOM     45  N   UNL A   1      41.216  26.735  29.339  1.00  0.00    -0.248 NA
ATOM     46  C   UNL A   1      39.379  26.580  28.004  1.00  0.00     0.031 C 
ATOM     47  C   UNL A   1      39.912  30.637  30.883  1.00  0.00     0.029 A 
ATOM     48  N   UNL A   1      41.508  29.059  31.071  1.00  0.00    -0.354 N 
ATOM     49  C   UNL A   1      41.300  25.585  28.666  1.00  0.00     0.074 A 
ATOM     50  C   UNL A   1      40.118  25.467  27.803  1.00  0.00     0.031 C 
ATOM     51  C   UNL A   1      40.802  31.063  31.818  1.00  0.00     0.029 A 
ATOM     52  C   UNL A   1      41.801  30.080  31.948  1.00  0.00     0.049 A 
ATOM     53  H   UNL A   1      42.039  28.241  30.938  1.00  0.00     0.167 HD
ATOM     54  C   UNL A   1      42.318  24.633  28.738  1.00  0.00     0.034 A 
ATOM     55  C   UNL A   1      42.874  30.166  32.822  1.00  0.00     0.034 A 
ATOM     56  C   UNL A   1      43.413  24.740  29.581  1.00  0.00     0.049 A 
ATOM     57  C   UNL A   1      43.861  29.185  32.936  1.00  0.00     0.074 A 
ATOM     58  C   UNL A   1      44.451  23.792  29.659  1.00  0.00     0.029 A 
ATOM     59  N   UNL A   1      43.693  25.749  30.475  1.00  0.00    -0.354 N 
ATOM     60  N   UNL A   1      43.966  28.056  32.235  1.00  0.00    -0.248 NA
ATOM     61  C   UNL A   1      44.984  29.250  33.880  1.00  0.00     0.031 C 
ATOM     62  C   UNL A   1      45.341  24.219  30.594  1.00  0.00     0.029 A 
ATOM     63  C   UNL A   1      44.872  25.440  31.116  1.00  0.00     0.049 A 
ATOM     64  H   UNL A   1      43.147  26.552  30.628  1.00  0.00     0.167 HD
ATOM     65  C   UNL A   1      45.054  27.380  32.611  1.00  0.00     0.074 A 
ATOM     66  C   UNL A   1      45.721  28.135  33.680  1.00  0.00     0.031 C 
ATOM     67  C   UNL A   1      45.520  26.166  32.103  1.00  0.00     0.034 A 
BRANCH  54  68
ATOM     68  C   UNL A   1      42.220  23.409  27.841  1.00  0.00     0.023 A 
ATOM     69  C   UNL A   1      41.212  22.484  28.061  1.00  0.00     0.012 A 
ATOM     70  C   UNL A   1      43.102  23.246  26.862  1.00  0.00     0.148 A 
ATOM     71  C   UNL A   1      41.394  21.263  27.370  1.00  0.00     0.002 A 
ATOM     72  C   UNL A   1      43.136  22.079  26.138  1.00  0.00     0.091 A 
ATOM     73  F   UNL A   1      43.963  24.221  26.582  1.00  0.00    -0.205 F 
ATOM     74  C   UNL A   1      42.206  21.098  26.342  1.00  0.00     0.022 A 
BRANCH  72  75
ATOM     75  S   UNL A   1      44.428  21.840  24.893  1.00  0.00     0.127 S 
ATOM     76  O   UNL A   1      44.384  20.396  24.385  1.00  0.00    -0.237 OA
ATOM     77  O   UNL A   1      44.194  22.799  23.724  1.00  0.00    -0.237 OA
ATOM     78  O   UNL A   1      45.957  22.153  25.591  1.00  0.00    -0.744 OA
ENDBRANCH  72  75
ENDBRANCH  54  68
BRANCH  55  79
ATOM     79  C   UNL A   1      42.980  31.398  33.706  1.00  0.00     0.023 A 
ATOM     80  C   UNL A   1      43.686  32.499  33.253  1.00  0.00     0.012 A 
ATOM     81  C   UNL A   1      42.396  31.397  34.898  1.00  0.00     0.148 A 
ATOM     82  C   UNL A   1      43.964  33.456  34.259  1.00  0.00     0.002 A 
ATOM     83  C   UNL A   1      42.603  32.430  35.780  1.00  0.00     0.091 A 
ATOM     84  F   UNL A   1      41.602  30.387  35.241  1.00  0.00    -0.205 F 
ATOM     85  C   UNL A   1      43.340  33.524  35.420  1.00  0.00     0.022 A 
BRANCH  83  86
ATOM     86  S   UNL A   1      41.891  32.341  37.441  1.00  0.00     0.127 S 
ATOM     87  O   UNL A   1      40.385  32.088  37.338  1.00  0.00    -0.237 OA
ATOM     88  O   UNL A   1      42.548  31.198  38.218  1.00  0.00    -0.237 OA
ATOM     89  O   UNL A   1      42.167  33.818  38.258  1.00  0.00    -0.744 OA
ENDBRANCH  83  86
ENDBRANCH  55  79
BRANCH  67  90
ATOM     90  C   UNL A   1      46.816  25.606  32.668  1.00  0.00     0.023 A 
ATOM     91  C   UNL A   1      48.032  25.981  32.124  1.00  0.00     0.012 A 
ATOM     92  C   UNL A   1      46.748  24.759  33.689  1.00  0.00     0.148 A 
ATOM     93  C   UNL A   1      49.120  25.178  32.543  1.00  0.00     0.002 A 
ATOM     94  C   UNL A   1      47.876  24.111  34.134  1.00  0.00     0.091 A 
ATOM     95  F   UNL A   1      45.581  24.534  34.285  1.00  0.00    -0.205 F 
ATOM     96  C   UNL A   1      49.103  24.389  33.602  1.00  0.00     0.022 A 
BRANCH  94  97
ATOM     97  S   UNL A   1      47.732  22.871  35.445  1.00  0.00     0.127 S 
ATOM     98  O   UNL A   1      49.082  22.178  35.641  1.00  0.00    -0.237 OA
ATOM     99  O   UNL A   1      47.315  23.554  36.750  1.00  0.00    -0.237 OA
ATOM    100  O   UNL A   1      46.555  21.711  35.007  1.00  0.00    -0.744 OA
ENDBRANCH  94  97
ENDBRANCH  67  90
ENDBRANCH  41  42
ENDBRANCH  33  36
ENDBRANCH  31  32
ENDBRANCH   1  31
TORSDOF 18
ENDMDL
MODEL 2
REMARK VINA RESULT:     -12.3      4.700      9.677
REMARK SMILES CCCc1cc(S(F)(F)(F)(F)F)cc2c1O[C@@H](C(F)(F)F)C(C(=O)NCCCCNC(=O)c1ccc(-c3c4nc(c(-c5cccc(S(=O)(=O)[O-])c5F)c5ccc([nH]5)c(-c5cccc(S(=O)(=O)[O-])c5F)c5nc(c(-c6cccc(S(=O)(=O)[O-])c6F)c6ccc3[nH]6)C=C5)C=C4)cc1)=C2
REMARK SMILES IDX 28 1 27 2 26 3 25 4 23 5 24 6 22 8 4 9 5 10 15 11 6 12 14 13
REMARK SMILES IDX 16 14 13 15 96 16 17 17 3 18 2 19 1 20 7 21 8 22 9 23 10 24
REMARK SMILES IDX 11 25 12 26 18 27 19 28 20 29 21 30 29 31 30 32 31 33 32 35
REMARK SMILES IDX 33 36 34 37 95 38 35 39 94 40 36 41 37 42 38 43 88 44 39 45
REMARK SMILES IDX 93 46 87 47 89 48 40 49 92 50 86 51 85 52 41 54 73 55 53 56
REMARK SMILES IDX 72 57 54 58 57 59 71 60 90 61 55 62 56 63 70 65 91 66 58 67
REMARK SMILES IDX 42 68 43 69 51 70 44 71 46 72 52 73 45 74 47 75 48 76 49 77
REMARK SMILES IDX 50 78 74 79 75 80 83 81 76 82 78 83 84 84 77 85 79 86 80 87
REMARK SMILES IDX 81 88 82 89 59 90 60 91 68 92 61 93 63 94 69 95 62 96 64 97
REMARK SMILES IDX 65 98 66 99 67 100
REMARK H PARENT 25 7 30 34 89 53 57 64
REMARK Flexibility Score: inf
ROOT
ATOM      1  C   UNL A   1      36.484  23.823  24.714  1.00  0.00     0.023 C 
ENDROOT
BRANCH   1   2
ATOM      2  C   UNL A   1      36.151  22.548  23.956  1.00  0.00     0.023 C 
BRANCH   2   3
ATOM      3  C   UNL A   1      34.895  22.764  23.128  1.00  0.00     0.116 C 
BRANCH   3   4
ATOM      4  N   UNL A   1      33.910  21.722  23.452  1.00  0.00    -0.352 N 
ATOM      5  C   UNL A   1      32.661  22.080  24.142  1.00  0.00     0.251 C 
ATOM      6  O   UNL A   1      31.809  21.180  24.422  1.00  0.00    -0.270 OA
ATOM      7  H   UNL A   1      34.086  20.785  23.208  1.00  0.00     0.163 HD
BRANCH   5   8
ATOM      8  C   UNL A   1      32.389  23.527  24.519  1.00  0.00     0.067 C 
ATOM      9  C   UNL A   1      31.278  27.320  25.871  1.00  0.00    -0.004 A 
ATOM     10  C   UNL A   1      30.671  28.212  25.004  1.00  0.00     0.032 A 
ATOM     11  C   UNL A   1      31.584  26.061  25.414  1.00  0.00     0.131 A 
ATOM     12  C   UNL A   1      30.375  27.851  23.716  1.00  0.00     0.108 A 
ATOM     13  C   UNL A   1      31.317  25.668  24.116  1.00  0.00     0.019 A 
ATOM     14  O   UNL A   1      32.081  25.153  26.317  1.00  0.00    -0.475 OA
ATOM     15  C   UNL A   1      30.702  26.586  23.273  1.00  0.00     0.036 A 
ATOM     16  C   UNL A   1      31.643  24.302  23.741  1.00  0.00     0.025 C 
ATOM     17  C   UNL A   1      32.965  24.118  25.799  1.00  0.00     0.314 C 
BRANCH   9  18
ATOM     18  C   UNL A   1      31.682  27.740  27.275  1.00  0.00     0.039 C 
BRANCH  18  19
ATOM     19  C   UNL A   1      32.583  28.963  27.198  1.00  0.00     0.001 C 
ATOM     20  C   UNL A   1      33.978  28.537  26.768  1.00  0.00     0.004 C 
ENDBRANCH  18  19
ENDBRANCH   9  18
BRANCH  12  21
ATOM     21  S   UNL A   1      29.560  29.025  22.605  1.00  0.00     0.310 S 
ATOM     22  F   UNL A   1      29.458  30.279  23.571  1.00  0.00    -0.094 F 
ATOM     23  F   UNL A   1      28.133  28.599  23.120  1.00  0.00    -0.094 F 
ATOM     24  F   UNL A   1      28.926  29.905  21.492  1.00  0.00    -0.094 F 
ATOM     25  F   UNL A   1      30.992  29.549  22.193  1.00  0.00    -0.094 F 
ATOM     26  F   UNL A   1      30.213  28.224  23.801  1.00  0.00    -0.094 F 
ENDBRANCH  12  21
BRANCH  17  27
ATOM     27  C   UNL A   1      33.102  23.017  26.837  1.00  0.00     0.429 C 
ATOM     28  F   UNL A   1      33.916  22.072  26.375  1.00  0.00    -0.167 F 
ATOM     29  F   UNL A   1      33.602  23.525  27.959  1.00  0.00    -0.167 F 
ATOM     30  F   UNL A   1      31.905  22.489  27.084  1.00  0.00    -0.167 F 
ENDBRANCH  17  27
ENDBRANCH   5   8
ENDBRANCH   3   4
ENDBRANCH   2   3
ENDBRANCH   1   2
BRANCH   1  31
ATOM     31  C   UNL A   1      36.939  23.470  26.121  1.00  0.00     0.116 C 
BRANCH  31  32
ATOM     32  N   UNL A   1      37.889  22.352  26.064  1.00  0.00    -0.352 N 
ATOM     33  C   UNL A   1      39.281  22.545  26.497  1.00  0.00     0.251 C 
ATOM     34  H   UNL A   1      37.595  21.471  25.735  1.00  0.00     0.163 HD
ATOM     35  O   UNL A   1      40.103  21.578  26.447  1.00  0.00    -0.269 OA
BRANCH  33  36
ATOM     36  C   UNL A   1      39.736  23.904  27.004  1.00  0.00     0.039 A 
ATOM     37  C   UNL A   1      39.756  24.181  28.361  1.00  0.00     0.014 A 
ATOM     38  C   UNL A   1      40.120  24.809  26.111  1.00  0.00     0.014 A 
ATOM     39  C   UNL A   1      39.923  25.553  28.664  1.00  0.00     0.010 A 
ATOM     40  C   UNL A   1      40.400  26.097  26.497  1.00  0.00     0.010 A 
ATOM     41  C   UNL A   1      40.380  26.457  27.816  1.00  0.00    -0.014 A 
BRANCH  41  42
ATOM     42  C   UNL A   1      40.858  27.822  28.281  1.00  0.00     0.031 A 
ATOM     43  C   UNL A   1      39.886  28.724  28.719  1.00  0.00     0.074 A 
ATOM     44  C   UNL A   1      42.208  28.116  28.206  1.00  0.00     0.049 A 
ATOM     45  N   UNL A   1      40.071  29.968  29.163  1.00  0.00    -0.248 NA
ATOM     46  C   UNL A   1      38.446  28.424  28.767  1.00  0.00     0.031 C 
ATOM     47  C   UNL A   1      43.196  27.210  27.772  1.00  0.00     0.029 A 
ATOM     48  N   UNL A   1      42.835  29.301  28.526  1.00  0.00    -0.354 N 
ATOM     49  C   UNL A   1      38.903  30.511  29.512  1.00  0.00     0.074 A 
ATOM     50  C   UNL A   1      37.841  29.529  29.257  1.00  0.00     0.031 C 
ATOM     51  C   UNL A   1      44.398  27.843  27.818  1.00  0.00     0.029 A 
ATOM     52  C   UNL A   1      44.182  29.154  28.282  1.00  0.00     0.049 A 
ATOM     53  H   UNL A   1      42.394  30.112  28.868  1.00  0.00     0.167 HD
ATOM     54  C   UNL A   1      38.683  31.786  30.034  1.00  0.00     0.034 A 
ATOM     55  C   UNL A   1      45.182  30.100  28.448  1.00  0.00     0.034 A 
ATOM     56  C   UNL A   1      39.689  32.718  30.240  1.00  0.00     0.049 A 
ATOM     57  C   UNL A   1      44.953  31.396  28.916  1.00  0.00     0.074 A 
ATOM     58  C   UNL A   1      39.484  34.004  30.774  1.00  0.00     0.029 A 
ATOM     59  N   UNL A   1      41.033  32.579  29.974  1.00  0.00    -0.354 N 
ATOM     60  N   UNL A   1      43.792  31.925  29.302  1.00  0.00    -0.248 NA
ATOM     61  C   UNL A   1      46.000  32.416  29.064  1.00  0.00     0.031 C 
ATOM     62  C   UNL A   1      40.687  34.637  30.820  1.00  0.00     0.029 A 
ATOM     63  C   UNL A   1      41.662  33.756  30.315  1.00  0.00     0.049 A 
ATOM     64  H   UNL A   1      41.468  31.778  29.605  1.00  0.00     0.167 HD
ATOM     65  C   UNL A   1      43.972  33.184  29.706  1.00  0.00     0.074 A 
ATOM     66  C   UNL A   1      45.394  33.521  29.552  1.00  0.00     0.031 C 
ATOM     67  C   UNL A   1      43.008  34.065  30.200  1.00  0.00     0.034 A 
BRANCH  54  68
ATOM     68  C   UNL A   1      37.259  32.177  30.398  1.00  0.00     0.023 A 
ATOM     69  C   UNL A   1      36.810  31.979  31.694  1.00  0.00     0.012 A 
ATOM     70  C   UNL A   1      36.469  32.700  29.468  1.00  0.00     0.148 A 
ATOM     71  C   UNL A   1      35.408  32.100  31.839  1.00  0.00     0.002 A 
ATOM     72  C   UNL A   1      35.137  32.917  29.723  1.00  0.00     0.091 A 
ATOM     73  F   UNL A   1      36.972  33.016  28.278  1.00  0.00    -0.205 F 
ATOM     74  C   UNL A   1      34.612  32.688  30.965  1.00  0.00     0.022 A 
BRANCH  72  75
ATOM     75  S   UNL A   1      34.061  33.518  28.397  1.00  0.00     0.127 S 
ATOM     76  O   UNL A   1      34.864  34.424  27.461  1.00  0.00    -0.237 OA
ATOM     77  O   UNL A   1      33.512  32.327  27.607  1.00  0.00    -0.237 OA
ATOM     78  O   UNL A   1      32.762  34.402  29.072  1.00  0.00    -0.744 OA
ENDBRANCH  72  75
ENDBRANCH  54  68
BRANCH  55  79
ATOM     79  C   UNL A   1      46.608  29.704  28.100  1.00  0.00     0.023 A 
ATOM     80  C   UNL A   1      47.069  29.894  26.809  1.00  0.00     0.012 A 
ATOM     81  C   UNL A   1      47.386  29.181  29.040  1.00  0.00     0.148 A 
ATOM     82  C   UNL A   1      48.288  29.229  26.531  1.00  0.00     0.002 A 
ATOM     83  C   UNL A   1      48.622  28.672  28.721  1.00  0.00     0.091 A 
ATOM     84  F   UNL A   1      46.966  29.150  30.301  1.00  0.00    -0.205 F 
ATOM     85  C   UNL A   1      49.118  28.772  27.450  1.00  0.00     0.022 A 
BRANCH  83  86
ATOM     86  S   UNL A   1      49.608  27.856  30.001  1.00  0.00     0.127 S 
ATOM     87  O   UNL A   1      49.936  28.860  31.109  1.00  0.00    -0.237 OA
ATOM     88  O   UNL A   1      48.815  26.688  30.590  1.00  0.00    -0.237 OA
ATOM     89  O   UNL A   1      51.060  27.270  29.314  1.00  0.00    -0.744 OA
ENDBRANCH  83  86
ENDBRANCH  55  79
BRANCH  67  90
ATOM     90  C   UNL A   1      43.463  35.449  30.637  1.00  0.00     0.023 A 
ATOM     91  C   UNL A   1      43.876  35.666  31.941  1.00  0.00     0.012 A 
ATOM     92  C   UNL A   1      43.455  36.431  29.744  1.00  0.00     0.148 A 
ATOM     93  C   UNL A   1      43.993  37.034  32.285  1.00  0.00     0.002 A 
ATOM     94  C   UNL A   1      43.711  37.726  30.127  1.00  0.00     0.091 A 
ATOM     95  F   UNL A   1      43.197  36.161  28.467  1.00  0.00    -0.205 F 
ATOM     96  C   UNL A   1      44.068  38.021  31.412  1.00  0.00     0.022 A 
BRANCH  94  97
ATOM     97  S   UNL A   1      43.573  39.059  28.910  1.00  0.00     0.127 S 
ATOM     98  O   UNL A   1      42.095  39.366  28.656  1.00  0.00    -0.237 OA
ATOM     99  O   UNL A   1      44.269  40.313  29.446  1.00  0.00    -0.237 OA
ATOM    100  O   UNL A   1      44.314  38.576  27.448  1.00  0.00    -0.744 OA
ENDBRANCH  94  97
ENDBRANCH  67  90
ENDBRANCH  41  42
ENDBRANCH  33  36
ENDBRANCH  31  32
ENDBRANCH   1  31
TORSDOF 18
ENDMDL
MODEL 3
REMARK VINA RESULT:     -12.2      1.449      1.833
REMARK SMILES CCCc1cc(S(F)(F)(F)(F)F)cc2c1O[C@@H](C(F)(F)F)C(C(=O)NCCCCNC(=O)c1ccc(-c3c4nc(c(-c5cccc(S(=O)(=O)[O-])c5F)c5ccc([nH]5)c(-c5cccc(S(=O)(=O)[O-])c5F)c5nc(c(-c6cccc(S(=O)(=O)[O-])c6F)c6ccc3[nH]6)C=C5)C=C4)cc1)=C2
REMARK SMILES IDX 28 1 27 2 26 3 25 4 23 5 24 6 22 8 4 9 5 10 15 11 6 12 14 13
REMARK SMILES IDX 16 14 13 15 96 16 17 17 3 18 2 19 1 20 7 21 8 22 9 23 10 24
REMARK SMILES IDX 11 25 12 26 18 27 19 28 20 29 21 30 29 31 30 32 31 33 32 35
REMARK SMILES IDX 33 36 34 37 95 38 35 39 94 40 36 41 37 42 38 43 88 44 39 45
REMARK SMILES IDX 93 46 87 47 89 48 40 49 92 50 86 51 85 52 41 54 73 55 53 56
REMARK SMILES IDX 72 57 54 58 57 59 71 60 90 61 55 62 56 63 70 65 91 66 58 67
REMARK SMILES IDX 42 68 43 69 51 70 44 71 46 72 52 73 45 74 47 75 48 76 49 77
REMARK SMILES IDX 50 78 74 79 75 80 83 81 76 82 78 83 84 84 77 85 79 86 80 87
REMARK SMILES IDX 81 88 82 89 59 90 60 91 68 92 61 93 63 94 69 95 62 96 64 97
REMARK SMILES IDX 65 98 66 99 67 100
REMARK H PARENT 25 7 30 34 89 53 57 64
REMARK Flexibility Score: inf
ROOT
ATOM      1  C   UNL A   1      33.369  27.985  26.814  1.00  0.00     0.023 C 
ENDROOT
BRANCH   1   2
ATOM      2  C   UNL A   1      31.948  28.505  26.675  1.00  0.00     0.023 C 
BRANCH   2   3
ATOM      3  C   UNL A   1      31.029  27.367  26.264  1.00  0.00     0.116 C 
BRANCH   3   4
ATOM      4  N   UNL A   1      30.387  27.694  24.983  1.00  0.00    -0.352 N 
ATOM      5  C   UNL A   1      30.743  26.944  23.769  1.00  0.00     0.251 C 
ATOM      6  O   UNL A   1      30.188  27.227  22.662  1.00  0.00    -0.270 OA
ATOM      7  H   UNL A   1      29.719  28.416  24.937  1.00  0.00     0.163 HD
BRANCH   5   8
ATOM      8  C   UNL A   1      31.776  25.831  23.839  1.00  0.00     0.067 C 
ATOM      9  C   UNL A   1      34.643  22.810  23.520  1.00  0.00    -0.004 A 
ATOM     10  C   UNL A   1      34.304  21.502  23.818  1.00  0.00     0.032 A 
ATOM     11  C   UNL A   1      33.667  23.775  23.582  1.00  0.00     0.131 A 
ATOM     12  C   UNL A   1      33.022  21.168  24.165  1.00  0.00     0.108 A 
ATOM     13  C   UNL A   1      32.366  23.478  23.946  1.00  0.00     0.019 A 
ATOM     14  O   UNL A   1      33.991  25.045  23.174  1.00  0.00    -0.475 OA
ATOM     15  C   UNL A   1      32.059  22.153  24.235  1.00  0.00     0.036 A 
ATOM     16  C   UNL A   1      31.398  24.562  23.943  1.00  0.00     0.025 C 
ATOM     17  C   UNL A   1      33.264  26.146  23.790  1.00  0.00     0.314 C 
BRANCH   9  18
ATOM     18  C   UNL A   1      36.080  23.199  23.214  1.00  0.00     0.039 C 
BRANCH  18  19
ATOM     19  C   UNL A   1      36.970  22.811  24.384  1.00  0.00     0.001 C 
ATOM     20  C   UNL A   1      36.706  23.747  25.553  1.00  0.00     0.004 C 
ENDBRANCH  18  19
ENDBRANCH   9  18
BRANCH  12  21
ATOM     21  S   UNL A   1      32.594  19.447  24.529  1.00  0.00     0.310 S 
ATOM     22  F   UNL A   1      34.005  18.764  24.285  1.00  0.00    -0.094 F 
ATOM     23  F   UNL A   1      32.268  19.155  23.016  1.00  0.00    -0.094 F 
ATOM     24  F   UNL A   1      32.056  18.049  24.943  1.00  0.00    -0.094 F 
ATOM     25  F   UNL A   1      33.056  19.702  26.018  1.00  0.00    -0.094 F 
ATOM     26  F   UNL A   1      33.246  20.824  24.107  1.00  0.00    -0.094 F 
ENDBRANCH  12  21
BRANCH  17  27
ATOM     27  C   UNL A   1      33.478  27.404  22.966  1.00  0.00     0.429 C 
ATOM     28  F   UNL A   1      32.805  28.413  23.514  1.00  0.00    -0.167 F 
ATOM     29  F   UNL A   1      34.775  27.700  22.936  1.00  0.00    -0.167 F 
ATOM     30  F   UNL A   1      33.041  27.203  21.726  1.00  0.00    -0.167 F 
ENDBRANCH  17  27
ENDBRANCH   5   8
ENDBRANCH   3   4
ENDBRANCH   2   3
ENDBRANCH   1   2
BRANCH   1  31
ATOM     31  C   UNL A   1      34.348  29.064  26.379  1.00  0.00     0.116 C 
BRANCH  31  32
ATOM     32  N   UNL A   1      33.860  30.376  26.823  1.00  0.00    -0.352 N 
ATOM     33  C   UNL A   1      34.648  31.169  27.779  1.00  0.00     0.251 C 
ATOM     34  H   UNL A   1      33.005  30.726  26.482  1.00  0.00     0.163 HD
ATOM     35  O   UNL A   1      34.225  32.304  28.164  1.00  0.00    -0.269 OA
BRANCH  33  36
ATOM     36  C   UNL A   1      35.967  30.631  28.307  1.00  0.00     0.039 A 
ATOM     37  C   UNL A   1      37.170  31.064  27.776  1.00  0.00     0.014 A 
ATOM     38  C   UNL A   1      35.930  29.742  29.294  1.00  0.00     0.014 A 
ATOM     39  C   UNL A   1      38.283  30.278  28.159  1.00  0.00     0.010 A 
ATOM     40  C   UNL A   1      37.077  29.112  29.711  1.00  0.00     0.010 A 
ATOM     41  C   UNL A   1      38.295  29.448  29.187  1.00  0.00    -0.014 A 
BRANCH  41  42
ATOM     42  C   UNL A   1      39.591  28.895  29.755  1.00  0.00     0.031 A 
ATOM     43  C   UNL A   1      40.165  27.807  29.095  1.00  0.00     0.074 A 
ATOM     44  C   UNL A   1      40.108  29.462  30.907  1.00  0.00     0.049 A 
ATOM     45  N   UNL A   1      41.288  27.161  29.416  1.00  0.00    -0.248 NA
ATOM     46  C   UNL A   1      39.598  27.181  27.891  1.00  0.00     0.031 C 
ATOM     47  C   UNL A   1      39.540  30.565  31.574  1.00  0.00     0.029 A 
ATOM     48  N   UNL A   1      41.233  29.081  31.606  1.00  0.00    -0.354 N 
ATOM     49  C   UNL A   1      41.524  26.185  28.535  1.00  0.00     0.074 A 
ATOM     50  C   UNL A   1      40.439  26.181  27.546  1.00  0.00     0.031 C 
ATOM     51  C   UNL A   1      40.304  30.838  32.665  1.00  0.00     0.029 A 
ATOM     52  C   UNL A   1      41.362  29.911  32.698  1.00  0.00     0.049 A 
ATOM     53  H   UNL A   1      41.839  28.343  31.366  1.00  0.00     0.167 HD
ATOM     54  C   UNL A   1      42.605  25.302  28.519  1.00  0.00     0.034 A 
ATOM     55  C   UNL A   1      42.341  29.875  33.679  1.00  0.00     0.034 A 
ATOM     56  C   UNL A   1      43.607  25.294  29.477  1.00  0.00     0.049 A 
ATOM     57  C   UNL A   1      43.389  28.952  33.694  1.00  0.00     0.074 A 
ATOM     58  C   UNL A   1      44.706  24.414  29.470  1.00  0.00     0.029 A 
ATOM     59  N   UNL A   1      43.722  26.108  30.583  1.00  0.00    -0.354 N 
ATOM     60  N   UNL A   1      43.648  28.004  32.794  1.00  0.00    -0.248 NA
ATOM     61  C   UNL A   1      44.412  28.884  34.746  1.00  0.00     0.031 C 
ATOM     62  C   UNL A   1      45.470  24.688  30.562  1.00  0.00     0.029 A 
ATOM     63  C   UNL A   1      44.859  25.741  31.268  1.00  0.00     0.049 A 
ATOM     64  H   UNL A   1      43.101  26.826  30.838  1.00  0.00     0.167 HD
ATOM     65  C   UNL A   1      44.748  27.331  33.138  1.00  0.00     0.074 A 
ATOM     66  C   UNL A   1      45.252  27.882  34.402  1.00  0.00     0.031 C 
ATOM     67  C   UNL A   1      45.354  26.280  32.446  1.00  0.00     0.034 A 
BRANCH  54  68
ATOM     68  C   UNL A   1      42.687  24.290  27.387  1.00  0.00     0.023 A 
ATOM     69  C   UNL A   1      43.467  24.574  26.278  1.00  0.00     0.012 A 
ATOM     70  C   UNL A   1      42.009  23.152  27.480  1.00  0.00     0.148 A 
ATOM     71  C   UNL A   1      43.238  23.711  25.180  1.00  0.00     0.002 A 
ATOM     72  C   UNL A   1      41.939  22.291  26.411  1.00  0.00     0.091 A 
ATOM     73  F   UNL A   1      41.392  22.844  28.616  1.00  0.00    -0.205 F 
ATOM     74  C   UNL A   1      42.637  22.538  25.262  1.00  0.00     0.022 A 
BRANCH  72  75
ATOM     75  S   UNL A   1      40.908  20.808  26.528  1.00  0.00     0.127 S 
ATOM     76  O   UNL A   1      41.422  19.753  25.546  1.00  0.00    -0.237 OA
ATOM     77  O   UNL A   1      40.972  20.253  27.952  1.00  0.00    -0.237 OA
ATOM     78  O   UNL A   1      39.290  21.206  26.143  1.00  0.00    -0.744 OA
ENDBRANCH  72  75
ENDBRANCH  54  68
BRANCH  55  79
ATOM     79  C   UNL A   1      42.267  30.897  34.801  1.00  0.00     0.023 A 
ATOM     80  C   UNL A   1      41.591  30.578  35.967  1.00  0.00     0.012 A 
ATOM     81  C   UNL A   1      42.852  32.078  34.646  1.00  0.00     0.148 A 
ATOM     82  C   UNL A   1      41.339  31.690  36.806  1.00  0.00     0.002 A 
ATOM     83  C   UNL A   1      42.673  33.076  35.574  1.00  0.00     0.091 A 
ATOM     84  F   UNL A   1      43.619  32.299  33.582  1.00  0.00    -0.205 F 
ATOM     85  C   UNL A   1      41.965  32.849  36.722  1.00  0.00     0.022 A 
BRANCH  83  86
ATOM     86  S   UNL A   1      43.383  34.713  35.273  1.00  0.00     0.127 S 
ATOM     87  O   UNL A   1      43.215  35.079  33.796  1.00  0.00    -0.237 OA
ATOM     88  O   UNL A   1      42.664  35.749  36.140  1.00  0.00    -0.237 OA
ATOM     89  O   UNL A   1      45.046  34.694  35.670  1.00  0.00    -0.744 OA
ENDBRANCH  83  86
ENDBRANCH  55  79
BRANCH  67  90
ATOM     90  C   UNL A   1      46.633  25.692  33.019  1.00  0.00     0.023 A 
ATOM     91  C   UNL A   1      47.861  26.241  32.688  1.00  0.00     0.012 A 
ATOM     92  C   UNL A   1      46.541  24.651  33.838  1.00  0.00     0.148 A 
ATOM     93  C   UNL A   1      48.966  25.433  33.049  1.00  0.00     0.002 A 
ATOM     94  C   UNL A   1      47.671  23.992  34.260  1.00  0.00     0.091 A 
ATOM     95  F   UNL A   1      45.347  24.242  34.254  1.00  0.00    -0.205 F 
ATOM     96  C   UNL A   1      48.916  24.444  33.922  1.00  0.00     0.022 A 
BRANCH  94  97
ATOM     97  S   UNL A   1      47.508  22.503  35.276  1.00  0.00     0.127 S 
ATOM     98  O   UNL A   1      48.893  21.902  35.526  1.00  0.00    -0.237 OA
ATOM     99  O   UNL A   1      46.861  22.868  36.615  1.00  0.00    -0.237 OA
ATOM    100  O   UNL A   1      46.530  21.362  34.463  1.00  0.00    -0.744 OA
ENDBRANCH  94  97
ENDBRANCH  67  90
ENDBRANCH  41  42
ENDBRANCH  33  36
ENDBRANCH  31  32
ENDBRANCH   1  31
TORSDOF 18
ENDMDL
