MODEL 1
REMARK VINA RESULT:      -8.6      0.000      0.000
REMARK SMILES Cc1ccc(Oc2ccc(NC(=O)CCCC(=O)NCCCCNC(=O)c3ccc(-c4c5nc(c(-c6cccc(S(=O)(=O)[O-])c6F)c6ccc([nH]6)c(-c6cccc(S(=O)(=O)[O-])c6F)c6nc(c(-c7cccc(S(=O)(=O)[O-])c7F)c7ccc4[nH]7)C=C6)C=C5)cc3)cc2)cc1C
REMARK SMILES IDX 20 1 19 2 17 3 18 4 16 6 15 7 14 8 12 9 11 10 13 12 10 13
REMARK SMILES IDX 7 14 8 15 91 16 9 17 90 18 6 19 5 20 1 21 2 22 3 23 93 24
REMARK SMILES IDX 4 25 92 26 94 27 21 28 22 29 23 30 24 31 25 32 26 34 27 35
REMARK SMILES IDX 28 36 89 37 29 38 88 39 30 40 31 41 32 42 82 43 33 44 87 45
REMARK SMILES IDX 81 46 83 47 34 48 86 49 80 50 79 51 35 53 67 54 47 55 66 56
REMARK SMILES IDX 48 57 51 58 65 59 84 60 49 61 50 62 64 64 85 65 52 66 36 67
REMARK SMILES IDX 37 68 45 69 38 70 40 71 46 72 39 73 41 74 42 75 43 76 44 77
REMARK SMILES IDX 68 78 69 79 77 80 70 81 72 82 78 83 71 84 73 85 74 86 75 87
REMARK SMILES IDX 76 88 53 89 54 90 62 91 55 92 57 93 63 94 56 95 58 96 59 97
REMARK SMILES IDX 60 98 61 99
REMARK H PARENT 19 5 11 11 24 33 83 52 51 63
REMARK Flexibility Score: inf
ROOT
ATOM      1  C   UNL A   1      37.669  32.371  36.915  1.00  0.00     0.116 C 
ENDROOT
BRANCH   1   2
ATOM      2  N   UNL A   1      37.924  31.291  35.976  1.00  0.00    -0.356 N 
ATOM      3  C   UNL A   1      38.258  31.145  34.677  1.00  0.00     0.220 C 
ATOM      4  O   UNL A   1      38.670  30.014  34.379  1.00  0.00    -0.275 OA
ATOM      5  H   UNL A   1      37.825  30.415  36.414  1.00  0.00     0.163 HD
BRANCH   3   6
ATOM      6  C   UNL A   1      38.252  32.208  33.579  1.00  0.00     0.100 C 
BRANCH   6   7
ATOM      7  C   UNL A   1      37.220  33.325  33.531  1.00  0.00     0.020 C 
BRANCH   7   8
ATOM      8  C   UNL A   1      35.726  33.052  33.670  1.00  0.00     0.101 C 
BRANCH   8   9
ATOM      9  C   UNL A   1      34.843  32.677  32.482  1.00  0.00     0.224 C 
ATOM     10  N   UNL A   1      35.156  31.960  31.374  1.00  0.00    -0.326 N 
ATOM     11  H   UNL A   1      34.375  31.879  30.779  1.00  0.00     0.169 HD
ATOM     12  O   UNL A   1      33.675  33.105  32.491  1.00  0.00    -0.275 OA
BRANCH  10  13
ATOM     13  C   UNL A   1      36.266  31.302  30.827  1.00  0.00     0.041 A 
ATOM     14  C   UNL A   1      38.605  29.955  30.027  1.00  0.00     0.127 A 
ATOM     15  C   UNL A   1      38.350  31.234  29.565  1.00  0.00     0.049 A 
ATOM     16  C   UNL A   1      37.671  29.308  30.830  1.00  0.00     0.049 A 
ATOM     17  C   UNL A   1      37.169  31.870  29.955  1.00  0.00     0.030 A 
ATOM     18  C   UNL A   1      36.496  29.975  31.211  1.00  0.00     0.030 A 
BRANCH  14  19
ATOM     19  O   UNL A   1      39.839  29.397  29.833  1.00  0.00    -0.457 OA
BRANCH  19  20
ATOM     20  C   UNL A   1      39.998  28.473  28.827  1.00  0.00     0.127 A 
ATOM     21  C   UNL A   1      41.211  25.714  25.744  1.00  0.00     0.044 C 
ATOM     22  C   UNL A   1      40.732  26.716  26.759  1.00  0.00    -0.048 A 
ATOM     23  C   UNL A   1      40.021  26.257  27.881  1.00  0.00     0.007 A 
ATOM     24  C   UNL A   1      41.015  28.089  26.640  1.00  0.00    -0.045 A 
ATOM     25  C   UNL A   1      39.655  27.127  28.911  1.00  0.00     0.047 A 
ATOM     26  C   UNL A   1      40.640  28.953  27.681  1.00  0.00     0.050 A 
ATOM     27  C   UNL A   1      41.678  28.687  25.429  1.00  0.00     0.045 C 
ENDBRANCH  19  20
ENDBRANCH  14  19
ENDBRANCH  10  13
ENDBRANCH   8   9
ENDBRANCH   7   8
ENDBRANCH   6   7
ENDBRANCH   3   6
ENDBRANCH   1   2
BRANCH   1  28
ATOM     28  C   UNL A   1      38.678  32.416  38.063  1.00  0.00     0.023 C 
BRANCH  28  29
ATOM     29  C   UNL A   1      38.275  33.428  39.133  1.00  0.00     0.023 C 
BRANCH  29  30
ATOM     30  C   UNL A   1      39.449  34.170  39.770  1.00  0.00     0.116 C 
BRANCH  30  31
ATOM     31  N   UNL A   1      39.389  35.610  39.557  1.00  0.00    -0.352 N 
ATOM     32  C   UNL A   1      39.898  36.351  38.514  1.00  0.00     0.251 C 
ATOM     33  H   UNL A   1      38.921  36.123  40.255  1.00  0.00     0.163 HD
ATOM     34  O   UNL A   1      39.887  37.579  38.563  1.00  0.00    -0.269 OA
BRANCH  32  35
ATOM     35  C   UNL A   1      40.490  35.658  37.350  1.00  0.00     0.039 A 
ATOM     36  C   UNL A   1      41.836  35.290  37.389  1.00  0.00     0.014 A 
ATOM     37  C   UNL A   1      39.702  35.330  36.244  1.00  0.00     0.014 A 
ATOM     38  C   UNL A   1      42.370  34.515  36.355  1.00  0.00     0.010 A 
ATOM     39  C   UNL A   1      40.211  34.485  35.263  1.00  0.00     0.010 A 
ATOM     40  C   UNL A   1      41.551  34.069  35.303  1.00  0.00    -0.014 A 
BRANCH  40  41
ATOM     41  C   UNL A   1      42.073  33.162  34.245  1.00  0.00     0.031 A 
ATOM     42  C   UNL A   1      42.336  33.691  32.859  1.00  0.00     0.074 A 
ATOM     43  C   UNL A   1      42.220  31.845  34.501  1.00  0.00     0.049 A 
ATOM     44  N   UNL A   1      42.734  33.045  31.793  1.00  0.00    -0.248 NA
ATOM     45  C   UNL A   1      42.092  35.125  32.628  1.00  0.00     0.031 C 
ATOM     46  C   UNL A   1      41.907  31.187  35.773  1.00  0.00     0.029 A 
ATOM     47  N   UNL A   1      42.642  30.815  33.696  1.00  0.00    -0.354 N 
ATOM     48  C   UNL A   1      42.737  33.976  30.761  1.00  0.00     0.074 A 
ATOM     49  C   UNL A   1      42.278  35.228  31.320  1.00  0.00     0.031 C 
ATOM     50  C   UNL A   1      42.150  29.870  35.661  1.00  0.00     0.029 A 
ATOM     51  C   UNL A   1      42.610  29.581  34.307  1.00  0.00     0.049 A 
ATOM     52  H   UNL A   1      42.939  30.947  32.766  1.00  0.00     0.167 HD
ATOM     53  C   UNL A   1      43.115  33.812  29.472  1.00  0.00     0.034 A 
ATOM     54  C   UNL A   1      42.911  28.357  33.829  1.00  0.00     0.034 A 
ATOM     55  C   UNL A   1      43.644  32.589  28.937  1.00  0.00     0.049 A 
ATOM     56  C   UNL A   1      43.407  28.227  32.412  1.00  0.00     0.074 A 
ATOM     57  C   UNL A   1      44.173  32.361  27.678  1.00  0.00     0.029 A 
ATOM     58  N   UNL A   1      43.711  31.388  29.623  1.00  0.00    -0.354 N 
ATOM     59  N   UNL A   1      43.585  29.161  31.511  1.00  0.00    -0.248 NA
ATOM     60  C   UNL A   1      43.784  26.878  31.959  1.00  0.00     0.031 C 
ATOM     61  C   UNL A   1      44.536  31.014  27.596  1.00  0.00     0.029 A 
ATOM     62  C   UNL A   1      44.261  30.412  28.812  1.00  0.00     0.049 A 
ATOM     63  H   UNL A   1      43.410  31.249  30.550  1.00  0.00     0.167 HD
ATOM     64  C   UNL A   1      44.133  28.523  30.404  1.00  0.00     0.074 A 
ATOM     65  C   UNL A   1      44.280  27.127  30.756  1.00  0.00     0.031 C 
ATOM     66  C   UNL A   1      44.469  29.042  29.198  1.00  0.00     0.034 A 
BRANCH  53  67
ATOM     67  C   UNL A   1      43.033  35.000  28.550  1.00  0.00     0.023 A 
ATOM     68  C   UNL A   1      41.813  35.305  27.913  1.00  0.00     0.012 A 
ATOM     69  C   UNL A   1      44.131  35.869  28.399  1.00  0.00     0.148 A 
ATOM     70  C   UNL A   1      41.693  36.447  27.123  1.00  0.00     0.002 A 
ATOM     71  C   UNL A   1      43.990  37.028  27.647  1.00  0.00     0.091 A 
ATOM     72  F   UNL A   1      45.287  35.549  28.999  1.00  0.00    -0.205 F 
ATOM     73  C   UNL A   1      42.776  37.315  27.001  1.00  0.00     0.022 A 
BRANCH  71  74
ATOM     74  S   UNL A   1      45.297  38.252  27.493  1.00  0.00     0.127 S 
ATOM     75  O   UNL A   1      44.621  39.312  26.746  1.00  0.00    -0.237 OA
ATOM     76  O   UNL A   1      45.578  38.576  28.891  1.00  0.00    -0.237 OA
ATOM     77  O   UNL A   1      46.387  37.594  26.787  1.00  0.00    -0.744 OA
ENDBRANCH  71  74
ENDBRANCH  53  67
BRANCH  54  78
ATOM     78  C   UNL A   1      42.815  27.156  34.708  1.00  0.00     0.023 A 
ATOM     79  C   UNL A   1      41.607  26.430  34.761  1.00  0.00     0.012 A 
ATOM     80  C   UNL A   1      43.899  26.736  35.502  1.00  0.00     0.148 A 
ATOM     81  C   UNL A   1      41.466  25.342  35.625  1.00  0.00     0.002 A 
ATOM     82  C   UNL A   1      43.770  25.617  36.316  1.00  0.00     0.091 A 
ATOM     83  F   UNL A   1      45.035  27.445  35.453  1.00  0.00    -0.205 F 
ATOM     84  C   UNL A   1      42.549  24.930  36.396  1.00  0.00     0.022 A 
BRANCH  82  85
ATOM     85  S   UNL A   1      45.158  24.945  37.237  1.00  0.00     0.127 S 
ATOM     86  O   UNL A   1      44.992  25.584  38.539  1.00  0.00    -0.237 OA
ATOM     87  O   UNL A   1      44.877  23.509  37.213  1.00  0.00    -0.237 OA
ATOM     88  O   UNL A   1      46.342  25.331  36.480  1.00  0.00    -0.744 OA
ENDBRANCH  82  85
ENDBRANCH  54  78
BRANCH  66  89
ATOM     89  C   UNL A   1      45.083  28.118  28.180  1.00  0.00     0.023 A 
ATOM     90  C   UNL A   1      44.265  27.229  27.454  1.00  0.00     0.012 A 
ATOM     91  C   UNL A   1      46.458  28.191  27.886  1.00  0.00     0.148 A 
ATOM     92  C   UNL A   1      44.815  26.402  26.476  1.00  0.00     0.002 A 
ATOM     93  C   UNL A   1      46.989  27.401  26.874  1.00  0.00     0.091 A 
ATOM     94  F   UNL A   1      47.222  29.031  28.600  1.00  0.00    -0.205 F 
ATOM     95  C   UNL A   1      46.172  26.498  26.177  1.00  0.00     0.022 A 
BRANCH  93  96
ATOM     96  S   UNL A   1      48.703  27.534  26.353  1.00  0.00     0.127 S 
ATOM     97  O   UNL A   1      49.407  26.965  27.501  1.00  0.00    -0.237 OA
ATOM     98  O   UNL A   1      48.729  26.702  25.149  1.00  0.00    -0.237 OA
ATOM     99  O   UNL A   1      48.939  28.950  26.111  1.00  0.00    -0.744 OA
ENDBRANCH  93  96
ENDBRANCH  66  89
ENDBRANCH  40  41
ENDBRANCH  32  35
ENDBRANCH  30  31
ENDBRANCH  29  30
ENDBRANCH  28  29
ENDBRANCH   1  28
TORSDOF 20
ENDMDL
MODEL 2
REMARK VINA RESULT:      -8.4      4.565      7.279
REMARK SMILES Cc1ccc(Oc2ccc(NC(=O)CCCC(=O)NCCCCNC(=O)c3ccc(-c4c5nc(c(-c6cccc(S(=O)(=O)[O-])c6F)c6ccc([nH]6)c(-c6cccc(S(=O)(=O)[O-])c6F)c6nc(c(-c7cccc(S(=O)(=O)[O-])c7F)c7ccc4[nH]7)C=C6)C=C5)cc3)cc2)cc1C
REMARK SMILES IDX 20 1 19 2 17 3 18 4 16 6 15 7 14 8 12 9 11 10 13 12 10 13
REMARK SMILES IDX 7 14 8 15 91 16 9 17 90 18 6 19 5 20 1 21 2 22 3 23 93 24
REMARK SMILES IDX 4 25 92 26 94 27 21 28 22 29 23 30 24 31 25 32 26 34 27 35
REMARK SMILES IDX 28 36 89 37 29 38 88 39 30 40 31 41 32 42 82 43 33 44 87 45
REMARK SMILES IDX 81 46 83 47 34 48 86 49 80 50 79 51 35 53 67 54 47 55 66 56
REMARK SMILES IDX 48 57 51 58 65 59 84 60 49 61 50 62 64 64 85 65 52 66 36 67
REMARK SMILES IDX 37 68 45 69 38 70 40 71 46 72 39 73 41 74 42 75 43 76 44 77
REMARK SMILES IDX 68 78 69 79 77 80 70 81 72 82 78 83 71 84 73 85 74 86 75 87
REMARK SMILES IDX 76 88 53 89 54 90 62 91 55 92 57 93 63 94 56 95 58 96 59 97
REMARK SMILES IDX 60 98 61 99
REMARK H PARENT 19 5 11 11 24 33 83 52 51 63
REMARK Flexibility Score: inf
ROOT
ATOM      1  C   UNL A   1      33.731  33.844  33.161  1.00  0.00     0.116 C 
ENDROOT
BRANCH   1   2
ATOM      2  N   UNL A   1      32.786  34.919  32.903  1.00  0.00    -0.356 N 
ATOM      3  C   UNL A   1      32.516  35.807  31.924  1.00  0.00     0.220 C 
ATOM      4  O   UNL A   1      31.402  36.346  32.015  1.00  0.00    -0.275 OA
ATOM      5  H   UNL A   1      32.165  35.029  33.659  1.00  0.00     0.163 HD
BRANCH   3   6
ATOM      6  C   UNL A   1      33.375  36.162  30.712  1.00  0.00     0.100 C 
BRANCH   6   7
ATOM      7  C   UNL A   1      33.554  35.215  29.534  1.00  0.00     0.020 C 
BRANCH   7   8
ATOM      8  C   UNL A   1      34.155  33.823  29.699  1.00  0.00     0.101 C 
BRANCH   8   9
ATOM      9  C   UNL A   1      35.279  33.300  28.807  1.00  0.00     0.224 C 
ATOM     10  N   UNL A   1      35.300  32.206  28.006  1.00  0.00    -0.326 N 
ATOM     11  H   UNL A   1      36.168  32.126  27.549  1.00  0.00     0.169 HD
ATOM     12  O   UNL A   1      36.352  33.930  28.826  1.00  0.00    -0.275 OA
BRANCH  10  13
ATOM     13  C   UNL A   1      34.446  31.156  27.639  1.00  0.00     0.041 A 
ATOM     14  C   UNL A   1      32.555  29.129  27.154  1.00  0.00     0.127 A 
ATOM     15  C   UNL A   1      33.874  28.799  27.407  1.00  0.00     0.049 A 
ATOM     16  C   UNL A   1      32.179  30.466  27.068  1.00  0.00     0.049 A 
ATOM     17  C   UNL A   1      34.799  29.824  27.618  1.00  0.00     0.030 A 
ATOM     18  C   UNL A   1      33.128  31.475  27.291  1.00  0.00     0.030 A 
BRANCH  14  19
ATOM     19  O   UNL A   1      31.599  28.151  27.153  1.00  0.00    -0.457 OA
BRANCH  19  20
ATOM     20  C   UNL A   1      31.557  27.265  26.102  1.00  0.00     0.127 A 
ATOM     21  C   UNL A   1      31.894  24.944  22.484  1.00  0.00     0.044 C 
ATOM     22  C   UNL A   1      31.686  25.754  23.735  1.00  0.00    -0.048 A 
ATOM     23  C   UNL A   1      32.033  25.189  24.974  1.00  0.00     0.007 A 
ATOM     24  C   UNL A   1      31.198  27.074  23.693  1.00  0.00    -0.045 A 
ATOM     25  C   UNL A   1      31.970  25.937  26.152  1.00  0.00     0.047 A 
ATOM     26  C   UNL A   1      31.138  27.813  24.885  1.00  0.00     0.050 A 
ATOM     27  C   UNL A   1      30.705  27.727  22.431  1.00  0.00     0.045 C 
ENDBRANCH  19  20
ENDBRANCH  14  19
ENDBRANCH  10  13
ENDBRANCH   8   9
ENDBRANCH   7   8
ENDBRANCH   6   7
ENDBRANCH   3   6
ENDBRANCH   1   2
BRANCH   1  28
ATOM     28  C   UNL A   1      34.989  34.318  33.889  1.00  0.00     0.023 C 
BRANCH  28  29
ATOM     29  C   UNL A   1      36.245  34.107  33.045  1.00  0.00     0.023 C 
BRANCH  29  30
ATOM     30  C   UNL A   1      37.135  32.959  33.519  1.00  0.00     0.116 C 
BRANCH  30  31
ATOM     31  N   UNL A   1      36.571  31.648  33.225  1.00  0.00    -0.352 N 
ATOM     32  C   UNL A   1      37.053  30.668  32.387  1.00  0.00     0.251 C 
ATOM     33  H   UNL A   1      35.731  31.434  33.692  1.00  0.00     0.163 HD
ATOM     34  O   UNL A   1      36.373  29.674  32.141  1.00  0.00    -0.269 OA
BRANCH  32  35
ATOM     35  C   UNL A   1      38.379  30.837  31.755  1.00  0.00     0.039 A 
ATOM     36  C   UNL A   1      38.456  31.029  30.375  1.00  0.00     0.014 A 
ATOM     37  C   UNL A   1      39.538  30.855  32.535  1.00  0.00     0.014 A 
ATOM     38  C   UNL A   1      39.690  31.327  29.788  1.00  0.00     0.010 A 
ATOM     39  C   UNL A   1      40.747  31.240  31.963  1.00  0.00     0.010 A 
ATOM     40  C   UNL A   1      40.840  31.477  30.582  1.00  0.00    -0.014 A 
BRANCH  40  41
ATOM     41  C   UNL A   1      42.142  31.891  29.992  1.00  0.00     0.031 A 
ATOM     42  C   UNL A   1      42.393  33.338  29.656  1.00  0.00     0.074 A 
ATOM     43  C   UNL A   1      43.061  30.957  29.669  1.00  0.00     0.049 A 
ATOM     44  N   UNL A   1      43.437  33.881  29.085  1.00  0.00    -0.248 NA
ATOM     45  C   UNL A   1      41.322  34.298  29.973  1.00  0.00     0.031 C 
ATOM     46  C   UNL A   1      42.902  29.510  29.851  1.00  0.00     0.029 A 
ATOM     47  N   UNL A   1      44.301  31.079  29.091  1.00  0.00    -0.354 N 
ATOM     48  C   UNL A   1      43.129  35.228  28.928  1.00  0.00     0.074 A 
ATOM     49  C   UNL A   1      41.791  35.418  29.440  1.00  0.00     0.031 C 
ATOM     50  C   UNL A   1      44.002  28.885  29.397  1.00  0.00     0.029 A 
ATOM     51  C   UNL A   1      44.932  29.875  28.868  1.00  0.00     0.049 A 
ATOM     52  H   UNL A   1      44.701  31.948  28.856  1.00  0.00     0.167 HD
ATOM     53  C   UNL A   1      43.901  36.221  28.429  1.00  0.00     0.034 A 
ATOM     54  C   UNL A   1      46.123  29.601  28.297  1.00  0.00     0.034 A 
ATOM     55  C   UNL A   1      45.257  36.046  27.992  1.00  0.00     0.049 A 
ATOM     56  C   UNL A   1      46.989  30.742  27.828  1.00  0.00     0.074 A 
ATOM     57  C   UNL A   1      46.161  37.015  27.590  1.00  0.00     0.029 A 
ATOM     58  N   UNL A   1      45.906  34.827  27.894  1.00  0.00    -0.354 N 
ATOM     59  N   UNL A   1      46.751  32.030  27.870  1.00  0.00    -0.248 NA
ATOM     60  C   UNL A   1      48.306  30.393  27.272  1.00  0.00     0.031 C 
ATOM     61  C   UNL A   1      47.350  36.377  27.227  1.00  0.00     0.029 A 
ATOM     62  C   UNL A   1      47.196  35.016  27.430  1.00  0.00     0.049 A 
ATOM     63  H   UNL A   1      45.509  33.955  28.123  1.00  0.00     0.167 HD
ATOM     64  C   UNL A   1      47.901  32.645  27.388  1.00  0.00     0.074 A 
ATOM     65  C   UNL A   1      48.844  31.590  27.083  1.00  0.00     0.031 C 
ATOM     66  C   UNL A   1      48.149  33.963  27.199  1.00  0.00     0.034 A 
BRANCH  53  67
ATOM     67  C   UNL A   1      43.326  37.612  28.381  1.00  0.00     0.023 A 
ATOM     68  C   UNL A   1      42.539  38.004  27.279  1.00  0.00     0.012 A 
ATOM     69  C   UNL A   1      43.477  38.490  29.473  1.00  0.00     0.148 A 
ATOM     70  C   UNL A   1      41.928  39.257  27.255  1.00  0.00     0.002 A 
ATOM     71  C   UNL A   1      42.829  39.718  29.460  1.00  0.00     0.091 A 
ATOM     72  F   UNL A   1      44.246  38.104  30.501  1.00  0.00    -0.205 F 
ATOM     73  C   UNL A   1      42.061  40.107  28.349  1.00  0.00     0.022 A 
BRANCH  71  74
ATOM     74  S   UNL A   1      42.869  40.853  30.852  1.00  0.00     0.127 S 
ATOM     75  O   UNL A   1      44.164  41.507  30.663  1.00  0.00    -0.237 OA
ATOM     76  O   UNL A   1      41.710  41.705  30.586  1.00  0.00    -0.237 OA
ATOM     77  O   UNL A   1      42.760  40.030  32.049  1.00  0.00    -0.744 OA
ENDBRANCH  71  74
ENDBRANCH  53  67
BRANCH  54  78
ATOM     78  C   UNL A   1      46.605  28.194  28.187  1.00  0.00     0.023 A 
ATOM     79  C   UNL A   1      47.388  27.646  29.224  1.00  0.00     0.012 A 
ATOM     80  C   UNL A   1      46.309  27.401  27.062  1.00  0.00     0.148 A 
ATOM     81  C   UNL A   1      47.909  26.355  29.118  1.00  0.00     0.002 A 
ATOM     82  C   UNL A   1      46.783  26.096  26.990  1.00  0.00     0.091 A 
ATOM     83  F   UNL A   1      45.577  27.940  26.078  1.00  0.00    -0.205 F 
ATOM     84  C   UNL A   1      47.600  25.577  28.006  1.00  0.00     0.022 A 
BRANCH  82  85
ATOM     85  S   UNL A   1      46.318  24.987  25.655  1.00  0.00     0.127 S 
ATOM     86  O   UNL A   1      47.042  25.561  24.524  1.00  0.00    -0.237 OA
ATOM     87  O   UNL A   1      46.833  23.702  26.129  1.00  0.00    -0.237 OA
ATOM     88  O   UNL A   1      44.865  25.058  25.588  1.00  0.00    -0.744 OA
ENDBRANCH  82  85
ENDBRANCH  54  78
BRANCH  66  89
ATOM     89  C   UNL A   1      49.509  34.358  26.689  1.00  0.00     0.023 A 
ATOM     90  C   UNL A   1      49.736  34.471  25.303  1.00  0.00     0.012 A 
ATOM     91  C   UNL A   1      50.539  34.696  27.588  1.00  0.00     0.148 A 
ATOM     92  C   UNL A   1      50.977  34.881  24.820  1.00  0.00     0.002 A 
ATOM     93  C   UNL A   1      51.757  35.153  27.100  1.00  0.00     0.091 A 
ATOM     94  F   UNL A   1      50.310  34.564  28.903  1.00  0.00    -0.205 F 
ATOM     95  C   UNL A   1      51.982  35.235  25.717  1.00  0.00     0.022 A 
BRANCH  93  96
ATOM     96  S   UNL A   1      53.070  35.727  28.185  1.00  0.00     0.127 S 
ATOM     97  O   UNL A   1      52.440  36.876  28.832  1.00  0.00    -0.237 OA
ATOM     98  O   UNL A   1      53.278  34.572  29.060  1.00  0.00    -0.237 OA
ATOM     99  O   UNL A   1      54.198  36.036  27.317  1.00  0.00    -0.744 OA
ENDBRANCH  93  96
ENDBRANCH  66  89
ENDBRANCH  40  41
ENDBRANCH  32  35
ENDBRANCH  30  31
ENDBRANCH  29  30
ENDBRANCH  28  29
ENDBRANCH   1  28
TORSDOF 20
ENDMDL
MODEL 3
REMARK VINA RESULT:      -8.1      4.961      9.865
REMARK SMILES Cc1ccc(Oc2ccc(NC(=O)CCCC(=O)NCCCCNC(=O)c3ccc(-c4c5nc(c(-c6cccc(S(=O)(=O)[O-])c6F)c6ccc([nH]6)c(-c6cccc(S(=O)(=O)[O-])c6F)c6nc(c(-c7cccc(S(=O)(=O)[O-])c7F)c7ccc4[nH]7)C=C6)C=C5)cc3)cc2)cc1C
REMARK SMILES IDX 20 1 19 2 17 3 18 4 16 6 15 7 14 8 12 9 11 10 13 12 10 13
REMARK SMILES IDX 7 14 8 15 91 16 9 17 90 18 6 19 5 20 1 21 2 22 3 23 93 24
REMARK SMILES IDX 4 25 92 26 94 27 21 28 22 29 23 30 24 31 25 32 26 34 27 35
REMARK SMILES IDX 28 36 89 37 29 38 88 39 30 40 31 41 32 42 82 43 33 44 87 45
REMARK SMILES IDX 81 46 83 47 34 48 86 49 80 50 79 51 35 53 67 54 47 55 66 56
REMARK SMILES IDX 48 57 51 58 65 59 84 60 49 61 50 62 64 64 85 65 52 66 36 67
REMARK SMILES IDX 37 68 45 69 38 70 40 71 46 72 39 73 41 74 42 75 43 76 44 77
REMARK SMILES IDX 68 78 69 79 77 80 70 81 72 82 78 83 71 84 73 85 74 86 75 87
REMARK SMILES IDX 76 88 53 89 54 90 62 91 55 92 57 93 63 94 56 95 58 96 59 97
REMARK SMILES IDX 60 98 61 99
REMARK H PARENT 19 5 11 11 24 33 83 52 51 63
REMARK Flexibility Score: inf
ROOT
ATOM      1  C   UNL A   1      34.501  33.851  30.856  1.00  0.00     0.116 C 
ENDROOT
BRANCH   1   2
ATOM      2  N   UNL A   1      34.802  34.167  29.469  1.00  0.00    -0.356 N 
ATOM      3  C   UNL A   1      34.897  33.522  28.288  1.00  0.00     0.220 C 
ATOM      4  O   UNL A   1      34.884  34.267  27.296  1.00  0.00    -0.275 OA
ATOM      5  H   UNL A   1      34.990  35.127  29.361  1.00  0.00     0.163 HD
BRANCH   3   6
ATOM      6  C   UNL A   1      34.946  32.016  28.040  1.00  0.00     0.100 C 
BRANCH   6   7
ATOM      7  C   UNL A   1      33.691  31.186  27.807  1.00  0.00     0.020 C 
BRANCH   7   8
ATOM      8  C   UNL A   1      33.501  30.342  26.551  1.00  0.00     0.101 C 
BRANCH   8   9
ATOM      9  C   UNL A   1      32.168  30.256  25.811  1.00  0.00     0.224 C 
ATOM     10  N   UNL A   1      31.736  29.321  24.929  1.00  0.00    -0.326 N 
ATOM     11  H   UNL A   1      30.826  29.531  24.617  1.00  0.00     0.169 HD
ATOM     12  O   UNL A   1      31.358  31.181  26.000  1.00  0.00    -0.275 OA
BRANCH  10  13
ATOM     13  C   UNL A   1      32.206  28.143  24.332  1.00  0.00     0.041 A 
ATOM     14  C   UNL A   1      33.425  25.831  23.286  1.00  0.00     0.127 A 
ATOM     15  C   UNL A   1      32.985  26.828  22.434  1.00  0.00     0.049 A 
ATOM     16  C   UNL A   1      33.201  25.940  24.655  1.00  0.00     0.049 A 
ATOM     17  C   UNL A   1      32.359  27.953  22.976  1.00  0.00     0.030 A 
ATOM     18  C   UNL A   1      32.575  27.084  25.172  1.00  0.00     0.030 A 
BRANCH  14  19
ATOM     19  O   UNL A   1      34.221  24.829  22.804  1.00  0.00    -0.457 OA
BRANCH  19  20
ATOM     20  C   UNL A   1      33.887  23.524  23.083  1.00  0.00     0.127 A 
ATOM     21  C   UNL A   1      32.823  19.652  24.655  1.00  0.00     0.044 C 
ATOM     22  C   UNL A   1      33.266  20.964  24.065  1.00  0.00    -0.048 A 
ATOM     23  C   UNL A   1      32.429  21.606  23.136  1.00  0.00     0.007 A 
ATOM     24  C   UNL A   1      34.468  21.585  24.452  1.00  0.00    -0.045 A 
ATOM     25  C   UNL A   1      32.734  22.878  22.647  1.00  0.00     0.047 A 
ATOM     26  C   UNL A   1      34.763  22.863  23.950  1.00  0.00     0.050 A 
ATOM     27  C   UNL A   1      35.474  20.931  25.358  1.00  0.00     0.045 C 
ENDBRANCH  19  20
ENDBRANCH  14  19
ENDBRANCH  10  13
ENDBRANCH   8   9
ENDBRANCH   7   8
ENDBRANCH   6   7
ENDBRANCH   3   6
ENDBRANCH   1   2
BRANCH   1  28
ATOM     28  C   UNL A   1      35.367  32.720  31.412  1.00  0.00     0.023 C 
BRANCH  28  29
ATOM     29  C   UNL A   1      36.639  33.251  32.069  1.00  0.00     0.023 C 
BRANCH  29  30
ATOM     30  C   UNL A   1      37.053  32.503  33.335  1.00  0.00     0.116 C 
BRANCH  30  31
ATOM     31  N   UNL A   1      36.821  31.068  33.245  1.00  0.00    -0.352 N 
ATOM     32  C   UNL A   1      37.540  30.118  32.556  1.00  0.00     0.251 C 
ATOM     33  H   UNL A   1      36.043  30.732  33.746  1.00  0.00     0.163 HD
ATOM     34  O   UNL A   1      37.120  28.966  32.466  1.00  0.00    -0.269 OA
BRANCH  32  35
ATOM     35  C   UNL A   1      38.805  30.501  31.893  1.00  0.00     0.039 A 
ATOM     36  C   UNL A   1      38.838  30.611  30.502  1.00  0.00     0.014 A 
ATOM     37  C   UNL A   1      39.941  30.799  32.650  1.00  0.00     0.014 A 
ATOM     38  C   UNL A   1      39.987  31.105  29.876  1.00  0.00     0.010 A 
ATOM     39  C   UNL A   1      41.047  31.374  32.034  1.00  0.00     0.010 A 
ATOM     40  C   UNL A   1      41.087  31.531  30.640  1.00  0.00    -0.014 A 
BRANCH  40  41
ATOM     41  C   UNL A   1      42.280  32.152  30.002  1.00  0.00     0.031 A 
ATOM     42  C   UNL A   1      43.500  31.318  29.708  1.00  0.00     0.074 A 
ATOM     43  C   UNL A   1      42.305  33.482  29.775  1.00  0.00     0.049 A 
ATOM     44  N   UNL A   1      44.651  31.690  29.212  1.00  0.00    -0.248 NA
ATOM     45  C   UNL A   1      43.431  29.884  30.041  1.00  0.00     0.031 C 
ATOM     46  C   UNL A   1      41.228  34.421  30.105  1.00  0.00     0.029 A 
ATOM     47  N   UNL A   1      43.285  34.284  29.242  1.00  0.00    -0.354 N 
ATOM     48  C   UNL A   1      45.456  30.556  29.223  1.00  0.00     0.074 A 
ATOM     49  C   UNL A   1      44.671  29.486  29.797  1.00  0.00     0.031 C 
ATOM     50  C   UNL A   1      41.606  35.665  29.763  1.00  0.00     0.029 A 
ATOM     51  C   UNL A   1      42.958  35.622  29.217  1.00  0.00     0.049 A 
ATOM     52  H   UNL A   1      44.143  33.934  28.909  1.00  0.00     0.167 HD
ATOM     53  C   UNL A   1      46.723  30.411  28.770  1.00  0.00     0.034 A 
ATOM     54  C   UNL A   1      43.668  36.692  28.806  1.00  0.00     0.034 A 
ATOM     55  C   UNL A   1      47.474  31.454  28.129  1.00  0.00     0.049 A 
ATOM     56  C   UNL A   1      45.044  36.479  28.232  1.00  0.00     0.074 A 
ATOM     57  C   UNL A   1      48.715  31.369  27.523  1.00  0.00     0.029 A 
ATOM     58  N   UNL A   1      47.060  32.770  28.013  1.00  0.00    -0.354 N 
ATOM     59  N   UNL A   1      45.710  35.361  28.075  1.00  0.00    -0.248 NA
ATOM     60  C   UNL A   1      45.752  37.670  27.738  1.00  0.00     0.031 C 
ATOM     61  C   UNL A   1      49.063  32.641  27.061  1.00  0.00     0.029 A 
ATOM     62  C   UNL A   1      48.026  33.511  27.354  1.00  0.00     0.049 A 
ATOM     63  H   UNL A   1      46.206  33.126  28.349  1.00  0.00     0.167 HD
ATOM     64  C   UNL A   1      46.890  35.707  27.428  1.00  0.00     0.074 A 
ATOM     65  C   UNL A   1      46.839  37.136  27.200  1.00  0.00     0.031 C 
ATOM     66  C   UNL A   1      47.931  34.917  27.069  1.00  0.00     0.034 A 
BRANCH  53  67
ATOM     67  C   UNL A   1      47.370  29.056  28.889  1.00  0.00     0.023 A 
ATOM     68  C   UNL A   1      48.039  28.705  30.079  1.00  0.00     0.012 A 
ATOM     69  C   UNL A   1      47.225  28.099  27.866  1.00  0.00     0.148 A 
ATOM     70  C   UNL A   1      48.571  27.428  30.242  1.00  0.00     0.002 A 
ATOM     71  C   UNL A   1      47.720  26.814  28.054  1.00  0.00     0.091 A 
ATOM     72  F   UNL A   1      46.603  28.460  26.735  1.00  0.00    -0.205 F 
ATOM     73  C   UNL A   1      48.400  26.479  29.237  1.00  0.00     0.022 A 
BRANCH  71  74
ATOM     74  S   UNL A   1      47.482  25.496  26.857  1.00  0.00     0.127 S 
ATOM     75  O   UNL A   1      48.230  24.400  27.472  1.00  0.00    -0.237 OA
ATOM     76  O   UNL A   1      46.029  25.327  26.873  1.00  0.00    -0.237 OA
ATOM     77  O   UNL A   1      48.025  25.989  25.599  1.00  0.00    -0.744 OA
ENDBRANCH  71  74
ENDBRANCH  53  67
BRANCH  54  78
ATOM     78  C   UNL A   1      43.077  38.060  28.861  1.00  0.00     0.023 A 
ATOM     79  C   UNL A   1      42.238  38.496  27.816  1.00  0.00     0.012 A 
ATOM     80  C   UNL A   1      43.351  38.937  29.928  1.00  0.00     0.148 A 
ATOM     81  C   UNL A   1      41.725  39.795  27.806  1.00  0.00     0.002 A 
ATOM     82  C   UNL A   1      42.790  40.209  29.941  1.00  0.00     0.091 A 
ATOM     83  F   UNL A   1      44.163  38.515  30.907  1.00  0.00    -0.205 F 
ATOM     84  C   UNL A   1      41.994  40.648  28.872  1.00  0.00     0.022 A 
BRANCH  82  85
ATOM     85  S   UNL A   1      42.979  41.318  31.342  1.00  0.00     0.127 S 
ATOM     86  O   UNL A   1      44.398  41.653  31.269  1.00  0.00    -0.237 OA
ATOM     87  O   UNL A   1      42.068  42.410  30.995  1.00  0.00    -0.237 OA
ATOM     88  O   UNL A   1      42.563  40.543  32.503  1.00  0.00    -0.744 OA
ENDBRANCH  82  85
ENDBRANCH  54  78
BRANCH  66  89
ATOM     89  C   UNL A   1      49.083  35.558  26.341  1.00  0.00     0.023 A 
ATOM     90  C   UNL A   1      49.150  35.494  24.936  1.00  0.00     0.012 A 
ATOM     91  C   UNL A   1      50.053  36.295  27.048  1.00  0.00     0.148 A 
ATOM     92  C   UNL A   1      50.186  36.124  24.247  1.00  0.00     0.002 A 
ATOM     93  C   UNL A   1      51.053  36.963  26.352  1.00  0.00     0.091 A 
ATOM     94  F   UNL A   1      49.983  36.329  28.387  1.00  0.00    -0.205 F 
ATOM     95  C   UNL A   1      51.128  36.868  24.953  1.00  0.00     0.022 A 
BRANCH  93  96
ATOM     96  S   UNL A   1      52.246  38.027  27.172  1.00  0.00     0.127 S 
ATOM     97  O   UNL A   1      53.218  38.261  26.105  1.00  0.00    -0.237 OA
ATOM     98  O   UNL A   1      51.434  39.192  27.524  1.00  0.00    -0.237 OA
ATOM     99  O   UNL A   1      52.739  37.269  28.314  1.00  0.00    -0.744 OA
ENDBRANCH  93  96
ENDBRANCH  66  89
ENDBRANCH  40  41
ENDBRANCH  32  35
ENDBRANCH  30  31
ENDBRANCH  29  30
ENDBRANCH  28  29
ENDBRANCH   1  28
TORSDOF 20
ENDMDL
