MODEL 1
REMARK VINA RESULT:     -12.1      0.000      0.000
REMARK SMILES O=C(NCCCCNC(=O)[C@@H]1O[C@H](OC(=O)c2cccnc2)[C@@H](O)[C@H](O)[C@H]1O)c1ccc(-c2c3nc(c(-c4cccc(S(=O)(=O)[O-])c4F)c4ccc([nH]4)c(-c4cccc(S(=O)(=O)[O-])c4F)c4nc(c(-c5cccc(S(=O)(=O)[O-])c5F)c5ccc2[nH]5)C=C4)C=C3)cc1
REMARK SMILES IDX 5 1 4 2 3 3 1 4 2 5 29 7 30 8 91 9 31 10 90 11 32 12 33 13
REMARK SMILES IDX 34 14 84 15 35 16 89 17 83 18 85 19 36 20 88 21 82 22 81 23
REMARK SMILES IDX 37 25 69 26 49 27 68 28 50 29 53 30 67 31 86 32 51 33 52 34
REMARK SMILES IDX 66 36 87 37 54 38 38 39 39 40 47 41 40 42 42 43 48 44 41 45
REMARK SMILES IDX 43 46 44 47 45 48 46 49 70 50 71 51 79 52 72 53 74 54 80 55
REMARK SMILES IDX 73 56 75 57 76 58 77 59 78 60 55 61 56 62 64 63 57 64 59 65
REMARK SMILES IDX 65 66 58 67 60 68 61 69 62 70 63 71 6 72 7 73 8 74 9 75
REMARK SMILES IDX 10 77 11 78 12 79 27 80 13 81 25 82 23 83 28 84 14 86 15 87
REMARK SMILES IDX 16 88 17 89 18 90 22 91 19 92 21 93 20 94 26 95 24 97
REMARK H PARENT 3 6 85 24 53 35 8 76 28 85 26 96 24 98
REMARK Flexibility Score: inf
ROOT
ATOM      1  C   UNL A   1      31.359  32.118  26.510  1.00  0.00     0.023 C 
ENDROOT
BRANCH   1   2
ATOM      2  C   UNL A   1      32.633  32.553  27.224  1.00  0.00     0.116 C 
BRANCH   2   3
ATOM      3  N   UNL A   1      32.637  33.970  27.557  1.00  0.00    -0.352 N 
ATOM      4  O   UNL A   1      33.194  35.804  28.747  1.00  0.00    -0.269 OA
ATOM      5  C   UNL A   1      33.435  34.637  28.458  1.00  0.00     0.251 C 
ATOM      6  H   UNL A   1      31.981  34.524  27.075  1.00  0.00     0.163 HD
BRANCH   5   7
ATOM      7  C   UNL A   1      34.560  33.918  29.094  1.00  0.00     0.039 A 
ATOM      8  C   UNL A   1      35.879  34.261  28.786  1.00  0.00     0.014 A 
ATOM      9  C   UNL A   1      34.293  32.872  29.982  1.00  0.00     0.014 A 
ATOM     10  C   UNL A   1      36.923  33.467  29.245  1.00  0.00     0.010 A 
ATOM     11  C   UNL A   1      35.351  32.132  30.517  1.00  0.00     0.010 A 
ATOM     12  C   UNL A   1      36.673  32.406  30.131  1.00  0.00    -0.014 A 
BRANCH  12  13
ATOM     13  C   UNL A   1      37.820  31.682  30.731  1.00  0.00     0.031 A 
ATOM     14  C   UNL A   1      38.578  30.627  29.974  1.00  0.00     0.074 A 
ATOM     15  C   UNL A   1      38.163  31.987  32.000  1.00  0.00     0.049 A 
ATOM     16  N   UNL A   1      39.609  29.924  30.365  1.00  0.00    -0.248 NA
ATOM     17  C   UNL A   1      38.122  30.312  28.611  1.00  0.00     0.031 C 
ATOM     18  C   UNL A   1      37.460  32.953  32.849  1.00  0.00     0.029 A 
ATOM     19  N   UNL A   1      39.173  31.518  32.800  1.00  0.00    -0.354 N 
ATOM     20  C   UNL A   1      39.901  29.054  29.320  1.00  0.00     0.074 A 
ATOM     21  C   UNL A   1      38.940  29.322  28.272  1.00  0.00     0.031 C 
ATOM     22  C   UNL A   1      38.065  33.016  34.041  1.00  0.00     0.029 A 
ATOM     23  C   UNL A   1      39.164  32.060  34.063  1.00  0.00     0.049 A 
ATOM     24  H   UNL A   1      39.837  30.857  32.499  1.00  0.00     0.167 HD
ATOM     25  C   UNL A   1      40.890  28.131  29.244  1.00  0.00     0.034 A 
ATOM     26  C   UNL A   1      39.940  31.803  35.133  1.00  0.00     0.034 A 
ATOM     27  C   UNL A   1      41.871  27.909  30.274  1.00  0.00     0.049 A 
ATOM     28  C   UNL A   1      41.043  30.794  34.999  1.00  0.00     0.074 A 
ATOM     29  C   UNL A   1      42.973  27.071  30.243  1.00  0.00     0.029 A 
ATOM     30  N   UNL A   1      41.864  28.512  31.521  1.00  0.00    -0.354 N 
ATOM     31  N   UNL A   1      41.406  30.107  33.944  1.00  0.00    -0.248 NA
ATOM     32  C   UNL A   1      41.858  30.543  36.194  1.00  0.00     0.031 C 
ATOM     33  C   UNL A   1      43.618  27.150  31.482  1.00  0.00     0.029 A 
ATOM     34  C   UNL A   1      42.927  28.048  32.278  1.00  0.00     0.049 A 
ATOM     35  H   UNL A   1      41.200  29.173  31.825  1.00  0.00     0.167 HD
ATOM     36  C   UNL A   1      42.497  29.348  34.344  1.00  0.00     0.074 A 
ATOM     37  C   UNL A   1      42.762  29.693  35.726  1.00  0.00     0.031 C 
ATOM     38  C   UNL A   1      43.200  28.429  33.639  1.00  0.00     0.034 A 
BRANCH  25  39
ATOM     39  C   UNL A   1      41.006  27.306  27.988  1.00  0.00     0.023 A 
ATOM     40  C   UNL A   1      41.632  27.857  26.853  1.00  0.00     0.012 A 
ATOM     41  C   UNL A   1      40.612  25.953  27.975  1.00  0.00     0.148 A 
ATOM     42  C   UNL A   1      41.858  27.077  25.720  1.00  0.00     0.002 A 
ATOM     43  C   UNL A   1      40.871  25.173  26.853  1.00  0.00     0.091 A 
ATOM     44  F   UNL A   1      40.004  25.454  29.060  1.00  0.00    -0.205 F 
ATOM     45  C   UNL A   1      41.490  25.734  25.723  1.00  0.00     0.022 A 
BRANCH  43  46
ATOM     46  S   UNL A   1      40.500  23.416  26.782  1.00  0.00     0.127 S 
ATOM     47  O   UNL A   1      40.857  22.985  28.134  1.00  0.00    -0.237 OA
ATOM     48  O   UNL A   1      39.065  23.415  26.502  1.00  0.00    -0.237 OA
ATOM     49  O   UNL A   1      41.330  22.870  25.717  1.00  0.00    -0.744 OA
ENDBRANCH  43  46
ENDBRANCH  25  39
BRANCH  26  50
ATOM     50  C   UNL A   1      39.706  32.535  36.408  1.00  0.00     0.023 A 
ATOM     51  C   UNL A   1      40.449  33.696  36.687  1.00  0.00     0.012 A 
ATOM     52  C   UNL A   1      38.720  32.114  37.320  1.00  0.00     0.148 A 
ATOM     53  C   UNL A   1      40.230  34.412  37.865  1.00  0.00     0.002 A 
ATOM     54  C   UNL A   1      38.465  32.865  38.461  1.00  0.00     0.091 A 
ATOM     55  F   UNL A   1      38.036  30.992  37.051  1.00  0.00    -0.205 F 
ATOM     56  C   UNL A   1      39.230  34.005  38.745  1.00  0.00     0.022 A 
BRANCH  54  57
ATOM     57  S   UNL A   1      37.088  32.478  39.548  1.00  0.00     0.127 S 
ATOM     58  O   UNL A   1      37.219  33.505  40.577  1.00  0.00    -0.237 OA
ATOM     59  O   UNL A   1      35.934  32.638  38.660  1.00  0.00    -0.237 OA
ATOM     60  O   UNL A   1      37.320  31.104  39.974  1.00  0.00    -0.744 OA
ENDBRANCH  54  57
ENDBRANCH  26  50
BRANCH  38  61
ATOM     61  C   UNL A   1      44.321  27.726  34.355  1.00  0.00     0.023 A 
ATOM     62  C   UNL A   1      45.601  28.313  34.374  1.00  0.00     0.012 A 
ATOM     63  C   UNL A   1      44.099  26.523  35.051  1.00  0.00     0.148 A 
ATOM     64  C   UNL A   1      46.654  27.697  35.049  1.00  0.00     0.002 A 
ATOM     65  C   UNL A   1      45.142  25.936  35.759  1.00  0.00     0.091 A 
ATOM     66  F   UNL A   1      42.878  25.971  35.003  1.00  0.00    -0.205 F 
ATOM     67  C   UNL A   1      46.421  26.516  35.751  1.00  0.00     0.022 A 
BRANCH  65  68
ATOM     68  S   UNL A   1      44.912  24.463  36.759  1.00  0.00     0.127 S 
ATOM     69  O   UNL A   1      44.053  24.961  37.832  1.00  0.00    -0.237 OA
ATOM     70  O   UNL A   1      44.251  23.550  35.825  1.00  0.00    -0.237 OA
ATOM     71  O   UNL A   1      46.247  24.045  37.166  1.00  0.00    -0.744 OA
ENDBRANCH  65  68
ENDBRANCH  38  61
ENDBRANCH  12  13
ENDBRANCH   5   7
ENDBRANCH   2   3
ENDBRANCH   1   2
BRANCH   1  72
ATOM     72  C   UNL A   1      31.423  30.737  25.873  1.00  0.00     0.023 C 
BRANCH  72  73
ATOM     73  C   UNL A   1      32.322  29.745  26.594  1.00  0.00     0.116 C 
BRANCH  73  74
ATOM     74  N   UNL A   1      31.639  28.542  27.029  1.00  0.00    -0.354 N 
ATOM     75  C   UNL A   1      31.580  27.342  26.366  1.00  0.00     0.252 C 
ATOM     76  H   UNL A   1      31.166  28.594  27.891  1.00  0.00     0.163 HD
ATOM     77  O   UNL A   1      31.110  26.366  26.957  1.00  0.00    -0.272 OA
BRANCH  75  78
ATOM     78  C   UNL A   1      32.069  27.242  24.908  1.00  0.00     0.242 C 
ATOM     79  O   UNL A   1      31.066  27.796  24.054  1.00  0.00    -0.324 OA
ATOM     80  C   UNL A   1      32.426  25.783  24.583  1.00  0.00     0.184 C 
ATOM     81  C   UNL A   1      31.297  27.665  22.657  1.00  0.00     0.343 C 
ATOM     82  C   UNL A   1      32.705  25.636  23.086  1.00  0.00     0.181 C 
ATOM     83  C   UNL A   1      31.592  26.216  22.220  1.00  0.00     0.214 C 
BRANCH  80  84
ATOM     84  O   UNL A   1      33.596  25.379  25.307  1.00  0.00    -0.387 OA
ATOM     85  H   UNL A   1      33.612  24.412  25.382  1.00  0.00     0.211 HD
ENDBRANCH  80  84
BRANCH  81  86
ATOM     86  O   UNL A   1      30.194  28.229  21.910  1.00  0.00    -0.429 OA
BRANCH  86  87
ATOM     87  C   UNL A   1      29.111  28.627  22.612  1.00  0.00     0.342 C 
ATOM     88  O   UNL A   1      28.397  27.933  23.327  1.00  0.00    -0.246 OA
BRANCH  87  89
ATOM     89  C   UNL A   1      28.876  30.065  22.431  1.00  0.00     0.078 A 
ATOM     90  C   UNL A   1      28.474  30.618  21.215  1.00  0.00     0.019 A 
ATOM     91  C   UNL A   1      29.000  30.906  23.529  1.00  0.00     0.126 A 
ATOM     92  C   UNL A   1      28.212  31.985  21.145  1.00  0.00     0.021 A 
ATOM     93  N   UNL A   1      28.762  32.239  23.480  1.00  0.00    -0.264 NA
ATOM     94  C   UNL A   1      28.370  32.748  22.293  1.00  0.00     0.111 A 
ENDBRANCH  87  89
ENDBRANCH  86  87
ENDBRANCH  81  86
BRANCH  82  95
ATOM     95  O   UNL A   1      32.908  24.249  22.752  1.00  0.00    -0.387 OA
ATOM     96  H   UNL A   1      33.559  24.181  22.037  1.00  0.00     0.211 HD
ENDBRANCH  82  95
BRANCH  83  97
ATOM     97  O   UNL A   1      32.016  26.173  20.846  1.00  0.00    -0.384 OA
ATOM     98  H   UNL A   1      31.240  26.239  20.267  1.00  0.00     0.211 HD
ENDBRANCH  83  97
ENDBRANCH  75  78
ENDBRANCH  73  74
ENDBRANCH  72  73
ENDBRANCH   1  72
TORSDOF 20
ENDMDL
MODEL 2
REMARK VINA RESULT:     -11.9      1.806      3.777
REMARK SMILES O=C(NCCCCNC(=O)[C@@H]1O[C@H](OC(=O)c2cccnc2)[C@@H](O)[C@H](O)[C@H]1O)c1ccc(-c2c3nc(c(-c4cccc(S(=O)(=O)[O-])c4F)c4ccc([nH]4)c(-c4cccc(S(=O)(=O)[O-])c4F)c4nc(c(-c5cccc(S(=O)(=O)[O-])c5F)c5ccc2[nH]5)C=C4)C=C3)cc1
REMARK SMILES IDX 5 1 4 2 3 3 1 4 2 5 29 7 30 8 91 9 31 10 90 11 32 12 33 13
REMARK SMILES IDX 34 14 84 15 35 16 89 17 83 18 85 19 36 20 88 21 82 22 81 23
REMARK SMILES IDX 37 25 69 26 49 27 68 28 50 29 53 30 67 31 86 32 51 33 52 34
REMARK SMILES IDX 66 36 87 37 54 38 38 39 39 40 47 41 40 42 42 43 48 44 41 45
REMARK SMILES IDX 43 46 44 47 45 48 46 49 70 50 71 51 79 52 72 53 74 54 80 55
REMARK SMILES IDX 73 56 75 57 76 58 77 59 78 60 55 61 56 62 64 63 57 64 59 65
REMARK SMILES IDX 65 66 58 67 60 68 61 69 62 70 63 71 6 72 7 73 8 74 9 75
REMARK SMILES IDX 10 77 11 78 12 79 27 80 13 81 25 82 23 83 28 84 14 86 15 87
REMARK SMILES IDX 16 88 17 89 18 90 22 91 19 92 21 93 20 94 26 95 24 97
REMARK H PARENT 3 6 85 24 53 35 8 76 28 85 26 96 24 98
REMARK Flexibility Score: inf
ROOT
ATOM      1  C   UNL A   1      31.213  31.660  26.056  1.00  0.00     0.023 C 
ENDROOT
BRANCH   1   2
ATOM      2  C   UNL A   1      32.364  32.060  26.970  1.00  0.00     0.116 C 
BRANCH   2   3
ATOM      3  N   UNL A   1      32.353  33.476  27.305  1.00  0.00    -0.352 N 
ATOM      4  O   UNL A   1      32.926  35.323  28.468  1.00  0.00    -0.269 OA
ATOM      5  C   UNL A   1      33.179  34.161  28.165  1.00  0.00     0.251 C 
ATOM      6  H   UNL A   1      31.661  34.016  26.857  1.00  0.00     0.163 HD
BRANCH   5   7
ATOM      7  C   UNL A   1      34.351  33.467  28.744  1.00  0.00     0.039 A 
ATOM      8  C   UNL A   1      34.171  32.422  29.654  1.00  0.00     0.014 A 
ATOM      9  C   UNL A   1      35.638  33.886  28.396  1.00  0.00     0.014 A 
ATOM     10  C   UNL A   1      35.267  31.898  30.327  1.00  0.00     0.010 A 
ATOM     11  C   UNL A   1      36.746  33.292  29.008  1.00  0.00     0.010 A 
ATOM     12  C   UNL A   1      36.568  32.313  29.999  1.00  0.00    -0.014 A 
BRANCH  12  13
ATOM     13  C   UNL A   1      37.725  31.620  30.617  1.00  0.00     0.031 A 
ATOM     14  C   UNL A   1      38.512  30.575  29.877  1.00  0.00     0.074 A 
ATOM     15  C   UNL A   1      38.048  31.945  31.886  1.00  0.00     0.049 A 
ATOM     16  N   UNL A   1      39.555  29.897  30.286  1.00  0.00    -0.248 NA
ATOM     17  C   UNL A   1      38.077  30.236  28.513  1.00  0.00     0.031 C 
ATOM     18  C   UNL A   1      37.316  32.904  32.719  1.00  0.00     0.029 A 
ATOM     19  N   UNL A   1      39.060  31.505  32.700  1.00  0.00    -0.354 N 
ATOM     20  C   UNL A   1      39.876  29.024  29.253  1.00  0.00     0.074 A 
ATOM     21  C   UNL A   1      38.919  29.260  28.193  1.00  0.00     0.031 C 
ATOM     22  C   UNL A   1      37.908  32.991  33.916  1.00  0.00     0.029 A 
ATOM     23  C   UNL A   1      39.027  32.060  33.958  1.00  0.00     0.049 A 
ATOM     24  H   UNL A   1      39.741  30.856  32.412  1.00  0.00     0.167 HD
ATOM     25  C   UNL A   1      40.884  28.122  29.195  1.00  0.00     0.034 A 
ATOM     26  C   UNL A   1      39.798  31.829  35.038  1.00  0.00     0.034 A 
ATOM     27  C   UNL A   1      41.859  27.931  30.237  1.00  0.00     0.049 A 
ATOM     28  C   UNL A   1      40.923  30.844  34.925  1.00  0.00     0.074 A 
ATOM     29  C   UNL A   1      42.979  27.117  30.225  1.00  0.00     0.029 A 
ATOM     30  N   UNL A   1      41.827  28.546  31.478  1.00  0.00    -0.354 N 
ATOM     31  N   UNL A   1      41.311  30.154  33.880  1.00  0.00    -0.248 NA
ATOM     32  C   UNL A   1      41.731  30.621  36.131  1.00  0.00     0.031 C 
ATOM     33  C   UNL A   1      43.611  27.222  31.470  1.00  0.00     0.029 A 
ATOM     34  C   UNL A   1      42.892  28.112  32.250  1.00  0.00     0.049 A 
ATOM     35  H   UNL A   1      41.147  29.195  31.769  1.00  0.00     0.167 HD
ATOM     36  C   UNL A   1      42.414  29.423  34.298  1.00  0.00     0.074 A 
ATOM     37  C   UNL A   1      42.657  29.786  35.680  1.00  0.00     0.031 C 
ATOM     38  C   UNL A   1      43.144  28.512  33.609  1.00  0.00     0.034 A 
BRANCH  25  39
ATOM     39  C   UNL A   1      41.031  27.287  27.949  1.00  0.00     0.023 A 
ATOM     40  C   UNL A   1      41.652  27.842  26.813  1.00  0.00     0.012 A 
ATOM     41  C   UNL A   1      40.671  25.925  27.947  1.00  0.00     0.148 A 
ATOM     42  C   UNL A   1      41.906  27.057  25.690  1.00  0.00     0.002 A 
ATOM     43  C   UNL A   1      40.958  25.140  26.835  1.00  0.00     0.091 A 
ATOM     44  F   UNL A   1      40.067  25.421  29.032  1.00  0.00    -0.205 F 
ATOM     45  C   UNL A   1      41.571  25.705  25.704  1.00  0.00     0.022 A 
BRANCH  43  46
ATOM     46  S   UNL A   1      40.631  23.374  26.779  1.00  0.00     0.127 S 
ATOM     47  O   UNL A   1      39.222  23.347  26.389  1.00  0.00    -0.237 OA
ATOM     48  O   UNL A   1      41.559  22.922  25.743  1.00  0.00    -0.237 OA
ATOM     49  O   UNL A   1      40.915  22.868  28.115  1.00  0.00    -0.744 OA
ENDBRANCH  43  46
ENDBRANCH  25  39
BRANCH  26  50
ATOM     50  C   UNL A   1      39.535  32.568  36.303  1.00  0.00     0.023 A 
ATOM     51  C   UNL A   1      40.213  33.775  36.555  1.00  0.00     0.012 A 
ATOM     52  C   UNL A   1      38.584  32.108  37.234  1.00  0.00     0.148 A 
ATOM     53  C   UNL A   1      39.965  34.498  37.723  1.00  0.00     0.002 A 
ATOM     54  C   UNL A   1      38.299  32.862  38.365  1.00  0.00     0.091 A 
ATOM     55  F   UNL A   1      37.963  30.944  36.991  1.00  0.00    -0.205 F 
ATOM     56  C   UNL A   1      38.999  34.049  38.621  1.00  0.00     0.022 A 
BRANCH  54  57
ATOM     57  S   UNL A   1      36.958  32.415  39.473  1.00  0.00     0.127 S 
ATOM     58  O   UNL A   1      37.293  31.035  39.811  1.00  0.00    -0.237 OA
ATOM     59  O   UNL A   1      37.123  33.374  40.568  1.00  0.00    -0.237 OA
ATOM     60  O   UNL A   1      35.743  32.612  38.693  1.00  0.00    -0.744 OA
ENDBRANCH  54  57
ENDBRANCH  26  50
BRANCH  38  61
ATOM     61  C   UNL A   1      44.272  27.841  34.344  1.00  0.00     0.023 A 
ATOM     62  C   UNL A   1      45.521  28.486  34.426  1.00  0.00     0.012 A 
ATOM     63  C   UNL A   1      44.085  26.607  34.995  1.00  0.00     0.148 A 
ATOM     64  C   UNL A   1      46.578  27.900  35.119  1.00  0.00     0.002 A 
ATOM     65  C   UNL A   1      45.130  26.048  35.721  1.00  0.00     0.091 A 
ATOM     66  F   UNL A   1      42.895  25.999  34.886  1.00  0.00    -0.205 F 
ATOM     67  C   UNL A   1      46.379  26.687  35.776  1.00  0.00     0.022 A 
BRANCH  65  68
ATOM     68  S   UNL A   1      44.938  24.533  36.667  1.00  0.00     0.127 S 
ATOM     69  O   UNL A   1      46.326  24.197  36.977  1.00  0.00    -0.237 OA
ATOM     70  O   UNL A   1      44.147  24.979  37.815  1.00  0.00    -0.237 OA
ATOM     71  O   UNL A   1      44.246  23.599  35.787  1.00  0.00    -0.744 OA
ENDBRANCH  65  68
ENDBRANCH  38  61
ENDBRANCH  12  13
ENDBRANCH   5   7
ENDBRANCH   2   3
ENDBRANCH   1   2
BRANCH   1  72
ATOM     72  C   UNL A   1      31.328  30.265  25.456  1.00  0.00     0.023 C 
BRANCH  72  73
ATOM     73  C   UNL A   1      32.529  29.464  25.932  1.00  0.00     0.116 C 
BRANCH  73  74
ATOM     74  N   UNL A   1      33.652  29.489  25.015  1.00  0.00    -0.354 N 
ATOM     75  C   UNL A   1      33.851  28.667  23.935  1.00  0.00     0.252 C 
ATOM     76  H   UNL A   1      34.345  30.166  25.189  1.00  0.00     0.163 HD
ATOM     77  O   UNL A   1      34.766  28.936  23.152  1.00  0.00    -0.272 OA
BRANCH  75  78
ATOM     78  C   UNL A   1      32.960  27.426  23.736  1.00  0.00     0.242 C 
ATOM     79  O   UNL A   1      33.689  26.272  24.157  1.00  0.00    -0.324 OA
ATOM     80  C   UNL A   1      32.484  27.361  22.275  1.00  0.00     0.184 C 
ATOM     81  C   UNL A   1      33.062  25.018  23.919  1.00  0.00     0.343 C 
ATOM     82  C   UNL A   1      31.782  26.029  22.014  1.00  0.00     0.181 C 
ATOM     83  C   UNL A   1      32.613  24.829  22.455  1.00  0.00     0.214 C 
BRANCH  80  84
ATOM     84  O   UNL A   1      31.562  28.425  22.000  1.00  0.00    -0.387 OA
ATOM     85  H   UNL A   1      31.836  29.222  22.479  1.00  0.00     0.211 HD
ENDBRANCH  80  84
BRANCH  81  86
ATOM     86  O   UNL A   1      33.917  23.936  24.354  1.00  0.00    -0.429 OA
BRANCH  86  87
ATOM     87  C   UNL A   1      33.537  23.253  25.456  1.00  0.00     0.342 C 
ATOM     88  O   UNL A   1      33.264  23.719  26.557  1.00  0.00    -0.246 OA
BRANCH  87  89
ATOM     89  C   UNL A   1      33.464  21.814  25.175  1.00  0.00     0.078 A 
ATOM     90  C   UNL A   1      34.589  21.045  24.875  1.00  0.00     0.019 A 
ATOM     91  C   UNL A   1      32.235  21.175  25.270  1.00  0.00     0.126 A 
ATOM     92  C   UNL A   1      34.440  19.673  24.682  1.00  0.00     0.021 A 
ATOM     93  N   UNL A   1      32.066  19.846  25.076  1.00  0.00    -0.264 NA
ATOM     94  C   UNL A   1      33.170  19.124  24.790  1.00  0.00     0.111 A 
ENDBRANCH  87  89
ENDBRANCH  86  87
ENDBRANCH  81  86
BRANCH  82  95
ATOM     95  O   UNL A   1      31.453  25.904  20.617  1.00  0.00    -0.387 OA
ATOM     96  H   UNL A   1      31.149  25.002  20.435  1.00  0.00     0.211 HD
ENDBRANCH  82  95
BRANCH  83  97
ATOM     97  O   UNL A   1      31.810  23.643  22.316  1.00  0.00    -0.384 OA
ATOM     98  H   UNL A   1      30.896  23.840  22.576  1.00  0.00     0.211 HD
ENDBRANCH  83  97
ENDBRANCH  75  78
ENDBRANCH  73  74
ENDBRANCH  72  73
ENDBRANCH   1  72
TORSDOF 20
ENDMDL
MODEL 3
REMARK VINA RESULT:     -11.9      2.662      8.176
REMARK SMILES O=C(NCCCCNC(=O)[C@@H]1O[C@H](OC(=O)c2cccnc2)[C@@H](O)[C@H](O)[C@H]1O)c1ccc(-c2c3nc(c(-c4cccc(S(=O)(=O)[O-])c4F)c4ccc([nH]4)c(-c4cccc(S(=O)(=O)[O-])c4F)c4nc(c(-c5cccc(S(=O)(=O)[O-])c5F)c5ccc2[nH]5)C=C4)C=C3)cc1
REMARK SMILES IDX 5 1 4 2 3 3 1 4 2 5 29 7 30 8 91 9 31 10 90 11 32 12 33 13
REMARK SMILES IDX 34 14 84 15 35 16 89 17 83 18 85 19 36 20 88 21 82 22 81 23
REMARK SMILES IDX 37 25 69 26 49 27 68 28 50 29 53 30 67 31 86 32 51 33 52 34
REMARK SMILES IDX 66 36 87 37 54 38 38 39 39 40 47 41 40 42 42 43 48 44 41 45
REMARK SMILES IDX 43 46 44 47 45 48 46 49 70 50 71 51 79 52 72 53 74 54 80 55
REMARK SMILES IDX 73 56 75 57 76 58 77 59 78 60 55 61 56 62 64 63 57 64 59 65
REMARK SMILES IDX 65 66 58 67 60 68 61 69 62 70 63 71 6 72 7 73 8 74 9 75
REMARK SMILES IDX 10 77 11 78 12 79 27 80 13 81 25 82 23 83 28 84 14 86 15 87
REMARK SMILES IDX 16 88 17 89 18 90 22 91 19 92 21 93 20 94 26 95 24 97
REMARK H PARENT 3 6 85 24 53 35 8 76 28 85 26 96 24 98
REMARK Flexibility Score: inf
ROOT
ATOM      1  C   UNL A   1      33.175  28.066  25.293  1.00  0.00     0.023 C 
ENDROOT
BRANCH   1   2
ATOM      2  C   UNL A   1      33.880  28.451  26.587  1.00  0.00     0.116 C 
BRANCH   2   3
ATOM      3  N   UNL A   1      33.673  29.845  26.950  1.00  0.00    -0.352 N 
ATOM      4  O   UNL A   1      34.049  31.754  28.093  1.00  0.00    -0.269 OA
ATOM      5  C   UNL A   1      34.455  30.650  27.745  1.00  0.00     0.251 C 
ATOM      6  H   UNL A   1      32.866  30.268  26.577  1.00  0.00     0.163 HD
BRANCH   5   7
ATOM      7  C   UNL A   1      35.771  30.152  28.201  1.00  0.00     0.039 A 
ATOM      8  C   UNL A   1      35.892  29.517  29.441  1.00  0.00     0.014 A 
ATOM      9  C   UNL A   1      36.898  30.348  27.397  1.00  0.00     0.014 A 
ATOM     10  C   UNL A   1      37.153  29.215  29.940  1.00  0.00     0.010 A 
ATOM     11  C   UNL A   1      38.156  29.959  27.864  1.00  0.00     0.010 A 
ATOM     12  C   UNL A   1      38.297  29.415  29.150  1.00  0.00    -0.014 A 
BRANCH  12  13
ATOM     13  C   UNL A   1      39.610  28.932  29.647  1.00  0.00     0.031 A 
ATOM     14  C   UNL A   1      40.327  29.609  30.781  1.00  0.00     0.074 A 
ATOM     15  C   UNL A   1      40.159  27.862  29.035  1.00  0.00     0.049 A 
ATOM     16  N   UNL A   1      41.472  29.289  31.329  1.00  0.00    -0.248 NA
ATOM     17  C   UNL A   1      39.693  30.797  31.372  1.00  0.00     0.031 C 
ATOM     18  C   UNL A   1      39.576  27.163  27.885  1.00  0.00     0.029 A 
ATOM     19  N   UNL A   1      41.324  27.182  29.280  1.00  0.00    -0.354 N 
ATOM     20  C   UNL A   1      41.718  30.255  32.297  1.00  0.00     0.074 A 
ATOM     21  C   UNL A   1      40.600  31.173  32.267  1.00  0.00     0.031 C 
ATOM     22  C   UNL A   1      40.376  26.147  27.535  1.00  0.00     0.029 A 
ATOM     23  C   UNL A   1      41.550  26.153  28.396  1.00  0.00     0.049 A 
ATOM     24  H   UNL A   1      41.937  27.409  30.016  1.00  0.00     0.167 HD
ATOM     25  C   UNL A   1      42.774  30.353  33.140  1.00  0.00     0.034 A 
ATOM     26  C   UNL A   1      42.599  25.318  28.274  1.00  0.00     0.034 A 
ATOM     27  C   UNL A   1      43.857  29.405  33.194  1.00  0.00     0.049 A 
ATOM     28  C   UNL A   1      43.736  25.439  29.245  1.00  0.00     0.074 A 
ATOM     29  C   UNL A   1      44.916  29.362  34.085  1.00  0.00     0.029 A 
ATOM     30  N   UNL A   1      44.029  28.346  32.319  1.00  0.00    -0.354 N 
ATOM     31  N   UNL A   1      43.866  26.256  30.262  1.00  0.00    -0.248 NA
ATOM     32  C   UNL A   1      44.860  24.511  29.068  1.00  0.00     0.031 C 
ATOM     33  C   UNL A   1      45.742  28.290  33.733  1.00  0.00     0.029 A 
ATOM     34  C   UNL A   1      45.190  27.656  32.631  1.00  0.00     0.049 A 
ATOM     35  H   UNL A   1      43.418  28.116  31.582  1.00  0.00     0.167 HD
ATOM     36  C   UNL A   1      45.081  25.935  30.852  1.00  0.00     0.074 A 
ATOM     37  C   UNL A   1      45.627  24.821  30.104  1.00  0.00     0.031 C 
ATOM     38  C   UNL A   1      45.700  26.526  31.902  1.00  0.00     0.034 A 
BRANCH  25  39
ATOM     39  C   UNL A   1      42.810  31.501  34.116  1.00  0.00     0.023 A 
ATOM     40  C   UNL A   1      43.392  32.723  33.727  1.00  0.00     0.012 A 
ATOM     41  C   UNL A   1      42.160  31.408  35.363  1.00  0.00     0.148 A 
ATOM     42  C   UNL A   1      43.334  33.835  34.566  1.00  0.00     0.002 A 
ATOM     43  C   UNL A   1      42.077  32.531  36.180  1.00  0.00     0.091 A 
ATOM     44  F   UNL A   1      41.627  30.231  35.720  1.00  0.00    -0.205 F 
ATOM     45  C   UNL A   1      42.666  33.743  35.785  1.00  0.00     0.022 A 
BRANCH  43  46
ATOM     46  S   UNL A   1      41.179  32.537  37.737  1.00  0.00     0.127 S 
ATOM     47  O   UNL A   1      42.007  31.654  38.557  1.00  0.00    -0.237 OA
ATOM     48  O   UNL A   1      41.233  33.949  38.117  1.00  0.00    -0.237 OA
ATOM     49  O   UNL A   1      39.845  32.037  37.437  1.00  0.00    -0.744 OA
ENDBRANCH  43  46
ENDBRANCH  25  39
BRANCH  26  50
ATOM     50  C   UNL A   1      42.598  24.283  27.204  1.00  0.00     0.023 A 
ATOM     51  C   UNL A   1      43.267  24.538  25.992  1.00  0.00     0.012 A 
ATOM     52  C   UNL A   1      41.981  23.033  27.398  1.00  0.00     0.148 A 
ATOM     53  C   UNL A   1      43.300  23.573  24.984  1.00  0.00     0.002 A 
ATOM     54  C   UNL A   1      42.069  22.056  26.414  1.00  0.00     0.091 A 
ATOM     55  F   UNL A   1      41.328  22.814  28.548  1.00  0.00    -0.205 F 
ATOM     56  C   UNL A   1      42.713  22.329  25.200  1.00  0.00     0.022 A 
BRANCH  54  57
ATOM     57  S   UNL A   1      41.470  20.386  26.698  1.00  0.00     0.127 S 
ATOM     58  O   UNL A   1      41.908  19.699  25.486  1.00  0.00    -0.237 OA
ATOM     59  O   UNL A   1      42.183  20.000  27.917  1.00  0.00    -0.237 OA
ATOM     60  O   UNL A   1      40.030  20.528  26.875  1.00  0.00    -0.744 OA
ENDBRANCH  54  57
ENDBRANCH  26  50
BRANCH  38  61
ATOM     61  C   UNL A   1      47.045  25.981  32.300  1.00  0.00     0.023 A 
ATOM     62  C   UNL A   1      48.202  26.464  31.658  1.00  0.00     0.012 A 
ATOM     63  C   UNL A   1      47.170  25.038  33.338  1.00  0.00     0.148 A 
ATOM     64  C   UNL A   1      49.463  25.995  32.021  1.00  0.00     0.002 A 
ATOM     65  C   UNL A   1      48.434  24.607  33.726  1.00  0.00     0.091 A 
ATOM     66  F   UNL A   1      46.055  24.575  33.921  1.00  0.00    -0.205 F 
ATOM     67  C   UNL A   1      49.579  25.076  33.062  1.00  0.00     0.022 A 
BRANCH  65  68
ATOM     68  S   UNL A   1      48.683  23.491  35.110  1.00  0.00     0.127 S 
ATOM     69  O   UNL A   1      48.030  24.215  36.199  1.00  0.00    -0.237 OA
ATOM     70  O   UNL A   1      47.978  22.285  34.671  1.00  0.00    -0.237 OA
ATOM     71  O   UNL A   1      50.125  23.331  35.238  1.00  0.00    -0.744 OA
ENDBRANCH  65  68
ENDBRANCH  38  61
ENDBRANCH  12  13
ENDBRANCH   5   7
ENDBRANCH   2   3
ENDBRANCH   1   2
BRANCH   1  72
ATOM     72  C   UNL A   1      34.041  28.151  24.044  1.00  0.00     0.023 C 
BRANCH  72  73
ATOM     73  C   UNL A   1      33.268  28.269  22.740  1.00  0.00     0.116 C 
BRANCH  73  74
ATOM     74  N   UNL A   1      33.625  27.269  21.753  1.00  0.00    -0.354 N 
ATOM     75  C   UNL A   1      32.813  26.289  21.241  1.00  0.00     0.252 C 
ATOM     76  H   UNL A   1      34.550  27.296  21.416  1.00  0.00     0.163 HD
ATOM     77  O   UNL A   1      33.218  25.634  20.278  1.00  0.00    -0.272 OA
BRANCH  75  78
ATOM     78  C   UNL A   1      31.441  26.011  21.886  1.00  0.00     0.242 C 
ATOM     79  O   UNL A   1      30.902  27.248  22.356  1.00  0.00    -0.324 OA
ATOM     80  C   UNL A   1      31.593  24.944  22.981  1.00  0.00     0.184 C 
ATOM     81  C   UNL A   1      29.693  27.157  23.099  1.00  0.00     0.343 C 
ATOM     82  C   UNL A   1      30.289  24.816  23.769  1.00  0.00     0.181 C 
ATOM     83  C   UNL A   1      29.771  26.159  24.272  1.00  0.00     0.214 C 
BRANCH  80  84
ATOM     84  O   UNL A   1      31.901  23.669  22.401  1.00  0.00    -0.387 OA
ATOM     85  H   UNL A   1      32.351  23.801  21.551  1.00  0.00     0.211 HD
ENDBRANCH  80  84
BRANCH  81  86
ATOM     86  O   UNL A   1      29.277  28.468  23.546  1.00  0.00    -0.429 OA
BRANCH  86  87
ATOM     87  C   UNL A   1      28.039  28.879  23.192  1.00  0.00     0.342 C 
ATOM     88  O   UNL A   1      26.993  28.248  23.296  1.00  0.00    -0.246 OA
BRANCH  87  89
ATOM     89  C   UNL A   1      28.080  30.244  22.655  1.00  0.00     0.078 A 
ATOM     90  C   UNL A   1      28.266  31.368  23.461  1.00  0.00     0.019 A 
ATOM     91  C   UNL A   1      27.990  30.426  21.281  1.00  0.00     0.126 A 
ATOM     92  C   UNL A   1      28.355  32.624  22.863  1.00  0.00     0.021 A 
ATOM     93  N   UNL A   1      28.063  31.638  20.681  1.00  0.00    -0.264 NA
ATOM     94  C   UNL A   1      28.247  32.708  21.482  1.00  0.00     0.111 A 
ENDBRANCH  87  89
ENDBRANCH  86  87
ENDBRANCH  81  86
BRANCH  82  95
ATOM     95  O   UNL A   1      30.464  23.917  24.881  1.00  0.00    -0.387 OA
ATOM     96  H   UNL A   1      31.411  23.788  25.047  1.00  0.00     0.211 HD
ENDBRANCH  82  95
BRANCH  83  97
ATOM     97  O   UNL A   1      28.473  25.956  24.858  1.00  0.00    -0.384 OA
ATOM     98  H   UNL A   1      27.897  26.705  24.633  1.00  0.00     0.211 HD
ENDBRANCH  83  97
ENDBRANCH  75  78
ENDBRANCH  73  74
ENDBRANCH  72  73
ENDBRANCH   1  72
TORSDOF 20
ENDMDL
