MODEL 1
REMARK VINA RESULT:     -12.0      0.000      0.000
REMARK SMILES COC(=O)[C@H]1CCN(S(=O)(=O)N2CCC[C@H](C(=O)NCCCCNC(=O)c3ccc(-c4c5nc(c(-c6cccc(S(=O)(=O)[O-])c6F)c6ccc([nH]6)c(-c6cccc(S(=O)(=O)[O-])c6F)c6nc(c(-c7cccc(S(=O)(=O)[O-])c7F)c7ccc4[nH]7)C=C6)C=C5)cc3)C2)C1
REMARK SMILES IDX 21 1 20 2 19 3 17 4 18 5 16 7 12 8 13 9 90 10 14 11 15 12
REMARK SMILES IDX 9 13 10 14 11 15 8 16 5 17 6 18 91 19 7 20 3 21 4 22 2 23
REMARK SMILES IDX 1 24 22 25 23 26 24 27 25 28 26 30 27 31 28 32 89 33 29 34
REMARK SMILES IDX 88 35 30 36 31 37 32 38 82 39 33 40 87 41 81 42 83 43 34 44
REMARK SMILES IDX 86 45 80 46 79 47 35 49 67 50 47 51 66 52 48 53 51 54 65 55
REMARK SMILES IDX 84 56 49 57 50 58 64 60 85 61 52 62 36 63 37 64 45 65 38 66
REMARK SMILES IDX 40 67 46 68 39 69 41 70 42 71 43 72 44 73 68 74 69 75 77 76
REMARK SMILES IDX 70 77 72 78 78 79 71 80 73 81 74 82 75 83 76 84 53 85 54 86
REMARK SMILES IDX 62 87 55 88 57 89 63 90 56 91 58 92 59 93 60 94 61 95
REMARK H PARENT 19 6 24 29 83 48 51 59
REMARK Flexibility Score: inf
ROOT
ATOM      1  C   UNL A   1      32.711  30.176  26.848  1.00  0.00     0.023 C 
ENDROOT
BRANCH   1   2
ATOM      2  C   UNL A   1      32.535  29.650  25.428  1.00  0.00     0.116 C 
BRANCH   2   3
ATOM      3  N   UNL A   1      33.346  28.482  25.178  1.00  0.00    -0.356 N 
ATOM      4  C   UNL A   1      33.005  27.206  24.882  1.00  0.00     0.224 C 
ATOM      5  O   UNL A   1      33.934  26.415  24.676  1.00  0.00    -0.275 OA
ATOM      6  H   UNL A   1      34.316  28.641  25.232  1.00  0.00     0.163 HD
BRANCH   4   7
ATOM      7  C   UNL A   1      31.565  26.696  24.785  1.00  0.00     0.094 C 
ATOM      8  N   UNL A   1      31.294  24.234  25.199  1.00  0.00    -0.188 NA
ATOM      9  C   UNL A   1      30.687  23.989  23.883  1.00  0.00     0.103 C 
ATOM     10  C   UNL A   1      31.219  25.595  25.774  1.00  0.00     0.117 C 
ATOM     11  C   UNL A   1      31.059  25.059  22.861  1.00  0.00     0.018 C 
ATOM     12  C   UNL A   1      31.009  26.489  23.381  1.00  0.00     0.016 C 
BRANCH   8  13
ATOM     13  S   UNL A   1      31.544  22.950  26.250  1.00  0.00     0.282 S 
ATOM     14  O   UNL A   1      30.780  21.821  25.774  1.00  0.00    -0.195 OA
ATOM     15  O   UNL A   1      31.389  23.435  27.603  1.00  0.00    -0.195 OA
BRANCH  13  16
ATOM     16  N   UNL A   1      33.185  22.565  26.061  1.00  0.00    -0.188 NA
ATOM     17  C   UNL A   1      34.126  20.576  25.010  1.00  0.00     0.116 C 
ATOM     18  C   UNL A   1      33.792  21.646  23.981  1.00  0.00     0.033 C 
ATOM     19  C   UNL A   1      33.454  21.084  26.292  1.00  0.00     0.118 C 
ATOM     20  C   UNL A   1      33.878  22.899  24.803  1.00  0.00     0.104 C 
BRANCH  17  21
ATOM     21  C   UNL A   1      33.679  19.230  24.505  1.00  0.00     0.310 C 
ATOM     22  O   UNL A   1      34.300  18.192  24.710  1.00  0.00    -0.252 OA
BRANCH  21  23
ATOM     23  O   UNL A   1      32.444  19.283  23.940  1.00  0.00    -0.469 OA
ATOM     24  C   UNL A   1      32.314  18.409  22.814  1.00  0.00     0.282 C 
ENDBRANCH  21  23
ENDBRANCH  17  21
ENDBRANCH  13  16
ENDBRANCH   8  13
ENDBRANCH   4   7
ENDBRANCH   2   3
ENDBRANCH   1   2
BRANCH   1  25
ATOM     25  C   UNL A   1      32.178  31.585  27.054  1.00  0.00     0.023 C 
BRANCH  25  26
ATOM     26  C   UNL A   1      33.220  32.582  27.540  1.00  0.00     0.116 C 
BRANCH  26  27
ATOM     27  N   UNL A   1      32.705  33.937  27.719  1.00  0.00    -0.352 N 
ATOM     28  C   UNL A   1      33.107  34.866  28.653  1.00  0.00     0.251 C 
ATOM     29  H   UNL A   1      31.992  34.218  27.102  1.00  0.00     0.163 HD
ATOM     30  O   UNL A   1      32.522  35.934  28.787  1.00  0.00    -0.269 OA
BRANCH  28  31
ATOM     31  C   UNL A   1      34.249  34.513  29.518  1.00  0.00     0.039 A 
ATOM     32  C   UNL A   1      34.008  33.969  30.780  1.00  0.00     0.014 A 
ATOM     33  C   UNL A   1      35.544  34.584  29.000  1.00  0.00     0.014 A 
ATOM     34  C   UNL A   1      35.071  33.418  31.494  1.00  0.00     0.010 A 
ATOM     35  C   UNL A   1      36.573  33.932  29.661  1.00  0.00     0.010 A 
ATOM     36  C   UNL A   1      36.353  33.353  30.920  1.00  0.00    -0.014 A 
BRANCH  36  37
ATOM     37  C   UNL A   1      37.484  32.695  31.620  1.00  0.00     0.031 A 
ATOM     38  C   UNL A   1      38.212  31.558  30.956  1.00  0.00     0.074 A 
ATOM     39  C   UNL A   1      37.799  33.058  32.880  1.00  0.00     0.049 A 
ATOM     40  N   UNL A   1      39.200  30.833  31.411  1.00  0.00    -0.248 NA
ATOM     41  C   UNL A   1      37.743  31.157  29.619  1.00  0.00     0.031 C 
ATOM     42  C   UNL A   1      37.115  34.091  33.662  1.00  0.00     0.029 A 
ATOM     43  N   UNL A   1      38.769  32.588  33.729  1.00  0.00    -0.354 N 
ATOM     44  C   UNL A   1      39.440  29.871  30.439  1.00  0.00     0.074 A 
ATOM     45  C   UNL A   1      38.458  30.066  29.398  1.00  0.00     0.031 C 
ATOM     46  C   UNL A   1      37.711  34.199  34.861  1.00  0.00     0.029 A 
ATOM     47  C   UNL A   1      38.790  33.222  34.949  1.00  0.00     0.049 A 
ATOM     48  H   UNL A   1      39.391  31.863  33.488  1.00  0.00     0.167 HD
ATOM     49  C   UNL A   1      40.413  28.930  30.394  1.00  0.00     0.034 A 
ATOM     50  C   UNL A   1      39.593  33.038  36.015  1.00  0.00     0.034 A 
ATOM     51  C   UNL A   1      41.407  28.762  31.417  1.00  0.00     0.049 A 
ATOM     52  C   UNL A   1      40.678  31.998  35.939  1.00  0.00     0.074 A 
ATOM     53  C   UNL A   1      42.492  27.906  31.432  1.00  0.00     0.029 A 
ATOM     54  N   UNL A   1      41.427  29.457  32.618  1.00  0.00    -0.354 N 
ATOM     55  N   UNL A   1      40.994  31.205  34.944  1.00  0.00    -0.248 NA
ATOM     56  C   UNL A   1      41.538  31.851  37.122  1.00  0.00     0.031 C 
ATOM     57  C   UNL A   1      43.143  28.051  32.661  1.00  0.00     0.029 A 
ATOM     58  C   UNL A   1      42.493  29.033  33.393  1.00  0.00     0.049 A 
ATOM     59  H   UNL A   1      40.780  30.151  32.880  1.00  0.00     0.167 HD
ATOM     60  C   UNL A   1      42.115  30.495  35.362  1.00  0.00     0.074 A 
ATOM     61  C   UNL A   1      42.428  30.964  36.697  1.00  0.00     0.031 C 
ATOM     62  C   UNL A   1      42.816  29.538  34.704  1.00  0.00     0.034 A 
BRANCH  49  63
ATOM     63  C   UNL A   1      40.452  28.036  29.180  1.00  0.00     0.023 A 
ATOM     64  C   UNL A   1      39.571  26.936  29.087  1.00  0.00     0.012 A 
ATOM     65  C   UNL A   1      41.359  28.280  28.132  1.00  0.00     0.148 A 
ATOM     66  C   UNL A   1      39.636  26.060  28.004  1.00  0.00     0.002 A 
ATOM     67  C   UNL A   1      41.379  27.435  27.028  1.00  0.00     0.091 A 
ATOM     68  F   UNL A   1      42.205  29.314  28.242  1.00  0.00    -0.205 F 
ATOM     69  C   UNL A   1      40.533  26.315  26.971  1.00  0.00     0.022 A 
BRANCH  67  70
ATOM     70  S   UNL A   1      42.436  27.730  25.606  1.00  0.00     0.127 S 
ATOM     71  O   UNL A   1      42.200  26.528  24.808  1.00  0.00    -0.237 OA
ATOM     72  O   UNL A   1      41.863  28.955  25.046  1.00  0.00    -0.237 OA
ATOM     73  O   UNL A   1      43.785  27.879  26.135  1.00  0.00    -0.744 OA
ENDBRANCH  67  70
ENDBRANCH  49  63
BRANCH  50  74
ATOM     74  C   UNL A   1      39.463  33.923  37.209  1.00  0.00     0.023 A 
ATOM     75  C   UNL A   1      39.913  35.255  37.124  1.00  0.00     0.012 A 
ATOM     76  C   UNL A   1      38.868  33.472  38.402  1.00  0.00     0.148 A 
ATOM     77  C   UNL A   1      39.800  36.116  38.217  1.00  0.00     0.002 A 
ATOM     78  C   UNL A   1      38.712  34.350  39.470  1.00  0.00     0.091 A 
ATOM     79  F   UNL A   1      38.449  32.201  38.462  1.00  0.00    -0.205 F 
ATOM     80  C   UNL A   1      39.192  35.667  39.386  1.00  0.00     0.022 A 
BRANCH  78  81
ATOM     81  S   UNL A   1      37.837  33.903  40.974  1.00  0.00     0.127 S 
ATOM     82  O   UNL A   1      37.581  35.211  41.571  1.00  0.00    -0.237 OA
ATOM     83  O   UNL A   1      36.654  33.227  40.440  1.00  0.00    -0.237 OA
ATOM     84  O   UNL A   1      38.743  33.040  41.719  1.00  0.00    -0.744 OA
ENDBRANCH  78  81
ENDBRANCH  50  74
BRANCH  62  85
ATOM     85  C   UNL A   1      44.024  28.959  35.393  1.00  0.00     0.023 A 
ATOM     86  C   UNL A   1      45.297  29.530  35.193  1.00  0.00     0.012 A 
ATOM     87  C   UNL A   1      43.881  27.890  36.301  1.00  0.00     0.148 A 
ATOM     88  C   UNL A   1      46.412  29.023  35.858  1.00  0.00     0.002 A 
ATOM     89  C   UNL A   1      44.988  27.428  37.002  1.00  0.00     0.091 A 
ATOM     90  F   UNL A   1      42.665  27.349  36.466  1.00  0.00    -0.205 F 
ATOM     91  C   UNL A   1      46.257  27.982  36.770  1.00  0.00     0.022 A 
BRANCH  89  92
ATOM     92  S   UNL A   1      44.866  26.163  38.271  1.00  0.00     0.127 S 
ATOM     93  O   UNL A   1      44.473  24.992  37.489  1.00  0.00    -0.237 OA
ATOM     94  O   UNL A   1      46.232  26.118  38.794  1.00  0.00    -0.237 OA
ATOM     95  O   UNL A   1      43.870  26.639  39.221  1.00  0.00    -0.744 OA
ENDBRANCH  89  92
ENDBRANCH  62  85
ENDBRANCH  36  37
ENDBRANCH  28  31
ENDBRANCH  26  27
ENDBRANCH  25  26
ENDBRANCH   1  25
TORSDOF 18
ENDMDL
MODEL 2
REMARK VINA RESULT:     -11.8      6.358     10.026
REMARK SMILES COC(=O)[C@H]1CCN(S(=O)(=O)N2CCC[C@H](C(=O)NCCCCNC(=O)c3ccc(-c4c5nc(c(-c6cccc(S(=O)(=O)[O-])c6F)c6ccc([nH]6)c(-c6cccc(S(=O)(=O)[O-])c6F)c6nc(c(-c7cccc(S(=O)(=O)[O-])c7F)c7ccc4[nH]7)C=C6)C=C5)cc3)C2)C1
REMARK SMILES IDX 21 1 20 2 19 3 17 4 18 5 16 7 12 8 13 9 90 10 14 11 15 12
REMARK SMILES IDX 9 13 10 14 11 15 8 16 5 17 6 18 91 19 7 20 3 21 4 22 2 23
REMARK SMILES IDX 1 24 22 25 23 26 24 27 25 28 26 30 27 31 28 32 89 33 29 34
REMARK SMILES IDX 88 35 30 36 31 37 32 38 82 39 33 40 87 41 81 42 83 43 34 44
REMARK SMILES IDX 86 45 80 46 79 47 35 49 67 50 47 51 66 52 48 53 51 54 65 55
REMARK SMILES IDX 84 56 49 57 50 58 64 60 85 61 52 62 36 63 37 64 45 65 38 66
REMARK SMILES IDX 40 67 46 68 39 69 41 70 42 71 43 72 44 73 68 74 69 75 77 76
REMARK SMILES IDX 70 77 72 78 78 79 71 80 73 81 74 82 75 83 76 84 53 85 54 86
REMARK SMILES IDX 62 87 55 88 57 89 63 90 56 91 58 92 59 93 60 94 61 95
REMARK H PARENT 19 6 24 29 83 48 51 59
REMARK Flexibility Score: inf
ROOT
ATOM      1  C   UNL A   1      37.182  21.980  24.648  1.00  0.00     0.023 C 
ENDROOT
BRANCH   1   2
ATOM      2  C   UNL A   1      37.124  23.125  25.654  1.00  0.00     0.116 C 
BRANCH   2   3
ATOM      3  N   UNL A   1      35.983  23.019  26.532  1.00  0.00    -0.356 N 
ATOM      4  C   UNL A   1      34.656  23.118  26.286  1.00  0.00     0.224 C 
ATOM      5  O   UNL A   1      33.897  22.938  27.247  1.00  0.00    -0.275 OA
ATOM      6  H   UNL A   1      36.210  22.845  27.474  1.00  0.00     0.163 HD
BRANCH   4   7
ATOM      7  C   UNL A   1      34.052  23.430  24.915  1.00  0.00     0.094 C 
ATOM      8  N   UNL A   1      31.957  24.813  24.982  1.00  0.00    -0.188 NA
ATOM      9  C   UNL A   1      31.158  23.798  24.282  1.00  0.00     0.103 C 
ATOM     10  C   UNL A   1      33.425  24.809  24.801  1.00  0.00     0.117 C 
ATOM     11  C   UNL A   1      31.744  22.396  24.422  1.00  0.00     0.018 C 
ATOM     12  C   UNL A   1      33.254  22.312  24.252  1.00  0.00     0.016 C 
BRANCH   8  13
ATOM     13  S   UNL A   1      31.231  26.240  25.484  1.00  0.00     0.282 S 
ATOM     14  O   UNL A   1      31.480  26.402  26.896  1.00  0.00    -0.195 OA
ATOM     15  O   UNL A   1      29.884  26.273  24.959  1.00  0.00    -0.195 OA
BRANCH  13  16
ATOM     16  N   UNL A   1      32.093  27.458  24.676  1.00  0.00    -0.188 NA
ATOM     17  C   UNL A   1      31.181  29.239  23.284  1.00  0.00     0.116 C 
ATOM     18  C   UNL A   1      31.149  29.612  24.759  1.00  0.00     0.033 C 
ATOM     19  C   UNL A   1      31.518  27.743  23.295  1.00  0.00     0.118 C 
ATOM     20  C   UNL A   1      32.269  28.777  25.310  1.00  0.00     0.104 C 
BRANCH  17  21
ATOM     21  C   UNL A   1      29.880  29.630  22.633  1.00  0.00     0.310 C 
ATOM     22  O   UNL A   1      29.584  29.327  21.482  1.00  0.00    -0.252 OA
BRANCH  21  23
ATOM     23  O   UNL A   1      29.025  30.212  23.515  1.00  0.00    -0.469 OA
ATOM     24  C   UNL A   1      27.658  30.124  23.098  1.00  0.00     0.282 C 
ENDBRANCH  21  23
ENDBRANCH  17  21
ENDBRANCH  13  16
ENDBRANCH   8  13
ENDBRANCH   4   7
ENDBRANCH   2   3
ENDBRANCH   1   2
BRANCH   1  25
ATOM     25  C   UNL A   1      37.916  20.750  25.156  1.00  0.00     0.023 C 
BRANCH  25  26
ATOM     26  C   UNL A   1      39.200  21.056  25.913  1.00  0.00     0.116 C 
BRANCH  26  27
ATOM     27  N   UNL A   1      40.105  19.915  26.030  1.00  0.00    -0.352 N 
ATOM     28  C   UNL A   1      41.454  19.946  26.303  1.00  0.00     0.251 C 
ATOM     29  H   UNL A   1      39.706  19.026  25.899  1.00  0.00     0.163 HD
ATOM     30  O   UNL A   1      42.140  18.931  26.261  1.00  0.00    -0.269 OA
BRANCH  28  31
ATOM     31  C   UNL A   1      42.058  21.256  26.613  1.00  0.00     0.039 A 
ATOM     32  C   UNL A   1      42.280  22.167  25.580  1.00  0.00     0.014 A 
ATOM     33  C   UNL A   1      42.252  21.619  27.948  1.00  0.00     0.014 A 
ATOM     34  C   UNL A   1      42.623  23.481  25.899  1.00  0.00     0.010 A 
ATOM     35  C   UNL A   1      42.477  22.950  28.261  1.00  0.00     0.010 A 
ATOM     36  C   UNL A   1      42.678  23.894  27.241  1.00  0.00    -0.014 A 
BRANCH  36  37
ATOM     37  C   UNL A   1      42.955  25.305  27.608  1.00  0.00     0.031 A 
ATOM     38  C   UNL A   1      44.354  25.845  27.492  1.00  0.00     0.074 A 
ATOM     39  C   UNL A   1      41.973  26.071  28.126  1.00  0.00     0.049 A 
ATOM     40  N   UNL A   1      44.807  27.034  27.792  1.00  0.00    -0.248 NA
ATOM     41  C   UNL A   1      45.390  24.915  27.010  1.00  0.00     0.031 C 
ATOM     42  C   UNL A   1      40.595  25.638  28.365  1.00  0.00     0.029 A 
ATOM     43  N   UNL A   1      41.990  27.373  28.558  1.00  0.00    -0.354 N 
ATOM     44  C   UNL A   1      46.178  26.980  27.576  1.00  0.00     0.074 A 
ATOM     45  C   UNL A   1      46.492  25.627  27.177  1.00  0.00     0.031 C 
ATOM     46  C   UNL A   1      39.892  26.666  28.866  1.00  0.00     0.029 A 
ATOM     47  C   UNL A   1      40.774  27.818  29.020  1.00  0.00     0.049 A 
ATOM     48  H   UNL A   1      42.798  27.936  28.539  1.00  0.00     0.167 HD
ATOM     49  C   UNL A   1      47.094  27.974  27.663  1.00  0.00     0.034 A 
ATOM     50  C   UNL A   1      40.411  29.021  29.507  1.00  0.00     0.034 A 
ATOM     51  C   UNL A   1      46.770  29.325  28.029  1.00  0.00     0.049 A 
ATOM     52  C   UNL A   1      41.440  30.117  29.582  1.00  0.00     0.074 A 
ATOM     53  C   UNL A   1      47.599  30.431  28.060  1.00  0.00     0.029 A 
ATOM     54  N   UNL A   1      45.516  29.751  28.443  1.00  0.00    -0.354 N 
ATOM     55  N   UNL A   1      42.700  30.093  29.219  1.00  0.00    -0.248 NA
ATOM     56  C   UNL A   1      40.989  31.414  30.104  1.00  0.00     0.031 C 
ATOM     57  C   UNL A   1      46.857  31.517  28.535  1.00  0.00     0.029 A 
ATOM     58  C   UNL A   1      45.553  31.099  28.754  1.00  0.00     0.049 A 
ATOM     59  H   UNL A   1      44.718  29.179  28.505  1.00  0.00     0.167 HD
ATOM     60  C   UNL A   1      43.182  31.382  29.427  1.00  0.00     0.074 A 
ATOM     61  C   UNL A   1      42.071  32.161  29.936  1.00  0.00     0.031 C 
ATOM     62  C   UNL A   1      44.429  31.872  29.221  1.00  0.00     0.034 A 
BRANCH  49  63
ATOM     63  C   UNL A   1      48.523  27.627  27.330  1.00  0.00     0.023 A 
ATOM     64  C   UNL A   1      49.393  27.175  28.346  1.00  0.00     0.012 A 
ATOM     65  C   UNL A   1      49.008  27.747  26.014  1.00  0.00     0.148 A 
ATOM     66  C   UNL A   1      50.735  26.911  28.071  1.00  0.00     0.002 A 
ATOM     67  C   UNL A   1      50.331  27.427  25.736  1.00  0.00     0.091 A 
ATOM     68  F   UNL A   1      48.178  28.197  25.062  1.00  0.00    -0.205 F 
ATOM     69  C   UNL A   1      51.201  27.029  26.765  1.00  0.00     0.022 A 
BRANCH  67  70
ATOM     70  S   UNL A   1      51.003  27.461  24.070  1.00  0.00     0.127 S 
ATOM     71  O   UNL A   1      51.276  28.886  23.891  1.00  0.00    -0.237 OA
ATOM     72  O   UNL A   1      52.197  26.624  24.203  1.00  0.00    -0.237 OA
ATOM     73  O   UNL A   1      49.968  26.906  23.210  1.00  0.00    -0.744 OA
ENDBRANCH  67  70
ENDBRANCH  49  63
BRANCH  50  74
ATOM     74  C   UNL A   1      38.989  29.279  29.873  1.00  0.00     0.023 A 
ATOM     75  C   UNL A   1      38.555  28.986  31.181  1.00  0.00     0.012 A 
ATOM     76  C   UNL A   1      38.081  29.844  28.958  1.00  0.00     0.148 A 
ATOM     77  C   UNL A   1      37.234  29.222  31.563  1.00  0.00     0.002 A 
ATOM     78  C   UNL A   1      36.779  30.124  29.360  1.00  0.00     0.091 A 
ATOM     79  F   UNL A   1      38.513  30.113  27.719  1.00  0.00    -0.205 F 
ATOM     80  C   UNL A   1      36.349  29.799  30.657  1.00  0.00     0.022 A 
BRANCH  78  81
ATOM     81  S   UNL A   1      35.599  30.975  28.307  1.00  0.00     0.127 S 
ATOM     82  O   UNL A   1      34.567  31.363  29.265  1.00  0.00    -0.237 OA
ATOM     83  O   UNL A   1      36.406  32.079  27.787  1.00  0.00    -0.237 OA
ATOM     84  O   UNL A   1      35.188  30.001  27.305  1.00  0.00    -0.744 OA
ENDBRANCH  78  81
ENDBRANCH  50  74
BRANCH  62  85
ATOM     85  C   UNL A   1      44.661  33.334  29.502  1.00  0.00     0.023 A 
ATOM     86  C   UNL A   1      45.078  33.753  30.781  1.00  0.00     0.012 A 
ATOM     87  C   UNL A   1      44.537  34.286  28.469  1.00  0.00     0.148 A 
ATOM     88  C   UNL A   1      45.332  35.100  31.037  1.00  0.00     0.002 A 
ATOM     89  C   UNL A   1      44.847  35.617  28.717  1.00  0.00     0.091 A 
ATOM     90  F   UNL A   1      44.123  33.871  27.263  1.00  0.00    -0.205 F 
ATOM     91  C   UNL A   1      45.229  36.028  30.004  1.00  0.00     0.022 A 
BRANCH  89  92
ATOM     92  S   UNL A   1      44.842  36.865  27.426  1.00  0.00     0.127 S 
ATOM     93  O   UNL A   1      45.295  38.049  28.153  1.00  0.00    -0.237 OA
ATOM     94  O   UNL A   1      45.813  36.325  26.472  1.00  0.00    -0.237 OA
ATOM     95  O   UNL A   1      43.475  36.925  26.928  1.00  0.00    -0.744 OA
ENDBRANCH  89  92
ENDBRANCH  62  85
ENDBRANCH  36  37
ENDBRANCH  28  31
ENDBRANCH  26  27
ENDBRANCH  25  26
ENDBRANCH   1  25
TORSDOF 18
ENDMDL
MODEL 3
REMARK VINA RESULT:     -11.7      5.771      8.973
REMARK SMILES COC(=O)[C@H]1CCN(S(=O)(=O)N2CCC[C@H](C(=O)NCCCCNC(=O)c3ccc(-c4c5nc(c(-c6cccc(S(=O)(=O)[O-])c6F)c6ccc([nH]6)c(-c6cccc(S(=O)(=O)[O-])c6F)c6nc(c(-c7cccc(S(=O)(=O)[O-])c7F)c7ccc4[nH]7)C=C6)C=C5)cc3)C2)C1
REMARK SMILES IDX 21 1 20 2 19 3 17 4 18 5 16 7 12 8 13 9 90 10 14 11 15 12
REMARK SMILES IDX 9 13 10 14 11 15 8 16 5 17 6 18 91 19 7 20 3 21 4 22 2 23
REMARK SMILES IDX 1 24 22 25 23 26 24 27 25 28 26 30 27 31 28 32 89 33 29 34
REMARK SMILES IDX 88 35 30 36 31 37 32 38 82 39 33 40 87 41 81 42 83 43 34 44
REMARK SMILES IDX 86 45 80 46 79 47 35 49 67 50 47 51 66 52 48 53 51 54 65 55
REMARK SMILES IDX 84 56 49 57 50 58 64 60 85 61 52 62 36 63 37 64 45 65 38 66
REMARK SMILES IDX 40 67 46 68 39 69 41 70 42 71 43 72 44 73 68 74 69 75 77 76
REMARK SMILES IDX 70 77 72 78 78 79 71 80 73 81 74 82 75 83 76 84 53 85 54 86
REMARK SMILES IDX 62 87 55 88 57 89 63 90 56 91 58 92 59 93 60 94 61 95
REMARK H PARENT 19 6 24 29 83 48 51 59
REMARK Flexibility Score: inf
ROOT
ATOM      1  C   UNL A   1      35.892  23.182  23.910  1.00  0.00     0.023 C 
ENDROOT
BRANCH   1   2
ATOM      2  C   UNL A   1      34.373  23.060  23.883  1.00  0.00     0.116 C 
BRANCH   2   3
ATOM      3  N   UNL A   1      33.941  21.712  23.601  1.00  0.00    -0.356 N 
ATOM      4  C   UNL A   1      33.187  20.847  24.320  1.00  0.00     0.224 C 
ATOM      5  O   UNL A   1      32.942  19.754  23.796  1.00  0.00    -0.275 OA
ATOM      6  H   UNL A   1      34.249  21.359  22.735  1.00  0.00     0.163 HD
BRANCH   4   7
ATOM      7  C   UNL A   1      32.628  21.141  25.714  1.00  0.00     0.094 C 
ATOM      8  N   UNL A   1      31.927  23.524  26.082  1.00  0.00    -0.188 NA
ATOM      9  C   UNL A   1      32.841  23.712  27.217  1.00  0.00     0.103 C 
ATOM     10  C   UNL A   1      31.494  22.152  25.738  1.00  0.00     0.117 C 
ATOM     11  C   UNL A   1      34.014  22.736  27.188  1.00  0.00     0.018 C 
ATOM     12  C   UNL A   1      33.647  21.301  26.837  1.00  0.00     0.016 C 
BRANCH   8  13
ATOM     13  S   UNL A   1      30.969  24.803  25.567  1.00  0.00     0.282 S 
ATOM     14  O   UNL A   1      29.890  24.968  26.512  1.00  0.00    -0.195 OA
ATOM     15  O   UNL A   1      30.702  24.630  24.157  1.00  0.00    -0.195 OA
BRANCH  13  16
ATOM     16  N   UNL A   1      31.975  26.162  25.705  1.00  0.00    -0.188 NA
ATOM     17  C   UNL A   1      32.919  27.492  23.892  1.00  0.00     0.116 C 
ATOM     18  C   UNL A   1      31.505  27.939  24.234  1.00  0.00     0.033 C 
ATOM     19  C   UNL A   1      33.074  26.168  24.651  1.00  0.00     0.118 C 
ATOM     20  C   UNL A   1      31.389  27.515  25.670  1.00  0.00     0.104 C 
BRANCH  17  21
ATOM     21  C   UNL A   1      33.084  27.432  22.396  1.00  0.00     0.310 C 
ATOM     22  O   UNL A   1      34.063  27.880  21.808  1.00  0.00    -0.252 OA
BRANCH  21  23
ATOM     23  O   UNL A   1      32.109  26.693  21.806  1.00  0.00    -0.469 OA
ATOM     24  C   UNL A   1      32.632  25.649  20.979  1.00  0.00     0.282 C 
ENDBRANCH  21  23
ENDBRANCH  17  21
ENDBRANCH  13  16
ENDBRANCH   8  13
ENDBRANCH   4   7
ENDBRANCH   2   3
ENDBRANCH   1   2
BRANCH   1  25
ATOM     25  C   UNL A   1      36.610  21.883  24.238  1.00  0.00     0.023 C 
BRANCH  25  26
ATOM     26  C   UNL A   1      37.311  21.880  25.588  1.00  0.00     0.116 C 
BRANCH  26  27
ATOM     27  N   UNL A   1      38.401  20.912  25.689  1.00  0.00    -0.352 N 
ATOM     28  C   UNL A   1      39.666  21.130  26.187  1.00  0.00     0.251 C 
ATOM     29  H   UNL A   1      38.209  20.004  25.364  1.00  0.00     0.163 HD
ATOM     30  O   UNL A   1      40.540  20.273  26.113  1.00  0.00    -0.269 OA
BRANCH  28  31
ATOM     31  C   UNL A   1      39.949  22.450  26.781  1.00  0.00     0.039 A 
ATOM     32  C   UNL A   1      40.881  22.550  27.813  1.00  0.00     0.014 A 
ATOM     33  C   UNL A   1      39.398  23.592  26.195  1.00  0.00     0.014 A 
ATOM     34  C   UNL A   1      41.322  23.812  28.208  1.00  0.00     0.010 A 
ATOM     35  C   UNL A   1      39.925  24.835  26.510  1.00  0.00     0.010 A 
ATOM     36  C   UNL A   1      40.883  24.962  27.528  1.00  0.00    -0.014 A 
BRANCH  36  37
ATOM     37  C   UNL A   1      41.401  26.310  27.868  1.00  0.00     0.031 A 
ATOM     38  C   UNL A   1      42.820  26.673  27.522  1.00  0.00     0.074 A 
ATOM     39  C   UNL A   1      40.631  27.172  28.561  1.00  0.00     0.049 A 
ATOM     40  N   UNL A   1      43.469  27.781  27.761  1.00  0.00    -0.248 NA
ATOM     41  C   UNL A   1      43.628  25.640  26.852  1.00  0.00     0.031 C 
ATOM     42  C   UNL A   1      39.267  26.908  29.026  1.00  0.00     0.029 A 
ATOM     43  N   UNL A   1      40.892  28.444  29.008  1.00  0.00    -0.354 N 
ATOM     44  C   UNL A   1      44.766  27.563  27.311  1.00  0.00     0.074 A 
ATOM     45  C   UNL A   1      44.826  26.199  26.839  1.00  0.00     0.031 C 
ATOM     46  C   UNL A   1      38.800  27.996  29.659  1.00  0.00     0.029 A 
ATOM     47  C   UNL A   1      39.840  29.019  29.681  1.00  0.00     0.049 A 
ATOM     48  H   UNL A   1      41.752  28.900  28.860  1.00  0.00     0.167 HD
ATOM     49  C   UNL A   1      45.805  28.428  27.259  1.00  0.00     0.034 A 
ATOM     50  C   UNL A   1      39.726  30.237  30.245  1.00  0.00     0.034 A 
ATOM     51  C   UNL A   1      45.729  29.794  27.699  1.00  0.00     0.049 A 
ATOM     52  C   UNL A   1      40.889  31.190  30.162  1.00  0.00     0.074 A 
ATOM     53  C   UNL A   1      46.690  30.784  27.608  1.00  0.00     0.029 A 
ATOM     54  N   UNL A   1      44.630  30.358  28.331  1.00  0.00    -0.354 N 
ATOM     55  N   UNL A   1      42.055  31.022  29.587  1.00  0.00    -0.248 NA
ATOM     56  C   UNL A   1      40.707  32.512  30.778  1.00  0.00     0.031 C 
ATOM     57  C   UNL A   1      46.189  31.934  28.224  1.00  0.00     0.029 A 
ATOM     58  C   UNL A   1      44.896  31.676  28.656  1.00  0.00     0.049 A 
ATOM     59  H   UNL A   1      43.785  29.890  28.519  1.00  0.00     0.167 HD
ATOM     60  C   UNL A   1      42.730  32.229  29.733  1.00  0.00     0.074 A 
ATOM     61  C   UNL A   1      41.834  33.122  30.440  1.00  0.00     0.031 C 
ATOM     62  C   UNL A   1      43.979  32.566  29.324  1.00  0.00     0.034 A 
BRANCH  49  63
ATOM     63  C   UNL A   1      47.100  27.917  26.677  1.00  0.00     0.023 A 
ATOM     64  C   UNL A   1      48.135  27.485  27.535  1.00  0.00     0.012 A 
ATOM     65  C   UNL A   1      47.295  27.862  25.284  1.00  0.00     0.148 A 
ATOM     66  C   UNL A   1      49.362  27.070  27.019  1.00  0.00     0.002 A 
ATOM     67  C   UNL A   1      48.500  27.394  24.776  1.00  0.00     0.091 A 
ATOM     68  F   UNL A   1      46.313  28.295  24.481  1.00  0.00    -0.205 F 
ATOM     69  C   UNL A   1      49.541  27.017  25.641  1.00  0.00     0.022 A 
BRANCH  67  70
ATOM     70  S   UNL A   1      48.796  27.202  23.015  1.00  0.00     0.127 S 
ATOM     71  O   UNL A   1      48.035  28.322  22.464  1.00  0.00    -0.237 OA
ATOM     72  O   UNL A   1      50.249  27.352  22.929  1.00  0.00    -0.237 OA
ATOM     73  O   UNL A   1      48.303  25.876  22.668  1.00  0.00    -0.744 OA
ENDBRANCH  67  70
ENDBRANCH  49  63
BRANCH  50  74
ATOM     74  C   UNL A   1      38.433  30.659  30.855  1.00  0.00     0.023 A 
ATOM     75  C   UNL A   1      38.188  30.364  32.211  1.00  0.00     0.012 A 
ATOM     76  C   UNL A   1      37.468  31.376  30.123  1.00  0.00     0.148 A 
ATOM     77  C   UNL A   1      36.993  30.750  32.820  1.00  0.00     0.002 A 
ATOM     78  C   UNL A   1      36.301  31.802  30.749  1.00  0.00     0.091 A 
ATOM     79  F   UNL A   1      37.720  31.644  28.834  1.00  0.00    -0.205 F 
ATOM     80  C   UNL A   1      36.054  31.477  32.092  1.00  0.00     0.022 A 
BRANCH  78  81
ATOM     81  S   UNL A   1      35.087  32.844  29.933  1.00  0.00     0.127 S 
ATOM     82  O   UNL A   1      35.920  33.925  29.413  1.00  0.00    -0.237 OA
ATOM     83  O   UNL A   1      34.550  31.936  28.919  1.00  0.00    -0.237 OA
ATOM     84  O   UNL A   1      34.135  33.228  30.966  1.00  0.00    -0.744 OA
ENDBRANCH  78  81
ENDBRANCH  50  74
BRANCH  62  85
ATOM     85  C   UNL A   1      44.445  33.974  29.588  1.00  0.00     0.023 A 
ATOM     86  C   UNL A   1      45.035  34.305  30.824  1.00  0.00     0.012 A 
ATOM     87  C   UNL A   1      44.366  34.952  28.576  1.00  0.00     0.148 A 
ATOM     88  C   UNL A   1      45.505  35.597  31.061  1.00  0.00     0.002 A 
ATOM     89  C   UNL A   1      44.887  36.220  28.799  1.00  0.00     0.091 A 
ATOM     90  F   UNL A   1      43.787  34.622  27.412  1.00  0.00    -0.205 F 
ATOM     91  C   UNL A   1      45.442  36.549  30.046  1.00  0.00     0.022 A 
BRANCH  89  92
ATOM     92  S   UNL A   1      44.945  37.478  27.519  1.00  0.00     0.127 S 
ATOM     93  O   UNL A   1      43.532  37.615  27.172  1.00  0.00    -0.237 OA
ATOM     94  O   UNL A   1      45.511  38.622  28.236  1.00  0.00    -0.237 OA
ATOM     95  O   UNL A   1      45.796  36.944  26.465  1.00  0.00    -0.744 OA
ENDBRANCH  89  92
ENDBRANCH  62  85
ENDBRANCH  36  37
ENDBRANCH  28  31
ENDBRANCH  26  27
ENDBRANCH  25  26
ENDBRANCH   1  25
TORSDOF 18
ENDMDL
