MODEL 1
REMARK VINA RESULT:     -11.8      0.000      0.000
REMARK SMILES O=C(NCCCCNC(=O)c1cccn1CC(=O)N1CCS(=O)CC1)c1ccc(-c2c3nc(c(-c4cccc(S(=O)(=O)[O-])c4F)c4ccc([nH]4)c(-c4cccc(S(=O)(=O)[O-])c4F)c4nc(c(-c5cccc(S(=O)(=O)[O-])c5F)c5ccc2[nH]5)C=C4)C=C3)cc1
REMARK SMILES IDX 5 1 4 2 3 3 1 4 2 5 26 7 27 8 88 9 28 10 87 11 29 12 30 13
REMARK SMILES IDX 31 14 81 15 32 16 86 17 80 18 82 19 33 20 85 21 79 22 78 23
REMARK SMILES IDX 34 25 66 26 46 27 65 28 47 29 50 30 64 31 83 32 48 33 49 34
REMARK SMILES IDX 63 36 84 37 51 38 35 39 36 40 44 41 37 42 39 43 45 44 38 45
REMARK SMILES IDX 40 46 41 47 42 48 43 49 67 50 68 51 76 52 69 53 71 54 77 55
REMARK SMILES IDX 70 56 72 57 73 58 74 59 75 60 52 61 53 62 61 63 54 64 56 65
REMARK SMILES IDX 62 66 55 67 57 68 58 69 59 70 60 71 6 72 7 73 8 74 9 75
REMARK SMILES IDX 10 77 11 78 12 79 15 80 13 81 14 82 16 83 17 84 18 85 19 86
REMARK SMILES IDX 20 87 25 88 21 89 24 90 22 91 23 92
REMARK H PARENT 3 6 82 24 50 35 8 76
REMARK Flexibility Score: inf
ROOT
ATOM      1  C   UNL A   1      33.637  28.017  26.914  1.00  0.00     0.023 C 
ENDROOT
BRANCH   1   2
ATOM      2  C   UNL A   1      34.934  28.713  26.520  1.00  0.00     0.116 C 
BRANCH   2   3
ATOM      3  N   UNL A   1      35.178  29.992  27.154  1.00  0.00    -0.352 N 
ATOM      4  O   UNL A   1      36.254  31.751  27.993  1.00  0.00    -0.269 OA
ATOM      5  C   UNL A   1      36.317  30.567  27.667  1.00  0.00     0.251 C 
ATOM      6  H   UNL A   1      34.376  30.557  27.232  1.00  0.00     0.163 HD
BRANCH   5   7
ATOM      7  C   UNL A   1      37.539  29.772  27.944  1.00  0.00     0.039 A 
ATOM      8  C   UNL A   1      38.634  29.713  27.078  1.00  0.00     0.014 A 
ATOM      9  C   UNL A   1      37.551  29.011  29.120  1.00  0.00     0.014 A 
ATOM     10  C   UNL A   1      39.652  28.789  27.293  1.00  0.00     0.010 A 
ATOM     11  C   UNL A   1      38.597  28.125  29.374  1.00  0.00     0.010 A 
ATOM     12  C   UNL A   1      39.646  28.008  28.455  1.00  0.00    -0.014 A 
BRANCH  12  13
ATOM     13  C   UNL A   1      40.938  27.398  28.859  1.00  0.00     0.031 A 
ATOM     14  C   UNL A   1      40.929  25.880  28.449  1.00  0.00     0.074 A 
ATOM     15  C   UNL A   1      41.851  28.194  29.511  1.00  0.00     0.049 A 
ATOM     16  N   UNL A   1      41.558  24.862  28.961  1.00  0.00    -0.248 NA
ATOM     17  C   UNL A   1      39.985  25.407  27.385  1.00  0.00     0.031 C 
ATOM     18  C   UNL A   1      41.688  29.644  29.793  1.00  0.00     0.029 A 
ATOM     19  N   UNL A   1      43.100  27.973  30.067  1.00  0.00    -0.354 N 
ATOM     20  C   UNL A   1      41.313  23.745  28.110  1.00  0.00     0.074 A 
ATOM     21  C   UNL A   1      40.209  24.095  27.284  1.00  0.00     0.031 C 
ATOM     22  C   UNL A   1      42.725  30.129  30.525  1.00  0.00     0.029 A 
ATOM     23  C   UNL A   1      43.697  29.075  30.755  1.00  0.00     0.049 A 
ATOM     24  H   UNL A   1      43.552  27.101  29.993  1.00  0.00     0.167 HD
ATOM     25  C   UNL A   1      42.165  22.679  28.003  1.00  0.00     0.034 A 
ATOM     26  C   UNL A   1      44.883  29.112  31.462  1.00  0.00     0.034 A 
ATOM     27  C   UNL A   1      43.277  22.903  28.861  1.00  0.00     0.049 A 
ATOM     28  C   UNL A   1      45.562  27.872  31.080  1.00  0.00     0.074 A 
ATOM     29  C   UNL A   1      43.399  22.890  30.223  1.00  0.00     0.029 A 
ATOM     30  N   UNL A   1      44.309  23.614  28.292  1.00  0.00    -0.354 N 
ATOM     31  N   UNL A   1      46.071  27.656  29.903  1.00  0.00    -0.248 NA
ATOM     32  C   UNL A   1      45.614  26.763  32.039  1.00  0.00     0.031 C 
ATOM     33  C   UNL A   1      44.197  24.022  30.455  1.00  0.00     0.029 A 
ATOM     34  C   UNL A   1      44.769  24.467  29.253  1.00  0.00     0.049 A 
ATOM     35  H   UNL A   1      44.648  23.525  27.373  1.00  0.00     0.167 HD
ATOM     36  C   UNL A   1      46.121  26.289  29.876  1.00  0.00     0.074 A 
ATOM     37  C   UNL A   1      46.187  25.852  31.258  1.00  0.00     0.031 C 
ATOM     38  C   UNL A   1      45.517  25.630  28.851  1.00  0.00     0.034 A 
BRANCH  25  39
ATOM     39  C   UNL A   1      42.334  21.536  27.030  1.00  0.00     0.023 A 
ATOM     40  C   UNL A   1      41.574  20.367  27.336  1.00  0.00     0.012 A 
ATOM     41  C   UNL A   1      43.388  21.396  26.112  1.00  0.00     0.148 A 
ATOM     42  C   UNL A   1      41.928  19.101  26.878  1.00  0.00     0.002 A 
ATOM     43  C   UNL A   1      43.707  20.128  25.613  1.00  0.00     0.091 A 
ATOM     44  F   UNL A   1      44.126  22.464  25.793  1.00  0.00    -0.205 F 
ATOM     45  C   UNL A   1      43.009  18.980  26.028  1.00  0.00     0.022 A 
BRANCH  43  46
ATOM     46  S   UNL A   1      45.036  19.835  24.440  1.00  0.00     0.127 S 
ATOM     47  O   UNL A   1      46.186  20.403  25.138  1.00  0.00    -0.237 OA
ATOM     48  O   UNL A   1      45.041  18.373  24.355  1.00  0.00    -0.237 OA
ATOM     49  O   UNL A   1      44.630  20.498  23.209  1.00  0.00    -0.744 OA
ENDBRANCH  43  46
ENDBRANCH  25  39
BRANCH  26  50
ATOM     50  C   UNL A   1      45.652  29.967  32.470  1.00  0.00     0.023 A 
ATOM     51  C   UNL A   1      45.240  30.221  33.784  1.00  0.00     0.012 A 
ATOM     52  C   UNL A   1      46.971  30.442  32.142  1.00  0.00     0.148 A 
ATOM     53  C   UNL A   1      46.121  30.810  34.725  1.00  0.00     0.002 A 
ATOM     54  C   UNL A   1      47.881  30.880  33.100  1.00  0.00     0.091 A 
ATOM     55  F   UNL A   1      47.357  30.511  30.864  1.00  0.00    -0.205 F 
ATOM     56  C   UNL A   1      47.453  31.085  34.404  1.00  0.00     0.022 A 
BRANCH  54  57
ATOM     57  S   UNL A   1      49.651  31.030  32.746  1.00  0.00     0.127 S 
ATOM     58  O   UNL A   1      49.960  29.745  32.125  1.00  0.00    -0.237 OA
ATOM     59  O   UNL A   1      49.667  32.172  31.832  1.00  0.00    -0.237 OA
ATOM     60  O   UNL A   1      50.308  31.272  34.024  1.00  0.00    -0.744 OA
ENDBRANCH  54  57
ENDBRANCH  26  50
BRANCH  38  61
ATOM     61  C   UNL A   1      45.470  26.377  27.511  1.00  0.00     0.023 A 
ATOM     62  C   UNL A   1      44.210  26.872  27.112  1.00  0.00     0.012 A 
ATOM     63  C   UNL A   1      46.538  26.562  26.597  1.00  0.00     0.148 A 
ATOM     64  C   UNL A   1      44.003  27.493  25.876  1.00  0.00     0.002 A 
ATOM     65  C   UNL A   1      46.331  27.171  25.348  1.00  0.00     0.091 A 
ATOM     66  F   UNL A   1      47.753  26.140  26.938  1.00  0.00    -0.205 F 
ATOM     67  C   UNL A   1      45.062  27.643  24.993  1.00  0.00     0.022 A 
BRANCH  65  68
ATOM     68  S   UNL A   1      47.610  27.381  24.088  1.00  0.00     0.127 S 
ATOM     69  O   UNL A   1      46.919  28.176  23.071  1.00  0.00    -0.237 OA
ATOM     70  O   UNL A   1      48.645  28.113  24.815  1.00  0.00    -0.237 OA
ATOM     71  O   UNL A   1      47.980  26.042  23.653  1.00  0.00    -0.744 OA
ENDBRANCH  65  68
ENDBRANCH  38  61
ENDBRANCH  12  13
ENDBRANCH   5   7
ENDBRANCH   2   3
ENDBRANCH   1   2
BRANCH   1  72
ATOM     72  C   UNL A   1      32.380  28.828  26.655  1.00  0.00     0.023 C 
BRANCH  72  73
ATOM     73  C   UNL A   1      31.450  28.281  25.578  1.00  0.00     0.116 C 
BRANCH  73  74
ATOM     74  N   UNL A   1      31.038  26.911  25.849  1.00  0.00    -0.351 N 
ATOM     75  C   UNL A   1      31.151  25.801  25.069  1.00  0.00     0.267 C 
ATOM     76  H   UNL A   1      30.614  26.766  26.726  1.00  0.00     0.163 HD
ATOM     77  O   UNL A   1      30.612  24.753  25.473  1.00  0.00    -0.268 OA
BRANCH  75  78
ATOM     78  C   UNL A   1      31.850  25.874  23.809  1.00  0.00     0.107 A 
ATOM     79  C   UNL A   1      31.364  26.304  22.579  1.00  0.00     0.033 A 
ATOM     80  N   UNL A   1      33.190  25.573  23.613  1.00  0.00    -0.334 N 
ATOM     81  C   UNL A   1      32.419  26.259  21.641  1.00  0.00     0.020 A 
ATOM     82  C   UNL A   1      33.542  25.833  22.311  1.00  0.00     0.087 A 
BRANCH  80  83
ATOM     83  C   UNL A   1      34.118  25.118  24.640  1.00  0.00     0.222 C 
BRANCH  83  84
ATOM     84  C   UNL A   1      34.962  23.880  24.364  1.00  0.00     0.242 C 
ATOM     85  O   UNL A   1      36.189  23.959  24.502  1.00  0.00    -0.273 OA
ATOM     86  N   UNL A   1      34.348  22.643  24.242  1.00  0.00    -0.339 N 
ATOM     87  C   UNL A   1      34.979  21.458  24.834  1.00  0.00     0.133 C 
ATOM     88  C   UNL A   1      33.169  22.348  23.432  1.00  0.00     0.133 C 
ATOM     89  C   UNL A   1      34.032  20.782  25.825  1.00  0.00     0.126 C 
ATOM     90  C   UNL A   1      32.059  21.764  24.276  1.00  0.00     0.126 C 
ATOM     91  S   UNL A   1      32.526  20.167  25.003  1.00  0.00     0.025 S 
ATOM     92  O   UNL A   1      32.949  19.264  23.881  1.00  0.00    -0.259 OA
ENDBRANCH  83  84
ENDBRANCH  80  83
ENDBRANCH  75  78
ENDBRANCH  73  74
ENDBRANCH  72  73
ENDBRANCH   1  72
TORSDOF 16
ENDMDL
MODEL 2
REMARK VINA RESULT:     -11.7      1.888      2.200
REMARK SMILES O=C(NCCCCNC(=O)c1cccn1CC(=O)N1CCS(=O)CC1)c1ccc(-c2c3nc(c(-c4cccc(S(=O)(=O)[O-])c4F)c4ccc([nH]4)c(-c4cccc(S(=O)(=O)[O-])c4F)c4nc(c(-c5cccc(S(=O)(=O)[O-])c5F)c5ccc2[nH]5)C=C4)C=C3)cc1
REMARK SMILES IDX 5 1 4 2 3 3 1 4 2 5 26 7 27 8 88 9 28 10 87 11 29 12 30 13
REMARK SMILES IDX 31 14 81 15 32 16 86 17 80 18 82 19 33 20 85 21 79 22 78 23
REMARK SMILES IDX 34 25 66 26 46 27 65 28 47 29 50 30 64 31 83 32 48 33 49 34
REMARK SMILES IDX 63 36 84 37 51 38 35 39 36 40 44 41 37 42 39 43 45 44 38 45
REMARK SMILES IDX 40 46 41 47 42 48 43 49 67 50 68 51 76 52 69 53 71 54 77 55
REMARK SMILES IDX 70 56 72 57 73 58 74 59 75 60 52 61 53 62 61 63 54 64 56 65
REMARK SMILES IDX 62 66 55 67 57 68 58 69 59 70 60 71 6 72 7 73 8 74 9 75
REMARK SMILES IDX 10 77 11 78 12 79 15 80 13 81 14 82 16 83 17 84 18 85 19 86
REMARK SMILES IDX 20 87 25 88 21 89 24 90 22 91 23 92
REMARK H PARENT 3 6 82 24 50 35 8 76
REMARK Flexibility Score: inf
ROOT
ATOM      1  C   UNL A   1      33.942  27.884  26.498  1.00  0.00     0.023 C 
ENDROOT
BRANCH   1   2
ATOM      2  C   UNL A   1      35.049  28.879  26.174  1.00  0.00     0.116 C 
BRANCH   2   3
ATOM      3  N   UNL A   1      35.147  30.019  27.061  1.00  0.00    -0.352 N 
ATOM      4  O   UNL A   1      36.021  31.626  28.332  1.00  0.00    -0.269 OA
ATOM      5  C   UNL A   1      36.191  30.531  27.796  1.00  0.00     0.251 C 
ATOM      6  H   UNL A   1      34.307  30.524  27.156  1.00  0.00     0.163 HD
BRANCH   5   7
ATOM      7  C   UNL A   1      37.426  29.751  28.050  1.00  0.00     0.039 A 
ATOM      8  C   UNL A   1      38.527  29.744  27.189  1.00  0.00     0.014 A 
ATOM      9  C   UNL A   1      37.448  28.948  29.198  1.00  0.00     0.014 A 
ATOM     10  C   UNL A   1      39.561  28.833  27.376  1.00  0.00     0.010 A 
ATOM     11  C   UNL A   1      38.510  28.073  29.426  1.00  0.00     0.010 A 
ATOM     12  C   UNL A   1      39.565  28.010  28.509  1.00  0.00    -0.014 A 
BRANCH  12  13
ATOM     13  C   UNL A   1      40.866  27.410  28.897  1.00  0.00     0.031 A 
ATOM     14  C   UNL A   1      40.867  25.894  28.483  1.00  0.00     0.074 A 
ATOM     15  C   UNL A   1      41.779  28.213  29.542  1.00  0.00     0.049 A 
ATOM     16  N   UNL A   1      41.510  24.880  28.986  1.00  0.00    -0.248 NA
ATOM     17  C   UNL A   1      39.916  25.415  27.428  1.00  0.00     0.031 C 
ATOM     18  C   UNL A   1      41.606  29.661  29.830  1.00  0.00     0.029 A 
ATOM     19  N   UNL A   1      43.036  28.001  30.085  1.00  0.00    -0.354 N 
ATOM     20  C   UNL A   1      41.267  23.763  28.134  1.00  0.00     0.074 A 
ATOM     21  C   UNL A   1      40.151  24.106  27.320  1.00  0.00     0.031 C 
ATOM     22  C   UNL A   1      42.646  30.153  30.553  1.00  0.00     0.029 A 
ATOM     23  C   UNL A   1      43.630  29.107  30.770  1.00  0.00     0.049 A 
ATOM     24  H   UNL A   1      43.495  27.134  30.003  1.00  0.00     0.167 HD
ATOM     25  C   UNL A   1      42.127  22.706  28.015  1.00  0.00     0.034 A 
ATOM     26  C   UNL A   1      44.822  29.153  31.464  1.00  0.00     0.034 A 
ATOM     27  C   UNL A   1      43.246  22.937  28.862  1.00  0.00     0.049 A 
ATOM     28  C   UNL A   1      45.510  27.920  31.072  1.00  0.00     0.074 A 
ATOM     29  C   UNL A   1      43.383  22.921  30.222  1.00  0.00     0.029 A 
ATOM     30  N   UNL A   1      44.265  23.659  28.284  1.00  0.00    -0.354 N 
ATOM     31  N   UNL A   1      46.007  27.712  29.888  1.00  0.00    -0.248 NA
ATOM     32  C   UNL A   1      45.581  26.809  32.026  1.00  0.00     0.031 C 
ATOM     33  C   UNL A   1      44.172  24.060  30.449  1.00  0.00     0.029 A 
ATOM     34  C   UNL A   1      44.728  24.514  29.243  1.00  0.00     0.049 A 
ATOM     35  H   UNL A   1      44.595  23.576  27.361  1.00  0.00     0.167 HD
ATOM     36  C   UNL A   1      46.070  26.345  29.857  1.00  0.00     0.074 A 
ATOM     37  C   UNL A   1      46.155  25.906  31.237  1.00  0.00     0.031 C 
ATOM     38  C   UNL A   1      45.461  25.684  28.836  1.00  0.00     0.034 A 
BRANCH  25  39
ATOM     39  C   UNL A   1      42.297  21.566  27.037  1.00  0.00     0.023 A 
ATOM     40  C   UNL A   1      41.637  20.355  27.404  1.00  0.00     0.012 A 
ATOM     41  C   UNL A   1      43.286  21.486  26.044  1.00  0.00     0.148 A 
ATOM     42  C   UNL A   1      42.036  19.110  26.926  1.00  0.00     0.002 A 
ATOM     43  C   UNL A   1      43.647  20.236  25.528  1.00  0.00     0.091 A 
ATOM     44  F   UNL A   1      43.928  22.595  25.666  1.00  0.00    -0.205 F 
ATOM     45  C   UNL A   1      43.057  19.050  25.998  1.00  0.00     0.022 A 
BRANCH  43  46
ATOM     46  S   UNL A   1      44.901  20.018  24.259  1.00  0.00     0.127 S 
ATOM     47  O   UNL A   1      46.132  20.275  25.003  1.00  0.00    -0.237 OA
ATOM     48  O   UNL A   1      44.704  18.615  23.883  1.00  0.00    -0.237 OA
ATOM     49  O   UNL A   1      44.568  20.965  23.206  1.00  0.00    -0.744 OA
ENDBRANCH  43  46
ENDBRANCH  25  39
BRANCH  26  50
ATOM     50  C   UNL A   1      45.594  30.012  32.467  1.00  0.00     0.023 A 
ATOM     51  C   UNL A   1      46.871  30.543  32.250  1.00  0.00     0.012 A 
ATOM     52  C   UNL A   1      44.944  30.458  33.672  1.00  0.00     0.148 A 
ATOM     53  C   UNL A   1      47.411  31.525  33.119  1.00  0.00     0.002 A 
ATOM     54  C   UNL A   1      45.408  31.526  34.435  1.00  0.00     0.091 A 
ATOM     55  F   UNL A   1      43.862  29.815  34.124  1.00  0.00    -0.205 F 
ATOM     56  C   UNL A   1      46.662  32.058  34.172  1.00  0.00     0.022 A 
BRANCH  54  57
ATOM     57  S   UNL A   1      44.361  32.362  35.654  1.00  0.00     0.127 S 
ATOM     58  O   UNL A   1      43.016  31.974  35.236  1.00  0.00    -0.237 OA
ATOM     59  O   UNL A   1      44.818  31.744  36.899  1.00  0.00    -0.237 OA
ATOM     60  O   UNL A   1      44.655  33.784  35.544  1.00  0.00    -0.744 OA
ENDBRANCH  54  57
ENDBRANCH  26  50
BRANCH  38  61
ATOM     61  C   UNL A   1      45.393  26.435  27.499  1.00  0.00     0.023 A 
ATOM     62  C   UNL A   1      44.110  26.835  27.068  1.00  0.00     0.012 A 
ATOM     63  C   UNL A   1      46.468  26.707  26.616  1.00  0.00     0.148 A 
ATOM     64  C   UNL A   1      43.890  27.446  25.830  1.00  0.00     0.002 A 
ATOM     65  C   UNL A   1      46.249  27.307  25.365  1.00  0.00     0.091 A 
ATOM     66  F   UNL A   1      47.703  26.378  26.988  1.00  0.00    -0.205 F 
ATOM     67  C   UNL A   1      44.958  27.682  24.977  1.00  0.00     0.022 A 
BRANCH  65  68
ATOM     68  S   UNL A   1      47.542  27.623  24.141  1.00  0.00     0.127 S 
ATOM     69  O   UNL A   1      47.762  26.294  23.569  1.00  0.00    -0.237 OA
ATOM     70  O   UNL A   1      46.887  28.563  23.233  1.00  0.00    -0.237 OA
ATOM     71  O   UNL A   1      48.681  28.155  24.878  1.00  0.00    -0.744 OA
ENDBRANCH  65  68
ENDBRANCH  38  61
ENDBRANCH  12  13
ENDBRANCH   5   7
ENDBRANCH   2   3
ENDBRANCH   1   2
BRANCH   1  72
ATOM     72  C   UNL A   1      32.577  28.507  26.729  1.00  0.00     0.023 C 
BRANCH  72  73
ATOM     73  C   UNL A   1      31.434  27.918  25.910  1.00  0.00     0.116 C 
BRANCH  73  74
ATOM     74  N   UNL A   1      30.797  26.794  26.581  1.00  0.00    -0.351 N 
ATOM     75  C   UNL A   1      30.640  25.508  26.160  1.00  0.00     0.267 C 
ATOM     76  H   UNL A   1      30.425  26.992  27.471  1.00  0.00     0.163 HD
ATOM     77  O   UNL A   1      29.949  24.749  26.866  1.00  0.00    -0.268 OA
BRANCH  75  78
ATOM     78  C   UNL A   1      31.237  25.078  24.919  1.00  0.00     0.107 A 
ATOM     79  C   UNL A   1      30.627  24.917  23.681  1.00  0.00     0.033 A 
ATOM     80  N   UNL A   1      32.583  24.799  24.729  1.00  0.00    -0.334 N 
ATOM     81  C   UNL A   1      31.613  24.538  22.743  1.00  0.00     0.020 A 
ATOM     82  C   UNL A   1      32.815  24.500  23.408  1.00  0.00     0.087 A 
BRANCH  80  83
ATOM     83  C   UNL A   1      33.621  24.876  25.749  1.00  0.00     0.222 C 
BRANCH  83  84
ATOM     84  C   UNL A   1      33.991  23.610  26.510  1.00  0.00     0.242 C 
ATOM     85  O   UNL A   1      33.114  23.042  27.174  1.00  0.00    -0.273 OA
ATOM     86  N   UNL A   1      35.187  22.966  26.234  1.00  0.00    -0.339 N 
ATOM     87  C   UNL A   1      35.229  21.501  26.186  1.00  0.00     0.133 C 
ATOM     88  C   UNL A   1      36.497  23.604  26.124  1.00  0.00     0.133 C 
ATOM     89  C   UNL A   1      35.741  21.020  24.828  1.00  0.00     0.126 C 
ATOM     90  C   UNL A   1      37.126  23.331  24.777  1.00  0.00     0.126 C 
ATOM     91  S   UNL A   1      37.455  21.562  24.526  1.00  0.00     0.025 S 
ATOM     92  O   UNL A   1      38.296  21.090  25.675  1.00  0.00    -0.259 OA
ENDBRANCH  83  84
ENDBRANCH  80  83
ENDBRANCH  75  78
ENDBRANCH  73  74
ENDBRANCH  72  73
ENDBRANCH   1  72
TORSDOF 16
ENDMDL
MODEL 3
REMARK VINA RESULT:     -11.5      4.835      9.977
REMARK SMILES O=C(NCCCCNC(=O)c1cccn1CC(=O)N1CCS(=O)CC1)c1ccc(-c2c3nc(c(-c4cccc(S(=O)(=O)[O-])c4F)c4ccc([nH]4)c(-c4cccc(S(=O)(=O)[O-])c4F)c4nc(c(-c5cccc(S(=O)(=O)[O-])c5F)c5ccc2[nH]5)C=C4)C=C3)cc1
REMARK SMILES IDX 5 1 4 2 3 3 1 4 2 5 26 7 27 8 88 9 28 10 87 11 29 12 30 13
REMARK SMILES IDX 31 14 81 15 32 16 86 17 80 18 82 19 33 20 85 21 79 22 78 23
REMARK SMILES IDX 34 25 66 26 46 27 65 28 47 29 50 30 64 31 83 32 48 33 49 34
REMARK SMILES IDX 63 36 84 37 51 38 35 39 36 40 44 41 37 42 39 43 45 44 38 45
REMARK SMILES IDX 40 46 41 47 42 48 43 49 67 50 68 51 76 52 69 53 71 54 77 55
REMARK SMILES IDX 70 56 72 57 73 58 74 59 75 60 52 61 53 62 61 63 54 64 56 65
REMARK SMILES IDX 62 66 55 67 57 68 58 69 59 70 60 71 6 72 7 73 8 74 9 75
REMARK SMILES IDX 10 77 11 78 12 79 15 80 13 81 14 82 16 83 17 84 18 85 19 86
REMARK SMILES IDX 20 87 25 88 21 89 24 90 22 91 23 92
REMARK H PARENT 3 6 82 24 50 35 8 76
REMARK Flexibility Score: inf
ROOT
ATOM      1  C   UNL A   1      37.039  23.655  24.747  1.00  0.00     0.023 C 
ENDROOT
BRANCH   1   2
ATOM      2  C   UNL A   1      37.488  24.106  26.131  1.00  0.00     0.116 C 
BRANCH   2   3
ATOM      3  N   UNL A   1      38.706  23.498  26.625  1.00  0.00    -0.352 N 
ATOM      4  O   UNL A   1      40.485  23.090  27.900  1.00  0.00    -0.269 OA
ATOM      5  C   UNL A   1      39.631  23.906  27.557  1.00  0.00     0.251 C 
ATOM      6  H   UNL A   1      38.910  22.626  26.216  1.00  0.00     0.163 HD
BRANCH   5   7
ATOM      7  C   UNL A   1      39.689  25.307  28.041  1.00  0.00     0.039 A 
ATOM      8  C   UNL A   1      39.269  25.704  29.313  1.00  0.00     0.014 A 
ATOM      9  C   UNL A   1      40.150  26.274  27.137  1.00  0.00     0.014 A 
ATOM     10  C   UNL A   1      39.152  27.054  29.627  1.00  0.00     0.010 A 
ATOM     11  C   UNL A   1      40.093  27.628  27.466  1.00  0.00     0.010 A 
ATOM     12  C   UNL A   1      39.586  28.020  28.709  1.00  0.00    -0.014 A 
BRANCH  12  13
ATOM     13  C   UNL A   1      39.868  29.374  29.247  1.00  0.00     0.031 A 
ATOM     14  C   UNL A   1      38.632  30.301  28.955  1.00  0.00     0.074 A 
ATOM     15  C   UNL A   1      41.092  29.592  29.837  1.00  0.00     0.049 A 
ATOM     16  N   UNL A   1      38.561  31.590  28.792  1.00  0.00    -0.248 NA
ATOM     17  C   UNL A   1      37.293  29.683  28.683  1.00  0.00     0.031 C 
ATOM     18  C   UNL A   1      42.144  28.565  30.049  1.00  0.00     0.029 A 
ATOM     19  N   UNL A   1      41.713  30.700  30.388  1.00  0.00    -0.354 N 
ATOM     20  C   UNL A   1      37.178  31.928  28.708  1.00  0.00     0.074 A 
ATOM     21  C   UNL A   1      36.476  30.715  28.462  1.00  0.00     0.031 C 
ATOM     22  C   UNL A   1      43.270  29.107  30.582  1.00  0.00     0.029 A 
ATOM     23  C   UNL A   1      43.063  30.524  30.825  1.00  0.00     0.049 A 
ATOM     24  H   UNL A   1      41.248  31.565  30.474  1.00  0.00     0.167 HD
ATOM     25  C   UNL A   1      36.681  33.157  29.047  1.00  0.00     0.034 A 
ATOM     26  C   UNL A   1      43.937  31.465  31.332  1.00  0.00     0.034 A 
ATOM     27  C   UNL A   1      37.761  33.977  29.476  1.00  0.00     0.049 A 
ATOM     28  C   UNL A   1      43.083  32.615  31.636  1.00  0.00     0.074 A 
ATOM     29  C   UNL A   1      38.794  34.560  28.796  1.00  0.00     0.029 A 
ATOM     30  N   UNL A   1      38.062  33.877  30.816  1.00  0.00    -0.354 N 
ATOM     31  N   UNL A   1      42.220  32.640  32.609  1.00  0.00    -0.248 NA
ATOM     32  C   UNL A   1      43.126  33.788  30.757  1.00  0.00     0.031 C 
ATOM     33  C   UNL A   1      39.881  34.314  29.651  1.00  0.00     0.029 A 
ATOM     34  C   UNL A   1      39.423  33.897  30.910  1.00  0.00     0.049 A 
ATOM     35  H   UNL A   1      37.421  33.806  31.559  1.00  0.00     0.167 HD
ATOM     36  C   UNL A   1      41.376  33.636  32.196  1.00  0.00     0.074 A 
ATOM     37  C   UNL A   1      42.149  34.494  31.319  1.00  0.00     0.031 C 
ATOM     38  C   UNL A   1      40.046  33.368  32.096  1.00  0.00     0.034 A 
BRANCH  25  39
ATOM     39  C   UNL A   1      35.307  33.716  29.333  1.00  0.00     0.023 A 
ATOM     40  C   UNL A   1      34.601  34.195  28.189  1.00  0.00     0.012 A 
ATOM     41  C   UNL A   1      34.838  34.118  30.594  1.00  0.00     0.148 A 
ATOM     42  C   UNL A   1      33.582  35.140  28.278  1.00  0.00     0.002 A 
ATOM     43  C   UNL A   1      33.778  35.028  30.680  1.00  0.00     0.091 A 
ATOM     44  F   UNL A   1      35.466  33.692  31.695  1.00  0.00    -0.205 F 
ATOM     45  C   UNL A   1      33.183  35.571  29.527  1.00  0.00     0.022 A 
BRANCH  43  46
ATOM     46  S   UNL A   1      33.103  35.613  32.239  1.00  0.00     0.127 S 
ATOM     47  O   UNL A   1      32.001  36.462  31.793  1.00  0.00    -0.237 OA
ATOM     48  O   UNL A   1      32.684  34.359  32.870  1.00  0.00    -0.237 OA
ATOM     49  O   UNL A   1      34.203  36.280  32.920  1.00  0.00    -0.744 OA
ENDBRANCH  43  46
ENDBRANCH  25  39
BRANCH  26  50
ATOM     50  C   UNL A   1      45.420  31.686  31.633  1.00  0.00     0.023 A 
ATOM     51  C   UNL A   1      46.425  31.800  30.665  1.00  0.00     0.012 A 
ATOM     52  C   UNL A   1      45.842  31.951  32.984  1.00  0.00     0.148 A 
ATOM     53  C   UNL A   1      47.725  32.248  31.011  1.00  0.00     0.002 A 
ATOM     54  C   UNL A   1      47.067  32.532  33.298  1.00  0.00     0.091 A 
ATOM     55  F   UNL A   1      45.056  31.604  34.009  1.00  0.00    -0.205 F 
ATOM     56  C   UNL A   1      48.029  32.669  32.309  1.00  0.00     0.022 A 
BRANCH  54  57
ATOM     57  S   UNL A   1      47.391  33.275  34.918  1.00  0.00     0.127 S 
ATOM     58  O   UNL A   1      48.695  33.905  34.721  1.00  0.00    -0.237 OA
ATOM     59  O   UNL A   1      46.271  34.209  35.037  1.00  0.00    -0.237 OA
ATOM     60  O   UNL A   1      47.372  32.185  35.883  1.00  0.00    -0.744 OA
ENDBRANCH  54  57
ENDBRANCH  26  50
BRANCH  38  61
ATOM     61  C   UNL A   1      39.500  32.315  33.070  1.00  0.00     0.023 A 
ATOM     62  C   UNL A   1      39.198  31.049  32.522  1.00  0.00     0.012 A 
ATOM     63  C   UNL A   1      39.198  32.496  34.443  1.00  0.00     0.148 A 
ATOM     64  C   UNL A   1      38.611  30.026  33.274  1.00  0.00     0.002 A 
ATOM     65  C   UNL A   1      38.595  31.475  35.197  1.00  0.00     0.091 A 
ATOM     66  F   UNL A   1      39.491  33.661  35.016  1.00  0.00    -0.205 F 
ATOM     67  C   UNL A   1      38.309  30.237  34.610  1.00  0.00     0.022 A 
BRANCH  65  68
ATOM     68  S   UNL A   1      38.103  31.637  36.929  1.00  0.00     0.127 S 
ATOM     69  O   UNL A   1      37.038  32.640  36.859  1.00  0.00    -0.237 OA
ATOM     70  O   UNL A   1      37.634  30.290  37.246  1.00  0.00    -0.237 OA
ATOM     71  O   UNL A   1      39.290  32.073  37.652  1.00  0.00    -0.744 OA
ENDBRANCH  65  68
ENDBRANCH  38  61
ENDBRANCH  12  13
ENDBRANCH   5   7
ENDBRANCH   2   3
ENDBRANCH   1   2
BRANCH   1  72
ATOM     72  C   UNL A   1      35.601  23.172  24.674  1.00  0.00     0.023 C 
BRANCH  72  73
ATOM     73  C   UNL A   1      34.673  23.990  23.784  1.00  0.00     0.116 C 
BRANCH  73  74
ATOM     74  N   UNL A   1      33.781  23.149  22.997  1.00  0.00    -0.351 N 
ATOM     75  C   UNL A   1      32.602  22.567  23.352  1.00  0.00     0.267 C 
ATOM     76  H   UNL A   1      34.073  22.977  22.073  1.00  0.00     0.163 HD
ATOM     77  O   UNL A   1      32.075  21.787  22.536  1.00  0.00    -0.268 OA
BRANCH  75  78
ATOM     78  C   UNL A   1      32.025  22.837  24.646  1.00  0.00     0.107 A 
ATOM     79  C   UNL A   1      32.270  22.187  25.850  1.00  0.00     0.033 A 
ATOM     80  N   UNL A   1      31.140  23.867  24.933  1.00  0.00    -0.334 N 
ATOM     81  C   UNL A   1      31.527  22.830  26.865  1.00  0.00     0.020 A 
ATOM     82  C   UNL A   1      30.861  23.881  26.279  1.00  0.00     0.087 A 
BRANCH  80  83
ATOM     83  C   UNL A   1      30.630  24.841  23.978  1.00  0.00     0.222 C 
BRANCH  83  84
ATOM     84  C   UNL A   1      31.605  25.830  23.352  1.00  0.00     0.242 C 
ATOM     85  O   UNL A   1      31.836  25.744  22.139  1.00  0.00    -0.273 OA
ATOM     86  N   UNL A   1      31.992  26.956  24.062  1.00  0.00    -0.339 N 
ATOM     87  C   UNL A   1      32.125  28.241  23.367  1.00  0.00     0.133 C 
ATOM     88  C   UNL A   1      32.443  26.979  25.451  1.00  0.00     0.133 C 
ATOM     89  C   UNL A   1      31.226  29.297  24.010  1.00  0.00     0.126 C 
ATOM     90  C   UNL A   1      31.585  27.902  26.287  1.00  0.00     0.126 C 
ATOM     91  S   UNL A   1      31.708  29.629  25.736  1.00  0.00     0.025 S 
ATOM     92  O   UNL A   1      33.160  30.006  25.745  1.00  0.00    -0.259 OA
ENDBRANCH  83  84
ENDBRANCH  80  83
ENDBRANCH  75  78
ENDBRANCH  73  74
ENDBRANCH  72  73
ENDBRANCH   1  72
TORSDOF 16
ENDMDL
