MODEL 1
REMARK VINA RESULT:     -12.7      0.000      0.000
REMARK SMILES CC(C)N1C[C@@]2(CCCN(c3ccc(C(=O)NCCCCNC(=O)c4ccc(-c5c6nc(c(-c7cccc(S(=O)(=O)[O-])c7F)c7ccc([nH]7)c(-c7cccc(S(=O)(=O)[O-])c7F)c7nc(c(-c8cccc(S(=O)(=O)[O-])c8F)c8ccc5[nH]8)C=C7)C=C6)cc4)cn3)C2)CCC1=O
REMARK SMILES IDX 20 1 19 2 18 3 17 4 15 5 16 6 14 8 11 9 12 10 89 11 13 12
REMARK SMILES IDX 88 13 10 14 4 15 5 16 93 17 6 18 92 19 94 20 7 21 90 22
REMARK SMILES IDX 91 23 8 24 9 25 2 26 1 27 3 28 21 29 22 30 23 31 24 33 25 34
REMARK SMILES IDX 26 35 87 36 27 37 86 38 28 39 29 40 30 41 80 42 31 43 85 44
REMARK SMILES IDX 79 45 81 46 32 47 84 48 78 49 77 50 33 52 65 53 45 54 64 55
REMARK SMILES IDX 46 56 49 57 63 58 82 59 47 60 48 61 62 63 83 64 50 65 34 66
REMARK SMILES IDX 35 67 43 68 36 69 38 70 44 71 37 72 39 73 40 74 41 75 42 76
REMARK SMILES IDX 66 77 67 78 75 79 68 80 70 81 76 82 69 83 71 84 72 85 73 86
REMARK SMILES IDX 74 87 51 88 52 89 60 90 53 91 55 92 61 93 54 94 56 95 57 96
REMARK SMILES IDX 58 97 59 98
REMARK H PARENT 17 7 22 32 81 51 49 62
REMARK Flexibility Score: inf
ROOT
ATOM      1  C   UNL A   1      31.614  31.582  27.022  1.00  0.00     0.023 C 
ENDROOT
BRANCH   1   2
ATOM      2  C   UNL A   1      31.013  31.482  25.620  1.00  0.00     0.023 C 
BRANCH   2   3
ATOM      3  C   UNL A   1      31.064  30.101  24.970  1.00  0.00     0.116 C 
BRANCH   3   4
ATOM      4  N   UNL A   1      30.465  30.057  23.643  1.00  0.00    -0.352 N 
ATOM      5  C   UNL A   1      30.350  28.984  22.785  1.00  0.00     0.252 C 
ATOM      6  O   UNL A   1      29.878  29.105  21.665  1.00  0.00    -0.269 OA
ATOM      7  H   UNL A   1      30.091  30.908  23.316  1.00  0.00     0.163 HD
BRANCH   5   8
ATOM      8  C   UNL A   1      30.867  27.679  23.217  1.00  0.00     0.058 A 
ATOM      9  C   UNL A   1      32.049  25.586  24.566  1.00  0.00     0.128 A 
ATOM     10  C   UNL A   1      30.658  25.629  24.433  1.00  0.00     0.048 A 
ATOM     11  N   UNL A   1      32.820  26.447  23.863  1.00  0.00    -0.239 NA
ATOM     12  C   UNL A   1      30.056  26.702  23.773  1.00  0.00     0.019 A 
ATOM     13  C   UNL A   1      32.228  27.468  23.197  1.00  0.00     0.127 A 
BRANCH   9  14
ATOM     14  N   UNL A   1      32.678  24.798  25.518  1.00  0.00    -0.356 N 
ATOM     15  N   UNL A   1      32.858  20.709  23.636  1.00  0.00    -0.340 N 
ATOM     16  C   UNL A   1      33.920  21.341  24.415  1.00  0.00     0.128 C 
ATOM     17  C   UNL A   1      32.357  21.276  22.472  1.00  0.00     0.222 C 
ATOM     18  C   UNL A   1      33.864  22.879  24.453  1.00  0.00     0.006 C 
ATOM     19  C   UNL A   1      32.681  22.729  22.205  1.00  0.00     0.101 C 
ATOM     20  O   UNL A   1      31.584  20.697  21.712  1.00  0.00    -0.275 OA
ATOM     21  C   UNL A   1      35.156  23.400  25.150  1.00  0.00     0.012 C 
ATOM     22  C   UNL A   1      32.624  23.344  25.281  1.00  0.00     0.127 C 
ATOM     23  C   UNL A   1      33.848  23.317  22.977  1.00  0.00     0.020 C 
ATOM     24  C   UNL A   1      35.112  24.889  25.515  1.00  0.00     0.022 C 
ATOM     25  C   UNL A   1      33.836  25.241  26.280  1.00  0.00     0.118 C 
BRANCH  15  26
ATOM     26  C   UNL A   1      32.332  19.430  24.149  1.00  0.00     0.078 C 
ATOM     27  C   UNL A   1      32.689  18.305  23.178  1.00  0.00     0.031 C 
ATOM     28  C   UNL A   1      32.735  19.072  25.582  1.00  0.00     0.031 C 
ENDBRANCH  15  26
ENDBRANCH   9  14
ENDBRANCH   5   8
ENDBRANCH   3   4
ENDBRANCH   2   3
ENDBRANCH   1   2
BRANCH   1  29
ATOM     29  C   UNL A   1      32.835  32.486  27.165  1.00  0.00     0.116 C 
BRANCH  29  30
ATOM     30  N   UNL A   1      32.506  33.848  27.555  1.00  0.00    -0.352 N 
ATOM     31  C   UNL A   1      33.063  34.641  28.533  1.00  0.00     0.251 C 
ATOM     32  H   UNL A   1      31.775  34.267  27.044  1.00  0.00     0.163 HD
ATOM     33  O   UNL A   1      32.571  35.741  28.770  1.00  0.00    -0.269 OA
BRANCH  31  34
ATOM     34  C   UNL A   1      34.227  34.167  29.320  1.00  0.00     0.039 A 
ATOM     35  C   UNL A   1      33.996  33.484  30.518  1.00  0.00     0.014 A 
ATOM     36  C   UNL A   1      35.538  34.390  28.891  1.00  0.00     0.014 A 
ATOM     37  C   UNL A   1      35.072  32.962  31.243  1.00  0.00     0.010 A 
ATOM     38  C   UNL A   1      36.604  33.805  29.574  1.00  0.00     0.010 A 
ATOM     39  C   UNL A   1      36.384  33.085  30.758  1.00  0.00    -0.014 A 
BRANCH  39  40
ATOM     40  C   UNL A   1      37.530  32.449  31.464  1.00  0.00     0.031 A 
ATOM     41  C   UNL A   1      38.281  31.305  30.834  1.00  0.00     0.074 A 
ATOM     42  C   UNL A   1      37.844  32.844  32.714  1.00  0.00     0.049 A 
ATOM     43  N   UNL A   1      39.282  30.613  31.313  1.00  0.00    -0.248 NA
ATOM     44  C   UNL A   1      37.830  30.861  29.504  1.00  0.00     0.031 C 
ATOM     45  C   UNL A   1      37.137  33.874  33.479  1.00  0.00     0.029 A 
ATOM     46  N   UNL A   1      38.822  32.408  33.573  1.00  0.00    -0.354 N 
ATOM     47  C   UNL A   1      39.559  29.634  30.366  1.00  0.00     0.074 A 
ATOM     48  C   UNL A   1      38.595  29.799  29.298  1.00  0.00     0.031 C 
ATOM     49  C   UNL A   1      37.709  33.995  34.688  1.00  0.00     0.029 A 
ATOM     50  C   UNL A   1      38.809  33.042  34.794  1.00  0.00     0.049 A 
ATOM     51  H   UNL A   1      39.474  31.708  33.337  1.00  0.00     0.167 HD
ATOM     52  C   UNL A   1      40.544  28.704  30.364  1.00  0.00     0.034 A 
ATOM     53  C   UNL A   1      39.596  32.878  35.876  1.00  0.00     0.034 A 
ATOM     54  C   UNL A   1      41.536  28.575  31.398  1.00  0.00     0.049 A 
ATOM     55  C   UNL A   1      40.725  31.885  35.821  1.00  0.00     0.074 A 
ATOM     56  C   UNL A   1      42.632  27.731  31.437  1.00  0.00     0.029 A 
ATOM     57  N   UNL A   1      41.552  29.305  32.575  1.00  0.00    -0.354 N 
ATOM     58  N   UNL A   1      41.081  31.094  34.838  1.00  0.00    -0.248 NA
ATOM     59  C   UNL A   1      41.588  31.793  37.008  1.00  0.00     0.031 C 
ATOM     60  C   UNL A   1      43.307  27.945  32.645  1.00  0.00     0.029 A 
ATOM     61  C   UNL A   1      42.637  28.930  33.352  1.00  0.00     0.049 A 
ATOM     62  H   UNL A   1      40.890  29.990  32.823  1.00  0.00     0.167 HD
ATOM     63  C   UNL A   1      42.222  30.432  35.277  1.00  0.00     0.074 A 
ATOM     64  C   UNL A   1      42.516  30.938  36.601  1.00  0.00     0.031 C 
ATOM     65  C   UNL A   1      42.950  29.477  34.646  1.00  0.00     0.034 A 
BRANCH  52  66
ATOM     66  C   UNL A   1      40.642  27.796  29.166  1.00  0.00     0.023 A 
ATOM     67  C   UNL A   1      39.811  26.659  29.092  1.00  0.00     0.012 A 
ATOM     68  C   UNL A   1      41.510  28.088  28.095  1.00  0.00     0.148 A 
ATOM     69  C   UNL A   1      39.864  25.809  27.989  1.00  0.00     0.002 A 
ATOM     70  C   UNL A   1      41.528  27.257  26.980  1.00  0.00     0.091 A 
ATOM     71  F   UNL A   1      42.310  29.159  28.193  1.00  0.00    -0.205 F 
ATOM     72  C   UNL A   1      40.715  26.112  26.930  1.00  0.00     0.022 A 
BRANCH  70  73
ATOM     73  S   UNL A   1      42.535  27.601  25.532  1.00  0.00     0.127 S 
ATOM     74  O   UNL A   1      43.872  27.691  26.117  1.00  0.00    -0.237 OA
ATOM     75  O   UNL A   1      42.309  26.414  24.707  1.00  0.00    -0.237 OA
ATOM     76  O   UNL A   1      42.012  28.838  24.969  1.00  0.00    -0.744 OA
ENDBRANCH  70  73
ENDBRANCH  52  66
BRANCH  53  77
ATOM     77  C   UNL A   1      39.397  33.739  37.077  1.00  0.00     0.023 A 
ATOM     78  C   UNL A   1      39.845  35.074  37.047  1.00  0.00     0.012 A 
ATOM     79  C   UNL A   1      38.746  33.259  38.229  1.00  0.00     0.148 A 
ATOM     80  C   UNL A   1      39.677  35.906  38.153  1.00  0.00     0.002 A 
ATOM     81  C   UNL A   1      38.534  34.110  39.309  1.00  0.00     0.091 A 
ATOM     82  F   UNL A   1      38.339  31.982  38.245  1.00  0.00    -0.205 F 
ATOM     83  C   UNL A   1      39.013  35.429  39.279  1.00  0.00     0.022 A 
BRANCH  81  84
ATOM     84  S   UNL A   1      37.575  33.617  40.745  1.00  0.00     0.127 S 
ATOM     85  O   UNL A   1      36.347  33.121  40.128  1.00  0.00    -0.237 OA
ATOM     86  O   UNL A   1      38.425  32.585  41.340  1.00  0.00    -0.237 OA
ATOM     87  O   UNL A   1      37.440  34.820  41.555  1.00  0.00    -0.744 OA
ENDBRANCH  81  84
ENDBRANCH  53  77
BRANCH  65  88
ATOM     88  C   UNL A   1      44.150  28.924  35.371  1.00  0.00     0.023 A 
ATOM     89  C   UNL A   1      45.417  29.504  35.162  1.00  0.00     0.012 A 
ATOM     90  C   UNL A   1      44.015  27.875  36.301  1.00  0.00     0.148 A 
ATOM     91  C   UNL A   1      46.538  29.026  35.840  1.00  0.00     0.002 A 
ATOM     92  C   UNL A   1      45.129  27.433  37.008  1.00  0.00     0.091 A 
ATOM     93  F   UNL A   1      42.807  27.319  36.472  1.00  0.00    -0.205 F 
ATOM     94  C   UNL A   1      46.392  27.999  36.770  1.00  0.00     0.022 A 
BRANCH  92  95
ATOM     95  S   UNL A   1      45.010  26.180  38.289  1.00  0.00     0.127 S 
ATOM     96  O   UNL A   1      44.050  26.783  39.210  1.00  0.00    -0.237 OA
ATOM     97  O   UNL A   1      44.501  25.022  37.551  1.00  0.00    -0.237 OA
ATOM     98  O   UNL A   1      46.363  26.013  38.804  1.00  0.00    -0.744 OA
ENDBRANCH  92  95
ENDBRANCH  65  88
ENDBRANCH  39  40
ENDBRANCH  31  34
ENDBRANCH  29  30
ENDBRANCH   1  29
TORSDOF 16
ENDMDL
MODEL 2
REMARK VINA RESULT:     -12.5      5.425      8.920
REMARK SMILES CC(C)N1C[C@@]2(CCCN(c3ccc(C(=O)NCCCCNC(=O)c4ccc(-c5c6nc(c(-c7cccc(S(=O)(=O)[O-])c7F)c7ccc([nH]7)c(-c7cccc(S(=O)(=O)[O-])c7F)c7nc(c(-c8cccc(S(=O)(=O)[O-])c8F)c8ccc5[nH]8)C=C7)C=C6)cc4)cn3)C2)CCC1=O
REMARK SMILES IDX 20 1 19 2 18 3 17 4 15 5 16 6 14 8 11 9 12 10 89 11 13 12
REMARK SMILES IDX 88 13 10 14 4 15 5 16 93 17 6 18 92 19 94 20 7 21 90 22
REMARK SMILES IDX 91 23 8 24 9 25 2 26 1 27 3 28 21 29 22 30 23 31 24 33 25 34
REMARK SMILES IDX 26 35 87 36 27 37 86 38 28 39 29 40 30 41 80 42 31 43 85 44
REMARK SMILES IDX 79 45 81 46 32 47 84 48 78 49 77 50 33 52 65 53 45 54 64 55
REMARK SMILES IDX 46 56 49 57 63 58 82 59 47 60 48 61 62 63 83 64 50 65 34 66
REMARK SMILES IDX 35 67 43 68 36 69 38 70 44 71 37 72 39 73 40 74 41 75 42 76
REMARK SMILES IDX 66 77 67 78 75 79 68 80 70 81 76 82 69 83 71 84 72 85 73 86
REMARK SMILES IDX 74 87 51 88 52 89 60 90 53 91 55 92 61 93 54 94 56 95 57 96
REMARK SMILES IDX 58 97 59 98
REMARK H PARENT 17 7 22 32 81 51 49 62
REMARK Flexibility Score: inf
ROOT
ATOM      1  C   UNL A   1      35.920  22.000  24.908  1.00  0.00     0.023 C 
ENDROOT
BRANCH   1   2
ATOM      2  C   UNL A   1      35.423  23.323  25.489  1.00  0.00     0.023 C 
BRANCH   2   3
ATOM      3  C   UNL A   1      34.241  23.226  26.451  1.00  0.00     0.116 C 
BRANCH   3   4
ATOM      4  N   UNL A   1      33.581  21.927  26.436  1.00  0.00    -0.352 N 
ATOM      5  C   UNL A   1      32.546  21.496  25.633  1.00  0.00     0.252 C 
ATOM      6  O   UNL A   1      32.042  20.393  25.773  1.00  0.00    -0.269 OA
ATOM      7  H   UNL A   1      33.921  21.269  27.085  1.00  0.00     0.163 HD
BRANCH   5   8
ATOM      8  C   UNL A   1      32.004  22.418  24.628  1.00  0.00     0.058 A 
ATOM      9  C   UNL A   1      31.401  24.594  23.046  1.00  0.00     0.128 A 
ATOM     10  C   UNL A   1      32.108  23.516  22.505  1.00  0.00     0.048 A 
ATOM     11  N   UNL A   1      30.837  24.482  24.270  1.00  0.00    -0.239 NA
ATOM     12  C   UNL A   1      32.438  22.426  23.311  1.00  0.00     0.019 A 
ATOM     13  C   UNL A   1      31.134  23.404  25.036  1.00  0.00     0.127 A 
BRANCH   9  14
ATOM     14  N   UNL A   1      31.384  25.845  22.448  1.00  0.00    -0.356 N 
ATOM     15  N   UNL A   1      32.479  28.680  25.772  1.00  0.00    -0.340 N 
ATOM     16  C   UNL A   1      32.951  28.756  24.392  1.00  0.00     0.128 C 
ATOM     17  C   UNL A   1      32.716  27.572  26.575  1.00  0.00     0.222 C 
ATOM     18  C   UNL A   1      32.917  27.422  23.625  1.00  0.00     0.006 C 
ATOM     19  C   UNL A   1      33.165  26.298  25.895  1.00  0.00     0.101 C 
ATOM     20  O   UNL A   1      32.476  27.542  27.780  1.00  0.00    -0.275 OA
ATOM     21  C   UNL A   1      33.623  27.628  22.251  1.00  0.00     0.012 C 
ATOM     22  C   UNL A   1      31.437  26.994  23.370  1.00  0.00     0.127 C 
ATOM     23  C   UNL A   1      33.727  26.440  24.491  1.00  0.00     0.020 C 
ATOM     24  C   UNL A   1      33.418  26.472  21.264  1.00  0.00     0.022 C 
ATOM     25  C   UNL A   1      31.940  26.106  21.128  1.00  0.00     0.118 C 
BRANCH  15  26
ATOM     26  C   UNL A   1      31.730  29.844  26.281  1.00  0.00     0.078 C 
ATOM     27  C   UNL A   1      32.677  30.766  27.048  1.00  0.00     0.031 C 
ATOM     28  C   UNL A   1      30.924  30.624  25.238  1.00  0.00     0.031 C 
ENDBRANCH  15  26
ENDBRANCH   9  14
ENDBRANCH   5   8
ENDBRANCH   3   4
ENDBRANCH   2   3
ENDBRANCH   1   2
BRANCH   1  29
ATOM     29  C   UNL A   1      37.401  21.942  24.546  1.00  0.00     0.116 C 
BRANCH  29  30
ATOM     30  N   UNL A   1      38.128  20.893  25.246  1.00  0.00    -0.352 N 
ATOM     31  C   UNL A   1      39.158  20.994  26.154  1.00  0.00     0.251 C 
ATOM     32  H   UNL A   1      37.841  19.974  25.040  1.00  0.00     0.163 HD
ATOM     33  O   UNL A   1      39.705  19.972  26.561  1.00  0.00    -0.269 OA
BRANCH  31  34
ATOM     34  C   UNL A   1      39.631  22.321  26.617  1.00  0.00     0.039 A 
ATOM     35  C   UNL A   1      40.691  22.377  27.527  1.00  0.00     0.014 A 
ATOM     36  C   UNL A   1      39.042  23.505  26.166  1.00  0.00     0.014 A 
ATOM     37  C   UNL A   1      41.206  23.615  27.924  1.00  0.00     0.010 A 
ATOM     38  C   UNL A   1      39.603  24.736  26.505  1.00  0.00     0.010 A 
ATOM     39  C   UNL A   1      40.691  24.806  27.388  1.00  0.00    -0.014 A 
BRANCH  39  40
ATOM     40  C   UNL A   1      41.292  26.126  27.722  1.00  0.00     0.031 A 
ATOM     41  C   UNL A   1      42.701  26.456  27.304  1.00  0.00     0.074 A 
ATOM     42  C   UNL A   1      40.599  27.001  28.478  1.00  0.00     0.049 A 
ATOM     43  N   UNL A   1      43.397  27.540  27.532  1.00  0.00    -0.248 NA
ATOM     44  C   UNL A   1      43.437  25.421  26.558  1.00  0.00     0.031 C 
ATOM     45  C   UNL A   1      39.263  26.770  29.031  1.00  0.00     0.029 A 
ATOM     46  N   UNL A   1      40.934  28.252  28.936  1.00  0.00    -0.354 N 
ATOM     47  C   UNL A   1      44.656  27.309  26.992  1.00  0.00     0.074 A 
ATOM     48  C   UNL A   1      44.641  25.965  26.455  1.00  0.00     0.031 C 
ATOM     49  C   UNL A   1      38.889  27.843  29.745  1.00  0.00     0.029 A 
ATOM     50  C   UNL A   1      39.962  28.832  29.719  1.00  0.00     0.049 A 
ATOM     51  H   UNL A   1      41.788  28.693  28.723  1.00  0.00     0.167 HD
ATOM     52  C   UNL A   1      45.718  28.147  26.917  1.00  0.00     0.034 A 
ATOM     53  C   UNL A   1      39.936  30.027  30.342  1.00  0.00     0.034 A 
ATOM     54  C   UNL A   1      45.716  29.501  27.400  1.00  0.00     0.049 A 
ATOM     55  C   UNL A   1      41.102  30.964  30.184  1.00  0.00     0.074 A 
ATOM     56  C   UNL A   1      46.707  30.459  27.280  1.00  0.00     0.029 A 
ATOM     57  N   UNL A   1      44.674  30.091  28.099  1.00  0.00    -0.354 N 
ATOM     58  N   UNL A   1      42.214  30.793  29.512  1.00  0.00    -0.248 NA
ATOM     59  C   UNL A   1      40.992  32.278  30.836  1.00  0.00     0.031 C 
ATOM     60  C   UNL A   1      46.269  31.627  27.915  1.00  0.00     0.029 A 
ATOM     61  C   UNL A   1      44.999  31.398  28.421  1.00  0.00     0.049 A 
ATOM     62  H   UNL A   1      43.828  29.645  28.332  1.00  0.00     0.167 HD
ATOM     63  C   UNL A   1      42.922  31.983  29.636  1.00  0.00     0.074 A 
ATOM     64  C   UNL A   1      42.099  32.878  30.422  1.00  0.00     0.031 C 
ATOM     65  C   UNL A   1      44.151  32.299  29.158  1.00  0.00     0.034 A 
BRANCH  52  66
ATOM     66  C   UNL A   1      46.954  27.643  26.218  1.00  0.00     0.023 A 
ATOM     67  C   UNL A   1      47.892  26.876  26.941  1.00  0.00     0.012 A 
ATOM     68  C   UNL A   1      47.166  27.877  24.845  1.00  0.00     0.148 A 
ATOM     69  C   UNL A   1      49.036  26.380  26.320  1.00  0.00     0.002 A 
ATOM     70  C   UNL A   1      48.290  27.344  24.223  1.00  0.00     0.091 A 
ATOM     71  F   UNL A   1      46.277  28.627  24.178  1.00  0.00    -0.205 F 
ATOM     72  C   UNL A   1      49.231  26.606  24.961  1.00  0.00     0.022 A 
BRANCH  70  73
ATOM     73  S   UNL A   1      48.594  27.516  22.461  1.00  0.00     0.127 S 
ATOM     74  O   UNL A   1      49.882  28.208  22.449  1.00  0.00    -0.237 OA
ATOM     75  O   UNL A   1      48.648  26.122  22.018  1.00  0.00    -0.237 OA
ATOM     76  O   UNL A   1      47.469  28.275  21.934  1.00  0.00    -0.744 OA
ENDBRANCH  70  73
ENDBRANCH  52  66
BRANCH  53  77
ATOM     77  C   UNL A   1      38.723  30.441  31.103  1.00  0.00     0.023 A 
ATOM     78  C   UNL A   1      38.640  30.143  32.478  1.00  0.00     0.012 A 
ATOM     79  C   UNL A   1      37.672  31.149  30.489  1.00  0.00     0.148 A 
ATOM     80  C   UNL A   1      37.520  30.514  33.220  1.00  0.00     0.002 A 
ATOM     81  C   UNL A   1      36.581  31.562  31.247  1.00  0.00     0.091 A 
ATOM     82  F   UNL A   1      37.762  31.411  29.178  1.00  0.00    -0.205 F 
ATOM     83  C   UNL A   1      36.496  31.232  32.609  1.00  0.00     0.022 A 
BRANCH  81  84
ATOM     84  S   UNL A   1      35.282  32.601  30.571  1.00  0.00     0.127 S 
ATOM     85  O   UNL A   1      34.327  32.641  31.675  1.00  0.00    -0.237 OA
ATOM     86  O   UNL A   1      35.993  33.856  30.326  1.00  0.00    -0.237 OA
ATOM     87  O   UNL A   1      34.832  31.924  29.363  1.00  0.00    -0.744 OA
ENDBRANCH  81  84
ENDBRANCH  53  77
BRANCH  65  88
ATOM     88  C   UNL A   1      44.680  33.679  29.455  1.00  0.00     0.023 A 
ATOM     89  C   UNL A   1      45.301  33.934  30.694  1.00  0.00     0.012 A 
ATOM     90  C   UNL A   1      44.617  34.702  28.489  1.00  0.00     0.148 A 
ATOM     91  C   UNL A   1      45.819  35.196  30.981  1.00  0.00     0.002 A 
ATOM     92  C   UNL A   1      45.177  35.945  28.765  1.00  0.00     0.091 A 
ATOM     93  F   UNL A   1      44.003  34.449  27.324  1.00  0.00    -0.205 F 
ATOM     94  C   UNL A   1      45.767  36.197  30.014  1.00  0.00     0.022 A 
BRANCH  92  95
ATOM     95  S   UNL A   1      45.234  37.259  27.541  1.00  0.00     0.127 S 
ATOM     96  O   UNL A   1      43.815  37.539  27.336  1.00  0.00    -0.237 OA
ATOM     97  O   UNL A   1      45.968  38.313  28.244  1.00  0.00    -0.237 OA
ATOM     98  O   UNL A   1      45.941  36.700  26.395  1.00  0.00    -0.744 OA
ENDBRANCH  92  95
ENDBRANCH  65  88
ENDBRANCH  39  40
ENDBRANCH  31  34
ENDBRANCH  29  30
ENDBRANCH   1  29
TORSDOF 16
ENDMDL
MODEL 3
REMARK VINA RESULT:     -12.4      2.363      7.903
REMARK SMILES CC(C)N1C[C@@]2(CCCN(c3ccc(C(=O)NCCCCNC(=O)c4ccc(-c5c6nc(c(-c7cccc(S(=O)(=O)[O-])c7F)c7ccc([nH]7)c(-c7cccc(S(=O)(=O)[O-])c7F)c7nc(c(-c8cccc(S(=O)(=O)[O-])c8F)c8ccc5[nH]8)C=C7)C=C6)cc4)cn3)C2)CCC1=O
REMARK SMILES IDX 20 1 19 2 18 3 17 4 15 5 16 6 14 8 11 9 12 10 89 11 13 12
REMARK SMILES IDX 88 13 10 14 4 15 5 16 93 17 6 18 92 19 94 20 7 21 90 22
REMARK SMILES IDX 91 23 8 24 9 25 2 26 1 27 3 28 21 29 22 30 23 31 24 33 25 34
REMARK SMILES IDX 26 35 87 36 27 37 86 38 28 39 29 40 30 41 80 42 31 43 85 44
REMARK SMILES IDX 79 45 81 46 32 47 84 48 78 49 77 50 33 52 65 53 45 54 64 55
REMARK SMILES IDX 46 56 49 57 63 58 82 59 47 60 48 61 62 63 83 64 50 65 34 66
REMARK SMILES IDX 35 67 43 68 36 69 38 70 44 71 37 72 39 73 40 74 41 75 42 76
REMARK SMILES IDX 66 77 67 78 75 79 68 80 70 81 76 82 69 83 71 84 72 85 73 86
REMARK SMILES IDX 74 87 51 88 52 89 60 90 53 91 55 92 61 93 54 94 56 95 57 96
REMARK SMILES IDX 58 97 59 98
REMARK H PARENT 17 7 22 32 81 51 49 62
REMARK Flexibility Score: inf
ROOT
ATOM      1  C   UNL A   1      31.793  29.268  26.240  1.00  0.00     0.023 C 
ENDROOT
BRANCH   1   2
ATOM      2  C   UNL A   1      31.107  29.178  24.877  1.00  0.00     0.023 C 
BRANCH   2   3
ATOM      3  C   UNL A   1      32.021  29.309  23.661  1.00  0.00     0.116 C 
BRANCH   3   4
ATOM      4  N   UNL A   1      31.748  28.331  22.616  1.00  0.00    -0.352 N 
ATOM      5  C   UNL A   1      31.939  26.966  22.644  1.00  0.00     0.252 C 
ATOM      6  O   UNL A   1      31.725  26.267  21.665  1.00  0.00    -0.269 OA
ATOM      7  H   UNL A   1      31.376  28.694  21.780  1.00  0.00     0.163 HD
BRANCH   5   8
ATOM      8  C   UNL A   1      32.471  26.354  23.868  1.00  0.00     0.058 A 
ATOM      9  C   UNL A   1      33.521  24.657  25.770  1.00  0.00     0.128 A 
ATOM     10  C   UNL A   1      34.291  25.717  25.284  1.00  0.00     0.048 A 
ATOM     11  N   UNL A   1      32.204  24.588  25.467  1.00  0.00    -0.239 NA
ATOM     12  C   UNL A   1      33.771  26.561  24.301  1.00  0.00     0.019 A 
ATOM     13  C   UNL A   1      31.697  25.432  24.537  1.00  0.00     0.127 A 
BRANCH   9  14
ATOM     14  N   UNL A   1      34.082  23.571  26.425  1.00  0.00    -0.356 N 
ATOM     15  N   UNL A   1      33.091  20.052  23.794  1.00  0.00    -0.340 N 
ATOM     16  C   UNL A   1      34.363  20.280  24.475  1.00  0.00     0.128 C 
ATOM     17  C   UNL A   1      32.576  20.950  22.868  1.00  0.00     0.222 C 
ATOM     18  C   UNL A   1      34.656  21.752  24.817  1.00  0.00     0.006 C 
ATOM     19  C   UNL A   1      33.176  22.338  22.831  1.00  0.00     0.101 C 
ATOM     20  O   UNL A   1      31.598  20.713  22.163  1.00  0.00    -0.275 OA
ATOM     21  C   UNL A   1      36.114  21.850  25.357  1.00  0.00     0.012 C 
ATOM     22  C   UNL A   1      33.674  22.244  25.927  1.00  0.00     0.127 C 
ATOM     23  C   UNL A   1      34.538  22.506  23.479  1.00  0.00     0.020 C 
ATOM     24  C   UNL A   1      36.452  23.199  26.003  1.00  0.00     0.022 C 
ATOM     25  C   UNL A   1      35.402  23.604  27.038  1.00  0.00     0.118 C 
BRANCH  15  26
ATOM     26  C   UNL A   1      32.368  18.813  24.138  1.00  0.00     0.078 C 
ATOM     27  C   UNL A   1      32.630  17.755  23.067  1.00  0.00     0.031 C 
ATOM     28  C   UNL A   1      32.632  18.256  25.540  1.00  0.00     0.031 C 
ENDBRANCH  15  26
ENDBRANCH   9  14
ENDBRANCH   5   8
ENDBRANCH   3   4
ENDBRANCH   2   3
ENDBRANCH   1   2
BRANCH   1  29
ATOM     29  C   UNL A   1      33.110  30.038  26.277  1.00  0.00     0.116 C 
BRANCH  29  30
ATOM     30  N   UNL A   1      32.974  31.395  26.784  1.00  0.00    -0.352 N 
ATOM     31  C   UNL A   1      33.789  32.098  27.641  1.00  0.00     0.251 C 
ATOM     32  H   UNL A   1      32.181  31.885  26.465  1.00  0.00     0.163 HD
ATOM     33  O   UNL A   1      33.441  33.213  28.025  1.00  0.00    -0.269 OA
BRANCH  31  34
ATOM     34  C   UNL A   1      35.061  31.512  28.129  1.00  0.00     0.039 A 
ATOM     35  C   UNL A   1      36.214  32.302  28.118  1.00  0.00     0.014 A 
ATOM     36  C   UNL A   1      35.126  30.196  28.595  1.00  0.00     0.014 A 
ATOM     37  C   UNL A   1      37.410  31.799  28.640  1.00  0.00     0.010 A 
ATOM     38  C   UNL A   1      36.299  29.722  29.183  1.00  0.00     0.010 A 
ATOM     39  C   UNL A   1      37.455  30.517  29.212  1.00  0.00    -0.014 A 
BRANCH  39  40
ATOM     40  C   UNL A   1      38.692  30.005  29.862  1.00  0.00     0.031 A 
ATOM     41  C   UNL A   1      39.172  30.588  31.166  1.00  0.00     0.074 A 
ATOM     42  C   UNL A   1      39.435  29.070  29.236  1.00  0.00     0.049 A 
ATOM     43  N   UNL A   1      40.240  30.288  31.860  1.00  0.00    -0.248 NA
ATOM     44  C   UNL A   1      38.363  31.670  31.752  1.00  0.00     0.031 C 
ATOM     45  C   UNL A   1      39.137  28.490  27.925  1.00  0.00     0.029 A 
ATOM     46  N   UNL A   1      40.609  28.462  29.607  1.00  0.00    -0.354 N 
ATOM     47  C   UNL A   1      40.251  31.161  32.941  1.00  0.00     0.074 A 
ATOM     48  C   UNL A   1      39.102  32.028  32.793  1.00  0.00     0.031 C 
ATOM     49  C   UNL A   1      40.096  27.607  27.605  1.00  0.00     0.029 A 
ATOM     50  C   UNL A   1      41.087  27.570  28.676  1.00  0.00     0.049 A 
ATOM     51  H   UNL A   1      41.066  28.647  30.460  1.00  0.00     0.167 HD
ATOM     52  C   UNL A   1      41.118  31.217  33.981  1.00  0.00     0.034 A 
ATOM     53  C   UNL A   1      42.196  26.803  28.684  1.00  0.00     0.034 A 
ATOM     54  C   UNL A   1      42.228  30.320  34.158  1.00  0.00     0.049 A 
ATOM     55  C   UNL A   1      43.103  26.836  29.884  1.00  0.00     0.074 A 
ATOM     56  C   UNL A   1      43.100  30.232  35.229  1.00  0.00     0.029 A 
ATOM     57  N   UNL A   1      42.622  29.358  33.243  1.00  0.00    -0.354 N 
ATOM     58  N   UNL A   1      42.994  27.542  30.982  1.00  0.00    -0.248 NA
ATOM     59  C   UNL A   1      44.264  25.934  29.864  1.00  0.00     0.031 C 
ATOM     60  C   UNL A   1      44.030  29.222  34.956  1.00  0.00     0.029 A 
ATOM     61  C   UNL A   1      43.728  28.673  33.720  1.00  0.00     0.049 A 
ATOM     62  H   UNL A   1      42.181  29.186  32.380  1.00  0.00     0.167 HD
ATOM     63  C   UNL A   1      44.053  27.151  31.794  1.00  0.00     0.074 A 
ATOM     64  C   UNL A   1      44.774  26.123  31.073  1.00  0.00     0.031 C 
ATOM     65  C   UNL A   1      44.407  27.616  33.018  1.00  0.00     0.034 A 
BRANCH  52  66
ATOM     66  C   UNL A   1      40.853  32.242  35.053  1.00  0.00     0.023 A 
ATOM     67  C   UNL A   1      41.597  33.441  35.060  1.00  0.00     0.012 A 
ATOM     68  C   UNL A   1      39.842  32.052  36.015  1.00  0.00     0.148 A 
ATOM     69  C   UNL A   1      41.364  34.417  36.026  1.00  0.00     0.002 A 
ATOM     70  C   UNL A   1      39.589  33.048  36.952  1.00  0.00     0.091 A 
ATOM     71  F   UNL A   1      39.161  30.897  36.009  1.00  0.00    -0.205 F 
ATOM     72  C   UNL A   1      40.355  34.225  36.966  1.00  0.00     0.022 A 
BRANCH  70  73
ATOM     73  S   UNL A   1      38.262  32.929  38.157  1.00  0.00     0.127 S 
ATOM     74  O   UNL A   1      38.171  34.309  38.633  1.00  0.00    -0.237 OA
ATOM     75  O   UNL A   1      37.133  32.494  37.334  1.00  0.00    -0.237 OA
ATOM     76  O   UNL A   1      38.704  31.953  39.143  1.00  0.00    -0.744 OA
ENDBRANCH  70  73
ENDBRANCH  52  66
BRANCH  53  77
ATOM     77  C   UNL A   1      42.464  25.871  27.552  1.00  0.00     0.023 A 
ATOM     78  C   UNL A   1      43.280  26.301  26.487  1.00  0.00     0.012 A 
ATOM     79  C   UNL A   1      41.945  24.562  27.534  1.00  0.00     0.148 A 
ATOM     80  C   UNL A   1      43.550  25.457  25.411  1.00  0.00     0.002 A 
ATOM     81  C   UNL A   1      42.261  23.707  26.484  1.00  0.00     0.091 A 
ATOM     82  F   UNL A   1      41.159  24.176  28.549  1.00  0.00    -0.205 F 
ATOM     83  C   UNL A   1      43.050  24.158  25.414  1.00  0.00     0.022 A 
BRANCH  81  84
ATOM     84  S   UNL A   1      41.769  21.980  26.471  1.00  0.00     0.127 S 
ATOM     85  O   UNL A   1      42.462  21.481  25.286  1.00  0.00    -0.237 OA
ATOM     86  O   UNL A   1      42.305  21.502  27.746  1.00  0.00    -0.237 OA
ATOM     87  O   UNL A   1      40.314  21.991  26.402  1.00  0.00    -0.744 OA
ENDBRANCH  81  84
ENDBRANCH  53  77
BRANCH  65  88
ATOM     88  C   UNL A   1      45.621  27.005  33.670  1.00  0.00     0.023 A 
ATOM     89  C   UNL A   1      46.884  27.604  33.487  1.00  0.00     0.012 A 
ATOM     90  C   UNL A   1      45.505  25.879  34.508  1.00  0.00     0.148 A 
ATOM     91  C   UNL A   1      48.017  27.072  34.100  1.00  0.00     0.002 A 
ATOM     92  C   UNL A   1      46.633  25.381  35.152  1.00  0.00     0.091 A 
ATOM     93  F   UNL A   1      44.301  25.307  34.653  1.00  0.00    -0.205 F 
ATOM     94  C   UNL A   1      47.890  25.968  34.940  1.00  0.00     0.022 A 
BRANCH  92  95
ATOM     95  S   UNL A   1      46.540  24.021  36.322  1.00  0.00     0.127 S 
ATOM     96  O   UNL A   1      47.952  23.736  36.564  1.00  0.00    -0.237 OA
ATOM     97  O   UNL A   1      45.837  24.627  37.455  1.00  0.00    -0.237 OA
ATOM     98  O   UNL A   1      45.789  22.970  35.646  1.00  0.00    -0.744 OA
ENDBRANCH  92  95
ENDBRANCH  65  88
ENDBRANCH  39  40
ENDBRANCH  31  34
ENDBRANCH  29  30
ENDBRANCH   1  29
TORSDOF 16
ENDMDL
