MODEL 1
REMARK VINA RESULT:     -12.0      0.000      0.000
REMARK SMILES CC(C)(CNC(=O)[C@H]1CCC[C@H](C(=O)NCCCCNC(=O)c2ccc(-c3c4nc(c(-c5cccc(S(=O)(=O)[O-])c5F)c5ccc([nH]5)c(-c5cccc(S(=O)(=O)[O-])c5F)c5nc(c(-c6cccc(S(=O)(=O)[O-])c6F)c6ccc3[nH]6)C=C5)C=C4)cc2)C1)S(C)(=O)=O
REMARK SMILES IDX 17 1 16 2 15 3 13 4 14 5 12 7 8 8 9 9 86 10 10 11 11 12 6 13
REMARK SMILES IDX 5 14 7 16 4 17 2 18 1 19 3 20 87 21 88 22 89 23 90 24 18 25
REMARK SMILES IDX 19 26 20 27 21 28 22 30 23 31 24 32 85 33 25 34 84 35 26 36
REMARK SMILES IDX 27 37 28 38 78 39 29 40 83 41 77 42 79 43 30 44 82 45 76 46
REMARK SMILES IDX 75 47 31 49 63 50 43 51 62 52 44 53 47 54 61 55 80 56 45 57
REMARK SMILES IDX 46 58 60 60 81 61 48 62 32 63 33 64 41 65 34 66 36 67 42 68
REMARK SMILES IDX 35 69 37 70 38 71 39 72 40 73 64 74 65 75 73 76 66 77 68 78
REMARK SMILES IDX 74 79 67 80 69 81 70 82 71 83 72 84 49 85 50 86 58 87 51 88
REMARK SMILES IDX 53 89 59 90 52 91 54 92 55 93 56 94 57 95
REMARK H PARENT 15 6 5 15 20 29 79 48 47 59
REMARK Flexibility Score: inf
ROOT
ATOM      1  C   UNL A   1      32.306  30.252  26.859  1.00  0.00     0.023 C 
ENDROOT
BRANCH   1   2
ATOM      2  C   UNL A   1      32.563  29.858  25.405  1.00  0.00     0.116 C 
BRANCH   2   3
ATOM      3  N   UNL A   1      31.364  29.861  24.584  1.00  0.00    -0.356 N 
ATOM      4  C   UNL A   1      30.778  28.857  23.867  1.00  0.00     0.223 C 
ATOM      5  O   UNL A   1      29.731  29.099  23.265  1.00  0.00    -0.275 OA
ATOM      6  H   UNL A   1      30.900  30.728  24.536  1.00  0.00     0.163 HD
BRANCH   4   7
ATOM      7  C   UNL A   1      31.404  27.465  23.808  1.00  0.00     0.079 C 
ATOM      8  C   UNL A   1      31.569  25.392  22.295  1.00  0.00     0.079 C 
ATOM      9  C   UNL A   1      30.504  24.749  23.173  1.00  0.00     0.013 C 
ATOM     10  C   UNL A   1      31.365  26.915  22.373  1.00  0.00     0.027 C 
ATOM     11  C   UNL A   1      30.608  25.121  24.648  1.00  0.00     0.002 C 
ATOM     12  C   UNL A   1      30.844  26.592  24.937  1.00  0.00     0.013 C 
BRANCH   8  13
ATOM     13  C   UNL A   1      33.073  25.064  22.387  1.00  0.00     0.223 C 
ATOM     14  N   UNL A   1      33.620  23.894  22.806  1.00  0.00    -0.354 N 
ATOM     15  H   UNL A   1      34.577  23.799  22.596  1.00  0.00     0.163 HD
ATOM     16  O   UNL A   1      33.902  25.876  21.952  1.00  0.00    -0.275 OA
BRANCH  14  17
ATOM     17  C   UNL A   1      33.052  22.767  23.503  1.00  0.00     0.138 C 
BRANCH  17  18
ATOM     18  C   UNL A   1      33.406  22.564  24.976  1.00  0.00     0.084 C 
ATOM     19  C   UNL A   1      33.643  23.887  25.705  1.00  0.00     0.030 C 
ATOM     20  C   UNL A   1      32.181  21.860  25.612  1.00  0.00     0.030 C 
BRANCH  18  21
ATOM     21  S   UNL A   1      34.825  21.433  25.156  1.00  0.00     0.154 S 
ATOM     22  C   UNL A   1      34.249  19.785  24.803  1.00  0.00     0.158 C 
ATOM     23  O   UNL A   1      35.779  21.770  24.114  1.00  0.00    -0.229 OA
ATOM     24  O   UNL A   1      35.244  21.448  26.546  1.00  0.00    -0.229 OA
ENDBRANCH  18  21
ENDBRANCH  17  18
ENDBRANCH  14  17
ENDBRANCH   8  13
ENDBRANCH   4   7
ENDBRANCH   2   3
ENDBRANCH   1   2
BRANCH   1  25
ATOM     25  C   UNL A   1      31.895  31.703  27.064  1.00  0.00     0.023 C 
BRANCH  25  26
ATOM     26  C   UNL A   1      33.027  32.622  27.485  1.00  0.00     0.116 C 
BRANCH  26  27
ATOM     27  N   UNL A   1      32.598  34.000  27.692  1.00  0.00    -0.352 N 
ATOM     28  C   UNL A   1      33.075  34.907  28.611  1.00  0.00     0.251 C 
ATOM     29  H   UNL A   1      31.879  34.321  27.101  1.00  0.00     0.163 HD
ATOM     30  O   UNL A   1      32.538  35.994  28.756  1.00  0.00    -0.269 OA
BRANCH  28  31
ATOM     31  C   UNL A   1      34.230  34.511  29.442  1.00  0.00     0.039 A 
ATOM     32  C   UNL A   1      34.000  33.966  30.705  1.00  0.00     0.014 A 
ATOM     33  C   UNL A   1      35.522  34.587  28.917  1.00  0.00     0.014 A 
ATOM     34  C   UNL A   1      35.072  33.429  31.420  1.00  0.00     0.010 A 
ATOM     35  C   UNL A   1      36.566  33.968  29.587  1.00  0.00     0.010 A 
ATOM     36  C   UNL A   1      36.356  33.389  30.848  1.00  0.00    -0.014 A 
BRANCH  36  37
ATOM     37  C   UNL A   1      37.496  32.749  31.548  1.00  0.00     0.031 A 
ATOM     38  C   UNL A   1      38.214  31.594  30.904  1.00  0.00     0.074 A 
ATOM     39  C   UNL A   1      37.821  33.142  32.795  1.00  0.00     0.049 A 
ATOM     40  N   UNL A   1      39.184  30.858  31.381  1.00  0.00    -0.248 NA
ATOM     41  C   UNL A   1      37.760  31.189  29.563  1.00  0.00     0.031 C 
ATOM     42  C   UNL A   1      37.139  34.190  33.560  1.00  0.00     0.029 A 
ATOM     43  N   UNL A   1      38.789  32.685  33.654  1.00  0.00    -0.354 N 
ATOM     44  C   UNL A   1      39.427  29.884  30.421  1.00  0.00     0.074 A 
ATOM     45  C   UNL A   1      38.476  30.094  29.353  1.00  0.00     0.031 C 
ATOM     46  C   UNL A   1      37.716  34.300  34.768  1.00  0.00     0.029 A 
ATOM     47  C   UNL A   1      38.786  33.314  34.878  1.00  0.00     0.049 A 
ATOM     48  H   UNL A   1      39.428  31.973  33.416  1.00  0.00     0.167 HD
ATOM     49  C   UNL A   1      40.379  28.922  30.412  1.00  0.00     0.034 A 
ATOM     50  C   UNL A   1      39.556  33.114  35.965  1.00  0.00     0.034 A 
ATOM     51  C   UNL A   1      41.355  28.754  31.451  1.00  0.00     0.049 A 
ATOM     52  C   UNL A   1      40.642  32.073  35.907  1.00  0.00     0.074 A 
ATOM     53  C   UNL A   1      42.422  27.874  31.493  1.00  0.00     0.029 A 
ATOM     54  N   UNL A   1      41.384  29.478  32.633  1.00  0.00    -0.354 N 
ATOM     55  N   UNL A   1      40.964  31.272  34.921  1.00  0.00    -0.248 NA
ATOM     56  C   UNL A   1      41.498  31.936  37.094  1.00  0.00     0.031 C 
ATOM     57  C   UNL A   1      43.084  28.052  32.712  1.00  0.00     0.029 A 
ATOM     58  C   UNL A   1      42.447  29.061  33.415  1.00  0.00     0.049 A 
ATOM     59  H   UNL A   1      40.745  30.184  32.879  1.00  0.00     0.167 HD
ATOM     60  C   UNL A   1      42.080  30.565  35.351  1.00  0.00     0.074 A 
ATOM     61  C   UNL A   1      42.391  31.047  36.682  1.00  0.00     0.031 C 
ATOM     62  C   UNL A   1      42.778  29.595  34.711  1.00  0.00     0.034 A 
BRANCH  49  63
ATOM     63  C   UNL A   1      40.447  28.016  29.212  1.00  0.00     0.023 A 
ATOM     64  C   UNL A   1      39.534  26.947  29.094  1.00  0.00     0.012 A 
ATOM     65  C   UNL A   1      41.372  28.252  28.176  1.00  0.00     0.148 A 
ATOM     66  C   UNL A   1      39.562  26.108  27.981  1.00  0.00     0.002 A 
ATOM     67  C   UNL A   1      41.361  27.440  27.048  1.00  0.00     0.091 A 
ATOM     68  F   UNL A   1      42.247  29.259  28.316  1.00  0.00    -0.205 F 
ATOM     69  C   UNL A   1      40.467  26.361  26.954  1.00  0.00     0.022 A 
BRANCH  67  70
ATOM     70  S   UNL A   1      42.430  27.732  25.634  1.00  0.00     0.127 S 
ATOM     71  O   UNL A   1      41.962  29.040  25.176  1.00  0.00    -0.237 OA
ATOM     72  O   UNL A   1      43.758  27.740  26.249  1.00  0.00    -0.237 OA
ATOM     73  O   UNL A   1      42.193  26.628  24.715  1.00  0.00    -0.744 OA
ENDBRANCH  67  70
ENDBRANCH  49  63
BRANCH  50  74
ATOM     74  C   UNL A   1      39.376  33.966  37.176  1.00  0.00     0.023 A 
ATOM     75  C   UNL A   1      39.803  35.308  37.145  1.00  0.00     0.012 A 
ATOM     76  C   UNL A   1      38.770  33.465  38.345  1.00  0.00     0.148 A 
ATOM     77  C   UNL A   1      39.662  36.125  38.268  1.00  0.00     0.002 A 
ATOM     78  C   UNL A   1      38.584  34.301  39.440  1.00  0.00     0.091 A 
ATOM     79  F   UNL A   1      38.381  32.182  38.358  1.00  0.00    -0.205 F 
ATOM     80  C   UNL A   1      39.045  35.626  39.411  1.00  0.00     0.022 A 
BRANCH  78  81
ATOM     81  S   UNL A   1      37.680  33.781  40.904  1.00  0.00     0.127 S 
ATOM     82  O   UNL A   1      38.597  32.806  41.489  1.00  0.00    -0.237 OA
ATOM     83  O   UNL A   1      37.557  35.036  41.645  1.00  0.00    -0.237 OA
ATOM     84  O   UNL A   1      36.416  33.249  40.414  1.00  0.00    -0.744 OA
ENDBRANCH  78  81
ENDBRANCH  50  74
BRANCH  62  85
ATOM     85  C   UNL A   1      43.980  29.016  35.410  1.00  0.00     0.023 A 
ATOM     86  C   UNL A   1      45.249  29.597  35.223  1.00  0.00     0.012 A 
ATOM     87  C   UNL A   1      43.831  27.951  36.320  1.00  0.00     0.148 A 
ATOM     88  C   UNL A   1      46.358  29.107  35.911  1.00  0.00     0.002 A 
ATOM     89  C   UNL A   1      44.931  27.500  37.038  1.00  0.00     0.091 A 
ATOM     90  F   UNL A   1      42.616  27.401  36.469  1.00  0.00    -0.205 F 
ATOM     91  C   UNL A   1      46.198  28.069  36.826  1.00  0.00     0.022 A 
BRANCH  89  92
ATOM     92  S   UNL A   1      44.799  26.239  38.310  1.00  0.00     0.127 S 
ATOM     93  O   UNL A   1      44.060  25.189  37.612  1.00  0.00    -0.237 OA
ATOM     94  O   UNL A   1      46.202  25.922  38.580  1.00  0.00    -0.237 OA
ATOM     95  O   UNL A   1      44.096  26.863  39.423  1.00  0.00    -0.744 OA
ENDBRANCH  89  92
ENDBRANCH  62  85
ENDBRANCH  36  37
ENDBRANCH  28  31
ENDBRANCH  26  27
ENDBRANCH  25  26
ENDBRANCH   1  25
TORSDOF 18
ENDMDL
MODEL 2
REMARK VINA RESULT:     -11.9      6.395     11.751
REMARK SMILES CC(C)(CNC(=O)[C@H]1CCC[C@H](C(=O)NCCCCNC(=O)c2ccc(-c3c4nc(c(-c5cccc(S(=O)(=O)[O-])c5F)c5ccc([nH]5)c(-c5cccc(S(=O)(=O)[O-])c5F)c5nc(c(-c6cccc(S(=O)(=O)[O-])c6F)c6ccc3[nH]6)C=C5)C=C4)cc2)C1)S(C)(=O)=O
REMARK SMILES IDX 17 1 16 2 15 3 13 4 14 5 12 7 8 8 9 9 86 10 10 11 11 12 6 13
REMARK SMILES IDX 5 14 7 16 4 17 2 18 1 19 3 20 87 21 88 22 89 23 90 24 18 25
REMARK SMILES IDX 19 26 20 27 21 28 22 30 23 31 24 32 85 33 25 34 84 35 26 36
REMARK SMILES IDX 27 37 28 38 78 39 29 40 83 41 77 42 79 43 30 44 82 45 76 46
REMARK SMILES IDX 75 47 31 49 63 50 43 51 62 52 44 53 47 54 61 55 80 56 45 57
REMARK SMILES IDX 46 58 60 60 81 61 48 62 32 63 33 64 41 65 34 66 36 67 42 68
REMARK SMILES IDX 35 69 37 70 38 71 39 72 40 73 64 74 65 75 73 76 66 77 68 78
REMARK SMILES IDX 74 79 67 80 69 81 70 82 71 83 72 84 49 85 50 86 58 87 51 88
REMARK SMILES IDX 53 89 59 90 52 91 54 92 55 93 56 94 57 95
REMARK H PARENT 15 6 5 15 20 29 79 48 47 59
REMARK Flexibility Score: inf
ROOT
ATOM      1  C   UNL A   1      37.343  20.834  24.602  1.00  0.00     0.023 C 
ENDROOT
BRANCH   1   2
ATOM      2  C   UNL A   1      36.056  20.964  25.417  1.00  0.00     0.116 C 
BRANCH   2   3
ATOM      3  N   UNL A   1      34.961  20.161  24.903  1.00  0.00    -0.356 N 
ATOM      4  C   UNL A   1      33.651  20.482  24.687  1.00  0.00     0.223 C 
ATOM      5  O   UNL A   1      32.907  19.626  24.206  1.00  0.00    -0.275 OA
ATOM      6  H   UNL A   1      35.201  19.234  24.675  1.00  0.00     0.163 HD
BRANCH   4   7
ATOM      7  C   UNL A   1      33.115  21.870  25.032  1.00  0.00     0.079 C 
ATOM      8  C   UNL A   1      30.912  23.164  25.326  1.00  0.00     0.079 C 
ATOM      9  C   UNL A   1      31.133  23.725  23.927  1.00  0.00     0.013 C 
ATOM     10  C   UNL A   1      31.621  21.801  25.387  1.00  0.00     0.027 C 
ATOM     11  C   UNL A   1      32.595  23.986  23.587  1.00  0.00     0.002 C 
ATOM     12  C   UNL A   1      33.565  22.883  23.972  1.00  0.00     0.013 C 
BRANCH   8  13
ATOM     13  C   UNL A   1      31.191  23.952  26.622  1.00  0.00     0.223 C 
ATOM     14  N   UNL A   1      31.093  25.297  26.787  1.00  0.00    -0.354 N 
ATOM     15  H   UNL A   1      31.102  25.590  27.726  1.00  0.00     0.163 HD
ATOM     16  O   UNL A   1      31.430  23.337  27.670  1.00  0.00    -0.275 OA
BRANCH  14  17
ATOM     17  C   UNL A   1      30.978  26.372  25.833  1.00  0.00     0.138 C 
BRANCH  17  18
ATOM     18  C   UNL A   1      31.949  27.549  25.938  1.00  0.00     0.084 C 
ATOM     19  C   UNL A   1      31.758  28.348  27.226  1.00  0.00     0.030 C 
ATOM     20  C   UNL A   1      33.368  26.926  25.946  1.00  0.00     0.030 C 
BRANCH  18  21
ATOM     21  S   UNL A   1      31.842  28.615  24.462  1.00  0.00     0.154 S 
ATOM     22  C   UNL A   1      30.926  27.727  23.220  1.00  0.00     0.158 C 
ATOM     23  O   UNL A   1      31.039  29.770  24.822  1.00  0.00    -0.229 OA
ATOM     24  O   UNL A   1      33.185  28.806  23.942  1.00  0.00    -0.229 OA
ENDBRANCH  18  21
ENDBRANCH  17  18
ENDBRANCH  14  17
ENDBRANCH   8  13
ENDBRANCH   4   7
ENDBRANCH   2   3
ENDBRANCH   1   2
BRANCH   1  25
ATOM     25  C   UNL A   1      38.183  19.608  24.930  1.00  0.00     0.023 C 
BRANCH  25  26
ATOM     26  C   UNL A   1      39.099  19.779  26.129  1.00  0.00     0.116 C 
BRANCH  26  27
ATOM     27  N   UNL A   1      40.342  19.026  26.010  1.00  0.00    -0.352 N 
ATOM     28  C   UNL A   1      41.631  19.499  26.106  1.00  0.00     0.251 C 
ATOM     29  H   UNL A   1      40.248  18.061  25.839  1.00  0.00     0.163 HD
ATOM     30  O   UNL A   1      42.585  18.776  25.864  1.00  0.00    -0.269 OA
BRANCH  28  31
ATOM     31  C   UNL A   1      41.825  20.916  26.475  1.00  0.00     0.039 A 
ATOM     32  C   UNL A   1      42.205  21.230  27.779  1.00  0.00     0.014 A 
ATOM     33  C   UNL A   1      41.730  21.908  25.496  1.00  0.00     0.014 A 
ATOM     34  C   UNL A   1      42.561  22.544  28.087  1.00  0.00     0.010 A 
ATOM     35  C   UNL A   1      42.174  23.190  25.781  1.00  0.00     0.010 A 
ATOM     36  C   UNL A   1      42.587  23.525  27.080  1.00  0.00    -0.014 A 
BRANCH  36  37
ATOM     37  C   UNL A   1      43.040  24.910  27.359  1.00  0.00     0.031 A 
ATOM     38  C   UNL A   1      42.097  25.887  28.006  1.00  0.00     0.074 A 
ATOM     39  C   UNL A   1      44.258  25.312  26.945  1.00  0.00     0.049 A 
ATOM     40  N   UNL A   1      42.278  27.156  28.268  1.00  0.00    -0.248 NA
ATOM     41  C   UNL A   1      40.763  25.385  28.376  1.00  0.00     0.031 C 
ATOM     42  C   UNL A   1      45.227  24.480  26.225  1.00  0.00     0.029 A 
ATOM     43  N   UNL A   1      44.879  26.531  27.043  1.00  0.00    -0.354 N 
ATOM     44  C   UNL A   1      41.074  27.609  28.792  1.00  0.00     0.074 A 
ATOM     45  C   UNL A   1      40.156  26.493  28.773  1.00  0.00     0.031 C 
ATOM     46  C   UNL A   1      46.321  25.212  25.956  1.00  0.00     0.029 A 
ATOM     47  C   UNL A   1      46.122  26.569  26.454  1.00  0.00     0.049 A 
ATOM     48  H   UNL A   1      44.474  27.308  27.493  1.00  0.00     0.167 HD
ATOM     49  C   UNL A   1      40.769  28.834  29.278  1.00  0.00     0.034 A 
ATOM     50  C   UNL A   1      46.999  27.584  26.326  1.00  0.00     0.034 A 
ATOM     51  C   UNL A   1      41.703  29.923  29.345  1.00  0.00     0.049 A 
ATOM     52  C   UNL A   1      46.656  28.922  26.925  1.00  0.00     0.074 A 
ATOM     53  C   UNL A   1      41.525  31.174  29.907  1.00  0.00     0.029 A 
ATOM     54  N   UNL A   1      42.989  29.893  28.829  1.00  0.00    -0.354 N 
ATOM     55  N   UNL A   1      45.572  29.284  27.568  1.00  0.00    -0.248 NA
ATOM     56  C   UNL A   1      47.670  29.980  26.818  1.00  0.00     0.031 C 
ATOM     57  C   UNL A   1      42.699  31.909  29.713  1.00  0.00     0.029 A 
ATOM     58  C   UNL A   1      43.616  31.106  29.055  1.00  0.00     0.049 A 
ATOM     59  H   UNL A   1      43.397  29.123  28.371  1.00  0.00     0.167 HD
ATOM     60  C   UNL A   1      45.789  30.594  27.975  1.00  0.00     0.074 A 
ATOM     61  C   UNL A   1      47.117  30.957  27.522  1.00  0.00     0.031 C 
ATOM     62  C   UNL A   1      44.961  31.428  28.651  1.00  0.00     0.034 A 
BRANCH  49  63
ATOM     63  C   UNL A   1      39.386  29.043  29.834  1.00  0.00     0.023 A 
ATOM     64  C   UNL A   1      39.072  28.560  31.121  1.00  0.00     0.012 A 
ATOM     65  C   UNL A   1      38.415  29.764  29.111  1.00  0.00     0.148 A 
ATOM     66  C   UNL A   1      37.805  28.761  31.667  1.00  0.00     0.002 A 
ATOM     67  C   UNL A   1      37.170  30.001  29.682  1.00  0.00     0.091 A 
ATOM     68  F   UNL A   1      38.723  30.195  27.879  1.00  0.00    -0.205 F 
ATOM     69  C   UNL A   1      36.859  29.490  30.953  1.00  0.00     0.022 A 
BRANCH  67  70
ATOM     70  S   UNL A   1      35.910  30.999  28.879  1.00  0.00     0.127 S 
ATOM     71  O   UNL A   1      36.712  32.077  28.302  1.00  0.00    -0.237 OA
ATOM     72  O   UNL A   1      35.354  30.063  27.902  1.00  0.00    -0.237 OA
ATOM     73  O   UNL A   1      34.986  31.402  29.930  1.00  0.00    -0.744 OA
ENDBRANCH  67  70
ENDBRANCH  49  63
BRANCH  50  74
ATOM     74  C   UNL A   1      48.317  27.356  25.667  1.00  0.00     0.023 A 
ATOM     75  C   UNL A   1      49.418  26.951  26.447  1.00  0.00     0.012 A 
ATOM     76  C   UNL A   1      48.482  27.516  24.278  1.00  0.00     0.148 A 
ATOM     77  C   UNL A   1      50.668  26.745  25.861  1.00  0.00     0.002 A 
ATOM     78  C   UNL A   1      49.716  27.256  23.693  1.00  0.00     0.091 A 
ATOM     79  F   UNL A   1      47.425  27.912  23.555  1.00  0.00    -0.205 F 
ATOM     80  C   UNL A   1      50.815  26.888  24.485  1.00  0.00     0.022 A 
BRANCH  78  81
ATOM     81  S   UNL A   1      49.963  27.285  21.914  1.00  0.00     0.127 S 
ATOM     82  O   UNL A   1      49.753  28.697  21.607  1.00  0.00    -0.237 OA
ATOM     83  O   UNL A   1      51.347  26.826  21.792  1.00  0.00    -0.237 OA
ATOM     84  O   UNL A   1      48.977  26.363  21.367  1.00  0.00    -0.744 OA
ENDBRANCH  78  81
ENDBRANCH  50  74
BRANCH  62  85
ATOM     85  C   UNL A   1      45.473  32.803  28.992  1.00  0.00     0.023 A 
ATOM     86  C   UNL A   1      46.287  32.988  30.125  1.00  0.00     0.012 A 
ATOM     87  C   UNL A   1      45.217  33.892  28.135  1.00  0.00     0.148 A 
ATOM     88  C   UNL A   1      46.816  34.245  30.418  1.00  0.00     0.002 A 
ATOM     89  C   UNL A   1      45.787  35.129  28.406  1.00  0.00     0.091 A 
ATOM     90  F   UNL A   1      44.424  33.697  27.071  1.00  0.00    -0.205 F 
ATOM     91  C   UNL A   1      46.577  35.311  29.553  1.00  0.00     0.022 A 
BRANCH  89  92
ATOM     92  S   UNL A   1      45.618  36.530  27.295  1.00  0.00     0.127 S 
ATOM     93  O   UNL A   1      46.414  37.549  27.977  1.00  0.00    -0.237 OA
ATOM     94  O   UNL A   1      46.210  36.019  26.058  1.00  0.00    -0.237 OA
ATOM     95  O   UNL A   1      44.190  36.806  27.212  1.00  0.00    -0.744 OA
ENDBRANCH  89  92
ENDBRANCH  62  85
ENDBRANCH  36  37
ENDBRANCH  28  31
ENDBRANCH  26  27
ENDBRANCH  25  26
ENDBRANCH   1  25
TORSDOF 18
ENDMDL
MODEL 3
REMARK VINA RESULT:     -11.5      3.494      8.753
REMARK SMILES CC(C)(CNC(=O)[C@H]1CCC[C@H](C(=O)NCCCCNC(=O)c2ccc(-c3c4nc(c(-c5cccc(S(=O)(=O)[O-])c5F)c5ccc([nH]5)c(-c5cccc(S(=O)(=O)[O-])c5F)c5nc(c(-c6cccc(S(=O)(=O)[O-])c6F)c6ccc3[nH]6)C=C5)C=C4)cc2)C1)S(C)(=O)=O
REMARK SMILES IDX 17 1 16 2 15 3 13 4 14 5 12 7 8 8 9 9 86 10 10 11 11 12 6 13
REMARK SMILES IDX 5 14 7 16 4 17 2 18 1 19 3 20 87 21 88 22 89 23 90 24 18 25
REMARK SMILES IDX 19 26 20 27 21 28 22 30 23 31 24 32 85 33 25 34 84 35 26 36
REMARK SMILES IDX 27 37 28 38 78 39 29 40 83 41 77 42 79 43 30 44 82 45 76 46
REMARK SMILES IDX 75 47 31 49 63 50 43 51 62 52 44 53 47 54 61 55 80 56 45 57
REMARK SMILES IDX 46 58 60 60 81 61 48 62 32 63 33 64 41 65 34 66 36 67 42 68
REMARK SMILES IDX 35 69 37 70 38 71 39 72 40 73 64 74 65 75 73 76 66 77 68 78
REMARK SMILES IDX 74 79 67 80 69 81 70 82 71 83 72 84 49 85 50 86 58 87 51 88
REMARK SMILES IDX 53 89 59 90 52 91 54 92 55 93 56 94 57 95
REMARK H PARENT 15 6 5 15 20 29 79 48 47 59
REMARK Flexibility Score: inf
ROOT
ATOM      1  C   UNL A   1      31.576  29.745  26.470  1.00  0.00     0.023 C 
ENDROOT
BRANCH   1   2
ATOM      2  C   UNL A   1      31.771  30.097  24.996  1.00  0.00     0.116 C 
BRANCH   2   3
ATOM      3  N   UNL A   1      30.612  29.800  24.172  1.00  0.00    -0.356 N 
ATOM      4  C   UNL A   1      30.242  28.643  23.547  1.00  0.00     0.223 C 
ATOM      5  O   UNL A   1      29.182  28.627  22.920  1.00  0.00    -0.275 OA
ATOM      6  H   UNL A   1      29.994  30.554  24.042  1.00  0.00     0.163 HD
BRANCH   4   7
ATOM      7  C   UNL A   1      31.119  27.394  23.620  1.00  0.00     0.079 C 
ATOM      8  C   UNL A   1      31.781  25.314  22.261  1.00  0.00     0.079 C 
ATOM      9  C   UNL A   1      30.792  24.527  23.112  1.00  0.00     0.013 C 
ATOM     10  C   UNL A   1      31.291  26.772  22.225  1.00  0.00     0.027 C 
ATOM     11  C   UNL A   1      30.716  24.990  24.562  1.00  0.00     0.002 C 
ATOM     12  C   UNL A   1      30.650  26.492  24.768  1.00  0.00     0.013 C 
BRANCH   8  13
ATOM     13  C   UNL A   1      33.309  25.285  22.470  1.00  0.00     0.223 C 
ATOM     14  N   UNL A   1      34.018  24.325  23.118  1.00  0.00    -0.354 N 
ATOM     15  H   UNL A   1      34.989  24.369  22.965  1.00  0.00     0.163 HD
ATOM     16  O   UNL A   1      34.015  26.144  21.924  1.00  0.00    -0.275 OA
BRANCH  14  17
ATOM     17  C   UNL A   1      33.603  23.252  23.988  1.00  0.00     0.138 C 
BRANCH  17  18
ATOM     18  C   UNL A   1      33.979  23.326  25.468  1.00  0.00     0.084 C 
ATOM     19  C   UNL A   1      35.414  22.869  25.727  1.00  0.00     0.030 C 
ATOM     20  C   UNL A   1      33.855  24.819  25.862  1.00  0.00     0.030 C 
BRANCH  18  21
ATOM     21  S   UNL A   1      32.784  22.403  26.490  1.00  0.00     0.154 S 
ATOM     22  C   UNL A   1      33.660  21.062  27.268  1.00  0.00     0.158 C 
ATOM     23  O   UNL A   1      32.353  23.290  27.557  1.00  0.00    -0.229 OA
ATOM     24  O   UNL A   1      31.796  21.809  25.607  1.00  0.00    -0.229 OA
ENDBRANCH  18  21
ENDBRANCH  17  18
ENDBRANCH  14  17
ENDBRANCH   8  13
ENDBRANCH   4   7
ENDBRANCH   2   3
ENDBRANCH   1   2
BRANCH   1  25
ATOM     25  C   UNL A   1      32.587  28.751  27.026  1.00  0.00     0.023 C 
BRANCH  25  26
ATOM     26  C   UNL A   1      33.972  29.328  27.256  1.00  0.00     0.116 C 
BRANCH  26  27
ATOM     27  N   UNL A   1      33.946  30.637  27.898  1.00  0.00    -0.352 N 
ATOM     28  C   UNL A   1      34.903  31.201  28.712  1.00  0.00     0.251 C 
ATOM     29  H   UNL A   1      33.146  31.185  27.729  1.00  0.00     0.163 HD
ATOM     30  O   UNL A   1      34.697  32.261  29.282  1.00  0.00    -0.269 OA
BRANCH  28  31
ATOM     31  C   UNL A   1      36.171  30.467  28.903  1.00  0.00     0.039 A 
ATOM     32  C   UNL A   1      37.272  30.802  28.115  1.00  0.00     0.014 A 
ATOM     33  C   UNL A   1      36.283  29.530  29.932  1.00  0.00     0.014 A 
ATOM     34  C   UNL A   1      38.515  30.240  28.409  1.00  0.00     0.010 A 
ATOM     35  C   UNL A   1      37.536  29.048  30.280  1.00  0.00     0.010 A 
ATOM     36  C   UNL A   1      38.664  29.391  29.519  1.00  0.00    -0.014 A 
BRANCH  36  37
ATOM     37  C   UNL A   1      39.988  28.845  29.905  1.00  0.00     0.031 A 
ATOM     38  C   UNL A   1      40.777  29.508  31.002  1.00  0.00     0.074 A 
ATOM     39  C   UNL A   1      40.519  27.820  29.210  1.00  0.00     0.049 A 
ATOM     40  N   UNL A   1      41.978  29.229  31.437  1.00  0.00    -0.248 NA
ATOM     41  C   UNL A   1      40.151  30.660  31.674  1.00  0.00     0.031 C 
ATOM     42  C   UNL A   1      39.888  27.153  28.067  1.00  0.00     0.029 A 
ATOM     43  N   UNL A   1      41.724  27.178  29.342  1.00  0.00    -0.354 N 
ATOM     44  C   UNL A   1      42.265  30.189  32.399  1.00  0.00     0.074 A 
ATOM     45  C   UNL A   1      41.131  31.084  32.456  1.00  0.00     0.031 C 
ATOM     46  C   UNL A   1      40.708  26.192  27.611  1.00  0.00     0.029 A 
ATOM     47  C   UNL A   1      41.932  26.193  28.405  1.00  0.00     0.049 A 
ATOM     48  H   UNL A   1      42.379  27.401  30.043  1.00  0.00     0.167 HD
ATOM     49  C   UNL A   1      43.357  30.295  33.190  1.00  0.00     0.034 A 
ATOM     50  C   UNL A   1      42.993  25.385  28.205  1.00  0.00     0.034 A 
ATOM     51  C   UNL A   1      44.455  29.370  33.166  1.00  0.00     0.049 A 
ATOM     52  C   UNL A   1      44.172  25.491  29.135  1.00  0.00     0.074 A 
ATOM     53  C   UNL A   1      45.565  29.332  33.992  1.00  0.00     0.029 A 
ATOM     54  N   UNL A   1      44.585  28.322  32.269  1.00  0.00    -0.354 N 
ATOM     55  N   UNL A   1      44.352  26.300  30.150  1.00  0.00    -0.248 NA
ATOM     56  C   UNL A   1      45.277  24.546  28.919  1.00  0.00     0.031 C 
ATOM     57  C   UNL A   1      46.377  28.271  33.580  1.00  0.00     0.029 A 
ATOM     58  C   UNL A   1      45.760  27.633  32.517  1.00  0.00     0.049 A 
ATOM     59  H   UNL A   1      43.938  28.099  31.562  1.00  0.00     0.167 HD
ATOM     60  C   UNL A   1      45.568  25.938  30.717  1.00  0.00     0.074 A 
ATOM     61  C   UNL A   1      46.073  24.822  29.942  1.00  0.00     0.031 C 
ATOM     62  C   UNL A   1      46.216  26.486  31.774  1.00  0.00     0.034 A 
BRANCH  49  63
ATOM     63  C   UNL A   1      43.390  31.420  34.191  1.00  0.00     0.023 A 
ATOM     64  C   UNL A   1      44.048  32.624  33.863  1.00  0.00     0.012 A 
ATOM     65  C   UNL A   1      42.725  31.311  35.428  1.00  0.00     0.148 A 
ATOM     66  C   UNL A   1      44.074  33.688  34.764  1.00  0.00     0.002 A 
ATOM     67  C   UNL A   1      42.715  32.393  36.299  1.00  0.00     0.091 A 
ATOM     68  F   UNL A   1      42.125  30.150  35.731  1.00  0.00    -0.205 F 
ATOM     69  C   UNL A   1      43.398  33.576  35.975  1.00  0.00     0.022 A 
BRANCH  67  70
ATOM     70  S   UNL A   1      41.805  32.381  37.848  1.00  0.00     0.127 S 
ATOM     71  O   UNL A   1      40.475  31.961  37.405  1.00  0.00    -0.237 OA
ATOM     72  O   UNL A   1      42.533  31.377  38.625  1.00  0.00    -0.237 OA
ATOM     73  O   UNL A   1      41.888  33.736  38.375  1.00  0.00    -0.744 OA
ENDBRANCH  67  70
ENDBRANCH  49  63
BRANCH  50  74
ATOM     74  C   UNL A   1      42.958  24.357  27.126  1.00  0.00     0.023 A 
ATOM     75  C   UNL A   1      43.600  24.622  25.900  1.00  0.00     0.012 A 
ATOM     76  C   UNL A   1      42.318  23.117  27.311  1.00  0.00     0.148 A 
ATOM     77  C   UNL A   1      43.572  23.686  24.865  1.00  0.00     0.002 A 
ATOM     78  C   UNL A   1      42.342  22.168  26.296  1.00  0.00     0.091 A 
ATOM     79  F   UNL A   1      41.705  22.888  28.481  1.00  0.00    -0.205 F 
ATOM     80  C   UNL A   1      42.952  22.456  25.065  1.00  0.00     0.022 A 
BRANCH  78  81
ATOM     81  S   UNL A   1      41.685  20.509  26.514  1.00  0.00     0.127 S 
ATOM     82  O   UNL A   1      40.246  20.746  26.439  1.00  0.00    -0.237 OA
ATOM     83  O   UNL A   1      42.255  19.804  25.366  1.00  0.00    -0.237 OA
ATOM     84  O   UNL A   1      42.188  20.057  27.804  1.00  0.00    -0.744 OA
ENDBRANCH  78  81
ENDBRANCH  50  74
BRANCH  62  85
ATOM     85  C   UNL A   1      47.521  25.865  32.197  1.00  0.00     0.023 A 
ATOM     86  C   UNL A   1      48.720  26.251  31.565  1.00  0.00     0.012 A 
ATOM     87  C   UNL A   1      47.566  24.965  33.279  1.00  0.00     0.148 A 
ATOM     88  C   UNL A   1      49.941  25.728  31.987  1.00  0.00     0.002 A 
ATOM     89  C   UNL A   1      48.791  24.486  33.726  1.00  0.00     0.091 A 
ATOM     90  F   UNL A   1      46.411  24.597  33.854  1.00  0.00    -0.205 F 
ATOM     91  C   UNL A   1      49.978  24.856  33.074  1.00  0.00     0.022 A 
BRANCH  89  92
ATOM     92  S   UNL A   1      48.943  23.442  35.179  1.00  0.00     0.127 S 
ATOM     93  O   UNL A   1      50.389  23.241  35.251  1.00  0.00    -0.237 OA
ATOM     94  O   UNL A   1      48.393  24.295  36.234  1.00  0.00    -0.237 OA
ATOM     95  O   UNL A   1      48.160  22.246  34.899  1.00  0.00    -0.744 OA
ENDBRANCH  89  92
ENDBRANCH  62  85
ENDBRANCH  36  37
ENDBRANCH  28  31
ENDBRANCH  26  27
ENDBRANCH  25  26
ENDBRANCH   1  25
TORSDOF 18
ENDMDL
