MODEL 1
REMARK VINA RESULT:      -8.7      0.000      0.000
REMARK SMILES NS(=O)(=O)c1ccc(-n2nc(C(=O)NCCCCCCCCCCC(=O)NCCCCNC(=O)c3ccc(-c4c5nc(c(-c6cccc(S(=O)(=O)[O-])c6F)c6ccc([nH]6)c(-c6cccc(S(=O)(=O)[O-])c6F)c6nc(c(-c7cccc(S(=O)(=O)[O-])c7F)c7ccc4[nH]7)C=C6)C=C5)cc3)cc2-c2ccccc2)cc1
REMARK SMILES IDX 22 1 21 2 20 3 19 4 18 5 17 6 16 7 15 8 14 9 12 10 13 11
REMARK SMILES IDX 11 13 9 14 10 15 99 16 98 17 8 18 5 19 6 20 107 21 7 22
REMARK SMILES IDX 106 23 2 24 3 25 4 26 1 27 100 30 101 31 105 32 102 33
REMARK SMILES IDX 104 34 103 35 23 36 24 37 25 38 26 39 27 40 28 42 29 43
REMARK SMILES IDX 30 44 31 45 32 46 33 47 34 49 35 50 36 51 97 52 37 53 96 54
REMARK SMILES IDX 38 55 39 56 40 57 90 58 41 59 95 60 89 61 91 62 42 63 94 64
REMARK SMILES IDX 88 65 87 66 43 68 75 69 55 70 74 71 56 72 59 73 73 74 92 75
REMARK SMILES IDX 57 76 58 77 72 79 93 80 60 81 44 82 45 83 53 84 46 85 48 86
REMARK SMILES IDX 54 87 47 88 49 89 50 90 51 91 52 92 76 93 77 94 85 95 78 96
REMARK SMILES IDX 80 97 86 98 79 99 81 100 82 101 83 102 84 103 61 104 62 105
REMARK SMILES IDX 70 106 63 107 65 108 71 109 64 110 66 111 67 112 68 113
REMARK SMILES IDX 69 114
REMARK H PARENT 14 12 1 28 1 29 27 41 32 48 91 67 59 78
REMARK Flexibility Score: inf
ROOT
ATOM      1  C   UNL A   1      42.538  28.292  28.613  1.00  0.00     0.001 C 
ENDROOT
BRANCH   1   2
ATOM      2  C   UNL A   1      42.123  26.824  28.477  1.00  0.00     0.000 C 
BRANCH   2   3
ATOM      3  C   UNL A   1      42.486  26.256  27.112  1.00  0.00     0.000 C 
BRANCH   3   4
ATOM      4  C   UNL A   1      43.972  25.914  26.997  1.00  0.00     0.000 C 
BRANCH   4   5
ATOM      5  C   UNL A   1      44.259  24.759  26.027  1.00  0.00     0.000 C 
BRANCH   5   6
ATOM      6  C   UNL A   1      43.002  24.211  25.340  1.00  0.00     0.002 C 
BRANCH   6   7
ATOM      7  C   UNL A   1      42.889  22.685  25.418  1.00  0.00     0.021 C 
BRANCH   7   8
ATOM      8  C   UNL A   1      41.497  22.252  25.870  1.00  0.00     0.116 C 
BRANCH   8   9
ATOM      9  N   UNL A   1      40.972  23.197  26.820  1.00  0.00    -0.351 N 
ATOM     10  C   UNL A   1      39.702  23.658  27.044  1.00  0.00     0.271 C 
ATOM     11  O   UNL A   1      39.583  24.507  27.931  1.00  0.00    -0.267 OA
ATOM     12  H   UNL A   1      41.652  23.583  27.419  1.00  0.00     0.163 HD
BRANCH  10  13
ATOM     13  C   UNL A   1      38.543  23.105  26.314  1.00  0.00     0.151 A 
ATOM     14  N   UNL A   1      36.624  23.182  25.358  1.00  0.00    -0.232 N 
ATOM     15  N   UNL A   1      37.671  23.944  25.723  1.00  0.00    -0.162 NA
ATOM     16  C   UNL A   1      36.841  21.838  25.589  1.00  0.00     0.075 A 
ATOM     17  C   UNL A   1      38.128  21.772  26.076  1.00  0.00     0.065 A 
BRANCH  14  18
ATOM     18  C   UNL A   1      35.491  23.782  24.771  1.00  0.00     0.065 A 
ATOM     19  C   UNL A   1      33.405  25.159  23.595  1.00  0.00     0.082 A 
ATOM     20  C   UNL A   1      34.167  24.276  22.823  1.00  0.00     0.024 A 
ATOM     21  C   UNL A   1      33.657  25.330  24.960  1.00  0.00     0.024 A 
ATOM     22  C   UNL A   1      35.228  23.596  23.409  1.00  0.00     0.030 A 
ATOM     23  C   UNL A   1      34.685  24.608  25.562  1.00  0.00     0.030 A 
BRANCH  19  24
ATOM     24  S   UNL A   1      32.160  26.137  22.818  1.00  0.00     0.238 S 
ATOM     25  O   UNL A   1      32.711  27.444  22.507  1.00  0.00    -0.207 OA
ATOM     26  O   UNL A   1      30.921  25.959  23.520  1.00  0.00    -0.207 OA
BRANCH  24  27
ATOM     27  N   UNL A   1      31.966  25.393  21.320  1.00  0.00    -0.225 NA
ATOM     28  H   UNL A   1      32.107  26.078  20.579  1.00  0.00     0.137 HD
ATOM     29  H   UNL A   1      31.025  25.007  21.252  1.00  0.00     0.137 HD
ENDBRANCH  24  27
ENDBRANCH  19  24
ENDBRANCH  14  18
BRANCH  16  30
ATOM     30  C   UNL A   1      35.961  20.738  25.225  1.00  0.00     0.000 A 
ATOM     31  C   UNL A   1      36.492  19.506  24.829  1.00  0.00     0.010 A 
ATOM     32  C   UNL A   1      34.571  20.896  25.305  1.00  0.00     0.010 A 
ATOM     33  C   UNL A   1      35.643  18.448  24.507  1.00  0.00     0.001 A 
ATOM     34  C   UNL A   1      33.724  19.836  24.978  1.00  0.00     0.001 A 
ATOM     35  C   UNL A   1      34.262  18.614  24.580  1.00  0.00     0.000 A 
ENDBRANCH  16  30
ENDBRANCH  10  13
ENDBRANCH   8   9
ENDBRANCH   7   8
ENDBRANCH   6   7
ENDBRANCH   5   6
ENDBRANCH   4   5
ENDBRANCH   3   4
ENDBRANCH   2   3
ENDBRANCH   1   2
BRANCH   1  36
ATOM     36  C   UNL A   1      41.401  29.278  28.410  1.00  0.00     0.010 C 
BRANCH  36  37
ATOM     37  C   UNL A   1      40.028  28.644  28.199  1.00  0.00     0.100 C 
BRANCH  37  38
ATOM     38  C   UNL A   1      39.121  28.722  29.413  1.00  0.00     0.219 C 
ATOM     39  O   UNL A   1      38.927  27.717  30.102  1.00  0.00    -0.275 OA
ATOM     40  N   UNL A   1      38.484  29.873  29.768  1.00  0.00    -0.356 N 
ATOM     41  H   UNL A   1      38.033  29.831  30.642  1.00  0.00     0.163 HD
BRANCH  40  42
ATOM     42  C   UNL A   1      38.347  31.152  29.089  1.00  0.00     0.116 C 
BRANCH  42  43
ATOM     43  C   UNL A   1      37.223  31.111  28.029  1.00  0.00     0.023 C 
BRANCH  43  44
ATOM     44  C   UNL A   1      35.999  31.998  28.269  1.00  0.00     0.023 C 
BRANCH  44  45
ATOM     45  C   UNL A   1      34.981  31.413  29.229  1.00  0.00     0.116 C 
BRANCH  45  46
ATOM     46  N   UNL A   1      34.236  32.423  30.000  1.00  0.00    -0.352 N 
ATOM     47  C   UNL A   1      34.569  32.918  31.257  1.00  0.00     0.251 C 
ATOM     48  H   UNL A   1      33.420  32.785  29.584  1.00  0.00     0.163 HD
ATOM     49  O   UNL A   1      33.747  33.453  31.988  1.00  0.00    -0.269 OA
BRANCH  47  50
ATOM     50  C   UNL A   1      35.984  32.824  31.645  1.00  0.00     0.039 A 
ATOM     51  C   UNL A   1      36.922  33.842  31.442  1.00  0.00     0.014 A 
ATOM     52  C   UNL A   1      36.291  31.687  32.381  1.00  0.00     0.014 A 
ATOM     53  C   UNL A   1      38.164  33.721  32.062  1.00  0.00     0.010 A 
ATOM     54  C   UNL A   1      37.372  31.726  33.202  1.00  0.00     0.010 A 
ATOM     55  C   UNL A   1      38.367  32.657  32.951  1.00  0.00    -0.014 A 
BRANCH  55  56
ATOM     56  C   UNL A   1      39.582  32.473  33.726  1.00  0.00     0.031 A 
ATOM     57  C   UNL A   1      39.641  33.288  34.967  1.00  0.00     0.074 A 
ATOM     58  C   UNL A   1      40.399  31.424  33.469  1.00  0.00     0.049 A 
ATOM     59  N   UNL A   1      40.412  34.295  35.206  1.00  0.00    -0.248 NA
ATOM     60  C   UNL A   1      38.602  33.085  35.990  1.00  0.00     0.031 C 
ATOM     61  C   UNL A   1      40.218  30.334  32.492  1.00  0.00     0.029 A 
ATOM     62  N   UNL A   1      41.498  31.014  34.147  1.00  0.00    -0.354 N 
ATOM     63  C   UNL A   1      40.134  34.679  36.517  1.00  0.00     0.074 A 
ATOM     64  C   UNL A   1      38.864  34.085  36.835  1.00  0.00     0.031 C 
ATOM     65  C   UNL A   1      41.003  29.287  32.827  1.00  0.00     0.029 A 
ATOM     66  C   UNL A   1      41.866  29.691  33.919  1.00  0.00     0.049 A 
ATOM     67  H   UNL A   1      41.998  31.607  34.753  1.00  0.00     0.167 HD
ATOM     68  C   UNL A   1      41.106  35.214  37.311  1.00  0.00     0.034 A 
ATOM     69  C   UNL A   1      42.780  28.974  34.621  1.00  0.00     0.034 A 
ATOM     70  C   UNL A   1      42.267  35.554  36.519  1.00  0.00     0.049 A 
ATOM     71  C   UNL A   1      43.630  29.957  35.334  1.00  0.00     0.074 A 
ATOM     72  C   UNL A   1      42.513  36.396  35.452  1.00  0.00     0.029 A 
ATOM     73  N   UNL A   1      43.304  34.650  36.533  1.00  0.00    -0.354 N 
ATOM     74  N   UNL A   1      44.397  30.815  34.716  1.00  0.00    -0.248 NA
ATOM     75  C   UNL A   1      43.239  30.324  36.685  1.00  0.00     0.031 C 
ATOM     76  C   UNL A   1      43.394  35.659  34.605  1.00  0.00     0.029 A 
ATOM     77  C   UNL A   1      43.711  34.456  35.239  1.00  0.00     0.049 A 
ATOM     78  H   UNL A   1      43.686  34.219  37.331  1.00  0.00     0.167 HD
ATOM     79  C   UNL A   1      44.193  32.009  35.395  1.00  0.00     0.074 A 
ATOM     80  C   UNL A   1      43.544  31.625  36.653  1.00  0.00     0.031 C 
ATOM     81  C   UNL A   1      44.272  33.213  34.752  1.00  0.00     0.034 A 
BRANCH  68  82
ATOM     82  C   UNL A   1      41.219  35.075  38.819  1.00  0.00     0.023 A 
ATOM     83  C   UNL A   1      41.102  33.763  39.339  1.00  0.00     0.012 A 
ATOM     84  C   UNL A   1      41.151  36.131  39.756  1.00  0.00     0.148 A 
ATOM     85  C   UNL A   1      40.825  33.520  40.688  1.00  0.00     0.002 A 
ATOM     86  C   UNL A   1      40.934  35.882  41.109  1.00  0.00     0.091 A 
ATOM     87  F   UNL A   1      41.187  37.399  39.351  1.00  0.00    -0.205 F 
ATOM     88  C   UNL A   1      40.733  34.581  41.574  1.00  0.00     0.022 A 
BRANCH  86  89
ATOM     89  S   UNL A   1      40.836  37.214  42.316  1.00  0.00     0.127 S 
ATOM     90  O   UNL A   1      40.912  36.474  43.572  1.00  0.00    -0.237 OA
ATOM     91  O   UNL A   1      42.024  38.001  41.985  1.00  0.00    -0.237 OA
ATOM     92  O   UNL A   1      39.575  37.896  42.054  1.00  0.00    -0.744 OA
ENDBRANCH  86  89
ENDBRANCH  68  82
BRANCH  69  93
ATOM     93  C   UNL A   1      42.772  27.532  34.972  1.00  0.00     0.023 A 
ATOM     94  C   UNL A   1      41.742  27.000  35.773  1.00  0.00     0.012 A 
ATOM     95  C   UNL A   1      43.614  26.625  34.289  1.00  0.00     0.148 A 
ATOM     96  C   UNL A   1      41.541  25.615  35.870  1.00  0.00     0.002 A 
ATOM     97  C   UNL A   1      43.416  25.250  34.393  1.00  0.00     0.091 A 
ATOM     98  F   UNL A   1      44.549  27.113  33.463  1.00  0.00    -0.205 F 
ATOM     99  C   UNL A   1      42.372  24.741  35.174  1.00  0.00     0.022 A 
BRANCH  97 100
ATOM    100  S   UNL A   1      44.435  24.068  33.499  1.00  0.00     0.127 S 
ATOM    101  O   UNL A   1      45.762  24.335  34.052  1.00  0.00    -0.237 OA
ATOM    102  O   UNL A   1      43.845  22.796  33.903  1.00  0.00    -0.237 OA
ATOM    103  O   UNL A   1      44.295  24.412  32.088  1.00  0.00    -0.744 OA
ENDBRANCH  97 100
ENDBRANCH  69  93
BRANCH  81 104
ATOM    104  C   UNL A   1      44.776  33.228  33.327  1.00  0.00     0.023 A 
ATOM    105  C   UNL A   1      46.139  33.060  32.993  1.00  0.00     0.012 A 
ATOM    106  C   UNL A   1      43.826  33.219  32.295  1.00  0.00     0.148 A 
ATOM    107  C   UNL A   1      46.542  32.903  31.663  1.00  0.00     0.002 A 
ATOM    108  C   UNL A   1      44.225  33.017  30.979  1.00  0.00     0.091 A 
ATOM    109  F   UNL A   1      42.535  33.370  32.626  1.00  0.00    -0.205 F 
ATOM    110  C   UNL A   1      45.583  32.868  30.656  1.00  0.00     0.022 A 
BRANCH 108 111
ATOM    111  S   UNL A   1      43.026  32.836  29.658  1.00  0.00     0.127 S 
ATOM    112  O   UNL A   1      41.932  32.145  30.335  1.00  0.00    -0.237 OA
ATOM    113  O   UNL A   1      42.743  34.227  29.298  1.00  0.00    -0.237 OA
ATOM    114  O   UNL A   1      43.695  32.076  28.610  1.00  0.00    -0.744 OA
ENDBRANCH 108 111
ENDBRANCH  81 104
ENDBRANCH  55  56
ENDBRANCH  47  50
ENDBRANCH  45  46
ENDBRANCH  44  45
ENDBRANCH  43  44
ENDBRANCH  42  43
ENDBRANCH  40  42
ENDBRANCH  37  38
ENDBRANCH  36  37
ENDBRANCH   1  36
TORSDOF 29
ENDMDL
MODEL 2
REMARK VINA RESULT:      -7.9      5.296     12.641
REMARK SMILES NS(=O)(=O)c1ccc(-n2nc(C(=O)NCCCCCCCCCCC(=O)NCCCCNC(=O)c3ccc(-c4c5nc(c(-c6cccc(S(=O)(=O)[O-])c6F)c6ccc([nH]6)c(-c6cccc(S(=O)(=O)[O-])c6F)c6nc(c(-c7cccc(S(=O)(=O)[O-])c7F)c7ccc4[nH]7)C=C6)C=C5)cc3)cc2-c2ccccc2)cc1
REMARK SMILES IDX 22 1 21 2 20 3 19 4 18 5 17 6 16 7 15 8 14 9 12 10 13 11
REMARK SMILES IDX 11 13 9 14 10 15 99 16 98 17 8 18 5 19 6 20 107 21 7 22
REMARK SMILES IDX 106 23 2 24 3 25 4 26 1 27 100 30 101 31 105 32 102 33
REMARK SMILES IDX 104 34 103 35 23 36 24 37 25 38 26 39 27 40 28 42 29 43
REMARK SMILES IDX 30 44 31 45 32 46 33 47 34 49 35 50 36 51 97 52 37 53 96 54
REMARK SMILES IDX 38 55 39 56 40 57 90 58 41 59 95 60 89 61 91 62 42 63 94 64
REMARK SMILES IDX 88 65 87 66 43 68 75 69 55 70 74 71 56 72 59 73 73 74 92 75
REMARK SMILES IDX 57 76 58 77 72 79 93 80 60 81 44 82 45 83 53 84 46 85 48 86
REMARK SMILES IDX 54 87 47 88 49 89 50 90 51 91 52 92 76 93 77 94 85 95 78 96
REMARK SMILES IDX 80 97 86 98 79 99 81 100 82 101 83 102 84 103 61 104 62 105
REMARK SMILES IDX 70 106 63 107 65 108 71 109 64 110 66 111 67 112 68 113
REMARK SMILES IDX 69 114
REMARK H PARENT 14 12 1 28 1 29 27 41 32 48 91 67 59 78
REMARK Flexibility Score: inf
ROOT
ATOM      1  C   UNL A   1      41.707  27.732  33.668  1.00  0.00     0.001 C 
ENDROOT
BRANCH   1   2
ATOM      2  C   UNL A   1      40.239  28.061  33.377  1.00  0.00     0.000 C 
BRANCH   2   3
ATOM      3  C   UNL A   1      39.913  29.516  33.678  1.00  0.00     0.000 C 
BRANCH   3   4
ATOM      4  C   UNL A   1      39.882  30.382  32.417  1.00  0.00     0.000 C 
BRANCH   4   5
ATOM      5  C   UNL A   1      38.498  30.976  32.119  1.00  0.00     0.000 C 
BRANCH   5   6
ATOM      6  C   UNL A   1      38.556  32.365  31.471  1.00  0.00     0.002 C 
BRANCH   6   7
ATOM      7  C   UNL A   1      37.177  33.013  31.311  1.00  0.00     0.021 C 
BRANCH   7   8
ATOM      8  C   UNL A   1      37.077  34.316  32.102  1.00  0.00     0.116 C 
BRANCH   8   9
ATOM      9  N   UNL A   1      36.462  34.069  33.379  1.00  0.00    -0.351 N 
ATOM     10  C   UNL A   1      36.993  33.795  34.612  1.00  0.00     0.271 C 
ATOM     11  O   UNL A   1      36.181  33.598  35.520  1.00  0.00    -0.267 OA
ATOM     12  H   UNL A   1      35.478  34.103  33.363  1.00  0.00     0.163 HD
BRANCH  10  13
ATOM     13  C   UNL A   1      38.452  33.816  34.843  1.00  0.00     0.151 A 
ATOM     14  N   UNL A   1      40.449  34.571  34.632  1.00  0.00    -0.232 N 
ATOM     15  N   UNL A   1      39.154  34.927  34.549  1.00  0.00    -0.162 NA
ATOM     16  C   UNL A   1      40.614  33.280  35.093  1.00  0.00     0.075 A 
ATOM     17  C   UNL A   1      39.337  32.839  35.361  1.00  0.00     0.065 A 
BRANCH  14  18
ATOM     18  C   UNL A   1      41.454  35.503  34.305  1.00  0.00     0.065 A 
ATOM     19  C   UNL A   1      43.575  37.202  33.808  1.00  0.00     0.082 A 
ATOM     20  C   UNL A   1      43.254  36.212  32.873  1.00  0.00     0.024 A 
ATOM     21  C   UNL A   1      42.818  37.372  34.972  1.00  0.00     0.024 A 
ATOM     22  C   UNL A   1      42.199  35.345  33.131  1.00  0.00     0.030 A 
ATOM     23  C   UNL A   1      41.727  36.539  35.206  1.00  0.00     0.030 A 
BRANCH  19  24
ATOM     24  S   UNL A   1      45.007  38.200  33.556  1.00  0.00     0.238 S 
ATOM     25  O   UNL A   1      45.335  38.207  32.141  1.00  0.00    -0.207 OA
ATOM     26  O   UNL A   1      45.969  37.904  34.579  1.00  0.00    -0.207 OA
BRANCH  24  27
ATOM     27  N   UNL A   1      44.449  39.758  33.868  1.00  0.00    -0.225 NA
ATOM     28  H   UNL A   1      43.668  39.970  33.248  1.00  0.00     0.137 HD
ATOM     29  H   UNL A   1      45.202  40.427  33.708  1.00  0.00     0.137 HD
ENDBRANCH  24  27
ENDBRANCH  19  24
ENDBRANCH  14  18
BRANCH  16  30
ATOM     30  C   UNL A   1      41.875  32.616  35.391  1.00  0.00     0.000 A 
ATOM     31  C   UNL A   1      42.577  31.943  34.386  1.00  0.00     0.010 A 
ATOM     32  C   UNL A   1      42.412  32.680  36.683  1.00  0.00     0.010 A 
ATOM     33  C   UNL A   1      43.797  31.332  34.671  1.00  0.00     0.001 A 
ATOM     34  C   UNL A   1      43.631  32.063  36.967  1.00  0.00     0.001 A 
ATOM     35  C   UNL A   1      44.322  31.391  35.961  1.00  0.00     0.000 A 
ENDBRANCH  16  30
ENDBRANCH  10  13
ENDBRANCH   8   9
ENDBRANCH   7   8
ENDBRANCH   6   7
ENDBRANCH   5   6
ENDBRANCH   4   5
ENDBRANCH   3   4
ENDBRANCH   2   3
ENDBRANCH   1   2
BRANCH   1  36
ATOM     36  C   UNL A   1      42.188  28.198  35.031  1.00  0.00     0.010 C 
BRANCH  36  37
ATOM     37  C   UNL A   1      42.215  27.117  36.109  1.00  0.00     0.100 C 
BRANCH  37  38
ATOM     38  C   UNL A   1      41.856  25.734  35.601  1.00  0.00     0.219 C 
ATOM     39  O   UNL A   1      40.697  25.322  35.703  1.00  0.00    -0.275 OA
ATOM     40  N   UNL A   1      42.783  24.903  35.047  1.00  0.00    -0.356 N 
ATOM     41  H   UNL A   1      42.404  24.091  34.639  1.00  0.00     0.163 HD
BRANCH  40  42
ATOM     42  C   UNL A   1      44.231  24.997  34.950  1.00  0.00     0.116 C 
BRANCH  42  43
ATOM     43  C   UNL A   1      44.926  23.970  35.872  1.00  0.00     0.023 C 
BRANCH  43  44
ATOM     44  C   UNL A   1      45.332  24.443  37.271  1.00  0.00     0.023 C 
BRANCH  44  45
ATOM     45  C   UNL A   1      46.602  25.272  37.306  1.00  0.00     0.116 C 
BRANCH  45  46
ATOM     46  N   UNL A   1      46.517  26.460  38.173  1.00  0.00    -0.352 N 
ATOM     47  C   UNL A   1      46.942  27.747  37.860  1.00  0.00     0.251 C 
ATOM     48  H   UNL A   1      46.118  26.330  39.064  1.00  0.00     0.163 HD
ATOM     49  O   UNL A   1      47.187  28.581  38.720  1.00  0.00    -0.269 OA
BRANCH  47  50
ATOM     50  C   UNL A   1      47.024  28.080  36.431  1.00  0.00     0.039 A 
ATOM     51  C   UNL A   1      48.216  28.105  35.699  1.00  0.00     0.014 A 
ATOM     52  C   UNL A   1      45.788  28.221  35.814  1.00  0.00     0.014 A 
ATOM     53  C   UNL A   1      48.131  28.204  34.311  1.00  0.00     0.010 A 
ATOM     54  C   UNL A   1      45.712  28.023  34.473  1.00  0.00     0.010 A 
ATOM     55  C   UNL A   1      46.864  28.151  33.713  1.00  0.00    -0.014 A 
BRANCH  55  56
ATOM     56  C   UNL A   1      46.648  28.154  32.277  1.00  0.00     0.031 A 
ATOM     57  C   UNL A   1      45.979  29.378  31.765  1.00  0.00     0.074 A 
ATOM     58  C   UNL A   1      47.290  27.257  31.492  1.00  0.00     0.049 A 
ATOM     59  N   UNL A   1      44.782  29.478  31.294  1.00  0.00    -0.248 NA
ATOM     60  C   UNL A   1      46.642  30.677  31.969  1.00  0.00     0.031 C 
ATOM     61  C   UNL A   1      48.280  26.235  31.881  1.00  0.00     0.029 A 
ATOM     62  N   UNL A   1      47.317  27.174  30.140  1.00  0.00    -0.354 N 
ATOM     63  C   UNL A   1      44.643  30.806  30.895  1.00  0.00     0.074 A 
ATOM     64  C   UNL A   1      45.693  31.524  31.564  1.00  0.00     0.031 C 
ATOM     65  C   UNL A   1      48.984  25.846  30.795  1.00  0.00     0.029 A 
ATOM     66  C   UNL A   1      48.382  26.443  29.620  1.00  0.00     0.049 A 
ATOM     67  H   UNL A   1      46.635  27.595  29.569  1.00  0.00     0.167 HD
ATOM     68  C   UNL A   1      43.855  31.138  29.832  1.00  0.00     0.034 A 
ATOM     69  C   UNL A   1      48.764  26.387  28.319  1.00  0.00     0.034 A 
ATOM     70  C   UNL A   1      43.039  30.010  29.442  1.00  0.00     0.049 A 
ATOM     71  C   UNL A   1      47.600  26.834  27.517  1.00  0.00     0.074 A 
ATOM     72  C   UNL A   1      42.078  29.235  30.061  1.00  0.00     0.029 A 
ATOM     73  N   UNL A   1      43.489  29.271  28.372  1.00  0.00    -0.354 N 
ATOM     74  N   UNL A   1      46.469  26.183  27.481  1.00  0.00    -0.248 NA
ATOM     75  C   UNL A   1      47.523  28.247  27.181  1.00  0.00     0.031 C 
ATOM     76  C   UNL A   1      42.358  27.902  29.633  1.00  0.00     0.029 A 
ATOM     77  C   UNL A   1      43.406  27.946  28.711  1.00  0.00     0.049 A 
ATOM     78  H   UNL A   1      43.814  29.630  27.515  1.00  0.00     0.167 HD
ATOM     79  C   UNL A   1      45.500  27.173  27.588  1.00  0.00     0.074 A 
ATOM     80  C   UNL A   1      46.204  28.427  27.306  1.00  0.00     0.031 C 
ATOM     81  C   UNL A   1      44.303  26.929  28.203  1.00  0.00     0.034 A 
BRANCH  68  82
ATOM     82  C   UNL A   1      44.071  32.298  28.875  1.00  0.00     0.023 A 
ATOM     83  C   UNL A   1      45.293  32.301  28.159  1.00  0.00     0.012 A 
ATOM     84  C   UNL A   1      43.316  33.492  28.835  1.00  0.00     0.148 A 
ATOM     85  C   UNL A   1      45.786  33.452  27.535  1.00  0.00     0.002 A 
ATOM     86  C   UNL A   1      43.783  34.619  28.163  1.00  0.00     0.091 A 
ATOM     87  F   UNL A   1      42.186  33.602  29.532  1.00  0.00    -0.205 F 
ATOM     88  C   UNL A   1      45.033  34.615  27.544  1.00  0.00     0.022 A 
BRANCH  86  89
ATOM     89  S   UNL A   1      42.839  36.152  28.110  1.00  0.00     0.127 S 
ATOM     90  O   UNL A   1      42.941  36.604  29.494  1.00  0.00    -0.237 OA
ATOM     91  O   UNL A   1      43.604  36.937  27.142  1.00  0.00    -0.237 OA
ATOM     92  O   UNL A   1      41.504  35.780  27.657  1.00  0.00    -0.744 OA
ENDBRANCH  86  89
ENDBRANCH  68  82
BRANCH  69  93
ATOM     93  C   UNL A   1      50.129  26.287  27.745  1.00  0.00     0.023 A 
ATOM     94  C   UNL A   1      50.480  25.190  26.932  1.00  0.00     0.012 A 
ATOM     95  C   UNL A   1      50.997  27.403  27.761  1.00  0.00     0.148 A 
ATOM     96  C   UNL A   1      51.639  25.216  26.142  1.00  0.00     0.002 A 
ATOM     97  C   UNL A   1      52.150  27.422  26.980  1.00  0.00     0.091 A 
ATOM     98  F   UNL A   1      50.640  28.484  28.468  1.00  0.00    -0.205 F 
ATOM     99  C   UNL A   1      52.470  26.334  26.160  1.00  0.00     0.022 A 
BRANCH  97 100
ATOM    100  S   UNL A   1      53.249  28.845  26.936  1.00  0.00     0.127 S 
ATOM    101  O   UNL A   1      54.262  28.414  25.972  1.00  0.00    -0.237 OA
ATOM    102  O   UNL A   1      52.358  29.899  26.460  1.00  0.00    -0.237 OA
ATOM    103  O   UNL A   1      53.747  29.004  28.297  1.00  0.00    -0.744 OA
ENDBRANCH  97 100
ENDBRANCH  69  93
BRANCH  81 104
ATOM    104  C   UNL A   1      43.978  25.506  28.593  1.00  0.00     0.023 A 
ATOM    105  C   UNL A   1      44.312  24.961  29.854  1.00  0.00     0.012 A 
ATOM    106  C   UNL A   1      43.147  24.765  27.740  1.00  0.00     0.148 A 
ATOM    107  C   UNL A   1      43.840  23.703  30.244  1.00  0.00     0.002 A 
ATOM    108  C   UNL A   1      42.643  23.536  28.149  1.00  0.00     0.091 A 
ATOM    109  F   UNL A   1      42.830  25.298  26.551  1.00  0.00    -0.205 F 
ATOM    110  C   UNL A   1      42.993  22.996  29.396  1.00  0.00     0.022 A 
BRANCH 108 111
ATOM    111  S   UNL A   1      41.449  22.641  27.155  1.00  0.00     0.127 S 
ATOM    112  O   UNL A   1      42.255  22.234  26.006  1.00  0.00    -0.237 OA
ATOM    113  O   UNL A   1      41.056  21.547  28.046  1.00  0.00    -0.237 OA
ATOM    114  O   UNL A   1      40.377  23.585  26.866  1.00  0.00    -0.744 OA
ENDBRANCH 108 111
ENDBRANCH  81 104
ENDBRANCH  55  56
ENDBRANCH  47  50
ENDBRANCH  45  46
ENDBRANCH  44  45
ENDBRANCH  43  44
ENDBRANCH  42  43
ENDBRANCH  40  42
ENDBRANCH  37  38
ENDBRANCH  36  37
ENDBRANCH   1  36
TORSDOF 29
ENDMDL
MODEL 3
REMARK VINA RESULT:      -7.9      4.959     10.356
REMARK SMILES NS(=O)(=O)c1ccc(-n2nc(C(=O)NCCCCCCCCCCC(=O)NCCCCNC(=O)c3ccc(-c4c5nc(c(-c6cccc(S(=O)(=O)[O-])c6F)c6ccc([nH]6)c(-c6cccc(S(=O)(=O)[O-])c6F)c6nc(c(-c7cccc(S(=O)(=O)[O-])c7F)c7ccc4[nH]7)C=C6)C=C5)cc3)cc2-c2ccccc2)cc1
REMARK SMILES IDX 22 1 21 2 20 3 19 4 18 5 17 6 16 7 15 8 14 9 12 10 13 11
REMARK SMILES IDX 11 13 9 14 10 15 99 16 98 17 8 18 5 19 6 20 107 21 7 22
REMARK SMILES IDX 106 23 2 24 3 25 4 26 1 27 100 30 101 31 105 32 102 33
REMARK SMILES IDX 104 34 103 35 23 36 24 37 25 38 26 39 27 40 28 42 29 43
REMARK SMILES IDX 30 44 31 45 32 46 33 47 34 49 35 50 36 51 97 52 37 53 96 54
REMARK SMILES IDX 38 55 39 56 40 57 90 58 41 59 95 60 89 61 91 62 42 63 94 64
REMARK SMILES IDX 88 65 87 66 43 68 75 69 55 70 74 71 56 72 59 73 73 74 92 75
REMARK SMILES IDX 57 76 58 77 72 79 93 80 60 81 44 82 45 83 53 84 46 85 48 86
REMARK SMILES IDX 54 87 47 88 49 89 50 90 51 91 52 92 76 93 77 94 85 95 78 96
REMARK SMILES IDX 80 97 86 98 79 99 81 100 82 101 83 102 84 103 61 104 62 105
REMARK SMILES IDX 70 106 63 107 65 108 71 109 64 110 66 111 67 112 68 113
REMARK SMILES IDX 69 114
REMARK H PARENT 14 12 1 28 1 29 27 41 32 48 91 67 59 78
REMARK Flexibility Score: inf
ROOT
ATOM      1  C   UNL A   1      40.814  29.700  33.007  1.00  0.00     0.001 C 
ENDROOT
BRANCH   1   2
ATOM      2  C   UNL A   1      40.245  28.402  32.427  1.00  0.00     0.000 C 
BRANCH   2   3
ATOM      3  C   UNL A   1      40.728  28.156  31.005  1.00  0.00     0.000 C 
BRANCH   3   4
ATOM      4  C   UNL A   1      39.707  27.388  30.164  1.00  0.00     0.000 C 
BRANCH   4   5
ATOM      5  C   UNL A   1      39.237  28.156  28.922  1.00  0.00     0.000 C 
BRANCH   5   6
ATOM      6  C   UNL A   1      39.660  27.500  27.601  1.00  0.00     0.002 C 
BRANCH   6   7
ATOM      7  C   UNL A   1      39.910  25.994  27.729  1.00  0.00     0.021 C 
BRANCH   7   8
ATOM      8  C   UNL A   1      40.005  25.326  26.359  1.00  0.00     0.116 C 
BRANCH   8   9
ATOM      9  N   UNL A   1      40.449  23.965  26.506  1.00  0.00    -0.351 N 
ATOM     10  C   UNL A   1      39.777  22.773  26.442  1.00  0.00     0.271 C 
ATOM     11  O   UNL A   1      40.452  21.760  26.648  1.00  0.00    -0.267 OA
ATOM     12  H   UNL A   1      41.413  23.875  26.686  1.00  0.00     0.163 HD
BRANCH  10  13
ATOM     13  C   UNL A   1      38.348  22.713  26.072  1.00  0.00     0.151 A 
ATOM     14  N   UNL A   1      36.563  21.780  25.336  1.00  0.00    -0.232 N 
ATOM     15  N   UNL A   1      37.762  21.516  25.885  1.00  0.00    -0.162 NA
ATOM     16  C   UNL A   1      36.299  23.134  25.268  1.00  0.00     0.075 A 
ATOM     17  C   UNL A   1      37.386  23.732  25.867  1.00  0.00     0.065 A 
BRANCH  14  18
ATOM     18  C   UNL A   1      35.721  20.719  24.945  1.00  0.00     0.065 A 
ATOM     19  C   UNL A   1      34.064  18.574  24.413  1.00  0.00     0.082 A 
ATOM     20  C   UNL A   1      33.517  19.857  24.510  1.00  0.00     0.024 A 
ATOM     21  C   UNL A   1      35.440  18.362  24.544  1.00  0.00     0.024 A 
ATOM     22  C   UNL A   1      34.347  20.935  24.796  1.00  0.00     0.030 A 
ATOM     23  C   UNL A   1      36.281  19.448  24.775  1.00  0.00     0.030 A 
BRANCH  19  24
ATOM     24  S   UNL A   1      32.993  17.188  24.206  1.00  0.00     0.238 S 
ATOM     25  O   UNL A   1      31.832  17.356  25.063  1.00  0.00    -0.207 OA
ATOM     26  O   UNL A   1      33.780  15.988  24.183  1.00  0.00    -0.207 OA
BRANCH  24  27
ATOM     27  N   UNL A   1      32.398  17.393  22.645  1.00  0.00    -0.225 NA
ATOM     28  H   UNL A   1      31.499  16.920  22.558  1.00  0.00     0.137 HD
ATOM     29  H   UNL A   1      33.057  16.996  21.975  1.00  0.00     0.137 HD
ENDBRANCH  24  27
ENDBRANCH  19  24
ENDBRANCH  14  18
BRANCH  16  30
ATOM     30  C   UNL A   1      35.062  23.759  24.822  1.00  0.00     0.000 A 
ATOM     31  C   UNL A   1      34.826  23.969  23.459  1.00  0.00     0.010 A 
ATOM     32  C   UNL A   1      34.083  24.121  25.755  1.00  0.00     0.010 A 
ATOM     33  C   UNL A   1      33.628  24.544  23.036  1.00  0.00     0.001 A 
ATOM     34  C   UNL A   1      32.888  24.701  25.329  1.00  0.00     0.001 A 
ATOM     35  C   UNL A   1      32.662  24.911  23.970  1.00  0.00     0.000 A 
ENDBRANCH  16  30
ENDBRANCH  10  13
ENDBRANCH   8   9
ENDBRANCH   7   8
ENDBRANCH   6   7
ENDBRANCH   5   6
ENDBRANCH   4   5
ENDBRANCH   3   4
ENDBRANCH   2   3
ENDBRANCH   1   2
BRANCH   1  36
ATOM     36  C   UNL A   1      39.762  30.745  33.337  1.00  0.00     0.010 C 
BRANCH  36  37
ATOM     37  C   UNL A   1      39.517  30.963  34.828  1.00  0.00     0.100 C 
BRANCH  37  38
ATOM     38  C   UNL A   1      38.600  32.131  35.137  1.00  0.00     0.219 C 
ATOM     39  O   UNL A   1      37.378  31.963  35.171  1.00  0.00    -0.275 OA
ATOM     40  N   UNL A   1      39.079  33.387  35.361  1.00  0.00    -0.356 N 
ATOM     41  H   UNL A   1      38.401  34.026  35.679  1.00  0.00     0.163 HD
BRANCH  40  42
ATOM     42  C   UNL A   1      40.410  33.955  35.215  1.00  0.00     0.116 C 
BRANCH  42  43
ATOM     43  C   UNL A   1      40.478  34.933  34.021  1.00  0.00     0.023 C 
BRANCH  43  44
ATOM     44  C   UNL A   1      39.896  34.456  32.687  1.00  0.00     0.023 C 
BRANCH  44  45
ATOM     45  C   UNL A   1      40.932  33.970  31.692  1.00  0.00     0.116 C 
BRANCH  45  46
ATOM     46  N   UNL A   1      41.818  35.032  31.184  1.00  0.00    -0.352 N 
ATOM     47  C   UNL A   1      43.148  34.891  30.803  1.00  0.00     0.251 C 
ATOM     48  H   UNL A   1      41.428  35.933  31.106  1.00  0.00     0.163 HD
ATOM     49  O   UNL A   1      43.917  35.840  30.750  1.00  0.00    -0.269 OA
BRANCH  47  50
ATOM     50  C   UNL A   1      43.575  33.542  30.401  1.00  0.00     0.039 A 
ATOM     51  C   UNL A   1      43.848  33.168  29.081  1.00  0.00     0.014 A 
ATOM     52  C   UNL A   1      43.840  32.695  31.468  1.00  0.00     0.014 A 
ATOM     53  C   UNL A   1      44.467  31.937  28.864  1.00  0.00     0.010 A 
ATOM     54  C   UNL A   1      44.692  31.656  31.268  1.00  0.00     0.010 A 
ATOM     55  C   UNL A   1      44.892  31.198  29.976  1.00  0.00    -0.014 A 
BRANCH  55  56
ATOM     56  C   UNL A   1      45.626  29.948  29.881  1.00  0.00     0.031 A 
ATOM     57  C   UNL A   1      44.783  28.771  29.550  1.00  0.00     0.074 A 
ATOM     58  C   UNL A   1      46.978  29.958  29.799  1.00  0.00     0.049 A 
ATOM     59  N   UNL A   1      44.477  27.784  30.323  1.00  0.00    -0.248 NA
ATOM     60  C   UNL A   1      44.039  28.776  28.279  1.00  0.00     0.031 C 
ATOM     61  C   UNL A   1      47.887  31.119  29.736  1.00  0.00     0.029 A 
ATOM     62  N   UNL A   1      47.826  28.925  29.586  1.00  0.00    -0.354 N 
ATOM     63  C   UNL A   1      43.720  26.913  29.541  1.00  0.00     0.074 A 
ATOM     64  C   UNL A   1      43.278  27.687  28.414  1.00  0.00     0.031 C 
ATOM     65  C   UNL A   1      49.083  30.733  29.240  1.00  0.00     0.029 A 
ATOM     66  C   UNL A   1      49.088  29.289  29.123  1.00  0.00     0.049 A 
ATOM     67  H   UNL A   1      47.571  27.988  29.748  1.00  0.00     0.167 HD
ATOM     68  C   UNL A   1      43.766  25.565  29.751  1.00  0.00     0.034 A 
ATOM     69  C   UNL A   1      50.040  28.456  28.630  1.00  0.00     0.034 A 
ATOM     70  C   UNL A   1      44.433  25.276  31.001  1.00  0.00     0.049 A 
ATOM     71  C   UNL A   1      49.695  27.094  29.105  1.00  0.00     0.074 A 
ATOM     72  C   UNL A   1      44.210  25.592  32.327  1.00  0.00     0.029 A 
ATOM     73  N   UNL A   1      45.757  24.910  30.917  1.00  0.00    -0.354 N 
ATOM     74  N   UNL A   1      49.691  26.760  30.368  1.00  0.00    -0.248 NA
ATOM     75  C   UNL A   1      48.870  26.272  28.235  1.00  0.00     0.031 C 
ATOM     76  C   UNL A   1      45.506  25.873  32.854  1.00  0.00     0.029 A 
ATOM     77  C   UNL A   1      46.451  25.625  31.857  1.00  0.00     0.049 A 
ATOM     78  H   UNL A   1      46.137  24.251  30.293  1.00  0.00     0.167 HD
ATOM     79  C   UNL A   1      48.527  26.018  30.523  1.00  0.00     0.074 A 
ATOM     80  C   UNL A   1      48.112  25.672  29.160  1.00  0.00     0.031 C 
ATOM     81  C   UNL A   1      47.835  26.023  31.702  1.00  0.00     0.034 A 
BRANCH  68  82
ATOM     82  C   UNL A   1      43.599  24.481  28.700  1.00  0.00     0.023 A 
ATOM     83  C   UNL A   1      42.859  23.339  29.090  1.00  0.00     0.012 A 
ATOM     84  C   UNL A   1      44.329  24.377  27.494  1.00  0.00     0.148 A 
ATOM     85  C   UNL A   1      42.926  22.133  28.383  1.00  0.00     0.002 A 
ATOM     86  C   UNL A   1      44.347  23.192  26.762  1.00  0.00     0.091 A 
ATOM     87  F   UNL A   1      45.105  25.378  27.083  1.00  0.00    -0.205 F 
ATOM     88  C   UNL A   1      43.677  22.057  27.222  1.00  0.00     0.022 A 
BRANCH  86  89
ATOM     89  S   UNL A   1      45.277  23.038  25.228  1.00  0.00     0.127 S 
ATOM     90  O   UNL A   1      44.856  21.719  24.764  1.00  0.00    -0.237 OA
ATOM     91  O   UNL A   1      44.757  24.164  24.452  1.00  0.00    -0.237 OA
ATOM     92  O   UNL A   1      46.680  23.165  25.600  1.00  0.00    -0.744 OA
ENDBRANCH  86  89
ENDBRANCH  68  82
BRANCH  69  93
ATOM     93  C   UNL A   1      51.019  28.690  27.541  1.00  0.00     0.023 A 
ATOM     94  C   UNL A   1      50.594  28.721  26.197  1.00  0.00     0.012 A 
ATOM     95  C   UNL A   1      52.317  29.165  27.834  1.00  0.00     0.148 A 
ATOM     96  C   UNL A   1      51.422  29.230  25.186  1.00  0.00     0.002 A 
ATOM     97  C   UNL A   1      53.139  29.666  26.827  1.00  0.00     0.091 A 
ATOM     98  F   UNL A   1      52.708  29.216  29.114  1.00  0.00    -0.205 F 
ATOM     99  C   UNL A   1      52.691  29.710  25.502  1.00  0.00     0.022 A 
BRANCH  97 100
ATOM    100  S   UNL A   1      54.776  30.326  27.171  1.00  0.00     0.127 S 
ATOM    101  O   UNL A   1      54.469  31.454  28.051  1.00  0.00    -0.237 OA
ATOM    102  O   UNL A   1      55.425  29.195  27.828  1.00  0.00    -0.237 OA
ATOM    103  O   UNL A   1      55.329  30.709  25.877  1.00  0.00    -0.744 OA
ENDBRANCH  97 100
ENDBRANCH  69  93
BRANCH  81 104
ATOM    104  C   UNL A   1      48.466  26.700  32.897  1.00  0.00     0.023 A 
ATOM    105  C   UNL A   1      48.338  28.084  33.151  1.00  0.00     0.012 A 
ATOM    106  C   UNL A   1      49.037  25.885  33.886  1.00  0.00     0.148 A 
ATOM    107  C   UNL A   1      48.784  28.641  34.355  1.00  0.00     0.002 A 
ATOM    108  C   UNL A   1      49.437  26.434  35.098  1.00  0.00     0.091 A 
ATOM    109  F   UNL A   1      49.144  24.572  33.636  1.00  0.00    -0.205 F 
ATOM    110  C   UNL A   1      49.321  27.812  35.335  1.00  0.00     0.022 A 
BRANCH 108 111
ATOM    111  S   UNL A   1      50.018  25.400  36.443  1.00  0.00     0.127 S 
ATOM    112  O   UNL A   1      50.420  26.392  37.437  1.00  0.00    -0.237 OA
ATOM    113  O   UNL A   1      48.818  24.635  36.792  1.00  0.00    -0.237 OA
ATOM    114  O   UNL A   1      51.097  24.591  35.892  1.00  0.00    -0.744 OA
ENDBRANCH 108 111
ENDBRANCH  81 104
ENDBRANCH  55  56
ENDBRANCH  47  50
ENDBRANCH  45  46
ENDBRANCH  44  45
ENDBRANCH  43  44
ENDBRANCH  42  43
ENDBRANCH  40  42
ENDBRANCH  37  38
ENDBRANCH  36  37
ENDBRANCH   1  36
TORSDOF 29
ENDMDL
