MODEL 1
REMARK VINA RESULT:     -13.2      0.000      0.000
REMARK SMILES O=C(CCN1C(=O)S/C(=C\c2ccc(F)cc2)C1=O)Nc1ccc(O)cc1C(=O)NCCCCNC(=O)c1ccc(-c2c3nc(c(-c4cccc(S(=O)(=O)[O-])c4F)c4ccc([nH]4)c(-c4cccc(S(=O)(=O)[O-])c4F)c4nc(c(-c5cccc(S(=O)(=O)[O-])c5F)c5ccc2[nH]5)C=C4)C=C3)cc1
REMARK SMILES IDX 31 1 30 2 28 3 29 4 27 6 21 7 22 8 23 9 26 10 24 11 20 12
REMARK SMILES IDX 1 13 2 14 3 16 4 17 5 18 6 19 18 20 7 21 8 22 9 23 19 24
REMARK SMILES IDX 10 25 11 26 12 27 17 28 13 29 16 30 14 31 15 32 25 33 32 35
REMARK SMILES IDX 33 36 34 37 35 38 36 39 37 41 38 42 39 43 100 44 40 45 99 46
REMARK SMILES IDX 41 47 42 48 43 49 93 50 44 51 98 52 92 53 94 54 45 55 97 56
REMARK SMILES IDX 91 57 90 58 46 60 78 61 58 62 77 63 59 64 62 65 76 66 95 67
REMARK SMILES IDX 60 68 61 69 75 71 96 72 63 73 47 74 48 75 56 76 49 77 51 78
REMARK SMILES IDX 57 79 50 80 52 81 53 82 54 83 55 84 79 85 80 86 88 87 81 88
REMARK SMILES IDX 83 89 89 90 82 91 84 92 85 93 86 94 87 95 64 96 65 97 73 98
REMARK SMILES IDX 66 99 68 100 74 101 67 102 69 103 70 104 71 105 72 106
REMARK H PARENT 30 5 20 15 25 34 35 40 94 59 62 70
REMARK Flexibility Score: inf
ROOT
ATOM      1  C   UNL A   1      31.632  26.361  26.194  1.00  0.00     0.116 C 
ENDROOT
BRANCH   1   2
ATOM      2  N   UNL A   1      30.665  25.634  25.360  1.00  0.00    -0.352 N 
ATOM      3  C   UNL A   1      29.901  25.962  24.254  1.00  0.00     0.253 C 
ATOM      4  O   UNL A   1      29.201  25.080  23.753  1.00  0.00    -0.269 OA
ATOM      5  H   UNL A   1      30.530  24.704  25.654  1.00  0.00     0.163 HD
BRANCH   3   6
ATOM      6  C   UNL A   1      29.861  27.310  23.610  1.00  0.00     0.067 A 
ATOM      7  C   UNL A   1      30.983  27.989  23.110  1.00  0.00     0.054 A 
ATOM      8  C   UNL A   1      30.842  29.287  22.591  1.00  0.00     0.031 A 
ATOM      9  C   UNL A   1      29.580  29.863  22.443  1.00  0.00     0.048 A 
ATOM     10  C   UNL A   1      28.589  27.880  23.407  1.00  0.00     0.062 A 
ATOM     11  C   UNL A   1      28.459  29.135  22.815  1.00  0.00     0.116 A 
BRANCH   7  12
ATOM     12  N   UNL A   1      32.194  27.298  22.940  1.00  0.00    -0.325 N 
ATOM     13  O   UNL A   1      31.702  26.008  21.092  1.00  0.00    -0.275 OA
ATOM     14  C   UNL A   1      32.451  26.312  22.017  1.00  0.00     0.226 C 
ATOM     15  H   UNL A   1      32.933  27.544  23.541  1.00  0.00     0.169 HD
BRANCH  14  16
ATOM     16  C   UNL A   1      33.754  25.570  22.242  1.00  0.00     0.122 C 
BRANCH  16  17
ATOM     17  C   UNL A   1      34.006  25.108  23.671  1.00  0.00     0.140 C 
BRANCH  17  18
ATOM     18  N   UNL A   1      34.140  23.659  23.917  1.00  0.00    -0.268 N 
ATOM     19  C   UNL A   1      35.252  23.127  24.507  1.00  0.00     0.293 C 
ATOM     20  C   UNL A   1      33.065  22.807  23.904  1.00  0.00     0.268 C 
ATOM     21  O   UNL A   1      36.244  23.746  24.864  1.00  0.00    -0.261 OA
ATOM     22  S   UNL A   1      35.064  21.386  24.739  1.00  0.00    -0.022 SA
ATOM     23  C   UNL A   1      33.443  21.412  24.201  1.00  0.00     0.083 C 
ATOM     24  O   UNL A   1      31.910  23.143  23.726  1.00  0.00    -0.268 OA
ATOM     25  C   UNL A   1      32.554  20.425  24.012  1.00  0.00     0.029 C 
BRANCH  25  26
ATOM     26  C   UNL A   1      32.728  18.992  24.242  1.00  0.00    -0.024 A 
ATOM     27  C   UNL A   1      33.157  18.152  23.210  1.00  0.00     0.011 A 
ATOM     28  C   UNL A   1      32.568  18.475  25.535  1.00  0.00     0.011 A 
ATOM     29  C   UNL A   1      33.387  16.797  23.459  1.00  0.00     0.040 A 
ATOM     30  C   UNL A   1      32.793  17.119  25.783  1.00  0.00     0.040 A 
ATOM     31  C   UNL A   1      33.194  16.292  24.740  1.00  0.00     0.123 A 
ATOM     32  F   UNL A   1      33.406  14.991  24.976  1.00  0.00    -0.207 F 
ENDBRANCH  25  26
ENDBRANCH  17  18
ENDBRANCH  16  17
ENDBRANCH  14  16
ENDBRANCH   7  12
BRANCH  11  33
ATOM     33  O   UNL A   1      27.204  29.621  22.598  1.00  0.00    -0.508 OA
ATOM     34  H   UNL A   1      26.455  29.114  22.843  1.00  0.00     0.293 HD
ENDBRANCH  11  33
ENDBRANCH   3   6
ENDBRANCH   1   2
BRANCH   1  35
ATOM     35  C   UNL A   1      31.123  27.661  26.870  1.00  0.00     0.023 C 
BRANCH  35  36
ATOM     36  C   UNL A   1      31.627  29.164  26.873  1.00  0.00     0.023 C 
BRANCH  36  37
ATOM     37  C   UNL A   1      32.657  29.989  26.059  1.00  0.00     0.116 C 
BRANCH  37  38
ATOM     38  N   UNL A   1      32.688  31.409  26.375  1.00  0.00    -0.352 N 
ATOM     39  C   UNL A   1      33.307  32.086  27.402  1.00  0.00     0.251 C 
ATOM     40  H   UNL A   1      32.183  31.980  25.751  1.00  0.00     0.163 HD
ATOM     41  O   UNL A   1      32.883  33.160  27.815  1.00  0.00    -0.269 OA
BRANCH  39  42
ATOM     42  C   UNL A   1      34.631  31.606  27.834  1.00  0.00     0.039 A 
ATOM     43  C   UNL A   1      35.716  32.475  27.940  1.00  0.00     0.014 A 
ATOM     44  C   UNL A   1      34.778  30.239  28.100  1.00  0.00     0.014 A 
ATOM     45  C   UNL A   1      36.924  31.989  28.448  1.00  0.00     0.010 A 
ATOM     46  C   UNL A   1      35.969  29.765  28.632  1.00  0.00     0.010 A 
ATOM     47  C   UNL A   1      37.036  30.645  28.853  1.00  0.00    -0.014 A 
BRANCH  47  48
ATOM     48  C   UNL A   1      38.198  30.184  29.650  1.00  0.00     0.031 A 
ATOM     49  C   UNL A   1      38.442  30.687  31.040  1.00  0.00     0.074 A 
ATOM     50  C   UNL A   1      39.096  29.380  29.046  1.00  0.00     0.049 A 
ATOM     51  N   UNL A   1      39.411  30.381  31.863  1.00  0.00    -0.248 NA
ATOM     52  C   UNL A   1      37.493  31.679  31.571  1.00  0.00     0.031 C 
ATOM     53  C   UNL A   1      39.007  28.919  27.657  1.00  0.00     0.029 A 
ATOM     54  N   UNL A   1      40.260  28.818  29.504  1.00  0.00    -0.354 N 
ATOM     55  C   UNL A   1      39.198  31.143  33.003  1.00  0.00     0.074 A 
ATOM     56  C   UNL A   1      38.033  31.963  32.750  1.00  0.00     0.031 C 
ATOM     57  C   UNL A   1      40.049  28.120  27.388  1.00  0.00     0.029 A 
ATOM     58  C   UNL A   1      40.897  28.031  28.571  1.00  0.00     0.049 A 
ATOM     59  H   UNL A   1      40.606  28.962  30.415  1.00  0.00     0.167 HD
ATOM     60  C   UNL A   1      39.893  31.133  34.166  1.00  0.00     0.034 A 
ATOM     61  C   UNL A   1      42.029  27.308  28.663  1.00  0.00     0.034 A 
ATOM     62  C   UNL A   1      41.039  30.296  34.402  1.00  0.00     0.049 A 
ATOM     63  C   UNL A   1      42.761  27.282  29.976  1.00  0.00     0.074 A 
ATOM     64  C   UNL A   1      41.777  30.156  35.564  1.00  0.00     0.029 A 
ATOM     65  N   UNL A   1      41.619  29.461  33.458  1.00  0.00    -0.354 N 
ATOM     66  N   UNL A   1      42.459  27.894  31.095  1.00  0.00    -0.248 NA
ATOM     67  C   UNL A   1      43.965  26.443  30.054  1.00  0.00     0.031 C 
ATOM     68  C   UNL A   1      42.817  29.257  35.314  1.00  0.00     0.029 A 
ATOM     69  C   UNL A   1      42.709  28.809  34.006  1.00  0.00     0.049 A 
ATOM     70  H   UNL A   1      41.302  29.350  32.531  1.00  0.00     0.167 HD
ATOM     71  C   UNL A   1      43.413  27.492  32.021  1.00  0.00     0.074 A 
ATOM     72  C   UNL A   1      44.296  26.570  31.333  1.00  0.00     0.031 C 
ATOM     73  C   UNL A   1      43.548  27.859  33.318  1.00  0.00     0.034 A 
BRANCH  60  74
ATOM     74  C   UNL A   1      39.394  31.999  35.294  1.00  0.00     0.023 A 
ATOM     75  C   UNL A   1      38.491  31.457  36.233  1.00  0.00     0.012 A 
ATOM     76  C   UNL A   1      39.868  33.313  35.477  1.00  0.00     0.148 A 
ATOM     77  C   UNL A   1      38.040  32.216  37.312  1.00  0.00     0.002 A 
ATOM     78  C   UNL A   1      39.450  34.049  36.581  1.00  0.00     0.091 A 
ATOM     79  F   UNL A   1      40.713  33.821  34.569  1.00  0.00    -0.205 F 
ATOM     80  C   UNL A   1      38.528  33.507  37.491  1.00  0.00     0.022 A 
BRANCH  78  81
ATOM     81  S   UNL A   1      40.080  35.690  36.953  1.00  0.00     0.127 S 
ATOM     82  O   UNL A   1      39.613  36.453  35.795  1.00  0.00    -0.237 OA
ATOM     83  O   UNL A   1      39.395  36.006  38.206  1.00  0.00    -0.237 OA
ATOM     84  O   UNL A   1      41.524  35.551  37.065  1.00  0.00    -0.744 OA
ENDBRANCH  78  81
ENDBRANCH  60  74
BRANCH  61  85
ATOM     85  C   UNL A   1      42.457  26.468  27.507  1.00  0.00     0.023 A 
ATOM     86  C   UNL A   1      43.348  27.009  26.561  1.00  0.00     0.012 A 
ATOM     87  C   UNL A   1      42.069  25.119  27.393  1.00  0.00     0.148 A 
ATOM     88  C   UNL A   1      43.834  26.227  25.512  1.00  0.00     0.002 A 
ATOM     89  C   UNL A   1      42.600  24.330  26.378  1.00  0.00     0.091 A 
ATOM     90  F   UNL A   1      41.219  24.626  28.303  1.00  0.00    -0.205 F 
ATOM     91  C   UNL A   1      43.471  24.885  25.429  1.00  0.00     0.022 A 
BRANCH  89  92
ATOM     92  S   UNL A   1      42.306  22.560  26.274  1.00  0.00     0.127 S 
ATOM     93  O   UNL A   1      42.860  22.090  27.541  1.00  0.00    -0.237 OA
ATOM     94  O   UNL A   1      40.847  22.504  26.179  1.00  0.00    -0.237 OA
ATOM     95  O   UNL A   1      43.005  22.112  25.077  1.00  0.00    -0.744 OA
ENDBRANCH  89  92
ENDBRANCH  61  85
BRANCH  73  96
ATOM     96  C   UNL A   1      44.678  27.254  34.109  1.00  0.00     0.023 A 
ATOM     97  C   UNL A   1      45.925  27.905  34.155  1.00  0.00     0.012 A 
ATOM     98  C   UNL A   1      44.454  26.121  34.917  1.00  0.00     0.148 A 
ATOM     99  C   UNL A   1      46.939  27.430  34.985  1.00  0.00     0.002 A 
ATOM    100  C   UNL A   1      45.450  25.686  35.780  1.00  0.00     0.091 A 
ATOM    101  F   UNL A   1      43.263  25.510  34.843  1.00  0.00    -0.205 F 
ATOM    102  C   UNL A   1      46.696  26.333  35.809  1.00  0.00     0.022 A 
BRANCH 100 103
ATOM    103  S   UNL A   1      45.194  24.353  36.958  1.00  0.00     0.127 S 
ATOM    104  O   UNL A   1      46.491  24.298  37.631  1.00  0.00    -0.237 OA
ATOM    105  O   UNL A   1      44.101  24.874  37.779  1.00  0.00    -0.237 OA
ATOM    106  O   UNL A   1      44.854  23.177  36.169  1.00  0.00    -0.744 OA
ENDBRANCH 100 103
ENDBRANCH  73  96
ENDBRANCH  47  48
ENDBRANCH  39  42
ENDBRANCH  37  38
ENDBRANCH  36  37
ENDBRANCH  35  36
ENDBRANCH   1  35
TORSDOF 20
ENDMDL
MODEL 2
REMARK VINA RESULT:     -12.8      0.462      7.366
REMARK SMILES O=C(CCN1C(=O)S/C(=C\c2ccc(F)cc2)C1=O)Nc1ccc(O)cc1C(=O)NCCCCNC(=O)c1ccc(-c2c3nc(c(-c4cccc(S(=O)(=O)[O-])c4F)c4ccc([nH]4)c(-c4cccc(S(=O)(=O)[O-])c4F)c4nc(c(-c5cccc(S(=O)(=O)[O-])c5F)c5ccc2[nH]5)C=C4)C=C3)cc1
REMARK SMILES IDX 31 1 30 2 28 3 29 4 27 6 21 7 22 8 23 9 26 10 24 11 20 12
REMARK SMILES IDX 1 13 2 14 3 16 4 17 5 18 6 19 18 20 7 21 8 22 9 23 19 24
REMARK SMILES IDX 10 25 11 26 12 27 17 28 13 29 16 30 14 31 15 32 25 33 32 35
REMARK SMILES IDX 33 36 34 37 35 38 36 39 37 41 38 42 39 43 100 44 40 45 99 46
REMARK SMILES IDX 41 47 42 48 43 49 93 50 44 51 98 52 92 53 94 54 45 55 97 56
REMARK SMILES IDX 91 57 90 58 46 60 78 61 58 62 77 63 59 64 62 65 76 66 95 67
REMARK SMILES IDX 60 68 61 69 75 71 96 72 63 73 47 74 48 75 56 76 49 77 51 78
REMARK SMILES IDX 57 79 50 80 52 81 53 82 54 83 55 84 79 85 80 86 88 87 81 88
REMARK SMILES IDX 83 89 89 90 82 91 84 92 85 93 86 94 87 95 64 96 65 97 73 98
REMARK SMILES IDX 66 99 68 100 74 101 67 102 69 103 70 104 71 105 72 106
REMARK H PARENT 30 5 20 15 25 34 35 40 94 59 62 70
REMARK Flexibility Score: inf
ROOT
ATOM      1  C   UNL A   1      31.809  26.251  26.257  1.00  0.00     0.116 C 
ENDROOT
BRANCH   1   2
ATOM      2  N   UNL A   1      30.846  25.530  25.412  1.00  0.00    -0.352 N 
ATOM      3  C   UNL A   1      30.121  25.853  24.279  1.00  0.00     0.253 C 
ATOM      4  O   UNL A   1      29.412  24.978  23.778  1.00  0.00    -0.269 OA
ATOM      5  H   UNL A   1      30.680  24.611  25.723  1.00  0.00     0.163 HD
BRANCH   3   6
ATOM      6  C   UNL A   1      30.132  27.187  23.605  1.00  0.00     0.067 A 
ATOM      7  C   UNL A   1      31.285  27.829  23.127  1.00  0.00     0.054 A 
ATOM      8  C   UNL A   1      31.191  29.118  22.576  1.00  0.00     0.031 A 
ATOM      9  C   UNL A   1      29.948  29.719  22.376  1.00  0.00     0.048 A 
ATOM     10  C   UNL A   1      28.881  27.781  23.350  1.00  0.00     0.062 A 
ATOM     11  C   UNL A   1      28.800  29.025  22.727  1.00  0.00     0.116 A 
BRANCH   7  12
ATOM     12  N   UNL A   1      32.485  27.107  23.011  1.00  0.00    -0.325 N 
ATOM     13  O   UNL A   1      32.072  25.885  21.098  1.00  0.00    -0.275 OA
ATOM     14  C   UNL A   1      32.770  26.140  22.076  1.00  0.00     0.226 C 
ATOM     15  H   UNL A   1      33.192  27.314  23.663  1.00  0.00     0.169 HD
BRANCH  14  16
ATOM     16  C   UNL A   1      34.035  25.353  22.358  1.00  0.00     0.122 C 
BRANCH  16  17
ATOM     17  C   UNL A   1      34.213  24.893  23.799  1.00  0.00     0.140 C 
BRANCH  17  18
ATOM     18  N   UNL A   1      34.368  23.447  24.049  1.00  0.00    -0.268 N 
ATOM     19  C   UNL A   1      35.517  22.925  24.576  1.00  0.00     0.293 C 
ATOM     20  C   UNL A   1      33.298  22.590  24.110  1.00  0.00     0.268 C 
ATOM     21  O   UNL A   1      36.525  23.551  24.866  1.00  0.00    -0.261 OA
ATOM     22  S   UNL A   1      35.350  21.185  24.835  1.00  0.00    -0.022 SA
ATOM     23  C   UNL A   1      33.700  21.200  24.396  1.00  0.00     0.083 C 
ATOM     24  O   UNL A   1      32.133  22.920  24.000  1.00  0.00    -0.268 OA
ATOM     25  C   UNL A   1      32.805  20.208  24.271  1.00  0.00     0.029 C 
BRANCH  25  26
ATOM     26  C   UNL A   1      33.000  18.778  24.504  1.00  0.00    -0.024 A 
ATOM     27  C   UNL A   1      32.591  18.190  25.706  1.00  0.00     0.011 A 
ATOM     28  C   UNL A   1      33.502  17.970  23.474  1.00  0.00     0.011 A 
ATOM     29  C   UNL A   1      32.718  16.812  25.891  1.00  0.00     0.040 A 
ATOM     30  C   UNL A   1      33.633  16.593  23.661  1.00  0.00     0.040 A 
ATOM     31  C   UNL A   1      33.245  16.028  24.871  1.00  0.00     0.123 A 
ATOM     32  F   UNL A   1      33.376  14.707  25.052  1.00  0.00    -0.207 F 
ENDBRANCH  25  26
ENDBRANCH  17  18
ENDBRANCH  16  17
ENDBRANCH  14  16
ENDBRANCH   7  12
BRANCH  11  33
ATOM     33  O   UNL A   1      27.564  29.535  22.459  1.00  0.00    -0.508 OA
ATOM     34  H   UNL A   1      27.049  29.177  21.763  1.00  0.00     0.293 HD
ENDBRANCH  11  33
ENDBRANCH   3   6
ENDBRANCH   1   2
BRANCH   1  35
ATOM     35  C   UNL A   1      31.317  27.582  26.886  1.00  0.00     0.023 C 
BRANCH  35  36
ATOM     36  C   UNL A   1      31.572  29.110  26.555  1.00  0.00     0.023 C 
BRANCH  36  37
ATOM     37  C   UNL A   1      32.744  29.936  25.964  1.00  0.00     0.116 C 
BRANCH  37  38
ATOM     38  N   UNL A   1      32.741  31.346  26.326  1.00  0.00    -0.352 N 
ATOM     39  C   UNL A   1      33.333  32.001  27.382  1.00  0.00     0.251 C 
ATOM     40  H   UNL A   1      32.231  31.925  25.715  1.00  0.00     0.163 HD
ATOM     41  O   UNL A   1      32.882  33.052  27.824  1.00  0.00    -0.269 OA
BRANCH  39  42
ATOM     42  C   UNL A   1      34.663  31.536  27.814  1.00  0.00     0.039 A 
ATOM     43  C   UNL A   1      35.737  32.416  27.922  1.00  0.00     0.014 A 
ATOM     44  C   UNL A   1      34.825  30.170  28.078  1.00  0.00     0.014 A 
ATOM     45  C   UNL A   1      36.950  31.943  28.430  1.00  0.00     0.010 A 
ATOM     46  C   UNL A   1      36.020  29.708  28.610  1.00  0.00     0.010 A 
ATOM     47  C   UNL A   1      37.077  30.599  28.833  1.00  0.00    -0.014 A 
BRANCH  47  48
ATOM     48  C   UNL A   1      38.244  30.151  29.631  1.00  0.00     0.031 A 
ATOM     49  C   UNL A   1      39.219  29.148  29.095  1.00  0.00     0.074 A 
ATOM     50  C   UNL A   1      38.343  30.590  30.902  1.00  0.00     0.049 A 
ATOM     51  N   UNL A   1      40.286  28.656  29.668  1.00  0.00    -0.248 NA
ATOM     52  C   UNL A   1      38.954  28.606  27.752  1.00  0.00     0.031 C 
ATOM     53  C   UNL A   1      37.384  31.486  31.556  1.00  0.00     0.029 A 
ATOM     54  N   UNL A   1      39.275  30.340  31.876  1.00  0.00    -0.354 N 
ATOM     55  C   UNL A   1      40.816  27.743  28.767  1.00  0.00     0.074 A 
ATOM     56  C   UNL A   1      39.929  27.714  27.625  1.00  0.00     0.031 C 
ATOM     57  C   UNL A   1      37.795  31.737  32.807  1.00  0.00     0.029 A 
ATOM     58  C   UNL A   1      39.029  31.000  33.058  1.00  0.00     0.049 A 
ATOM     59  H   UNL A   1      40.049  29.745  31.742  1.00  0.00     0.167 HD
ATOM     60  C   UNL A   1      41.959  27.022  28.872  1.00  0.00     0.034 A 
ATOM     61  C   UNL A   1      39.726  31.022  34.210  1.00  0.00     0.034 A 
ATOM     62  C   UNL A   1      42.836  27.080  30.011  1.00  0.00     0.049 A 
ATOM     63  C   UNL A   1      41.011  30.245  34.288  1.00  0.00     0.074 A 
ATOM     64  C   UNL A   1      44.052  26.445  30.193  1.00  0.00     0.029 A 
ATOM     65  N   UNL A   1      42.591  27.811  31.165  1.00  0.00    -0.354 N 
ATOM     66  N   UNL A   1      41.577  29.504  33.366  1.00  0.00    -0.248 NA
ATOM     67  C   UNL A   1      41.770  30.332  35.542  1.00  0.00     0.031 C 
ATOM     68  C   UNL A   1      44.527  26.771  31.466  1.00  0.00     0.029 A 
ATOM     69  C   UNL A   1      43.626  27.637  32.066  1.00  0.00     0.049 A 
ATOM     70  H   UNL A   1      41.795  28.370  31.320  1.00  0.00     0.167 HD
ATOM     71  C   UNL A   1      42.774  29.061  33.914  1.00  0.00     0.074 A 
ATOM     72  C   UNL A   1      42.857  29.631  35.245  1.00  0.00     0.031 C 
ATOM     73  C   UNL A   1      43.713  28.252  33.368  1.00  0.00     0.034 A 
BRANCH  60  74
ATOM     74  C   UNL A   1      42.362  26.164  27.700  1.00  0.00     0.023 A 
ATOM     75  C   UNL A   1      43.187  26.713  26.695  1.00  0.00     0.012 A 
ATOM     76  C   UNL A   1      41.997  24.806  27.624  1.00  0.00     0.148 A 
ATOM     77  C   UNL A   1      43.613  25.937  25.618  1.00  0.00     0.002 A 
ATOM     78  C   UNL A   1      42.464  24.026  26.571  1.00  0.00     0.091 A 
ATOM     79  F   UNL A   1      41.200  24.303  28.577  1.00  0.00    -0.205 F 
ATOM     80  C   UNL A   1      43.260  24.592  25.562  1.00  0.00     0.022 A 
BRANCH  78  81
ATOM     81  S   UNL A   1      42.138  22.263  26.446  1.00  0.00     0.127 S 
ATOM     82  O   UNL A   1      42.557  21.793  27.767  1.00  0.00    -0.237 OA
ATOM     83  O   UNL A   1      40.694  22.231  26.219  1.00  0.00    -0.237 OA
ATOM     84  O   UNL A   1      42.942  21.782  25.332  1.00  0.00    -0.744 OA
ENDBRANCH  78  81
ENDBRANCH  60  74
BRANCH  61  85
ATOM     85  C   UNL A   1      39.270  31.902  35.325  1.00  0.00     0.023 A 
ATOM     86  C   UNL A   1      38.465  31.356  36.342  1.00  0.00     0.012 A 
ATOM     87  C   UNL A   1      39.705  33.237  35.435  1.00  0.00     0.148 A 
ATOM     88  C   UNL A   1      38.087  32.127  37.443  1.00  0.00     0.002 A 
ATOM     89  C   UNL A   1      39.372  33.982  36.561  1.00  0.00     0.091 A 
ATOM     90  F   UNL A   1      40.469  33.737  34.454  1.00  0.00    -0.205 F 
ATOM     91  C   UNL A   1      38.551  33.434  37.558  1.00  0.00     0.022 A 
BRANCH  89  92
ATOM     92  S   UNL A   1      40.040  35.622  36.869  1.00  0.00     0.127 S 
ATOM     93  O   UNL A   1      39.521  36.375  35.731  1.00  0.00    -0.237 OA
ATOM     94  O   UNL A   1      39.434  35.955  38.159  1.00  0.00    -0.237 OA
ATOM     95  O   UNL A   1      41.487  35.459  36.908  1.00  0.00    -0.744 OA
ENDBRANCH  89  92
ENDBRANCH  61  85
BRANCH  73  96
ATOM     96  C   UNL A   1      44.937  27.937  34.186  1.00  0.00     0.023 A 
ATOM     97  C   UNL A   1      46.050  28.799  34.139  1.00  0.00     0.012 A 
ATOM     98  C   UNL A   1      44.923  26.868  35.105  1.00  0.00     0.148 A 
ATOM     99  C   UNL A   1      47.136  28.595  34.987  1.00  0.00     0.002 A 
ATOM    100  C   UNL A   1      45.986  26.703  35.982  1.00  0.00     0.091 A 
ATOM    101  F   UNL A   1      43.859  26.052  35.119  1.00  0.00    -0.205 F 
ATOM    102  C   UNL A   1      47.098  27.559  35.919  1.00  0.00     0.022 A 
BRANCH 100 103
ATOM    103  S   UNL A   1      45.977  25.470  37.289  1.00  0.00     0.127 S 
ATOM    104  O   UNL A   1      45.936  24.225  36.523  1.00  0.00    -0.237 OA
ATOM    105  O   UNL A   1      47.248  25.729  37.965  1.00  0.00    -0.237 OA
ATOM    106  O   UNL A   1      44.795  25.742  38.094  1.00  0.00    -0.744 OA
ENDBRANCH 100 103
ENDBRANCH  73  96
ENDBRANCH  47  48
ENDBRANCH  39  42
ENDBRANCH  37  38
ENDBRANCH  36  37
ENDBRANCH  35  36
ENDBRANCH   1  35
TORSDOF 20
ENDMDL
MODEL 3
REMARK VINA RESULT:     -12.3      2.122      2.869
REMARK SMILES O=C(CCN1C(=O)S/C(=C\c2ccc(F)cc2)C1=O)Nc1ccc(O)cc1C(=O)NCCCCNC(=O)c1ccc(-c2c3nc(c(-c4cccc(S(=O)(=O)[O-])c4F)c4ccc([nH]4)c(-c4cccc(S(=O)(=O)[O-])c4F)c4nc(c(-c5cccc(S(=O)(=O)[O-])c5F)c5ccc2[nH]5)C=C4)C=C3)cc1
REMARK SMILES IDX 31 1 30 2 28 3 29 4 27 6 21 7 22 8 23 9 26 10 24 11 20 12
REMARK SMILES IDX 1 13 2 14 3 16 4 17 5 18 6 19 18 20 7 21 8 22 9 23 19 24
REMARK SMILES IDX 10 25 11 26 12 27 17 28 13 29 16 30 14 31 15 32 25 33 32 35
REMARK SMILES IDX 33 36 34 37 35 38 36 39 37 41 38 42 39 43 100 44 40 45 99 46
REMARK SMILES IDX 41 47 42 48 43 49 93 50 44 51 98 52 92 53 94 54 45 55 97 56
REMARK SMILES IDX 91 57 90 58 46 60 78 61 58 62 77 63 59 64 62 65 76 66 95 67
REMARK SMILES IDX 60 68 61 69 75 71 96 72 63 73 47 74 48 75 56 76 49 77 51 78
REMARK SMILES IDX 57 79 50 80 52 81 53 82 54 83 55 84 79 85 80 86 88 87 81 88
REMARK SMILES IDX 83 89 89 90 82 91 84 92 85 93 86 94 87 95 64 96 65 97 73 98
REMARK SMILES IDX 66 99 68 100 74 101 67 102 69 103 70 104 71 105 72 106
REMARK H PARENT 30 5 20 15 25 34 35 40 94 59 62 70
REMARK Flexibility Score: inf
ROOT
ATOM      1  C   UNL A   1      32.209  28.307  26.591  1.00  0.00     0.116 C 
ENDROOT
BRANCH   1   2
ATOM      2  N   UNL A   1      31.328  27.192  26.218  1.00  0.00    -0.352 N 
ATOM      3  C   UNL A   1      30.529  26.914  25.123  1.00  0.00     0.253 C 
ATOM      4  O   UNL A   1      29.932  25.835  25.103  1.00  0.00    -0.269 OA
ATOM      5  H   UNL A   1      31.301  26.483  26.900  1.00  0.00     0.163 HD
BRANCH   3   6
ATOM      6  C   UNL A   1      30.333  27.821  23.952  1.00  0.00     0.067 A 
ATOM      7  C   UNL A   1      31.335  28.159  23.029  1.00  0.00     0.054 A 
ATOM      8  C   UNL A   1      31.062  29.083  22.006  1.00  0.00     0.031 A 
ATOM      9  C   UNL A   1      29.770  29.571  21.813  1.00  0.00     0.048 A 
ATOM     10  C   UNL A   1      29.023  28.280  23.714  1.00  0.00     0.062 A 
ATOM     11  C   UNL A   1      28.751  29.131  22.645  1.00  0.00     0.116 A 
BRANCH   7  12
ATOM     12  N   UNL A   1      32.533  27.426  23.004  1.00  0.00    -0.325 N 
ATOM     13  O   UNL A   1      31.876  25.564  21.812  1.00  0.00    -0.275 OA
ATOM     14  C   UNL A   1      32.710  26.166  22.484  1.00  0.00     0.226 C 
ATOM     15  H   UNL A   1      33.325  27.856  23.399  1.00  0.00     0.169 HD
BRANCH  14  16
ATOM     16  C   UNL A   1      34.039  25.526  22.835  1.00  0.00     0.122 C 
BRANCH  16  17
ATOM     17  C   UNL A   1      34.201  25.108  24.290  1.00  0.00     0.140 C 
BRANCH  17  18
ATOM     18  N   UNL A   1      34.438  23.681  24.578  1.00  0.00    -0.268 N 
ATOM     19  C   UNL A   1      35.526  23.258  25.290  1.00  0.00     0.293 C 
ATOM     20  C   UNL A   1      33.451  22.734  24.473  1.00  0.00     0.268 C 
ATOM     21  O   UNL A   1      36.415  23.970  25.734  1.00  0.00    -0.261 OA
ATOM     22  S   UNL A   1      35.471  21.510  25.537  1.00  0.00    -0.022 SA
ATOM     23  C   UNL A   1      33.919  21.383  24.836  1.00  0.00     0.083 C 
ATOM     24  O   UNL A   1      32.294  22.961  24.171  1.00  0.00    -0.268 OA
ATOM     25  C   UNL A   1      33.146  20.317  24.578  1.00  0.00     0.029 C 
BRANCH  25  26
ATOM     26  C   UNL A   1      33.423  18.909  24.855  1.00  0.00    -0.024 A 
ATOM     27  C   UNL A   1      32.524  18.140  25.602  1.00  0.00     0.011 A 
ATOM     28  C   UNL A   1      34.544  18.297  24.276  1.00  0.00     0.011 A 
ATOM     29  C   UNL A   1      32.764  16.779  25.802  1.00  0.00     0.040 A 
ATOM     30  C   UNL A   1      34.786  16.937  24.481  1.00  0.00     0.040 A 
ATOM     31  C   UNL A   1      33.896  16.192  25.248  1.00  0.00     0.123 A 
ATOM     32  F   UNL A   1      34.131  14.889  25.447  1.00  0.00    -0.207 F 
ENDBRANCH  25  26
ENDBRANCH  17  18
ENDBRANCH  16  17
ENDBRANCH  14  16
ENDBRANCH   7  12
BRANCH  11  33
ATOM     33  O   UNL A   1      27.458  29.508  22.431  1.00  0.00    -0.508 OA
ATOM     34  H   UNL A   1      27.205  30.402  22.551  1.00  0.00     0.293 HD
ENDBRANCH  11  33
ENDBRANCH   3   6
ENDBRANCH   1   2
BRANCH   1  35
ATOM     35  C   UNL A   1      31.709  29.733  26.235  1.00  0.00     0.023 C 
BRANCH  35  36
ATOM     36  C   UNL A   1      32.004  31.175  26.820  1.00  0.00     0.023 C 
BRANCH  36  37
ATOM     37  C   UNL A   1      33.208  31.865  27.514  1.00  0.00     0.116 C 
BRANCH  37  38
ATOM     38  N   UNL A   1      33.113  33.314  27.603  1.00  0.00    -0.352 N 
ATOM     39  C   UNL A   1      33.349  34.164  28.660  1.00  0.00     0.251 C 
ATOM     40  H   UNL A   1      32.834  33.760  26.771  1.00  0.00     0.163 HD
ATOM     41  O   UNL A   1      32.797  35.256  28.746  1.00  0.00    -0.269 OA
BRANCH  39  42
ATOM     42  C   UNL A   1      34.463  33.833  29.565  1.00  0.00     0.039 A 
ATOM     43  C   UNL A   1      34.249  33.132  30.750  1.00  0.00     0.014 A 
ATOM     44  C   UNL A   1      35.745  34.278  29.216  1.00  0.00     0.014 A 
ATOM     45  C   UNL A   1      35.352  32.758  31.523  1.00  0.00     0.010 A 
ATOM     46  C   UNL A   1      36.841  33.880  29.969  1.00  0.00     0.010 A 
ATOM     47  C   UNL A   1      36.657  33.079  31.103  1.00  0.00    -0.014 A 
BRANCH  47  48
ATOM     48  C   UNL A   1      37.839  32.454  31.744  1.00  0.00     0.031 A 
ATOM     49  C   UNL A   1      38.383  32.959  33.045  1.00  0.00     0.074 A 
ATOM     50  C   UNL A   1      38.482  31.482  31.065  1.00  0.00     0.049 A 
ATOM     51  N   UNL A   1      39.406  32.521  33.731  1.00  0.00    -0.248 NA
ATOM     52  C   UNL A   1      37.709  34.121  33.647  1.00  0.00     0.031 C 
ATOM     53  C   UNL A   1      38.097  30.990  29.738  1.00  0.00     0.029 A 
ATOM     54  N   UNL A   1      39.594  30.744  31.378  1.00  0.00    -0.354 N 
ATOM     55  C   UNL A   1      39.507  33.353  34.837  1.00  0.00     0.074 A 
ATOM     56  C   UNL A   1      38.469  34.352  34.709  1.00  0.00     0.031 C 
ATOM     57  C   UNL A   1      38.934  30.012  29.368  1.00  0.00     0.029 A 
ATOM     58  C   UNL A   1      39.934  29.823  30.413  1.00  0.00     0.049 A 
ATOM     59  H   UNL A   1      40.101  30.861  32.214  1.00  0.00     0.167 HD
ATOM     60  C   UNL A   1      40.368  33.266  35.880  1.00  0.00     0.034 A 
ATOM     61  C   UNL A   1      40.931  28.917  30.380  1.00  0.00     0.034 A 
ATOM     62  C   UNL A   1      41.382  32.252  35.994  1.00  0.00     0.049 A 
ATOM     63  C   UNL A   1      41.848  28.814  31.566  1.00  0.00     0.074 A 
ATOM     64  C   UNL A   1      42.263  32.030  37.037  1.00  0.00     0.029 A 
ATOM     65  N   UNL A   1      41.657  31.293  35.030  1.00  0.00    -0.354 N 
ATOM     66  N   UNL A   1      41.835  29.513  32.676  1.00  0.00    -0.248 NA
ATOM     67  C   UNL A   1      42.893  27.783  31.516  1.00  0.00     0.031 C 
ATOM     68  C   UNL A   1      43.086  30.955  36.693  1.00  0.00     0.029 A 
ATOM     69  C   UNL A   1      42.697  30.482  35.449  1.00  0.00     0.049 A 
ATOM     70  H   UNL A   1      41.182  31.203  34.171  1.00  0.00     0.167 HD
ATOM     71  C   UNL A   1      42.845  28.986  33.471  1.00  0.00     0.074 A 
ATOM     72  C   UNL A   1      43.441  27.899  32.719  1.00  0.00     0.031 C 
ATOM     73  C   UNL A   1      43.245  29.374  34.706  1.00  0.00     0.034 A 
BRANCH  60  74
ATOM     74  C   UNL A   1      40.207  34.249  37.011  1.00  0.00     0.023 A 
ATOM     75  C   UNL A   1      40.614  35.587  36.824  1.00  0.00     0.012 A 
ATOM     76  C   UNL A   1      39.591  33.881  38.223  1.00  0.00     0.148 A 
ATOM     77  C   UNL A   1      40.443  36.533  37.834  1.00  0.00     0.002 A 
ATOM     78  C   UNL A   1      39.382  34.841  39.208  1.00  0.00     0.091 A 
ATOM     79  F   UNL A   1      39.224  32.603  38.392  1.00  0.00    -0.205 F 
ATOM     80  C   UNL A   1      39.818  36.162  39.020  1.00  0.00     0.022 A 
BRANCH  78  81
ATOM     81  S   UNL A   1      38.511  34.489  40.740  1.00  0.00     0.127 S 
ATOM     82  O   UNL A   1      37.375  33.704  40.259  1.00  0.00    -0.237 OA
ATOM     83  O   UNL A   1      39.506  33.724  41.491  1.00  0.00    -0.237 OA
ATOM     84  O   UNL A   1      38.173  35.782  41.318  1.00  0.00    -0.744 OA
ENDBRANCH  78  81
ENDBRANCH  60  74
BRANCH  61  85
ATOM     85  C   UNL A   1      41.023  27.971  29.230  1.00  0.00     0.023 A 
ATOM     86  C   UNL A   1      40.186  26.839  29.206  1.00  0.00     0.012 A 
ATOM     87  C   UNL A   1      41.854  28.235  28.124  1.00  0.00     0.148 A 
ATOM     88  C   UNL A   1      40.186  25.977  28.109  1.00  0.00     0.002 A 
ATOM     89  C   UNL A   1      41.808  27.403  27.011  1.00  0.00     0.091 A 
ATOM     90  F   UNL A   1      42.643  29.317  28.169  1.00  0.00    -0.205 F 
ATOM     91  C   UNL A   1      40.986  26.266  27.007  1.00  0.00     0.022 A 
BRANCH  89  92
ATOM     92  S   UNL A   1      42.691  27.773  25.490  1.00  0.00     0.127 S 
ATOM     93  O   UNL A   1      42.482  26.551  24.718  1.00  0.00    -0.237 OA
ATOM     94  O   UNL A   1      41.966  28.945  25.000  1.00  0.00    -0.237 OA
ATOM     95  O   UNL A   1      44.068  28.039  25.886  1.00  0.00    -0.744 OA
ENDBRANCH  89  92
ENDBRANCH  61  85
BRANCH  73  96
ATOM     96  C   UNL A   1      44.370  28.613  35.355  1.00  0.00     0.023 A 
ATOM     97  C   UNL A   1      45.704  28.998  35.115  1.00  0.00     0.012 A 
ATOM     98  C   UNL A   1      44.095  27.613  36.310  1.00  0.00     0.148 A 
ATOM     99  C   UNL A   1      46.748  28.390  35.808  1.00  0.00     0.002 A 
ATOM    100  C   UNL A   1      45.137  27.050  37.033  1.00  0.00     0.091 A 
ATOM    101  F   UNL A   1      42.819  27.253  36.507  1.00  0.00    -0.205 F 
ATOM    102  C   UNL A   1      46.465  27.429  36.778  1.00  0.00     0.022 A 
BRANCH 100 103
ATOM    103  S   UNL A   1      44.863  25.889  38.377  1.00  0.00     0.127 S 
ATOM    104  O   UNL A   1      44.372  24.714  37.660  1.00  0.00    -0.237 OA
ATOM    105  O   UNL A   1      46.207  25.745  38.937  1.00  0.00    -0.237 OA
ATOM    106  O   UNL A   1      43.899  26.521  39.267  1.00  0.00    -0.744 OA
ENDBRANCH 100 103
ENDBRANCH  73  96
ENDBRANCH  47  48
ENDBRANCH  39  42
ENDBRANCH  37  38
ENDBRANCH  36  37
ENDBRANCH  35  36
ENDBRANCH   1  35
TORSDOF 20
ENDMDL
