MODEL 1
REMARK VINA RESULT:     -11.6      0.000      0.000
REMARK SMILES O=C(CCCN1C(=O)/C(=C\c2ccc(O)c(O)c2)SC1=S)NCCCCNC(=O)c1ccc(-c2c3nc(c(-c4cccc(S(=O)(=O)[O-])c4F)c4ccc([nH]4)c(-c4cccc(S(=O)(=O)[O-])c4F)c4nc(c(-c5cccc(S(=O)(=O)[O-])c5F)c5ccc2[nH]5)C=C4)C=C3)cc1
REMARK SMILES IDX 23 1 22 2 1 3 2 4 3 6 4 7 5 8 6 9 7 10 20 11 8 12 9 13 19 14
REMARK SMILES IDX 21 15 10 16 11 17 12 18 18 19 13 20 16 21 14 22 17 23 15 25
REMARK SMILES IDX 24 27 25 28 26 29 27 30 28 31 29 33 30 34 31 35 92 36 32 37
REMARK SMILES IDX 91 38 33 39 34 40 35 41 85 42 36 43 90 44 84 45 86 46 37 47
REMARK SMILES IDX 89 48 83 49 82 50 38 52 70 53 50 54 69 55 51 56 54 57 68 58
REMARK SMILES IDX 87 59 52 60 53 61 67 63 88 64 55 65 39 66 40 67 48 68 41 69
REMARK SMILES IDX 43 70 49 71 42 72 44 73 45 74 46 75 47 76 71 77 72 78 80 79
REMARK SMILES IDX 73 80 75 81 81 82 74 83 76 84 77 85 78 86 79 87 56 88 57 89
REMARK SMILES IDX 65 90 58 91 60 92 66 93 59 94 61 95 62 96 63 97 64 98
REMARK H PARENT 22 5 17 24 15 26 27 32 86 51 54 62
REMARK Flexibility Score: inf
ROOT
ATOM      1  C   UNL A   1      34.601  32.245  28.966  1.00  0.00     0.116 C 
ENDROOT
BRANCH   1   2
ATOM      2  N   UNL A   1      34.098  31.056  28.310  1.00  0.00    -0.356 N 
ATOM      3  O   UNL A   1      36.155  30.330  27.587  1.00  0.00    -0.275 OA
ATOM      4  C   UNL A   1      34.939  30.184  27.661  1.00  0.00     0.220 C 
ATOM      5  H   UNL A   1      33.132  30.868  28.330  1.00  0.00     0.163 HD
BRANCH   4   6
ATOM      6  C   UNL A   1      34.235  28.997  27.046  1.00  0.00     0.102 C 
BRANCH   6   7
ATOM      7  C   UNL A   1      33.421  29.378  25.809  1.00  0.00     0.032 C 
BRANCH   7   8
ATOM      8  C   UNL A   1      33.293  28.301  24.718  1.00  0.00     0.128 C 
BRANCH   8   9
ATOM      9  N   UNL A   1      31.948  27.795  24.402  1.00  0.00    -0.293 N 
ATOM     10  C   UNL A   1      31.167  28.387  23.430  1.00  0.00     0.266 C 
ATOM     11  C   UNL A   1      31.465  26.586  24.875  1.00  0.00     0.148 C 
ATOM     12  O   UNL A   1      31.557  29.221  22.618  1.00  0.00    -0.268 OA
ATOM     13  C   UNL A   1      29.791  27.826  23.459  1.00  0.00     0.081 C 
ATOM     14  S   UNL A   1      29.842  26.302  24.259  1.00  0.00    -0.054 SA
ATOM     15  S   UNL A   1      32.230  25.512  25.898  1.00  0.00    -0.052 S 
ATOM     16  C   UNL A   1      28.643  28.424  23.100  1.00  0.00     0.029 C 
BRANCH  16  17
ATOM     17  C   UNL A   1      28.498  29.827  22.684  1.00  0.00    -0.020 A 
ATOM     18  C   UNL A   1      28.695  30.899  23.566  1.00  0.00     0.012 A 
ATOM     19  C   UNL A   1      28.129  30.095  21.359  1.00  0.00     0.058 A 
ATOM     20  C   UNL A   1      28.442  32.216  23.165  1.00  0.00     0.051 A 
ATOM     21  C   UNL A   1      27.902  31.405  20.960  1.00  0.00     0.157 A 
ATOM     22  C   UNL A   1      28.034  32.458  21.860  1.00  0.00     0.157 A 
BRANCH  21  23
ATOM     23  O   UNL A   1      27.523  31.656  19.671  1.00  0.00    -0.504 OA
ATOM     24  H   UNL A   1      27.364  32.537  19.393  1.00  0.00     0.293 HD
ENDBRANCH  21  23
BRANCH  22  25
ATOM     25  O   UNL A   1      27.740  33.719  21.418  1.00  0.00    -0.504 OA
ATOM     26  H   UNL A   1      28.124  34.038  20.625  1.00  0.00     0.293 HD
ENDBRANCH  22  25
ENDBRANCH  16  17
ENDBRANCH   8   9
ENDBRANCH   7   8
ENDBRANCH   6   7
ENDBRANCH   4   6
ENDBRANCH   1   2
BRANCH   1  27
ATOM     27  C   UNL A   1      34.461  33.494  28.099  1.00  0.00     0.023 C 
BRANCH  27  28
ATOM     28  C   UNL A   1      33.222  34.350  28.374  1.00  0.00     0.023 C 
BRANCH  28  29
ATOM     29  C   UNL A   1      33.482  35.698  29.039  1.00  0.00     0.116 C 
BRANCH  29  30
ATOM     30  N   UNL A   1      32.688  35.905  30.238  1.00  0.00    -0.352 N 
ATOM     31  C   UNL A   1      32.863  35.386  31.499  1.00  0.00     0.251 C 
ATOM     32  H   UNL A   1      31.913  36.505  30.133  1.00  0.00     0.163 HD
ATOM     33  O   UNL A   1      32.005  35.578  32.357  1.00  0.00    -0.269 OA
BRANCH  31  34
ATOM     34  C   UNL A   1      34.060  34.571  31.820  1.00  0.00     0.039 A 
ATOM     35  C   UNL A   1      35.316  35.042  31.425  1.00  0.00     0.014 A 
ATOM     36  C   UNL A   1      33.955  33.351  32.491  1.00  0.00     0.014 A 
ATOM     37  C   UNL A   1      36.468  34.323  31.760  1.00  0.00     0.010 A 
ATOM     38  C   UNL A   1      35.107  32.666  32.878  1.00  0.00     0.010 A 
ATOM     39  C   UNL A   1      36.376  33.144  32.516  1.00  0.00    -0.014 A 
BRANCH  39  40
ATOM     40  C   UNL A   1      37.593  32.413  32.959  1.00  0.00     0.031 A 
ATOM     41  C   UNL A   1      38.292  32.795  34.237  1.00  0.00     0.074 A 
ATOM     42  C   UNL A   1      38.123  31.459  32.166  1.00  0.00     0.049 A 
ATOM     43  N   UNL A   1      39.390  32.305  34.754  1.00  0.00    -0.248 NA
ATOM     44  C   UNL A   1      37.693  33.883  35.026  1.00  0.00     0.031 C 
ATOM     45  C   UNL A   1      37.588  31.048  30.867  1.00  0.00     0.029 A 
ATOM     46  N   UNL A   1      39.245  30.684  32.323  1.00  0.00    -0.354 N 
ATOM     47  C   UNL A   1      39.636  33.049  35.902  1.00  0.00     0.074 A 
ATOM     48  C   UNL A   1      38.584  34.038  35.996  1.00  0.00     0.031 C 
ATOM     49  C   UNL A   1      38.380  30.098  30.346  1.00  0.00     0.029 A 
ATOM     50  C   UNL A   1      39.493  29.849  31.257  1.00  0.00     0.049 A 
ATOM     51  H   UNL A   1      39.820  30.722  33.122  1.00  0.00     0.167 HD
ATOM     52  C   UNL A   1      40.630  32.904  36.811  1.00  0.00     0.034 A 
ATOM     53  C   UNL A   1      40.502  28.984  31.036  1.00  0.00     0.034 A 
ATOM     54  C   UNL A   1      41.644  31.887  36.748  1.00  0.00     0.049 A 
ATOM     55  C   UNL A   1      41.565  28.809  32.088  1.00  0.00     0.074 A 
ATOM     56  C   UNL A   1      42.631  31.598  37.674  1.00  0.00     0.029 A 
ATOM     57  N   UNL A   1      41.808  30.996  35.699  1.00  0.00    -0.354 N 
ATOM     58  N   UNL A   1      41.680  29.402  33.251  1.00  0.00    -0.248 NA
ATOM     59  C   UNL A   1      42.616  27.819  31.813  1.00  0.00     0.031 C 
ATOM     60  C   UNL A   1      43.400  30.539  37.179  1.00  0.00     0.029 A 
ATOM     61  C   UNL A   1      42.884  30.161  35.950  1.00  0.00     0.049 A 
ATOM     62  H   UNL A   1      41.242  30.961  34.894  1.00  0.00     0.167 HD
ATOM     63  C   UNL A   1      42.793  28.835  33.860  1.00  0.00     0.074 A 
ATOM     64  C   UNL A   1      43.305  27.834  32.947  1.00  0.00     0.031 C 
ATOM     65  C   UNL A   1      43.350  29.128  35.062  1.00  0.00     0.034 A 
BRANCH  52  66
ATOM     66  C   UNL A   1      40.634  33.833  37.997  1.00  0.00     0.023 A 
ATOM     67  C   UNL A   1      41.481  34.960  37.989  1.00  0.00     0.012 A 
ATOM     68  C   UNL A   1      39.760  33.633  39.083  1.00  0.00     0.148 A 
ATOM     69  C   UNL A   1      41.481  35.858  39.056  1.00  0.00     0.002 A 
ATOM     70  C   UNL A   1      39.737  34.554  40.127  1.00  0.00     0.091 A 
ATOM     71  F   UNL A   1      38.977  32.545  39.086  1.00  0.00    -0.205 F 
ATOM     72  C   UNL A   1      40.603  35.660  40.118  1.00  0.00     0.022 A 
BRANCH  70  73
ATOM     73  S   UNL A   1      38.589  34.427  41.502  1.00  0.00     0.127 S 
ATOM     74  O   UNL A   1      38.037  35.779  41.553  1.00  0.00    -0.237 OA
ATOM     75  O   UNL A   1      37.653  33.403  41.032  1.00  0.00    -0.237 OA
ATOM     76  O   UNL A   1      39.388  34.030  42.653  1.00  0.00    -0.744 OA
ENDBRANCH  70  73
ENDBRANCH  52  66
BRANCH  53  77
ATOM     77  C   UNL A   1      40.510  28.154  29.798  1.00  0.00     0.023 A 
ATOM     78  C   UNL A   1      39.586  27.099  29.674  1.00  0.00     0.012 A 
ATOM     79  C   UNL A   1      41.397  28.420  28.737  1.00  0.00     0.148 A 
ATOM     80  C   UNL A   1      39.562  26.305  28.527  1.00  0.00     0.002 A 
ATOM     81  C   UNL A   1      41.332  27.658  27.576  1.00  0.00     0.091 A 
ATOM     82  F   UNL A   1      42.280  29.418  28.880  1.00  0.00    -0.205 F 
ATOM     83  C   UNL A   1      40.426  26.591  27.475  1.00  0.00     0.022 A 
BRANCH  81  84
ATOM     84  S   UNL A   1      42.318  28.039  26.122  1.00  0.00     0.127 S 
ATOM     85  O   UNL A   1      43.670  27.761  26.595  1.00  0.00    -0.237 OA
ATOM     86  O   UNL A   1      41.799  27.085  25.141  1.00  0.00    -0.237 OA
ATOM     87  O   UNL A   1      42.028  29.433  25.809  1.00  0.00    -0.744 OA
ENDBRANCH  81  84
ENDBRANCH  53  77
BRANCH  65  88
ATOM     88  C   UNL A   1      44.563  28.341  35.481  1.00  0.00     0.023 A 
ATOM     89  C   UNL A   1      45.850  28.844  35.206  1.00  0.00     0.012 A 
ATOM     90  C   UNL A   1      44.432  27.147  36.218  1.00  0.00     0.148 A 
ATOM     91  C   UNL A   1      46.986  28.159  35.631  1.00  0.00     0.002 A 
ATOM     92  C   UNL A   1      45.569  26.491  36.678  1.00  0.00     0.091 A 
ATOM     93  F   UNL A   1      43.200  26.672  36.453  1.00  0.00    -0.205 F 
ATOM     94  C   UNL A   1      46.846  26.991  36.377  1.00  0.00     0.022 A 
BRANCH  92  95
ATOM     95  S   UNL A   1      45.479  25.032  37.722  1.00  0.00     0.127 S 
ATOM     96  O   UNL A   1      46.866  24.894  38.163  1.00  0.00    -0.237 OA
ATOM     97  O   UNL A   1      44.546  25.453  38.768  1.00  0.00    -0.237 OA
ATOM     98  O   UNL A   1      44.982  23.962  36.868  1.00  0.00    -0.744 OA
ENDBRANCH  92  95
ENDBRANCH  65  88
ENDBRANCH  39  40
ENDBRANCH  31  34
ENDBRANCH  29  30
ENDBRANCH  28  29
ENDBRANCH  27  28
ENDBRANCH   1  27
TORSDOF 20
ENDMDL
MODEL 2
REMARK VINA RESULT:     -11.5      6.476     11.420
REMARK SMILES O=C(CCCN1C(=O)/C(=C\c2ccc(O)c(O)c2)SC1=S)NCCCCNC(=O)c1ccc(-c2c3nc(c(-c4cccc(S(=O)(=O)[O-])c4F)c4ccc([nH]4)c(-c4cccc(S(=O)(=O)[O-])c4F)c4nc(c(-c5cccc(S(=O)(=O)[O-])c5F)c5ccc2[nH]5)C=C4)C=C3)cc1
REMARK SMILES IDX 23 1 22 2 1 3 2 4 3 6 4 7 5 8 6 9 7 10 20 11 8 12 9 13 19 14
REMARK SMILES IDX 21 15 10 16 11 17 12 18 18 19 13 20 16 21 14 22 17 23 15 25
REMARK SMILES IDX 24 27 25 28 26 29 27 30 28 31 29 33 30 34 31 35 92 36 32 37
REMARK SMILES IDX 91 38 33 39 34 40 35 41 85 42 36 43 90 44 84 45 86 46 37 47
REMARK SMILES IDX 89 48 83 49 82 50 38 52 70 53 50 54 69 55 51 56 54 57 68 58
REMARK SMILES IDX 87 59 52 60 53 61 67 63 88 64 55 65 39 66 40 67 48 68 41 69
REMARK SMILES IDX 43 70 49 71 42 72 44 73 45 74 46 75 47 76 71 77 72 78 80 79
REMARK SMILES IDX 73 80 75 81 81 82 74 83 76 84 77 85 78 86 79 87 56 88 57 89
REMARK SMILES IDX 65 90 58 91 60 92 66 93 59 94 61 95 62 96 63 97 64 98
REMARK H PARENT 22 5 17 24 15 26 27 32 86 51 54 62
REMARK Flexibility Score: inf
ROOT
ATOM      1  C   UNL A   1      34.384  24.186  26.119  1.00  0.00     0.116 C 
ENDROOT
BRANCH   1   2
ATOM      2  N   UNL A   1      33.392  25.235  26.016  1.00  0.00    -0.356 N 
ATOM      3  O   UNL A   1      31.789  24.131  27.238  1.00  0.00    -0.275 OA
ATOM      4  C   UNL A   1      32.151  25.112  26.596  1.00  0.00     0.220 C 
ATOM      5  H   UNL A   1      33.611  26.056  25.518  1.00  0.00     0.163 HD
BRANCH   4   6
ATOM      6  C   UNL A   1      31.256  26.310  26.390  1.00  0.00     0.102 C 
BRANCH   6   7
ATOM      7  C   UNL A   1      29.929  25.940  25.728  1.00  0.00     0.032 C 
BRANCH   7   8
ATOM      8  C   UNL A   1      29.867  26.078  24.197  1.00  0.00     0.128 C 
BRANCH   8   9
ATOM      9  N   UNL A   1      31.016  25.600  23.412  1.00  0.00    -0.293 N 
ATOM     10  C   UNL A   1      31.150  24.268  23.074  1.00  0.00     0.266 C 
ATOM     11  C   UNL A   1      31.904  26.451  22.776  1.00  0.00     0.148 C 
ATOM     12  O   UNL A   1      30.278  23.414  23.197  1.00  0.00    -0.268 OA
ATOM     13  C   UNL A   1      32.488  24.018  22.476  1.00  0.00     0.081 C 
ATOM     14  S   UNL A   1      33.119  25.518  21.910  1.00  0.00    -0.054 SA
ATOM     15  S   UNL A   1      31.910  28.119  22.795  1.00  0.00    -0.052 S 
ATOM     16  C   UNL A   1      33.208  22.885  22.497  1.00  0.00     0.029 C 
BRANCH  16  17
ATOM     17  C   UNL A   1      32.852  21.654  23.217  1.00  0.00    -0.020 A 
ATOM     18  C   UNL A   1      32.938  21.544  24.612  1.00  0.00     0.012 A 
ATOM     19  C   UNL A   1      32.430  20.544  22.472  1.00  0.00     0.058 A 
ATOM     20  C   UNL A   1      32.697  20.324  25.254  1.00  0.00     0.051 A 
ATOM     21  C   UNL A   1      32.169  19.342  23.117  1.00  0.00     0.157 A 
ATOM     22  C   UNL A   1      32.323  19.223  24.495  1.00  0.00     0.157 A 
BRANCH  21  23
ATOM     23  O   UNL A   1      31.778  18.259  22.381  1.00  0.00    -0.504 OA
ATOM     24  H   UNL A   1      31.680  18.336  21.452  1.00  0.00     0.293 HD
ENDBRANCH  21  23
BRANCH  22  25
ATOM     25  O   UNL A   1      32.105  17.997  25.060  1.00  0.00    -0.504 OA
ATOM     26  H   UNL A   1      32.640  17.709  25.773  1.00  0.00     0.293 HD
ENDBRANCH  22  25
ENDBRANCH  16  17
ENDBRANCH   8   9
ENDBRANCH   7   8
ENDBRANCH   6   7
ENDBRANCH   4   6
ENDBRANCH   1   2
BRANCH   1  27
ATOM     27  C   UNL A   1      35.363  24.190  24.947  1.00  0.00     0.023 C 
BRANCH  27  28
ATOM     28  C   UNL A   1      36.212  22.924  24.796  1.00  0.00     0.023 C 
BRANCH  28  29
ATOM     29  C   UNL A   1      36.496  22.159  26.085  1.00  0.00     0.116 C 
BRANCH  29  30
ATOM     30  N   UNL A   1      37.615  21.240  25.968  1.00  0.00    -0.352 N 
ATOM     31  C   UNL A   1      38.959  21.482  26.127  1.00  0.00     0.251 C 
ATOM     32  H   UNL A   1      37.378  20.311  25.745  1.00  0.00     0.163 HD
ATOM     33  O   UNL A   1      39.769  20.598  25.859  1.00  0.00    -0.269 OA
BRANCH  31  34
ATOM     34  C   UNL A   1      39.439  22.808  26.586  1.00  0.00     0.039 A 
ATOM     35  C   UNL A   1      40.440  22.856  27.562  1.00  0.00     0.014 A 
ATOM     36  C   UNL A   1      38.908  23.995  26.077  1.00  0.00     0.014 A 
ATOM     37  C   UNL A   1      40.950  24.090  27.978  1.00  0.00     0.010 A 
ATOM     38  C   UNL A   1      39.461  25.221  26.446  1.00  0.00     0.010 A 
ATOM     39  C   UNL A   1      40.487  25.283  27.401  1.00  0.00    -0.014 A 
BRANCH  39  40
ATOM     40  C   UNL A   1      41.079  26.598  27.763  1.00  0.00     0.031 A 
ATOM     41  C   UNL A   1      42.519  26.902  27.445  1.00  0.00     0.074 A 
ATOM     42  C   UNL A   1      40.345  27.490  28.460  1.00  0.00     0.049 A 
ATOM     43  N   UNL A   1      43.218  27.972  27.729  1.00  0.00    -0.248 NA
ATOM     44  C   UNL A   1      43.280  25.862  26.734  1.00  0.00     0.031 C 
ATOM     45  C   UNL A   1      38.964  27.287  28.899  1.00  0.00     0.029 A 
ATOM     46  N   UNL A   1      40.668  28.733  28.945  1.00  0.00    -0.354 N 
ATOM     47  C   UNL A   1      44.505  27.719  27.271  1.00  0.00     0.074 A 
ATOM     48  C   UNL A   1      44.497  26.386  26.708  1.00  0.00     0.031 C 
ATOM     49  C   UNL A   1      38.558  28.365  29.588  1.00  0.00     0.029 A 
ATOM     50  C   UNL A   1      39.655  29.325  29.664  1.00  0.00     0.049 A 
ATOM     51  H   UNL A   1      41.543  29.160  28.795  1.00  0.00     0.167 HD
ATOM     52  C   UNL A   1      45.589  28.532  27.290  1.00  0.00     0.034 A 
ATOM     53  C   UNL A   1      39.613  30.505  30.313  1.00  0.00     0.034 A 
ATOM     54  C   UNL A   1      45.584  29.877  27.799  1.00  0.00     0.049 A 
ATOM     55  C   UNL A   1      40.817  31.410  30.273  1.00  0.00     0.074 A 
ATOM     56  C   UNL A   1      46.604  30.811  27.769  1.00  0.00     0.029 A 
ATOM     57  N   UNL A   1      44.510  30.479  28.436  1.00  0.00    -0.354 N 
ATOM     58  N   UNL A   1      41.971  31.221  29.683  1.00  0.00    -0.248 NA
ATOM     59  C   UNL A   1      40.699  32.704  30.961  1.00  0.00     0.031 C 
ATOM     60  C   UNL A   1      46.150  31.976  28.400  1.00  0.00     0.029 A 
ATOM     61  C   UNL A   1      44.843  31.769  28.811  1.00  0.00     0.049 A 
ATOM     62  H   UNL A   1      43.637  30.051  28.597  1.00  0.00     0.167 HD
ATOM     63  C   UNL A   1      42.703  32.384  29.895  1.00  0.00     0.074 A 
ATOM     64  C   UNL A   1      41.853  33.280  30.652  1.00  0.00     0.031 C 
ATOM     65  C   UNL A   1      43.971  32.675  29.511  1.00  0.00     0.034 A 
BRANCH  52  66
ATOM     66  C   UNL A   1      46.865  28.011  26.682  1.00  0.00     0.023 A 
ATOM     67  C   UNL A   1      47.847  27.444  27.519  1.00  0.00     0.012 A 
ATOM     68  C   UNL A   1      47.066  28.021  25.288  1.00  0.00     0.148 A 
ATOM     69  C   UNL A   1      49.024  26.921  26.982  1.00  0.00     0.002 A 
ATOM     70  C   UNL A   1      48.224  27.462  24.756  1.00  0.00     0.091 A 
ATOM     71  F   UNL A   1      46.132  28.584  24.509  1.00  0.00    -0.205 F 
ATOM     72  C   UNL A   1      49.207  26.921  25.602  1.00  0.00     0.022 A 
BRANCH  70  73
ATOM     73  S   UNL A   1      48.517  27.348  22.988  1.00  0.00     0.127 S 
ATOM     74  O   UNL A   1      48.326  25.919  22.748  1.00  0.00    -0.237 OA
ATOM     75  O   UNL A   1      47.462  28.204  22.442  1.00  0.00    -0.237 OA
ATOM     76  O   UNL A   1      49.869  27.847  22.774  1.00  0.00    -0.744 OA
ENDBRANCH  70  73
ENDBRANCH  52  66
BRANCH  53  77
ATOM     77  C   UNL A   1      38.357  30.937  30.988  1.00  0.00     0.023 A 
ATOM     78  C   UNL A   1      38.203  30.696  32.368  1.00  0.00     0.012 A 
ATOM     79  C   UNL A   1      37.335  31.607  30.289  1.00  0.00     0.148 A 
ATOM     80  C   UNL A   1      37.042  31.090  33.034  1.00  0.00     0.002 A 
ATOM     81  C   UNL A   1      36.204  32.044  30.970  1.00  0.00     0.091 A 
ATOM     82  F   UNL A   1      37.492  31.812  28.974  1.00  0.00    -0.205 F 
ATOM     83  C   UNL A   1      36.049  31.773  32.338  1.00  0.00     0.022 A 
BRANCH  81  84
ATOM     84  S   UNL A   1      34.936  33.043  30.181  1.00  0.00     0.127 S 
ATOM     85  O   UNL A   1      34.028  33.308  31.293  1.00  0.00    -0.237 OA
ATOM     86  O   UNL A   1      35.702  34.202  29.720  1.00  0.00    -0.237 OA
ATOM     87  O   UNL A   1      34.401  32.217  29.106  1.00  0.00    -0.744 OA
ENDBRANCH  81  84
ENDBRANCH  53  77
BRANCH  65  88
ATOM     88  C   UNL A   1      44.517  34.031  29.875  1.00  0.00     0.023 A 
ATOM     89  C   UNL A   1      45.280  34.182  31.050  1.00  0.00     0.012 A 
ATOM     90  C   UNL A   1      44.346  35.133  29.016  1.00  0.00     0.148 A 
ATOM     91  C   UNL A   1      45.840  35.416  31.378  1.00  0.00     0.002 A 
ATOM     92  C   UNL A   1      44.944  36.350  29.327  1.00  0.00     0.091 A 
ATOM     93  F   UNL A   1      43.599  34.977  27.913  1.00  0.00    -0.205 F 
ATOM     94  C   UNL A   1      45.683  36.495  30.511  1.00  0.00     0.022 A 
BRANCH  92  95
ATOM     95  S   UNL A   1      44.870  37.766  28.223  1.00  0.00     0.127 S 
ATOM     96  O   UNL A   1      45.523  37.244  27.023  1.00  0.00    -0.237 OA
ATOM     97  O   UNL A   1      43.430  37.983  28.088  1.00  0.00    -0.237 OA
ATOM     98  O   UNL A   1      45.579  38.840  28.906  1.00  0.00    -0.744 OA
ENDBRANCH  92  95
ENDBRANCH  65  88
ENDBRANCH  39  40
ENDBRANCH  31  34
ENDBRANCH  29  30
ENDBRANCH  28  29
ENDBRANCH  27  28
ENDBRANCH   1  27
TORSDOF 20
ENDMDL
MODEL 3
REMARK VINA RESULT:     -11.5      2.861      8.801
REMARK SMILES O=C(CCCN1C(=O)/C(=C\c2ccc(O)c(O)c2)SC1=S)NCCCCNC(=O)c1ccc(-c2c3nc(c(-c4cccc(S(=O)(=O)[O-])c4F)c4ccc([nH]4)c(-c4cccc(S(=O)(=O)[O-])c4F)c4nc(c(-c5cccc(S(=O)(=O)[O-])c5F)c5ccc2[nH]5)C=C4)C=C3)cc1
REMARK SMILES IDX 23 1 22 2 1 3 2 4 3 6 4 7 5 8 6 9 7 10 20 11 8 12 9 13 19 14
REMARK SMILES IDX 21 15 10 16 11 17 12 18 18 19 13 20 16 21 14 22 17 23 15 25
REMARK SMILES IDX 24 27 25 28 26 29 27 30 28 31 29 33 30 34 31 35 92 36 32 37
REMARK SMILES IDX 91 38 33 39 34 40 35 41 85 42 36 43 90 44 84 45 86 46 37 47
REMARK SMILES IDX 89 48 83 49 82 50 38 52 70 53 50 54 69 55 51 56 54 57 68 58
REMARK SMILES IDX 87 59 52 60 53 61 67 63 88 64 55 65 39 66 40 67 48 68 41 69
REMARK SMILES IDX 43 70 49 71 42 72 44 73 45 74 46 75 47 76 71 77 72 78 80 79
REMARK SMILES IDX 73 80 75 81 81 82 74 83 76 84 77 85 78 86 79 87 56 88 57 89
REMARK SMILES IDX 65 90 58 91 60 92 66 93 59 94 61 95 62 96 63 97 64 98
REMARK H PARENT 22 5 17 24 15 26 27 32 86 51 54 62
REMARK Flexibility Score: inf
ROOT
ATOM      1  C   UNL A   1      34.882  29.714  27.672  1.00  0.00     0.116 C 
ENDROOT
BRANCH   1   2
ATOM      2  N   UNL A   1      33.519  29.225  27.669  1.00  0.00    -0.356 N 
ATOM      3  O   UNL A   1      33.828  27.747  25.938  1.00  0.00    -0.275 OA
ATOM      4  C   UNL A   1      33.101  28.264  26.780  1.00  0.00     0.220 C 
ATOM      5  H   UNL A   1      32.876  29.590  28.320  1.00  0.00     0.163 HD
BRANCH   4   6
ATOM      6  C   UNL A   1      31.651  27.874  26.935  1.00  0.00     0.102 C 
BRANCH   6   7
ATOM      7  C   UNL A   1      31.384  26.433  26.498  1.00  0.00     0.032 C 
BRANCH   7   8
ATOM      8  C   UNL A   1      30.703  26.248  25.131  1.00  0.00     0.128 C 
BRANCH   8   9
ATOM      9  N   UNL A   1      31.455  25.559  24.072  1.00  0.00    -0.293 N 
ATOM     10  C   UNL A   1      31.422  24.184  23.946  1.00  0.00     0.266 C 
ATOM     11  C   UNL A   1      32.051  26.223  23.012  1.00  0.00     0.148 C 
ATOM     12  O   UNL A   1      30.645  23.437  24.531  1.00  0.00    -0.268 OA
ATOM     13  C   UNL A   1      32.425  23.732  22.946  1.00  0.00     0.081 C 
ATOM     14  S   UNL A   1      32.823  25.068  21.933  1.00  0.00    -0.054 SA
ATOM     15  S   UNL A   1      32.098  27.868  22.736  1.00  0.00    -0.052 S 
ATOM     16  C   UNL A   1      33.075  22.558  22.894  1.00  0.00     0.029 C 
BRANCH  16  17
ATOM     17  C   UNL A   1      32.995  21.487  23.898  1.00  0.00    -0.020 A 
ATOM     18  C   UNL A   1      33.503  21.631  25.197  1.00  0.00     0.012 A 
ATOM     19  C   UNL A   1      32.405  20.270  23.529  1.00  0.00     0.058 A 
ATOM     20  C   UNL A   1      33.509  20.554  26.090  1.00  0.00     0.051 A 
ATOM     21  C   UNL A   1      32.392  19.212  24.429  1.00  0.00     0.157 A 
ATOM     22  C   UNL A   1      32.960  19.342  25.692  1.00  0.00     0.157 A 
BRANCH  21  23
ATOM     23  O   UNL A   1      31.833  18.023  24.054  1.00  0.00    -0.504 OA
ATOM     24  H   UNL A   1      31.700  17.346  24.690  1.00  0.00     0.293 HD
ENDBRANCH  21  23
BRANCH  22  25
ATOM     25  O   UNL A   1      32.964  18.245  26.509  1.00  0.00    -0.504 OA
ATOM     26  H   UNL A   1      33.549  18.208  27.239  1.00  0.00     0.293 HD
ENDBRANCH  22  25
ENDBRANCH  16  17
ENDBRANCH   8   9
ENDBRANCH   7   8
ENDBRANCH   6   7
ENDBRANCH   4   6
ENDBRANCH   1   2
BRANCH   1  27
ATOM     27  C   UNL A   1      34.964  31.215  27.941  1.00  0.00     0.023 C 
BRANCH  27  28
ATOM     28  C   UNL A   1      33.620  31.919  28.148  1.00  0.00     0.023 C 
BRANCH  28  29
ATOM     29  C   UNL A   1      33.285  33.016  27.141  1.00  0.00     0.116 C 
BRANCH  29  30
ATOM     30  N   UNL A   1      32.797  34.233  27.765  1.00  0.00    -0.352 N 
ATOM     31  C   UNL A   1      33.214  34.845  28.923  1.00  0.00     0.251 C 
ATOM     32  H   UNL A   1      32.062  34.686  27.290  1.00  0.00     0.163 HD
ATOM     33  O   UNL A   1      32.586  35.807  29.359  1.00  0.00    -0.269 OA
BRANCH  31  34
ATOM     34  C   UNL A   1      34.393  34.335  29.664  1.00  0.00     0.039 A 
ATOM     35  C   UNL A   1      34.181  33.607  30.840  1.00  0.00     0.014 A 
ATOM     36  C   UNL A   1      35.695  34.576  29.222  1.00  0.00     0.014 A 
ATOM     37  C   UNL A   1      35.269  33.069  31.533  1.00  0.00     0.010 A 
ATOM     38  C   UNL A   1      36.775  33.986  29.879  1.00  0.00     0.010 A 
ATOM     39  C   UNL A   1      36.575  33.227  31.042  1.00  0.00    -0.014 A 
BRANCH  39  40
ATOM     40  C   UNL A   1      37.736  32.586  31.713  1.00  0.00     0.031 A 
ATOM     41  C   UNL A   1      38.465  31.444  31.057  1.00  0.00     0.074 A 
ATOM     42  C   UNL A   1      38.084  32.975  32.957  1.00  0.00     0.049 A 
ATOM     43  N   UNL A   1      39.464  30.732  31.514  1.00  0.00    -0.248 NA
ATOM     44  C   UNL A   1      37.998  31.032  29.723  1.00  0.00     0.031 C 
ATOM     45  C   UNL A   1      37.411  34.016  33.736  1.00  0.00     0.029 A 
ATOM     46  N   UNL A   1      39.070  32.519  33.796  1.00  0.00    -0.354 N 
ATOM     47  C   UNL A   1      39.717  29.767  30.547  1.00  0.00     0.074 A 
ATOM     48  C   UNL A   1      38.754  29.969  29.487  1.00  0.00     0.031 C 
ATOM     49  C   UNL A   1      38.002  34.119  34.937  1.00  0.00     0.029 A 
ATOM     50  C   UNL A   1      39.078  33.137  35.026  1.00  0.00     0.049 A 
ATOM     51  H   UNL A   1      39.711  31.815  33.543  1.00  0.00     0.167 HD
ATOM     52  C   UNL A   1      40.683  28.816  30.529  1.00  0.00     0.034 A 
ATOM     53  C   UNL A   1      39.861  32.935  36.105  1.00  0.00     0.034 A 
ATOM     54  C   UNL A   1      41.675  28.648  31.556  1.00  0.00     0.049 A 
ATOM     55  C   UNL A   1      40.957  31.905  36.036  1.00  0.00     0.074 A 
ATOM     56  C   UNL A   1      42.752  27.780  31.577  1.00  0.00     0.029 A 
ATOM     57  N   UNL A   1      41.709  29.357  32.747  1.00  0.00    -0.354 N 
ATOM     58  N   UNL A   1      41.290  31.120  35.042  1.00  0.00    -0.248 NA
ATOM     59  C   UNL A   1      41.808  31.759  37.226  1.00  0.00     0.031 C 
ATOM     60  C   UNL A   1      43.432  27.956  32.788  1.00  0.00     0.029 A 
ATOM     61  C   UNL A   1      42.785  28.942  33.514  1.00  0.00     0.049 A 
ATOM     62  H   UNL A   1      41.065  30.055  33.008  1.00  0.00     0.167 HD
ATOM     63  C   UNL A   1      42.408  30.413  35.470  1.00  0.00     0.074 A 
ATOM     64  C   UNL A   1      42.708  30.879  36.809  1.00  0.00     0.031 C 
ATOM     65  C   UNL A   1      43.111  29.453  34.820  1.00  0.00     0.034 A 
BRANCH  52  66
ATOM     66  C   UNL A   1      40.755  27.915  29.323  1.00  0.00     0.023 A 
ATOM     67  C   UNL A   1      39.907  26.792  29.248  1.00  0.00     0.012 A 
ATOM     68  C   UNL A   1      41.607  28.212  28.241  1.00  0.00     0.148 A 
ATOM     69  C   UNL A   1      39.926  25.960  28.129  1.00  0.00     0.002 A 
ATOM     70  C   UNL A   1      41.592  27.400  27.111  1.00  0.00     0.091 A 
ATOM     71  F   UNL A   1      42.423  29.271  28.338  1.00  0.00    -0.205 F 
ATOM     72  C   UNL A   1      40.759  26.270  27.058  1.00  0.00     0.022 A 
BRANCH  70  73
ATOM     73  S   UNL A   1      42.575  27.759  25.651  1.00  0.00     0.127 S 
ATOM     74  O   UNL A   1      42.309  26.587  24.820  1.00  0.00    -0.237 OA
ATOM     75  O   UNL A   1      41.968  29.000  25.165  1.00  0.00    -0.237 OA
ATOM     76  O   UNL A   1      43.946  27.902  26.119  1.00  0.00    -0.744 OA
ENDBRANCH  70  73
ENDBRANCH  52  66
BRANCH  53  77
ATOM     77  C   UNL A   1      39.687  33.785  37.317  1.00  0.00     0.023 A 
ATOM     78  C   UNL A   1      40.233  35.083  37.328  1.00  0.00     0.012 A 
ATOM     79  C   UNL A   1      38.964  33.334  38.438  1.00  0.00     0.148 A 
ATOM     80  C   UNL A   1      40.086  35.908  38.443  1.00  0.00     0.002 A 
ATOM     81  C   UNL A   1      38.776  34.181  39.524  1.00  0.00     0.091 A 
ATOM     82  F   UNL A   1      38.465  32.090  38.415  1.00  0.00    -0.205 F 
ATOM     83  C   UNL A   1      39.349  35.462  39.536  1.00  0.00     0.022 A 
BRANCH  81  84
ATOM     84  S   UNL A   1      37.731  33.735  40.918  1.00  0.00     0.127 S 
ATOM     85  O   UNL A   1      37.472  35.036  41.526  1.00  0.00    -0.237 OA
ATOM     86  O   UNL A   1      36.579  33.124  40.254  1.00  0.00    -0.237 OA
ATOM     87  O   UNL A   1      38.522  32.806  41.716  1.00  0.00    -0.744 OA
ENDBRANCH  81  84
ENDBRANCH  53  77
BRANCH  65  88
ATOM     88  C   UNL A   1      44.298  28.855  35.528  1.00  0.00     0.023 A 
ATOM     89  C   UNL A   1      45.580  29.399  35.322  1.00  0.00     0.012 A 
ATOM     90  C   UNL A   1      44.132  27.809  36.458  1.00  0.00     0.148 A 
ATOM     91  C   UNL A   1      46.684  28.894  36.006  1.00  0.00     0.002 A 
ATOM     92  C   UNL A   1      45.231  27.340  37.171  1.00  0.00     0.091 A 
ATOM     93  F   UNL A   1      42.908  27.289  36.626  1.00  0.00    -0.205 F 
ATOM     94  C   UNL A   1      46.508  27.875  36.939  1.00  0.00     0.022 A 
BRANCH  92  95
ATOM     95  S   UNL A   1      45.079  26.094  38.456  1.00  0.00     0.127 S 
ATOM     96  O   UNL A   1      44.671  24.919  37.687  1.00  0.00    -0.237 OA
ATOM     97  O   UNL A   1      46.439  26.030  38.993  1.00  0.00    -0.237 OA
ATOM     98  O   UNL A   1      44.088  26.607  39.392  1.00  0.00    -0.744 OA
ENDBRANCH  92  95
ENDBRANCH  65  88
ENDBRANCH  39  40
ENDBRANCH  31  34
ENDBRANCH  29  30
ENDBRANCH  28  29
ENDBRANCH  27  28
ENDBRANCH   1  27
TORSDOF 20
ENDMDL
