MODEL 1
REMARK VINA RESULT:     -11.4      0.000      0.000
REMARK SMILES O=C(NCCCCNC(=O)[C@H](F)Sc1cc2ccccc2[nH]1)c1ccc(-c2c3nc(c(-c4cccc(S(=O)(=O)[O-])c4F)c4ccc([nH]4)c(-c4cccc(S(=O)(=O)[O-])c4F)c4nc(c(-c5cccc(S(=O)(=O)[O-])c5F)c5ccc2[nH]5)C=C4)C=C3)cc1
REMARK SMILES IDX 5 1 4 2 3 3 1 4 2 5 23 7 24 8 85 9 25 10 84 11 26 12 27 13
REMARK SMILES IDX 28 14 78 15 29 16 83 17 77 18 79 19 30 20 82 21 76 22 75 23
REMARK SMILES IDX 31 25 63 26 43 27 62 28 44 29 47 30 61 31 80 32 45 33 46 34
REMARK SMILES IDX 60 36 81 37 48 38 32 39 33 40 41 41 34 42 36 43 42 44 35 45
REMARK SMILES IDX 37 46 38 47 39 48 40 49 64 50 65 51 73 52 66 53 68 54 74 55
REMARK SMILES IDX 67 56 69 57 70 58 71 59 72 60 49 61 50 62 58 63 51 64 53 65
REMARK SMILES IDX 59 66 52 67 54 68 55 69 56 70 57 71 6 72 7 73 8 74 9 75
REMARK SMILES IDX 10 77 11 78 12 79 13 80 14 81 15 82 22 83 16 84 21 85 17 87
REMARK SMILES IDX 20 88 18 89 19 90
REMARK H PARENT 3 6 79 24 47 35 8 76 22 86
REMARK Flexibility Score: inf
ROOT
ATOM      1  C   UNL A   1      35.347  21.568  26.298  1.00  0.00     0.023 C 
ENDROOT
BRANCH   1   2
ATOM      2  C   UNL A   1      36.567  21.876  25.436  1.00  0.00     0.116 C 
BRANCH   2   3
ATOM      3  N   UNL A   1      37.545  20.808  25.376  1.00  0.00    -0.352 N 
ATOM      4  O   UNL A   1      39.603  19.912  25.701  1.00  0.00    -0.269 OA
ATOM      5  C   UNL A   1      38.853  20.867  25.824  1.00  0.00     0.251 C 
ATOM      6  H   UNL A   1      37.250  19.957  24.978  1.00  0.00     0.163 HD
BRANCH   5   7
ATOM      7  C   UNL A   1      39.322  22.146  26.408  1.00  0.00     0.039 A 
ATOM      8  C   UNL A   1      38.807  23.358  25.941  1.00  0.00     0.014 A 
ATOM      9  C   UNL A   1      40.374  22.130  27.328  1.00  0.00     0.014 A 
ATOM     10  C   UNL A   1      39.436  24.551  26.289  1.00  0.00     0.010 A 
ATOM     11  C   UNL A   1      40.962  23.336  27.725  1.00  0.00     0.010 A 
ATOM     12  C   UNL A   1      40.529  24.554  27.174  1.00  0.00    -0.014 A 
BRANCH  12  13
ATOM     13  C   UNL A   1      41.179  25.839  27.544  1.00  0.00     0.031 A 
ATOM     14  C   UNL A   1      42.600  26.148  27.145  1.00  0.00     0.074 A 
ATOM     15  C   UNL A   1      40.476  26.740  28.258  1.00  0.00     0.049 A 
ATOM     16  N   UNL A   1      43.305  27.225  27.383  1.00  0.00    -0.248 NA
ATOM     17  C   UNL A   1      43.326  25.116  26.389  1.00  0.00     0.031 C 
ATOM     18  C   UNL A   1      39.111  26.538  28.745  1.00  0.00     0.029 A 
ATOM     19  N   UNL A   1      40.811  27.991  28.709  1.00  0.00    -0.354 N 
ATOM     20  C   UNL A   1      44.564  26.990  26.845  1.00  0.00     0.074 A 
ATOM     21  C   UNL A   1      44.530  25.663  26.266  1.00  0.00     0.031 C 
ATOM     22  C   UNL A   1      38.720  27.631  29.416  1.00  0.00     0.029 A 
ATOM     23  C   UNL A   1      39.817  28.593  29.443  1.00  0.00     0.049 A 
ATOM     24  H   UNL A   1      41.680  28.417  28.524  1.00  0.00     0.167 HD
ATOM     25  C   UNL A   1      45.643  27.810  26.817  1.00  0.00     0.034 A 
ATOM     26  C   UNL A   1      39.790  29.780  30.078  1.00  0.00     0.034 A 
ATOM     27  C   UNL A   1      45.662  29.148  27.348  1.00  0.00     0.049 A 
ATOM     28  C   UNL A   1      40.985  30.683  29.998  1.00  0.00     0.074 A 
ATOM     29  C   UNL A   1      46.683  30.082  27.294  1.00  0.00     0.029 A 
ATOM     30  N   UNL A   1      44.614  29.746  28.032  1.00  0.00    -0.354 N 
ATOM     31  N   UNL A   1      42.116  30.495  29.363  1.00  0.00    -0.248 NA
ATOM     32  C   UNL A   1      40.892  31.973  30.696  1.00  0.00     0.031 C 
ATOM     33  C   UNL A   1      46.256  31.239  27.953  1.00  0.00     0.029 A 
ATOM     34  C   UNL A   1      44.966  31.031  28.412  1.00  0.00     0.049 A 
ATOM     35  H   UNL A   1      43.746  29.320  28.219  1.00  0.00     0.167 HD
ATOM     36  C   UNL A   1      42.866  31.646  29.572  1.00  0.00     0.074 A 
ATOM     37  C   UNL A   1      42.046  32.540  30.366  1.00  0.00     0.031 C 
ATOM     38  C   UNL A   1      44.126  31.928  29.163  1.00  0.00     0.034 A 
BRANCH  25  39
ATOM     39  C   UNL A   1      46.893  27.310  26.139  1.00  0.00     0.023 A 
ATOM     40  C   UNL A   1      47.096  27.594  24.774  1.00  0.00     0.012 A 
ATOM     41  C   UNL A   1      47.901  26.643  26.864  1.00  0.00     0.148 A 
ATOM     42  C   UNL A   1      48.273  27.204  24.135  1.00  0.00     0.002 A 
ATOM     43  C   UNL A   1      49.085  26.285  26.227  1.00  0.00     0.091 A 
ATOM     44  F   UNL A   1      47.681  26.360  28.156  1.00  0.00    -0.205 F 
ATOM     45  C   UNL A   1      49.271  26.561  24.863  1.00  0.00     0.022 A 
BRANCH  43  46
ATOM     46  S   UNL A   1      50.450  25.514  27.105  1.00  0.00     0.127 S 
ATOM     47  O   UNL A   1      49.822  24.300  27.622  1.00  0.00    -0.237 OA
ATOM     48  O   UNL A   1      51.425  25.288  26.037  1.00  0.00    -0.237 OA
ATOM     49  O   UNL A   1      50.872  26.485  28.106  1.00  0.00    -0.744 OA
ENDBRANCH  43  46
ENDBRANCH  25  39
BRANCH  26  50
ATOM     50  C   UNL A   1      38.551  30.189  30.797  1.00  0.00     0.023 A 
ATOM     51  C   UNL A   1      38.433  29.925  32.174  1.00  0.00     0.012 A 
ATOM     52  C   UNL A   1      37.537  30.914  30.144  1.00  0.00     0.148 A 
ATOM     53  C   UNL A   1      37.318  30.369  32.886  1.00  0.00     0.002 A 
ATOM     54  C   UNL A   1      36.459  31.405  30.872  1.00  0.00     0.091 A 
ATOM     55  F   UNL A   1      37.657  31.135  28.827  1.00  0.00    -0.205 F 
ATOM     56  C   UNL A   1      36.340  31.122  32.241  1.00  0.00     0.022 A 
BRANCH  54  57
ATOM     57  S   UNL A   1      35.254  32.517  30.137  1.00  0.00     0.127 S 
ATOM     58  O   UNL A   1      34.323  32.724  31.242  1.00  0.00    -0.237 OA
ATOM     59  O   UNL A   1      36.073  33.680  29.795  1.00  0.00    -0.237 OA
ATOM     60  O   UNL A   1      34.732  31.800  28.981  1.00  0.00    -0.744 OA
ENDBRANCH  54  57
ENDBRANCH  26  50
BRANCH  38  61
ATOM     61  C   UNL A   1      44.703  33.257  29.567  1.00  0.00     0.023 A 
ATOM     62  C   UNL A   1      45.455  33.350  30.755  1.00  0.00     0.012 A 
ATOM     63  C   UNL A   1      44.557  34.394  28.750  1.00  0.00     0.148 A 
ATOM     64  C   UNL A   1      46.032  34.560  31.137  1.00  0.00     0.002 A 
ATOM     65  C   UNL A   1      45.166  35.589  29.119  1.00  0.00     0.091 A 
ATOM     66  F   UNL A   1      43.818  34.294  27.636  1.00  0.00    -0.205 F 
ATOM     67  C   UNL A   1      45.896  35.677  30.315  1.00  0.00     0.022 A 
BRANCH  65  68
ATOM     68  S   UNL A   1      45.103  37.050  28.074  1.00  0.00     0.127 S 
ATOM     69  O   UNL A   1      45.733  36.568  26.847  1.00  0.00    -0.237 OA
ATOM     70  O   UNL A   1      43.666  37.300  27.964  1.00  0.00    -0.237 OA
ATOM     71  O   UNL A   1      45.835  38.082  28.798  1.00  0.00    -0.744 OA
ENDBRANCH  65  68
ENDBRANCH  38  61
ENDBRANCH  12  13
ENDBRANCH   5   7
ENDBRANCH   2   3
ENDBRANCH   1   2
BRANCH   1  72
ATOM     72  C   UNL A   1      34.594  22.774  26.866  1.00  0.00     0.023 C 
BRANCH  72  73
ATOM     73  C   UNL A   1      33.426  22.380  27.764  1.00  0.00     0.116 C 
BRANCH  73  74
ATOM     74  N   UNL A   1      32.247  23.200  27.569  1.00  0.00    -0.353 N 
ATOM     75  C   UNL A   1      31.136  23.063  26.799  1.00  0.00     0.265 C 
ATOM     76  H   UNL A   1      32.251  24.026  28.106  1.00  0.00     0.163 HD
ATOM     77  O   UNL A   1      30.119  23.571  27.305  1.00  0.00    -0.271 OA
BRANCH  75  78
ATOM     78  C   UNL A   1      31.032  22.503  25.373  1.00  0.00     0.319 C 
ATOM     79  F   UNL A   1      31.858  21.426  25.197  1.00  0.00    -0.224 F 
BRANCH  78  80
ATOM     80  S   UNL A   1      31.155  23.577  23.942  1.00  0.00    -0.061 SA
BRANCH  80  81
ATOM     81  C   UNL A   1      31.826  25.044  24.563  1.00  0.00     0.076 A 
ATOM     82  C   UNL A   1      33.100  25.550  24.669  1.00  0.00     0.043 A 
ATOM     83  N   UNL A   1      30.974  25.891  25.215  1.00  0.00    -0.350 N 
ATOM     84  C   UNL A   1      33.036  26.646  25.580  1.00  0.00     0.001 A 
ATOM     85  C   UNL A   1      31.694  26.829  25.916  1.00  0.00     0.046 A 
ATOM     86  H   UNL A   1      29.992  25.838  25.187  1.00  0.00     0.167 HD
ATOM     87  C   UNL A   1      34.002  27.472  26.188  1.00  0.00     0.010 A 
ATOM     88  C   UNL A   1      31.262  27.795  26.828  1.00  0.00     0.027 A 
ATOM     89  C   UNL A   1      33.587  28.437  27.114  1.00  0.00     0.001 A 
ATOM     90  C   UNL A   1      32.238  28.594  27.426  1.00  0.00     0.002 A 
ENDBRANCH  80  81
ENDBRANCH  78  80
ENDBRANCH  75  78
ENDBRANCH  73  74
ENDBRANCH  72  73
ENDBRANCH   1  72
TORSDOF 16
ENDMDL
MODEL 2
REMARK VINA RESULT:     -11.4      4.481      9.442
REMARK SMILES O=C(NCCCCNC(=O)[C@H](F)Sc1cc2ccccc2[nH]1)c1ccc(-c2c3nc(c(-c4cccc(S(=O)(=O)[O-])c4F)c4ccc([nH]4)c(-c4cccc(S(=O)(=O)[O-])c4F)c4nc(c(-c5cccc(S(=O)(=O)[O-])c5F)c5ccc2[nH]5)C=C4)C=C3)cc1
REMARK SMILES IDX 5 1 4 2 3 3 1 4 2 5 23 7 24 8 85 9 25 10 84 11 26 12 27 13
REMARK SMILES IDX 28 14 78 15 29 16 83 17 77 18 79 19 30 20 82 21 76 22 75 23
REMARK SMILES IDX 31 25 63 26 43 27 62 28 44 29 47 30 61 31 80 32 45 33 46 34
REMARK SMILES IDX 60 36 81 37 48 38 32 39 33 40 41 41 34 42 36 43 42 44 35 45
REMARK SMILES IDX 37 46 38 47 39 48 40 49 64 50 65 51 73 52 66 53 68 54 74 55
REMARK SMILES IDX 67 56 69 57 70 58 71 59 72 60 49 61 50 62 58 63 51 64 53 65
REMARK SMILES IDX 59 66 52 67 54 68 55 69 56 70 57 71 6 72 7 73 8 74 9 75
REMARK SMILES IDX 10 77 11 78 12 79 13 80 14 81 15 82 22 83 16 84 21 85 17 87
REMARK SMILES IDX 20 88 18 89 19 90
REMARK H PARENT 3 6 79 24 47 35 8 76 22 86
REMARK Flexibility Score: inf
ROOT
ATOM      1  C   UNL A   1      32.095  28.152  27.140  1.00  0.00     0.023 C 
ENDROOT
BRANCH   1   2
ATOM      2  C   UNL A   1      33.475  28.758  27.371  1.00  0.00     0.116 C 
BRANCH   2   3
ATOM      3  N   UNL A   1      33.470  30.187  27.615  1.00  0.00    -0.352 N 
ATOM      4  O   UNL A   1      34.405  32.140  28.290  1.00  0.00    -0.269 OA
ATOM      5  C   UNL A   1      34.526  30.941  28.095  1.00  0.00     0.251 C 
ATOM      6  H   UNL A   1      32.633  30.668  27.421  1.00  0.00     0.163 HD
BRANCH   5   7
ATOM      7  C   UNL A   1      35.789  30.231  28.413  1.00  0.00     0.039 A 
ATOM      8  C   UNL A   1      35.956  29.630  29.663  1.00  0.00     0.014 A 
ATOM      9  C   UNL A   1      36.849  30.287  27.505  1.00  0.00     0.014 A 
ATOM     10  C   UNL A   1      37.224  29.208  30.058  1.00  0.00     0.010 A 
ATOM     11  C   UNL A   1      38.107  29.803  27.882  1.00  0.00     0.010 A 
ATOM     12  C   UNL A   1      38.316  29.302  29.178  1.00  0.00    -0.014 A 
BRANCH  12  13
ATOM     13  C   UNL A   1      39.659  28.834  29.613  1.00  0.00     0.031 A 
ATOM     14  C   UNL A   1      40.417  29.528  30.716  1.00  0.00     0.074 A 
ATOM     15  C   UNL A   1      40.207  27.769  28.996  1.00  0.00     0.049 A 
ATOM     16  N   UNL A   1      41.592  29.237  31.215  1.00  0.00    -0.248 NA
ATOM     17  C   UNL A   1      39.780  30.701  31.335  1.00  0.00     0.031 C 
ATOM     18  C   UNL A   1      39.594  27.042  27.883  1.00  0.00     0.029 A 
ATOM     19  N   UNL A   1      41.398  27.121  29.204  1.00  0.00    -0.354 N 
ATOM     20  C   UNL A   1      41.855  30.208  32.175  1.00  0.00     0.074 A 
ATOM     21  C   UNL A   1      40.715  31.101  32.189  1.00  0.00     0.031 C 
ATOM     22  C   UNL A   1      40.408  26.042  27.513  1.00  0.00     0.029 A 
ATOM     23  C   UNL A   1      41.614  26.080  28.333  1.00  0.00     0.049 A 
ATOM     24  H   UNL A   1      42.036  27.378  29.909  1.00  0.00     0.167 HD
ATOM     25  C   UNL A   1      42.936  30.333  32.983  1.00  0.00     0.034 A 
ATOM     26  C   UNL A   1      42.668  25.253  28.197  1.00  0.00     0.034 A 
ATOM     27  C   UNL A   1      44.046  29.416  33.005  1.00  0.00     0.049 A 
ATOM     28  C   UNL A   1      43.834  25.391  29.131  1.00  0.00     0.074 A 
ATOM     29  C   UNL A   1      45.148  29.416  33.844  1.00  0.00     0.029 A 
ATOM     30  N   UNL A   1      44.201  28.337  32.148  1.00  0.00    -0.354 N 
ATOM     31  N   UNL A   1      43.998  26.230  30.124  1.00  0.00    -0.248 NA
ATOM     32  C   UNL A   1      44.948  24.450  28.947  1.00  0.00     0.031 C 
ATOM     33  C   UNL A   1      45.971  28.343  33.489  1.00  0.00     0.029 A 
ATOM     34  C   UNL A   1      45.381  27.669  32.432  1.00  0.00     0.049 A 
ATOM     35  H   UNL A   1      43.565  28.081  31.441  1.00  0.00     0.167 HD
ATOM     36  C   UNL A   1      45.226  25.913  30.693  1.00  0.00     0.074 A 
ATOM     37  C   UNL A   1      45.749  24.781  29.953  1.00  0.00     0.031 C 
ATOM     38  C   UNL A   1      45.871  26.518  31.719  1.00  0.00     0.034 A 
BRANCH  25  39
ATOM     39  C   UNL A   1      42.956  31.476  33.964  1.00  0.00     0.023 A 
ATOM     40  C   UNL A   1      43.530  32.705  33.579  1.00  0.00     0.012 A 
ATOM     41  C   UNL A   1      42.334  31.369  35.224  1.00  0.00     0.148 A 
ATOM     42  C   UNL A   1      43.503  33.802  34.440  1.00  0.00     0.002 A 
ATOM     43  C   UNL A   1      42.283  32.477  36.064  1.00  0.00     0.091 A 
ATOM     44  F   UNL A   1      41.813  30.187  35.584  1.00  0.00    -0.205 F 
ATOM     45  C   UNL A   1      42.871  33.692  35.676  1.00  0.00     0.022 A 
BRANCH  43  46
ATOM     46  S   UNL A   1      41.430  32.444  37.645  1.00  0.00     0.127 S 
ATOM     47  O   UNL A   1      40.130  31.892  37.268  1.00  0.00    -0.237 OA
ATOM     48  O   UNL A   1      42.267  31.543  38.437  1.00  0.00    -0.237 OA
ATOM     49  O   UNL A   1      41.420  33.823  38.116  1.00  0.00    -0.744 OA
ENDBRANCH  43  46
ENDBRANCH  25  39
BRANCH  26  50
ATOM     50  C   UNL A   1      42.624  24.187  27.158  1.00  0.00     0.023 A 
ATOM     51  C   UNL A   1      43.238  24.410  25.912  1.00  0.00     0.012 A 
ATOM     52  C   UNL A   1      42.057  22.928  27.431  1.00  0.00     0.148 A 
ATOM     53  C   UNL A   1      43.279  23.399  24.952  1.00  0.00     0.002 A 
ATOM     54  C   UNL A   1      42.155  21.907  26.494  1.00  0.00     0.091 A 
ATOM     55  F   UNL A   1      41.454  22.743  28.615  1.00  0.00    -0.205 F 
ATOM     56  C   UNL A   1      42.754  22.143  25.248  1.00  0.00     0.022 A 
BRANCH  54  57
ATOM     57  S   UNL A   1      41.646  20.226  26.875  1.00  0.00     0.127 S 
ATOM     58  O   UNL A   1      41.640  19.606  25.553  1.00  0.00    -0.237 OA
ATOM     59  O   UNL A   1      42.715  19.772  27.764  1.00  0.00    -0.237 OA
ATOM     60  O   UNL A   1      40.350  20.361  27.528  1.00  0.00    -0.744 OA
ENDBRANCH  54  57
ENDBRANCH  26  50
BRANCH  38  61
ATOM     61  C   UNL A   1      47.218  25.972  32.106  1.00  0.00     0.023 A 
ATOM     62  C   UNL A   1      48.365  26.421  31.422  1.00  0.00     0.012 A 
ATOM     63  C   UNL A   1      47.359  25.069  33.177  1.00  0.00     0.148 A 
ATOM     64  C   UNL A   1      49.631  25.959  31.782  1.00  0.00     0.002 A 
ATOM     65  C   UNL A   1      48.628  24.642  33.554  1.00  0.00     0.091 A 
ATOM     66  F   UNL A   1      46.254  24.634  33.800  1.00  0.00    -0.205 F 
ATOM     67  C   UNL A   1      49.764  25.079  32.853  1.00  0.00     0.022 A 
BRANCH  65  68
ATOM     68  S   UNL A   1      48.888  23.570  34.973  1.00  0.00     0.127 S 
ATOM     69  O   UNL A   1      50.334  23.365  34.933  1.00  0.00    -0.237 OA
ATOM     70  O   UNL A   1      48.420  24.398  36.085  1.00  0.00    -0.237 OA
ATOM     71  O   UNL A   1      48.074  22.387  34.725  1.00  0.00    -0.744 OA
ENDBRANCH  65  68
ENDBRANCH  38  61
ENDBRANCH  12  13
ENDBRANCH   5   7
ENDBRANCH   2   3
ENDBRANCH   1   2
BRANCH   1  72
ATOM     72  C   UNL A   1      32.055  26.821  26.383  1.00  0.00     0.023 C 
BRANCH  72  73
ATOM     73  C   UNL A   1      30.644  26.404  25.983  1.00  0.00     0.116 C 
BRANCH  73  74
ATOM     74  N   UNL A   1      30.250  25.115  26.515  1.00  0.00    -0.353 N 
ATOM     75  C   UNL A   1      30.761  23.863  26.391  1.00  0.00     0.265 C 
ATOM     76  H   UNL A   1      29.446  25.155  27.084  1.00  0.00     0.163 HD
ATOM     77  O   UNL A   1      30.585  23.156  27.401  1.00  0.00    -0.271 OA
BRANCH  75  78
ATOM     78  C   UNL A   1      31.375  23.206  25.147  1.00  0.00     0.319 C 
ATOM     79  F   UNL A   1      30.567  23.354  24.052  1.00  0.00    -0.224 F 
BRANCH  78  80
ATOM     80  S   UNL A   1      31.994  21.523  25.195  1.00  0.00    -0.061 SA
BRANCH  80  81
ATOM     81  C   UNL A   1      33.707  21.692  25.044  1.00  0.00     0.076 A 
ATOM     82  C   UNL A   1      34.755  20.809  24.923  1.00  0.00     0.043 A 
ATOM     83  N   UNL A   1      34.224  22.950  25.182  1.00  0.00    -0.350 N 
ATOM     84  C   UNL A   1      35.949  21.543  25.186  1.00  0.00     0.001 A 
ATOM     85  C   UNL A   1      35.585  22.879  25.358  1.00  0.00     0.046 A 
ATOM     86  H   UNL A   1      33.699  23.782  25.160  1.00  0.00     0.167 HD
ATOM     87  C   UNL A   1      37.303  21.188  25.341  1.00  0.00     0.010 A 
ATOM     88  C   UNL A   1      36.503  23.883  25.677  1.00  0.00     0.027 A 
ATOM     89  C   UNL A   1      38.234  22.180  25.673  1.00  0.00     0.001 A 
ATOM     90  C   UNL A   1      37.838  23.505  25.837  1.00  0.00     0.002 A 
ENDBRANCH  80  81
ENDBRANCH  78  80
ENDBRANCH  75  78
ENDBRANCH  73  74
ENDBRANCH  72  73
ENDBRANCH   1  72
TORSDOF 16
ENDMDL
MODEL 3
REMARK VINA RESULT:     -11.4      1.682      3.228
REMARK SMILES O=C(NCCCCNC(=O)[C@H](F)Sc1cc2ccccc2[nH]1)c1ccc(-c2c3nc(c(-c4cccc(S(=O)(=O)[O-])c4F)c4ccc([nH]4)c(-c4cccc(S(=O)(=O)[O-])c4F)c4nc(c(-c5cccc(S(=O)(=O)[O-])c5F)c5ccc2[nH]5)C=C4)C=C3)cc1
REMARK SMILES IDX 5 1 4 2 3 3 1 4 2 5 23 7 24 8 85 9 25 10 84 11 26 12 27 13
REMARK SMILES IDX 28 14 78 15 29 16 83 17 77 18 79 19 30 20 82 21 76 22 75 23
REMARK SMILES IDX 31 25 63 26 43 27 62 28 44 29 47 30 61 31 80 32 45 33 46 34
REMARK SMILES IDX 60 36 81 37 48 38 32 39 33 40 41 41 34 42 36 43 42 44 35 45
REMARK SMILES IDX 37 46 38 47 39 48 40 49 64 50 65 51 73 52 66 53 68 54 74 55
REMARK SMILES IDX 67 56 69 57 70 58 71 59 72 60 49 61 50 62 58 63 51 64 53 65
REMARK SMILES IDX 59 66 52 67 54 68 55 69 56 70 57 71 6 72 7 73 8 74 9 75
REMARK SMILES IDX 10 77 11 78 12 79 13 80 14 81 15 82 22 83 16 84 21 85 17 87
REMARK SMILES IDX 20 88 18 89 19 90
REMARK H PARENT 3 6 79 24 47 35 8 76 22 86
REMARK Flexibility Score: inf
ROOT
ATOM      1  C   UNL A   1      35.536  21.888  26.164  1.00  0.00     0.023 C 
ENDROOT
BRANCH   1   2
ATOM      2  C   UNL A   1      36.623  21.882  25.094  1.00  0.00     0.116 C 
BRANCH   2   3
ATOM      3  N   UNL A   1      37.544  20.766  25.181  1.00  0.00    -0.352 N 
ATOM      4  O   UNL A   1      39.507  19.788  25.760  1.00  0.00    -0.269 OA
ATOM      5  C   UNL A   1      38.799  20.782  25.764  1.00  0.00     0.251 C 
ATOM      6  H   UNL A   1      37.249  19.913  24.788  1.00  0.00     0.163 HD
BRANCH   5   7
ATOM      7  C   UNL A   1      39.272  22.062  26.344  1.00  0.00     0.039 A 
ATOM      8  C   UNL A   1      38.774  23.275  25.858  1.00  0.00     0.014 A 
ATOM      9  C   UNL A   1      40.308  22.045  27.281  1.00  0.00     0.014 A 
ATOM     10  C   UNL A   1      39.409  24.465  26.205  1.00  0.00     0.010 A 
ATOM     11  C   UNL A   1      40.901  23.249  27.676  1.00  0.00     0.010 A 
ATOM     12  C   UNL A   1      40.488  24.466  27.107  1.00  0.00    -0.014 A 
BRANCH  12  13
ATOM     13  C   UNL A   1      41.144  25.749  27.475  1.00  0.00     0.031 A 
ATOM     14  C   UNL A   1      42.567  26.050  27.077  1.00  0.00     0.074 A 
ATOM     15  C   UNL A   1      40.445  26.653  28.188  1.00  0.00     0.049 A 
ATOM     16  N   UNL A   1      43.277  27.124  27.314  1.00  0.00    -0.248 NA
ATOM     17  C   UNL A   1      43.288  25.013  26.323  1.00  0.00     0.031 C 
ATOM     18  C   UNL A   1      39.079  26.459  28.674  1.00  0.00     0.029 A 
ATOM     19  N   UNL A   1      40.786  27.904  28.637  1.00  0.00    -0.354 N 
ATOM     20  C   UNL A   1      44.535  26.881  26.777  1.00  0.00     0.074 A 
ATOM     21  C   UNL A   1      44.495  25.554  26.200  1.00  0.00     0.031 C 
ATOM     22  C   UNL A   1      38.693  27.555  29.344  1.00  0.00     0.029 A 
ATOM     23  C   UNL A   1      39.794  28.511  29.370  1.00  0.00     0.049 A 
ATOM     24  H   UNL A   1      41.658  28.325  28.453  1.00  0.00     0.167 HD
ATOM     25  C   UNL A   1      45.619  27.696  26.748  1.00  0.00     0.034 A 
ATOM     26  C   UNL A   1      39.773  29.699  30.004  1.00  0.00     0.034 A 
ATOM     27  C   UNL A   1      45.643  29.035  27.277  1.00  0.00     0.049 A 
ATOM     28  C   UNL A   1      40.973  30.596  29.923  1.00  0.00     0.074 A 
ATOM     29  C   UNL A   1      46.670  29.964  27.223  1.00  0.00     0.029 A 
ATOM     30  N   UNL A   1      44.598  29.639  27.960  1.00  0.00    -0.354 N 
ATOM     31  N   UNL A   1      42.104  30.402  29.289  1.00  0.00    -0.248 NA
ATOM     32  C   UNL A   1      40.886  31.888  30.619  1.00  0.00     0.031 C 
ATOM     33  C   UNL A   1      46.248  31.124  27.880  1.00  0.00     0.029 A 
ATOM     34  C   UNL A   1      44.956  30.922  28.338  1.00  0.00     0.049 A 
ATOM     35  H   UNL A   1      43.728  29.217  28.147  1.00  0.00     0.167 HD
ATOM     36  C   UNL A   1      42.858  31.550  29.497  1.00  0.00     0.074 A 
ATOM     37  C   UNL A   1      42.043  32.449  30.289  1.00  0.00     0.031 C 
ATOM     38  C   UNL A   1      44.121  31.825  29.087  1.00  0.00     0.034 A 
BRANCH  25  39
ATOM     39  C   UNL A   1      46.866  27.189  26.071  1.00  0.00     0.023 A 
ATOM     40  C   UNL A   1      47.035  27.403  24.689  1.00  0.00     0.012 A 
ATOM     41  C   UNL A   1      47.904  26.587  26.809  1.00  0.00     0.148 A 
ATOM     42  C   UNL A   1      48.208  27.006  24.047  1.00  0.00     0.002 A 
ATOM     43  C   UNL A   1      49.084  26.222  26.168  1.00  0.00     0.091 A 
ATOM     44  F   UNL A   1      47.718  26.370  28.119  1.00  0.00    -0.205 F 
ATOM     45  C   UNL A   1      49.236  26.427  24.787  1.00  0.00     0.022 A 
BRANCH  43  46
ATOM     46  S   UNL A   1      50.485  25.532  27.057  1.00  0.00     0.127 S 
ATOM     47  O   UNL A   1      50.767  26.587  28.029  1.00  0.00    -0.237 OA
ATOM     48  O   UNL A   1      49.924  24.309  27.631  1.00  0.00    -0.237 OA
ATOM     49  O   UNL A   1      51.515  25.306  26.052  1.00  0.00    -0.744 OA
ENDBRANCH  43  46
ENDBRANCH  25  39
BRANCH  26  50
ATOM     50  C   UNL A   1      38.536  30.116  30.721  1.00  0.00     0.023 A 
ATOM     51  C   UNL A   1      38.389  29.799  32.084  1.00  0.00     0.012 A 
ATOM     52  C   UNL A   1      37.553  30.896  30.085  1.00  0.00     0.148 A 
ATOM     53  C   UNL A   1      37.276  30.246  32.798  1.00  0.00     0.002 A 
ATOM     54  C   UNL A   1      36.480  31.389  30.817  1.00  0.00     0.091 A 
ATOM     55  F   UNL A   1      37.700  31.167  28.779  1.00  0.00    -0.205 F 
ATOM     56  C   UNL A   1      36.332  31.055  32.171  1.00  0.00     0.022 A 
BRANCH  54  57
ATOM     57  S   UNL A   1      35.319  32.566  30.111  1.00  0.00     0.127 S 
ATOM     58  O   UNL A   1      34.716  31.786  29.036  1.00  0.00    -0.237 OA
ATOM     59  O   UNL A   1      34.434  32.845  31.242  1.00  0.00    -0.237 OA
ATOM     60  O   UNL A   1      36.134  33.704  29.702  1.00  0.00    -0.744 OA
ENDBRANCH  54  57
ENDBRANCH  26  50
BRANCH  38  61
ATOM     61  C   UNL A   1      44.704  33.152  29.490  1.00  0.00     0.023 A 
ATOM     62  C   UNL A   1      45.443  33.246  30.686  1.00  0.00     0.012 A 
ATOM     63  C   UNL A   1      44.576  34.285  28.664  1.00  0.00     0.148 A 
ATOM     64  C   UNL A   1      46.025  34.454  31.067  1.00  0.00     0.002 A 
ATOM     65  C   UNL A   1      45.190  35.477  29.033  1.00  0.00     0.091 A 
ATOM     66  F   UNL A   1      43.849  34.183  27.542  1.00  0.00    -0.205 F 
ATOM     67  C   UNL A   1      45.908  35.566  30.237  1.00  0.00     0.022 A 
BRANCH  65  68
ATOM     68  S   UNL A   1      45.153  36.932  27.979  1.00  0.00     0.127 S 
ATOM     69  O   UNL A   1      43.724  37.236  27.938  1.00  0.00    -0.237 OA
ATOM     70  O   UNL A   1      45.958  37.892  28.734  1.00  0.00    -0.237 OA
ATOM     71  O   UNL A   1      45.748  36.517  26.715  1.00  0.00    -0.744 OA
ENDBRANCH  65  68
ENDBRANCH  38  61
ENDBRANCH  12  13
ENDBRANCH   5   7
ENDBRANCH   2   3
ENDBRANCH   1   2
BRANCH   1  72
ATOM     72  C   UNL A   1      34.936  23.253  26.514  1.00  0.00     0.023 C 
BRANCH  72  73
ATOM     73  C   UNL A   1      35.212  24.316  25.456  1.00  0.00     0.116 C 
BRANCH  73  74
ATOM     74  N   UNL A   1      34.026  25.037  25.039  1.00  0.00    -0.353 N 
ATOM     75  C   UNL A   1      32.724  24.680  24.896  1.00  0.00     0.265 C 
ATOM     76  H   UNL A   1      34.200  25.981  24.814  1.00  0.00     0.163 HD
ATOM     77  O   UNL A   1      31.929  25.610  25.126  1.00  0.00    -0.271 OA
BRANCH  75  78
ATOM     78  C   UNL A   1      32.154  23.357  24.365  1.00  0.00     0.319 C 
ATOM     79  F   UNL A   1      31.237  23.570  23.371  1.00  0.00    -0.224 F 
BRANCH  78  80
ATOM     80  S   UNL A   1      31.527  22.100  25.482  1.00  0.00    -0.061 SA
BRANCH  80  81
ATOM     81  C   UNL A   1      32.310  20.646  24.973  1.00  0.00     0.076 A 
ATOM     82  C   UNL A   1      32.725  20.151  23.759  1.00  0.00     0.043 A 
ATOM     83  N   UNL A   1      32.487  19.672  25.916  1.00  0.00    -0.350 N 
ATOM     84  C   UNL A   1      32.987  18.761  23.946  1.00  0.00     0.001 A 
ATOM     85  C   UNL A   1      32.817  18.486  25.304  1.00  0.00     0.046 A 
ATOM     86  H   UNL A   1      32.393  19.800  26.886  1.00  0.00     0.167 HD
ATOM     87  C   UNL A   1      33.307  17.699  23.079  1.00  0.00     0.010 A 
ATOM     88  C   UNL A   1      32.952  17.204  25.844  1.00  0.00     0.027 A 
ATOM     89  C   UNL A   1      33.433  16.406  23.601  1.00  0.00     0.001 A 
ATOM     90  C   UNL A   1      33.258  16.165  24.962  1.00  0.00     0.002 A 
ENDBRANCH  80  81
ENDBRANCH  78  80
ENDBRANCH  75  78
ENDBRANCH  73  74
ENDBRANCH  72  73
ENDBRANCH   1  72
TORSDOF 16
ENDMDL
