MODEL 1
REMARK VINA RESULT:      -8.0      0.000      0.000
REMARK SMILES CC(=O)Oc1ccccc1SCCCCCC(=O)NCCCCNC(=O)c1ccc(-c2c3nc(c(-c4cccc(S(=O)(=O)[O-])c4F)c4ccc([nH]4)c(-c4cccc(S(=O)(=O)[O-])c4F)c4nc(c(-c5cccc(S(=O)(=O)[O-])c5F)c5ccc2[nH]5)C=C4)C=C3)cc1
REMARK SMILES IDX 17 1 18 2 19 3 16 5 15 6 14 7 13 8 12 9 11 10 10 11 5 12
REMARK SMILES IDX 6 13 7 14 9 15 8 16 4 17 2 18 1 19 3 20 20 21 21 22 22 23
REMARK SMILES IDX 23 24 24 25 25 26 26 28 27 29 28 30 89 31 29 32 88 33 30 34
REMARK SMILES IDX 31 35 32 36 82 37 33 38 87 39 81 40 83 41 34 42 86 43 80 44
REMARK SMILES IDX 79 45 35 47 67 48 47 49 66 50 48 51 51 52 65 53 84 54 49 55
REMARK SMILES IDX 50 56 64 58 85 59 52 60 36 61 37 62 45 63 38 64 40 65 46 66
REMARK SMILES IDX 39 67 41 68 42 69 43 70 44 71 68 72 69 73 77 74 70 75 72 76
REMARK SMILES IDX 78 77 71 78 73 79 74 80 75 81 76 82 53 83 54 84 62 85 55 86
REMARK SMILES IDX 57 87 63 88 56 89 58 90 59 91 60 92 61 93
REMARK H PARENT 19 4 24 27 83 46 51 57
REMARK Flexibility Score: inf
ROOT
ATOM      1  C   UNL A   1      44.975  19.723  24.105  1.00  0.00     0.219 C 
ATOM      2  O   UNL A   1      44.847  18.810  23.289  1.00  0.00    -0.275 OA
ATOM      3  N   UNL A   1      45.941  20.661  23.913  1.00  0.00    -0.356 N 
ATOM      4  H   UNL A   1      46.433  20.604  23.062  1.00  0.00     0.163 HD
ENDROOT
BRANCH   1   5
ATOM      5  C   UNL A   1      44.052  19.836  25.302  1.00  0.00     0.100 C 
BRANCH   5   6
ATOM      6  C   UNL A   1      43.664  18.495  25.931  1.00  0.00     0.010 C 
BRANCH   6   7
ATOM      7  C   UNL A   1      42.180  18.163  26.200  1.00  0.00     0.001 C 
BRANCH   7   8
ATOM      8  C   UNL A   1      41.117  19.241  25.996  1.00  0.00     0.011 C 
BRANCH   8   9
ATOM      9  C   UNL A   1      40.738  20.307  27.041  1.00  0.00     0.075 C 
BRANCH   9  10
ATOM     10  S   UNL A   1      40.235  22.045  26.817  1.00  0.00    -0.122 SA
BRANCH  10  11
ATOM     11  C   UNL A   1      41.550  23.071  27.415  1.00  0.00     0.050 A 
ATOM     12  C   UNL A   1      41.803  24.425  27.171  1.00  0.00     0.144 A 
ATOM     13  C   UNL A   1      42.747  25.126  27.944  1.00  0.00     0.048 A 
ATOM     14  C   UNL A   1      43.476  24.473  28.937  1.00  0.00     0.004 A 
ATOM     15  C   UNL A   1      42.360  22.418  28.367  1.00  0.00     0.019 A 
ATOM     16  C   UNL A   1      43.298  23.110  29.134  1.00  0.00     0.001 A 
BRANCH  12  17
ATOM     17  O   UNL A   1      40.971  25.299  26.411  1.00  0.00    -0.426 OA
BRANCH  17  18
ATOM     18  C   UNL A   1      41.128  26.625  26.017  1.00  0.00     0.308 C 
ATOM     19  C   UNL A   1      40.414  27.488  27.023  1.00  0.00     0.139 C 
ATOM     20  O   UNL A   1      41.745  27.035  25.045  1.00  0.00    -0.252 OA
ENDBRANCH  17  18
ENDBRANCH  12  17
ENDBRANCH  10  11
ENDBRANCH   9  10
ENDBRANCH   8   9
ENDBRANCH   7   8
ENDBRANCH   6   7
ENDBRANCH   5   6
ENDBRANCH   1   5
BRANCH   3  21
ATOM     21  C   UNL A   1      46.334  21.730  24.801  1.00  0.00     0.116 C 
BRANCH  21  22
ATOM     22  C   UNL A   1      45.675  23.039  24.379  1.00  0.00     0.023 C 
BRANCH  22  23
ATOM     23  C   UNL A   1      45.185  23.918  25.506  1.00  0.00     0.023 C 
BRANCH  23  24
ATOM     24  C   UNL A   1      46.162  25.013  25.878  1.00  0.00     0.116 C 
BRANCH  24  25
ATOM     25  N   UNL A   1      46.899  25.599  24.757  1.00  0.00    -0.352 N 
ATOM     26  C   UNL A   1      47.040  26.945  24.486  1.00  0.00     0.251 C 
ATOM     27  H   UNL A   1      47.337  24.972  24.136  1.00  0.00     0.163 HD
ATOM     28  O   UNL A   1      47.647  27.352  23.505  1.00  0.00    -0.269 OA
BRANCH  26  29
ATOM     29  C   UNL A   1      46.368  27.872  25.417  1.00  0.00     0.039 A 
ATOM     30  C   UNL A   1      44.993  27.748  25.613  1.00  0.00     0.014 A 
ATOM     31  C   UNL A   1      47.162  28.623  26.286  1.00  0.00     0.014 A 
ATOM     32  C   UNL A   1      44.423  28.307  26.756  1.00  0.00     0.010 A 
ATOM     33  C   UNL A   1      46.615  29.044  27.486  1.00  0.00     0.010 A 
ATOM     34  C   UNL A   1      45.240  28.905  27.731  1.00  0.00    -0.014 A 
BRANCH  34  35
ATOM     35  C   UNL A   1      44.684  29.404  29.015  1.00  0.00     0.031 A 
ATOM     36  C   UNL A   1      44.211  30.830  29.109  1.00  0.00     0.074 A 
ATOM     37  C   UNL A   1      44.703  28.626  30.117  1.00  0.00     0.049 A 
ATOM     38  N   UNL A   1      43.768  31.486  30.148  1.00  0.00    -0.248 NA
ATOM     39  C   UNL A   1      44.299  31.645  27.884  1.00  0.00     0.031 C 
ATOM     40  C   UNL A   1      45.251  27.268  30.192  1.00  0.00     0.029 A 
ATOM     41  N   UNL A   1      44.272  28.877  31.396  1.00  0.00    -0.354 N 
ATOM     42  C   UNL A   1      43.578  32.791  29.713  1.00  0.00     0.074 A 
ATOM     43  C   UNL A   1      44.024  32.853  28.341  1.00  0.00     0.031 C 
ATOM     44  C   UNL A   1      45.105  26.802  31.443  1.00  0.00     0.029 A 
ATOM     45  C   UNL A   1      44.481  27.833  32.267  1.00  0.00     0.049 A 
ATOM     46  H   UNL A   1      43.854  29.726  31.664  1.00  0.00     0.167 HD
ATOM     47  C   UNL A   1      43.029  33.837  30.373  1.00  0.00     0.034 A 
ATOM     48  C   UNL A   1      44.199  27.719  33.580  1.00  0.00     0.034 A 
ATOM     49  C   UNL A   1      42.519  33.751  31.712  1.00  0.00     0.049 A 
ATOM     50  C   UNL A   1      43.509  28.861  34.277  1.00  0.00     0.074 A 
ATOM     51  C   UNL A   1      41.838  34.710  32.438  1.00  0.00     0.029 A 
ATOM     52  N   UNL A   1      42.638  32.636  32.528  1.00  0.00    -0.354 N 
ATOM     53  N   UNL A   1      43.166  30.032  33.795  1.00  0.00    -0.248 NA
ATOM     54  C   UNL A   1      43.130  28.655  35.682  1.00  0.00     0.031 C 
ATOM     55  C   UNL A   1      41.562  34.181  33.702  1.00  0.00     0.029 A 
ATOM     56  C   UNL A   1      42.050  32.884  33.756  1.00  0.00     0.049 A 
ATOM     57  H   UNL A   1      43.076  31.793  32.273  1.00  0.00     0.167 HD
ATOM     58  C   UNL A   1      42.510  30.693  34.828  1.00  0.00     0.074 A 
ATOM     59  C   UNL A   1      42.482  29.780  35.953  1.00  0.00     0.031 C 
ATOM     60  C   UNL A   1      41.993  31.948  34.849  1.00  0.00     0.034 A 
BRANCH  47  61
ATOM     61  C   UNL A   1      42.896  35.133  29.617  1.00  0.00     0.023 A 
ATOM     62  C   UNL A   1      41.788  35.333  28.767  1.00  0.00     0.012 A 
ATOM     63  C   UNL A   1      43.863  36.148  29.738  1.00  0.00     0.148 A 
ATOM     64  C   UNL A   1      41.674  36.494  28.004  1.00  0.00     0.002 A 
ATOM     65  C   UNL A   1      43.715  37.327  29.016  1.00  0.00     0.091 A 
ATOM     66  F   UNL A   1      44.925  35.933  30.529  1.00  0.00    -0.205 F 
ATOM     67  C   UNL A   1      42.633  37.494  28.136  1.00  0.00     0.022 A 
BRANCH  65  68
ATOM     68  S   UNL A   1      44.852  38.706  29.182  1.00  0.00     0.127 S 
ATOM     69  O   UNL A   1      45.948  38.292  28.307  1.00  0.00    -0.237 OA
ATOM     70  O   UNL A   1      44.057  39.826  28.675  1.00  0.00    -0.237 OA
ATOM     71  O   UNL A   1      45.174  38.787  30.600  1.00  0.00    -0.744 OA
ENDBRANCH  65  68
ENDBRANCH  47  61
BRANCH  48  72
ATOM     72  C   UNL A   1      44.496  26.443  34.292  1.00  0.00     0.023 A 
ATOM     73  C   UNL A   1      43.560  25.391  34.254  1.00  0.00     0.012 A 
ATOM     74  C   UNL A   1      45.725  26.244  34.951  1.00  0.00     0.148 A 
ATOM     75  C   UNL A   1      43.831  24.174  34.879  1.00  0.00     0.002 A 
ATOM     76  C   UNL A   1      46.012  25.010  35.524  1.00  0.00     0.091 A 
ATOM     77  F   UNL A   1      46.600  27.259  34.981  1.00  0.00    -0.205 F 
ATOM     78  C   UNL A   1      45.060  23.979  35.503  1.00  0.00     0.022 A 
BRANCH  76  79
ATOM     79  S   UNL A   1      47.619  24.621  36.228  1.00  0.00     0.127 S 
ATOM     80  O   UNL A   1      48.507  24.856  35.092  1.00  0.00    -0.237 OA
ATOM     81  O   UNL A   1      47.720  25.607  37.304  1.00  0.00    -0.237 OA
ATOM     82  O   UNL A   1      47.528  23.241  36.682  1.00  0.00    -0.744 OA
ENDBRANCH  76  79
ENDBRANCH  48  72
BRANCH  60  83
ATOM     83  C   UNL A   1      41.332  32.410  36.119  1.00  0.00     0.023 A 
ATOM     84  C   UNL A   1      42.024  33.272  36.993  1.00  0.00     0.012 A 
ATOM     85  C   UNL A   1      39.996  32.063  36.402  1.00  0.00     0.148 A 
ATOM     86  C   UNL A   1      41.405  33.760  38.142  1.00  0.00     0.002 A 
ATOM     87  C   UNL A   1      39.369  32.592  37.523  1.00  0.00     0.091 A 
ATOM     88  F   UNL A   1      39.362  31.227  35.566  1.00  0.00    -0.205 F 
ATOM     89  C   UNL A   1      40.076  33.431  38.401  1.00  0.00     0.022 A 
BRANCH  87  90
ATOM     90  S   UNL A   1      37.633  32.304  37.880  1.00  0.00     0.127 S 
ATOM     91  O   UNL A   1      37.538  32.742  39.271  1.00  0.00    -0.237 OA
ATOM     92  O   UNL A   1      36.968  33.182  36.916  1.00  0.00    -0.237 OA
ATOM     93  O   UNL A   1      37.408  30.882  37.656  1.00  0.00    -0.744 OA
ENDBRANCH  87  90
ENDBRANCH  60  83
ENDBRANCH  34  35
ENDBRANCH  26  29
ENDBRANCH  24  25
ENDBRANCH  23  24
ENDBRANCH  22  23
ENDBRANCH  21  22
ENDBRANCH   3  21
TORSDOF 22
ENDMDL
MODEL 2
REMARK VINA RESULT:      -8.0      4.101     13.180
REMARK SMILES CC(=O)Oc1ccccc1SCCCCCC(=O)NCCCCNC(=O)c1ccc(-c2c3nc(c(-c4cccc(S(=O)(=O)[O-])c4F)c4ccc([nH]4)c(-c4cccc(S(=O)(=O)[O-])c4F)c4nc(c(-c5cccc(S(=O)(=O)[O-])c5F)c5ccc2[nH]5)C=C4)C=C3)cc1
REMARK SMILES IDX 17 1 18 2 19 3 16 5 15 6 14 7 13 8 12 9 11 10 10 11 5 12
REMARK SMILES IDX 6 13 7 14 9 15 8 16 4 17 2 18 1 19 3 20 20 21 21 22 22 23
REMARK SMILES IDX 23 24 24 25 25 26 26 28 27 29 28 30 89 31 29 32 88 33 30 34
REMARK SMILES IDX 31 35 32 36 82 37 33 38 87 39 81 40 83 41 34 42 86 43 80 44
REMARK SMILES IDX 79 45 35 47 67 48 47 49 66 50 48 51 51 52 65 53 84 54 49 55
REMARK SMILES IDX 50 56 64 58 85 59 52 60 36 61 37 62 45 63 38 64 40 65 46 66
REMARK SMILES IDX 39 67 41 68 42 69 43 70 44 71 68 72 69 73 77 74 70 75 72 76
REMARK SMILES IDX 78 77 71 78 73 79 74 80 75 81 76 82 53 83 54 84 62 85 55 86
REMARK SMILES IDX 57 87 63 88 56 89 58 90 59 91 60 92 61 93
REMARK H PARENT 19 4 24 27 83 46 51 57
REMARK Flexibility Score: inf
ROOT
ATOM      1  C   UNL A   1      33.366  36.455  32.609  1.00  0.00     0.219 C 
ATOM      2  O   UNL A   1      33.579  37.644  32.844  1.00  0.00    -0.275 OA
ATOM      3  N   UNL A   1      34.040  35.503  33.311  1.00  0.00    -0.356 N 
ATOM      4  H   UNL A   1      34.604  35.831  34.048  1.00  0.00     0.163 HD
ENDROOT
BRANCH   1   5
ATOM      5  C   UNL A   1      32.344  36.034  31.574  1.00  0.00     0.100 C 
BRANCH   5   6
ATOM      6  C   UNL A   1      32.838  36.112  30.128  1.00  0.00     0.010 C 
BRANCH   6   7
ATOM      7  C   UNL A   1      34.035  35.251  29.667  1.00  0.00     0.001 C 
BRANCH   7   8
ATOM      8  C   UNL A   1      33.819  34.160  28.617  1.00  0.00     0.011 C 
BRANCH   8   9
ATOM      9  C   UNL A   1      34.263  32.694  28.773  1.00  0.00     0.075 C 
BRANCH   9  10
ATOM     10  S   UNL A   1      35.816  31.879  28.277  1.00  0.00    -0.122 SA
BRANCH  10  11
ATOM     11  C   UNL A   1      37.106  32.480  29.332  1.00  0.00     0.050 A 
ATOM     12  C   UNL A   1      37.800  31.822  30.354  1.00  0.00     0.144 A 
ATOM     13  C   UNL A   1      38.968  32.385  30.901  1.00  0.00     0.048 A 
ATOM     14  C   UNL A   1      39.428  33.626  30.467  1.00  0.00     0.004 A 
ATOM     15  C   UNL A   1      37.546  33.771  28.972  1.00  0.00     0.019 A 
ATOM     16  C   UNL A   1      38.703  34.331  29.515  1.00  0.00     0.001 A 
BRANCH  12  17
ATOM     17  O   UNL A   1      37.642  30.450  30.712  1.00  0.00    -0.426 OA
BRANCH  17  18
ATOM     18  C   UNL A   1      38.553  29.402  30.809  1.00  0.00     0.308 C 
ATOM     19  C   UNL A   1      38.049  28.455  31.864  1.00  0.00     0.139 C 
ATOM     20  O   UNL A   1      39.573  29.252  30.152  1.00  0.00    -0.252 OA
ENDBRANCH  17  18
ENDBRANCH  12  17
ENDBRANCH  10  11
ENDBRANCH   9  10
ENDBRANCH   8   9
ENDBRANCH   7   8
ENDBRANCH   6   7
ENDBRANCH   5   6
ENDBRANCH   1   5
BRANCH   3  21
ATOM     21  C   UNL A   1      34.029  34.074  33.110  1.00  0.00     0.116 C 
BRANCH  21  22
ATOM     22  C   UNL A   1      35.383  33.476  33.481  1.00  0.00     0.023 C 
BRANCH  22  23
ATOM     23  C   UNL A   1      36.277  34.355  34.323  1.00  0.00     0.023 C 
BRANCH  23  24
ATOM     24  C   UNL A   1      37.391  33.594  35.008  1.00  0.00     0.116 C 
BRANCH  24  25
ATOM     25  N   UNL A   1      37.209  33.382  36.446  1.00  0.00    -0.352 N 
ATOM     26  C   UNL A   1      37.916  32.498  37.237  1.00  0.00     0.251 C 
ATOM     27  H   UNL A   1      36.516  33.921  36.891  1.00  0.00     0.163 HD
ATOM     28  O   UNL A   1      37.678  32.358  38.429  1.00  0.00    -0.269 OA
BRANCH  26  29
ATOM     29  C   UNL A   1      38.943  31.688  36.555  1.00  0.00     0.039 A 
ATOM     30  C   UNL A   1      38.566  30.908  35.462  1.00  0.00     0.014 A 
ATOM     31  C   UNL A   1      40.285  31.963  36.824  1.00  0.00     0.014 A 
ATOM     32  C   UNL A   1      39.548  30.479  34.570  1.00  0.00     0.010 A 
ATOM     33  C   UNL A   1      41.230  31.660  35.859  1.00  0.00     0.010 A 
ATOM     34  C   UNL A   1      40.878  30.903  34.728  1.00  0.00    -0.014 A 
BRANCH  34  35
ATOM     35  C   UNL A   1      41.929  30.566  33.734  1.00  0.00     0.031 A 
ATOM     36  C   UNL A   1      42.513  29.179  33.721  1.00  0.00     0.074 A 
ATOM     37  C   UNL A   1      42.435  31.519  32.924  1.00  0.00     0.049 A 
ATOM     38  N   UNL A   1      43.488  28.700  32.994  1.00  0.00    -0.248 NA
ATOM     39  C   UNL A   1      41.967  28.215  34.694  1.00  0.00     0.031 C 
ATOM     40  C   UNL A   1      42.045  32.932  32.923  1.00  0.00     0.029 A 
ATOM     41  N   UNL A   1      43.409  31.446  31.959  1.00  0.00    -0.354 N 
ATOM     42  C   UNL A   1      43.700  27.408  33.457  1.00  0.00     0.074 A 
ATOM     43  C   UNL A   1      42.809  27.204  34.575  1.00  0.00     0.031 C 
ATOM     44  C   UNL A   1      42.757  33.585  31.991  1.00  0.00     0.029 A 
ATOM     45  C   UNL A   1      43.674  32.649  31.347  1.00  0.00     0.049 A 
ATOM     46  H   UNL A   1      43.874  30.610  31.727  1.00  0.00     0.167 HD
ATOM     47  C   UNL A   1      44.522  26.452  32.966  1.00  0.00     0.034 A 
ATOM     48  C   UNL A   1      44.554  32.961  30.375  1.00  0.00     0.034 A 
ATOM     49  C   UNL A   1      45.352  26.636  31.810  1.00  0.00     0.049 A 
ATOM     50  C   UNL A   1      45.399  31.866  29.781  1.00  0.00     0.074 A 
ATOM     51  C   UNL A   1      46.134  25.705  31.154  1.00  0.00     0.029 A 
ATOM     52  N   UNL A   1      45.506  27.839  31.137  1.00  0.00    -0.354 N 
ATOM     53  N   UNL A   1      45.453  30.598  30.111  1.00  0.00    -0.248 NA
ATOM     54  C   UNL A   1      46.272  32.232  28.656  1.00  0.00     0.031 C 
ATOM     55  C   UNL A   1      46.778  26.350  30.094  1.00  0.00     0.029 A 
ATOM     56  C   UNL A   1      46.378  27.678  30.075  1.00  0.00     0.049 A 
ATOM     57  H   UNL A   1      45.061  28.683  31.378  1.00  0.00     0.167 HD
ATOM     58  C   UNL A   1      46.346  30.009  29.222  1.00  0.00     0.074 A 
ATOM     59  C   UNL A   1      46.787  31.056  28.322  1.00  0.00     0.031 C 
ATOM     60  C   UNL A   1      46.773  28.722  29.164  1.00  0.00     0.034 A 
BRANCH  47  61
ATOM     61  C   UNL A   1      44.497  25.109  33.648  1.00  0.00     0.023 A 
ATOM     62  C   UNL A   1      43.764  24.049  33.073  1.00  0.00     0.012 A 
ATOM     63  C   UNL A   1      45.188  24.893  34.854  1.00  0.00     0.148 A 
ATOM     64  C   UNL A   1      43.668  22.816  33.715  1.00  0.00     0.002 A 
ATOM     65  C   UNL A   1      45.134  23.643  35.462  1.00  0.00     0.091 A 
ATOM     66  F   UNL A   1      45.859  25.916  35.403  1.00  0.00    -0.205 F 
ATOM     67  C   UNL A   1      44.360  22.611  34.905  1.00  0.00     0.022 A 
BRANCH  65  68
ATOM     68  S   UNL A   1      46.059  23.257  36.951  1.00  0.00     0.127 S 
ATOM     69  O   UNL A   1      45.780  21.831  37.111  1.00  0.00    -0.237 OA
ATOM     70  O   UNL A   1      47.433  23.568  36.551  1.00  0.00    -0.237 OA
ATOM     71  O   UNL A   1      45.522  24.125  37.990  1.00  0.00    -0.744 OA
ENDBRANCH  65  68
ENDBRANCH  47  61
BRANCH  48  72
ATOM     72  C   UNL A   1      44.616  34.356  29.853  1.00  0.00     0.023 A 
ATOM     73  C   UNL A   1      45.650  35.213  30.280  1.00  0.00     0.012 A 
ATOM     74  C   UNL A   1      43.696  34.818  28.891  1.00  0.00     0.148 A 
ATOM     75  C   UNL A   1      45.753  36.510  29.777  1.00  0.00     0.002 A 
ATOM     76  C   UNL A   1      43.837  36.093  28.354  1.00  0.00     0.091 A 
ATOM     77  F   UNL A   1      42.716  33.990  28.504  1.00  0.00    -0.205 F 
ATOM     78  C   UNL A   1      44.856  36.946  28.806  1.00  0.00     0.022 A 
BRANCH  76  79
ATOM     79  S   UNL A   1      42.815  36.690  27.002  1.00  0.00     0.127 S 
ATOM     80  O   UNL A   1      43.413  37.995  26.728  1.00  0.00    -0.237 OA
ATOM     81  O   UNL A   1      43.054  35.675  25.977  1.00  0.00    -0.237 OA
ATOM     82  O   UNL A   1      41.454  36.717  27.518  1.00  0.00    -0.744 OA
ENDBRANCH  76  79
ENDBRANCH  48  72
BRANCH  60  83
ATOM     83  C   UNL A   1      47.755  28.359  28.084  1.00  0.00     0.023 A 
ATOM     84  C   UNL A   1      49.120  28.213  28.401  1.00  0.00     0.012 A 
ATOM     85  C   UNL A   1      47.313  28.076  26.776  1.00  0.00     0.148 A 
ATOM     86  C   UNL A   1      50.035  27.818  27.427  1.00  0.00     0.002 A 
ATOM     87  C   UNL A   1      48.222  27.635  25.823  1.00  0.00     0.091 A 
ATOM     88  F   UNL A   1      46.013  28.238  26.491  1.00  0.00    -0.205 F 
ATOM     89  C   UNL A   1      49.585  27.516  26.143  1.00  0.00     0.022 A 
BRANCH  87  90
ATOM     90  S   UNL A   1      47.718  27.128  24.175  1.00  0.00     0.127 S 
ATOM     91  O   UNL A   1      46.748  26.075  24.471  1.00  0.00    -0.237 OA
ATOM     92  O   UNL A   1      47.136  28.359  23.637  1.00  0.00    -0.237 OA
ATOM     93  O   UNL A   1      48.931  26.689  23.501  1.00  0.00    -0.744 OA
ENDBRANCH  87  90
ENDBRANCH  60  83
ENDBRANCH  34  35
ENDBRANCH  26  29
ENDBRANCH  24  25
ENDBRANCH  23  24
ENDBRANCH  22  23
ENDBRANCH  21  22
ENDBRANCH   3  21
TORSDOF 22
ENDMDL
MODEL 3
REMARK VINA RESULT:      -7.9      4.237      9.316
REMARK SMILES CC(=O)Oc1ccccc1SCCCCCC(=O)NCCCCNC(=O)c1ccc(-c2c3nc(c(-c4cccc(S(=O)(=O)[O-])c4F)c4ccc([nH]4)c(-c4cccc(S(=O)(=O)[O-])c4F)c4nc(c(-c5cccc(S(=O)(=O)[O-])c5F)c5ccc2[nH]5)C=C4)C=C3)cc1
REMARK SMILES IDX 17 1 18 2 19 3 16 5 15 6 14 7 13 8 12 9 11 10 10 11 5 12
REMARK SMILES IDX 6 13 7 14 9 15 8 16 4 17 2 18 1 19 3 20 20 21 21 22 22 23
REMARK SMILES IDX 23 24 24 25 25 26 26 28 27 29 28 30 89 31 29 32 88 33 30 34
REMARK SMILES IDX 31 35 32 36 82 37 33 38 87 39 81 40 83 41 34 42 86 43 80 44
REMARK SMILES IDX 79 45 35 47 67 48 47 49 66 50 48 51 51 52 65 53 84 54 49 55
REMARK SMILES IDX 50 56 64 58 85 59 52 60 36 61 37 62 45 63 38 64 40 65 46 66
REMARK SMILES IDX 39 67 41 68 42 69 43 70 44 71 68 72 69 73 77 74 70 75 72 76
REMARK SMILES IDX 78 77 71 78 73 79 74 80 75 81 76 82 53 83 54 84 62 85 55 86
REMARK SMILES IDX 57 87 63 88 56 89 58 90 59 91 60 92 61 93
REMARK H PARENT 19 4 24 27 83 46 51 57
REMARK Flexibility Score: inf
ROOT
ATOM      1  C   UNL A   1      47.454  34.806  25.632  1.00  0.00     0.219 C 
ATOM      2  O   UNL A   1      47.830  33.649  25.817  1.00  0.00    -0.275 OA
ATOM      3  N   UNL A   1      48.368  35.765  25.322  1.00  0.00    -0.356 N 
ATOM      4  H   UNL A   1      49.289  35.449  25.171  1.00  0.00     0.163 HD
ENDROOT
BRANCH   1   5
ATOM      5  C   UNL A   1      45.986  35.172  25.711  1.00  0.00     0.100 C 
BRANCH   5   6
ATOM      6  C   UNL A   1      45.064  34.276  24.879  1.00  0.00     0.010 C 
BRANCH   6   7
ATOM      7  C   UNL A   1      44.160  33.234  25.573  1.00  0.00     0.001 C 
BRANCH   7   8
ATOM      8  C   UNL A   1      44.789  32.170  26.473  1.00  0.00     0.011 C 
BRANCH   8   9
ATOM      9  C   UNL A   1      44.095  30.864  26.902  1.00  0.00     0.075 C 
BRANCH   9  10
ATOM     10  S   UNL A   1      44.682  29.525  27.991  1.00  0.00    -0.122 SA
BRANCH  10  11
ATOM     11  C   UNL A   1      45.376  28.258  26.966  1.00  0.00     0.050 A 
ATOM     12  C   UNL A   1      44.841  27.638  25.831  1.00  0.00     0.144 A 
ATOM     13  C   UNL A   1      45.652  26.841  25.002  1.00  0.00     0.048 A 
ATOM     14  C   UNL A   1      46.991  26.621  25.320  1.00  0.00     0.004 A 
ATOM     15  C   UNL A   1      46.710  27.949  27.308  1.00  0.00     0.019 A 
ATOM     16  C   UNL A   1      47.516  27.158  26.489  1.00  0.00     0.001 A 
BRANCH  12  17
ATOM     17  O   UNL A   1      43.601  27.974  25.211  1.00  0.00    -0.426 OA
BRANCH  17  18
ATOM     18  C   UNL A   1      42.315  27.462  25.363  1.00  0.00     0.308 C 
ATOM     19  C   UNL A   1      41.480  28.516  26.039  1.00  0.00     0.139 C 
ATOM     20  O   UNL A   1      41.914  26.365  25.003  1.00  0.00    -0.252 OA
ENDBRANCH  17  18
ENDBRANCH  12  17
ENDBRANCH  10  11
ENDBRANCH   9  10
ENDBRANCH   8   9
ENDBRANCH   7   8
ENDBRANCH   6   7
ENDBRANCH   5   6
ENDBRANCH   1   5
BRANCH   3  21
ATOM     21  C   UNL A   1      48.156  37.187  25.187  1.00  0.00     0.116 C 
BRANCH  21  22
ATOM     22  C   UNL A   1      47.443  37.736  26.419  1.00  0.00     0.023 C 
BRANCH  22  23
ATOM     23  C   UNL A   1      46.719  39.047  26.225  1.00  0.00     0.023 C 
BRANCH  23  24
ATOM     24  C   UNL A   1      45.496  39.191  27.106  1.00  0.00     0.116 C 
BRANCH  24  25
ATOM     25  N   UNL A   1      44.418  40.009  26.547  1.00  0.00    -0.352 N 
ATOM     26  C   UNL A   1      43.068  39.726  26.596  1.00  0.00     0.251 C 
ATOM     27  H   UNL A   1      44.681  40.842  26.092  1.00  0.00     0.163 HD
ATOM     28  O   UNL A   1      42.232  40.449  26.073  1.00  0.00    -0.269 OA
BRANCH  26  29
ATOM     29  C   UNL A   1      42.688  38.469  27.269  1.00  0.00     0.039 A 
ATOM     30  C   UNL A   1      42.530  37.317  26.500  1.00  0.00     0.014 A 
ATOM     31  C   UNL A   1      42.802  38.406  28.659  1.00  0.00     0.014 A 
ATOM     32  C   UNL A   1      42.585  36.074  27.130  1.00  0.00     0.010 A 
ATOM     33  C   UNL A   1      43.003  37.171  29.252  1.00  0.00     0.010 A 
ATOM     34  C   UNL A   1      42.884  35.991  28.500  1.00  0.00    -0.014 A 
BRANCH  34  35
ATOM     35  C   UNL A   1      43.069  34.683  29.181  1.00  0.00     0.031 A 
ATOM     36  C   UNL A   1      41.871  33.975  29.755  1.00  0.00     0.074 A 
ATOM     37  C   UNL A   1      44.307  34.186  29.380  1.00  0.00     0.049 A 
ATOM     38  N   UNL A   1      41.821  32.871  30.452  1.00  0.00    -0.248 NA
ATOM     39  C   UNL A   1      40.560  34.623  29.570  1.00  0.00     0.031 C 
ATOM     40  C   UNL A   1      45.560  34.835  28.985  1.00  0.00     0.029 A 
ATOM     41  N   UNL A   1      44.716  33.027  29.993  1.00  0.00    -0.354 N 
ATOM     42  C   UNL A   1      40.492  32.726  30.827  1.00  0.00     0.074 A 
ATOM     43  C   UNL A   1      39.783  33.889  30.347  1.00  0.00     0.031 C 
ATOM     44  C   UNL A   1      46.593  34.057  29.347  1.00  0.00     0.029 A 
ATOM     45  C   UNL A   1      46.082  32.869  30.025  1.00  0.00     0.049 A 
ATOM     46  H   UNL A   1      44.089  32.371  30.374  1.00  0.00     0.167 HD
ATOM     47  C   UNL A   1      39.895  31.692  31.464  1.00  0.00     0.034 A 
ATOM     48  C   UNL A   1      46.836  31.877  30.539  1.00  0.00     0.034 A 
ATOM     49  C   UNL A   1      40.589  30.505  31.873  1.00  0.00     0.049 A 
ATOM     50  C   UNL A   1      46.150  30.694  31.168  1.00  0.00     0.074 A 
ATOM     51  C   UNL A   1      40.068  29.347  32.420  1.00  0.00     0.029 A 
ATOM     52  N   UNL A   1      41.961  30.325  31.780  1.00  0.00    -0.354 N 
ATOM     53  N   UNL A   1      44.868  30.487  31.349  1.00  0.00    -0.248 NA
ATOM     54  C   UNL A   1      47.007  29.591  31.625  1.00  0.00     0.031 C 
ATOM     55  C   UNL A   1      41.129  28.474  32.676  1.00  0.00     0.029 A 
ATOM     56  C   UNL A   1      42.308  29.078  32.267  1.00  0.00     0.049 A 
ATOM     57  H   UNL A   1      42.594  30.987  31.422  1.00  0.00     0.167 HD
ATOM     58  C   UNL A   1      44.762  29.222  31.918  1.00  0.00     0.074 A 
ATOM     59  C   UNL A   1      46.110  28.701  32.027  1.00  0.00     0.031 C 
ATOM     60  C   UNL A   1      43.651  28.559  32.328  1.00  0.00     0.034 A 
BRANCH  47  61
ATOM     61  C   UNL A   1      38.408  31.789  31.685  1.00  0.00     0.023 A 
ATOM     62  C   UNL A   1      37.531  31.056  30.857  1.00  0.00     0.012 A 
ATOM     63  C   UNL A   1      37.874  32.603  32.701  1.00  0.00     0.148 A 
ATOM     64  C   UNL A   1      36.150  31.177  30.995  1.00  0.00     0.002 A 
ATOM     65  C   UNL A   1      36.496  32.677  32.869  1.00  0.00     0.091 A 
ATOM     66  F   UNL A   1      38.718  33.315  33.463  1.00  0.00    -0.205 F 
ATOM     67  C   UNL A   1      35.633  31.981  32.007  1.00  0.00     0.022 A 
BRANCH  65  68
ATOM     68  S   UNL A   1      35.738  33.619  34.196  1.00  0.00     0.127 S 
ATOM     69  O   UNL A   1      36.150  34.982  33.864  1.00  0.00    -0.237 OA
ATOM     70  O   UNL A   1      34.314  33.346  33.995  1.00  0.00    -0.237 OA
ATOM     71  O   UNL A   1      36.287  33.078  35.432  1.00  0.00    -0.744 OA
ENDBRANCH  65  68
ENDBRANCH  47  61
BRANCH  48  72
ATOM     72  C   UNL A   1      48.320  31.931  30.403  1.00  0.00     0.023 A 
ATOM     73  C   UNL A   1      49.096  32.456  31.455  1.00  0.00     0.012 A 
ATOM     74  C   UNL A   1      48.969  31.407  29.268  1.00  0.00     0.148 A 
ATOM     75  C   UNL A   1      50.488  32.481  31.370  1.00  0.00     0.002 A 
ATOM     76  C   UNL A   1      50.359  31.385  29.213  1.00  0.00     0.091 A 
ATOM     77  F   UNL A   1      48.213  30.917  28.275  1.00  0.00    -0.205 F 
ATOM     78  C   UNL A   1      51.120  31.935  30.256  1.00  0.00     0.022 A 
BRANCH  76  79
ATOM     79  S   UNL A   1      51.261  30.579  27.884  1.00  0.00     0.127 S 
ATOM     80  O   UNL A   1      50.721  29.222  27.936  1.00  0.00    -0.237 OA
ATOM     81  O   UNL A   1      50.843  31.364  26.722  1.00  0.00    -0.237 OA
ATOM     82  O   UNL A   1      52.669  30.711  28.226  1.00  0.00    -0.744 OA
ENDBRANCH  76  79
ENDBRANCH  48  72
BRANCH  60  83
ATOM     83  C   UNL A   1      43.834  27.187  32.916  1.00  0.00     0.023 A 
ATOM     84  C   UNL A   1      44.134  26.099  32.071  1.00  0.00     0.012 A 
ATOM     85  C   UNL A   1      43.798  26.992  34.311  1.00  0.00     0.148 A 
ATOM     86  C   UNL A   1      44.367  24.833  32.605  1.00  0.00     0.002 A 
ATOM     87  C   UNL A   1      44.081  25.738  34.839  1.00  0.00     0.091 A 
ATOM     88  F   UNL A   1      43.495  28.036  35.095  1.00  0.00    -0.205 F 
ATOM     89  C   UNL A   1      44.354  24.655  33.987  1.00  0.00     0.022 A 
BRANCH  87  90
ATOM     90  S   UNL A   1      44.185  25.440  36.606  1.00  0.00     0.127 S 
ATOM     91  O   UNL A   1      45.126  26.475  37.028  1.00  0.00    -0.237 OA
ATOM     92  O   UNL A   1      42.804  25.658  37.040  1.00  0.00    -0.237 OA
ATOM     93  O   UNL A   1      44.654  24.069  36.756  1.00  0.00    -0.744 OA
ENDBRANCH  87  90
ENDBRANCH  60  83
ENDBRANCH  34  35
ENDBRANCH  26  29
ENDBRANCH  24  25
ENDBRANCH  23  24
ENDBRANCH  22  23
ENDBRANCH  21  22
ENDBRANCH   3  21
TORSDOF 22
ENDMDL
