MODEL 1
REMARK VINA RESULT:     -12.1      0.000      0.000
REMARK SMILES CC1(C)S[C@H](c2ccccc2O)[NH2+][C@H]1C(=O)NCCCCNC(=O)c1ccc(-c2c3nc(c(-c4cccc(S(=O)(=O)[O-])c4F)c4ccc([nH]4)c(-c4cccc(S(=O)(=O)[O-])c4F)c4nc(c(-c5cccc(S(=O)(=O)[O-])c5F)c5ccc2[nH]5)C=C4)C=C3)cc1
REMARK SMILES IDX 20 1 19 2 18 3 17 4 15 5 16 6 14 8 1 9 2 10 3 11 4 12 5 13
REMARK SMILES IDX 13 14 6 17 7 18 11 19 8 20 10 21 9 22 12 23 21 25 22 26
REMARK SMILES IDX 23 27 24 29 25 30 26 31 87 32 27 33 86 34 28 35 29 36 30 37
REMARK SMILES IDX 80 38 31 39 85 40 79 41 81 42 32 43 84 44 78 45 77 46 33 48
REMARK SMILES IDX 65 49 45 50 64 51 46 52 49 53 63 54 82 55 47 56 48 57 62 59
REMARK SMILES IDX 83 60 50 61 34 62 35 63 43 64 36 65 38 66 44 67 37 68 39 69
REMARK SMILES IDX 40 70 41 71 42 72 66 73 67 74 75 75 68 76 70 77 76 78 69 79
REMARK SMILES IDX 71 80 72 81 73 82 74 83 51 84 52 85 60 86 53 87 55 88 61 89
REMARK SMILES IDX 54 90 56 91 57 92 58 93 59 94
REMARK H PARENT 17 7 13 15 13 16 12 24 22 28 81 47 49 58
REMARK Flexibility Score: inf
ROOT
ATOM      1  C   UNL A   1      31.884  31.683  26.627  1.00  0.00     0.023 C 
ENDROOT
BRANCH   1   2
ATOM      2  C   UNL A   1      32.159  30.198  26.447  1.00  0.00     0.023 C 
BRANCH   2   3
ATOM      3  C   UNL A   1      33.638  29.815  26.411  1.00  0.00     0.116 C 
BRANCH   3   4
ATOM      4  N   UNL A   1      33.832  28.382  26.512  1.00  0.00    -0.351 N 
ATOM      5  C   UNL A   1      33.345  27.320  25.816  1.00  0.00     0.279 C 
ATOM      6  O   UNL A   1      33.667  26.200  26.234  1.00  0.00    -0.268 OA
ATOM      7  H   UNL A   1      34.447  28.123  27.238  1.00  0.00     0.163 HD
BRANCH   5   8
ATOM      8  C   UNL A   1      32.406  27.427  24.595  1.00  0.00     0.289 C 
ATOM      9  C   UNL A   1      33.852  25.756  23.167  1.00  0.00     0.030 C 
ATOM     10  C   UNL A   1      33.031  27.038  23.242  1.00  0.00     0.077 C 
ATOM     11  C   UNL A   1      33.869  28.188  22.671  1.00  0.00     0.030 C 
ATOM     12  S   UNL A   1      31.577  26.774  22.183  1.00  0.00    -0.081 SA
ATOM     13  C   UNL A   1      30.360  26.754  23.547  1.00  0.00     0.278 C 
ATOM     14  N   UNL A   1      31.083  26.796  24.828  1.00  0.00    -0.320 N 
ATOM     15  H   UNL A   1      31.212  25.848  25.183  1.00  0.00     0.348 HD
ATOM     16  H   UNL A   1      30.554  27.335  25.513  1.00  0.00     0.348 HD
BRANCH  13  17
ATOM     17  C   UNL A   1      29.324  27.848  23.356  1.00  0.00     0.062 A 
ATOM     18  C   UNL A   1      29.659  29.148  22.937  1.00  0.00     0.015 A 
ATOM     19  C   UNL A   1      27.962  27.561  23.549  1.00  0.00     0.125 A 
ATOM     20  C   UNL A   1      28.671  30.101  22.679  1.00  0.00     0.001 A 
ATOM     21  C   UNL A   1      26.969  28.506  23.286  1.00  0.00     0.047 A 
ATOM     22  C   UNL A   1      27.326  29.775  22.840  1.00  0.00     0.004 A 
BRANCH  19  23
ATOM     23  O   UNL A   1      27.604  26.323  24.008  1.00  0.00    -0.507 OA
ATOM     24  H   UNL A   1      28.093  25.567  23.750  1.00  0.00     0.293 HD
ENDBRANCH  19  23
ENDBRANCH  13  17
ENDBRANCH   5   8
ENDBRANCH   3   4
ENDBRANCH   2   3
ENDBRANCH   1   2
BRANCH   1  25
ATOM     25  C   UNL A   1      32.970  32.434  27.376  1.00  0.00     0.116 C 
BRANCH  25  26
ATOM     26  N   UNL A   1      32.638  33.836  27.607  1.00  0.00    -0.352 N 
ATOM     27  C   UNL A   1      33.149  34.693  28.556  1.00  0.00     0.251 C 
ATOM     28  H   UNL A   1      31.960  34.219  27.006  1.00  0.00     0.163 HD
ATOM     29  O   UNL A   1      32.669  35.805  28.714  1.00  0.00    -0.269 OA
BRANCH  27  30
ATOM     30  C   UNL A   1      34.273  34.225  29.390  1.00  0.00     0.039 A 
ATOM     31  C   UNL A   1      34.008  33.477  30.538  1.00  0.00     0.014 A 
ATOM     32  C   UNL A   1      35.586  34.469  28.982  1.00  0.00     0.014 A 
ATOM     33  C   UNL A   1      35.073  32.919  31.248  1.00  0.00     0.010 A 
ATOM     34  C   UNL A   1      36.631  33.825  29.625  1.00  0.00     0.010 A 
ATOM     35  C   UNL A   1      36.388  33.063  30.779  1.00  0.00    -0.014 A 
BRANCH  35  36
ATOM     36  C   UNL A   1      37.544  32.469  31.493  1.00  0.00     0.031 A 
ATOM     37  C   UNL A   1      38.313  31.350  30.843  1.00  0.00     0.074 A 
ATOM     38  C   UNL A   1      37.832  32.858  32.750  1.00  0.00     0.049 A 
ATOM     39  N   UNL A   1      39.286  30.626  31.330  1.00  0.00    -0.248 NA
ATOM     40  C   UNL A   1      37.902  30.961  29.482  1.00  0.00     0.031 C 
ATOM     41  C   UNL A   1      37.097  33.864  33.519  1.00  0.00     0.029 A 
ATOM     42  N   UNL A   1      38.808  32.429  33.614  1.00  0.00    -0.354 N 
ATOM     43  C   UNL A   1      39.563  29.668  30.362  1.00  0.00     0.074 A 
ATOM     44  C   UNL A   1      38.626  29.870  29.281  1.00  0.00     0.031 C 
ATOM     45  C   UNL A   1      37.654  33.983  34.736  1.00  0.00     0.029 A 
ATOM     46  C   UNL A   1      38.769  33.048  34.842  1.00  0.00     0.049 A 
ATOM     47  H   UNL A   1      39.473  31.743  33.377  1.00  0.00     0.167 HD
ATOM     48  C   UNL A   1      40.539  28.730  30.351  1.00  0.00     0.034 A 
ATOM     49  C   UNL A   1      39.552  32.881  35.926  1.00  0.00     0.034 A 
ATOM     50  C   UNL A   1      41.517  28.590  31.393  1.00  0.00     0.049 A 
ATOM     51  C   UNL A   1      40.693  31.900  35.851  1.00  0.00     0.074 A 
ATOM     52  C   UNL A   1      42.609  27.743  31.441  1.00  0.00     0.029 A 
ATOM     53  N   UNL A   1      41.528  29.329  32.566  1.00  0.00    -0.354 N 
ATOM     54  N   UNL A   1      41.038  31.111  34.861  1.00  0.00    -0.248 NA
ATOM     55  C   UNL A   1      41.578  31.819  37.020  1.00  0.00     0.031 C 
ATOM     56  C   UNL A   1      43.279  27.968  32.648  1.00  0.00     0.029 A 
ATOM     57  C   UNL A   1      42.613  28.966  33.342  1.00  0.00     0.049 A 
ATOM     58  H   UNL A   1      40.861  30.010  32.810  1.00  0.00     0.167 HD
ATOM     59  C   UNL A   1      42.202  30.471  35.272  1.00  0.00     0.074 A 
ATOM     60  C   UNL A   1      42.512  30.980  36.592  1.00  0.00     0.031 C 
ATOM     61  C   UNL A   1      42.940  29.537  34.624  1.00  0.00     0.034 A 
BRANCH  48  62
ATOM     62  C   UNL A   1      40.635  27.839  29.142  1.00  0.00     0.023 A 
ATOM     63  C   UNL A   1      39.813  26.694  29.057  1.00  0.00     0.012 A 
ATOM     64  C   UNL A   1      41.505  28.144  28.078  1.00  0.00     0.148 A 
ATOM     65  C   UNL A   1      39.887  25.845  27.954  1.00  0.00     0.002 A 
ATOM     66  C   UNL A   1      41.539  27.317  26.960  1.00  0.00     0.091 A 
ATOM     67  F   UNL A   1      42.296  29.219  28.187  1.00  0.00    -0.205 F 
ATOM     68  C   UNL A   1      40.742  26.162  26.902  1.00  0.00     0.022 A 
BRANCH  66  69
ATOM     69  S   UNL A   1      42.546  27.682  25.518  1.00  0.00     0.127 S 
ATOM     70  O   UNL A   1      42.314  26.500  24.690  1.00  0.00    -0.237 OA
ATOM     71  O   UNL A   1      41.931  28.909  25.014  1.00  0.00    -0.237 OA
ATOM     72  O   UNL A   1      43.906  27.845  26.012  1.00  0.00    -0.744 OA
ENDBRANCH  66  69
ENDBRANCH  48  62
BRANCH  49  73
ATOM     73  C   UNL A   1      39.349  33.731  37.132  1.00  0.00     0.023 A 
ATOM     74  C   UNL A   1      39.808  35.063  37.119  1.00  0.00     0.012 A 
ATOM     75  C   UNL A   1      38.681  33.249  38.274  1.00  0.00     0.148 A 
ATOM     76  C   UNL A   1      39.639  35.888  38.230  1.00  0.00     0.002 A 
ATOM     77  C   UNL A   1      38.469  34.092  39.360  1.00  0.00     0.091 A 
ATOM     78  F   UNL A   1      38.259  31.976  38.273  1.00  0.00    -0.205 F 
ATOM     79  C   UNL A   1      38.962  35.406  39.347  1.00  0.00     0.022 A 
BRANCH  77  80
ATOM     80  S   UNL A   1      37.495  33.597  40.786  1.00  0.00     0.127 S 
ATOM     81  O   UNL A   1      38.314  32.528  41.351  1.00  0.00    -0.237 OA
ATOM     82  O   UNL A   1      37.461  34.830  41.575  1.00  0.00    -0.237 OA
ATOM     83  O   UNL A   1      36.201  33.194  40.253  1.00  0.00    -0.744 OA
ENDBRANCH  77  80
ENDBRANCH  49  73
BRANCH  61  84
ATOM     84  C   UNL A   1      44.183  29.033  35.306  1.00  0.00     0.023 A 
ATOM     85  C   UNL A   1      45.418  29.665  35.065  1.00  0.00     0.012 A 
ATOM     86  C   UNL A   1      44.109  27.989  36.248  1.00  0.00     0.148 A 
ATOM     87  C   UNL A   1      46.569  29.243  35.730  1.00  0.00     0.002 A 
ATOM     88  C   UNL A   1      45.251  27.606  36.941  1.00  0.00     0.091 A 
ATOM     89  F   UNL A   1      42.927  27.387  36.447  1.00  0.00    -0.205 F 
ATOM     90  C   UNL A   1      46.484  28.225  36.675  1.00  0.00     0.022 A 
BRANCH  88  91
ATOM     91  S   UNL A   1      45.205  26.372  38.245  1.00  0.00     0.127 S 
ATOM     92  O   UNL A   1      44.874  25.160  37.498  1.00  0.00    -0.237 OA
ATOM     93  O   UNL A   1      46.572  26.413  38.765  1.00  0.00    -0.237 OA
ATOM     94  O   UNL A   1      44.191  26.828  39.187  1.00  0.00    -0.744 OA
ENDBRANCH  88  91
ENDBRANCH  61  84
ENDBRANCH  35  36
ENDBRANCH  27  30
ENDBRANCH  25  26
ENDBRANCH   1  25
TORSDOF 16
ENDMDL
MODEL 2
REMARK VINA RESULT:     -12.1      4.221      9.491
REMARK SMILES CC1(C)S[C@H](c2ccccc2O)[NH2+][C@H]1C(=O)NCCCCNC(=O)c1ccc(-c2c3nc(c(-c4cccc(S(=O)(=O)[O-])c4F)c4ccc([nH]4)c(-c4cccc(S(=O)(=O)[O-])c4F)c4nc(c(-c5cccc(S(=O)(=O)[O-])c5F)c5ccc2[nH]5)C=C4)C=C3)cc1
REMARK SMILES IDX 20 1 19 2 18 3 17 4 15 5 16 6 14 8 1 9 2 10 3 11 4 12 5 13
REMARK SMILES IDX 13 14 6 17 7 18 11 19 8 20 10 21 9 22 12 23 21 25 22 26
REMARK SMILES IDX 23 27 24 29 25 30 26 31 87 32 27 33 86 34 28 35 29 36 30 37
REMARK SMILES IDX 80 38 31 39 85 40 79 41 81 42 32 43 84 44 78 45 77 46 33 48
REMARK SMILES IDX 65 49 45 50 64 51 46 52 49 53 63 54 82 55 47 56 48 57 62 59
REMARK SMILES IDX 83 60 50 61 34 62 35 63 43 64 36 65 38 66 44 67 37 68 39 69
REMARK SMILES IDX 40 70 41 71 42 72 66 73 67 74 75 75 68 76 70 77 76 78 69 79
REMARK SMILES IDX 71 80 72 81 73 82 74 83 51 84 52 85 60 86 53 87 55 88 61 89
REMARK SMILES IDX 54 90 56 91 57 92 58 93 59 94
REMARK H PARENT 17 7 13 15 13 16 12 24 22 28 81 47 49 58
REMARK Flexibility Score: inf
ROOT
ATOM      1  C   UNL A   1      33.366  27.516  25.594  1.00  0.00     0.023 C 
ENDROOT
BRANCH   1   2
ATOM      2  C   UNL A   1      32.370  26.456  26.037  1.00  0.00     0.023 C 
BRANCH   2   3
ATOM      3  C   UNL A   1      32.693  25.034  25.579  1.00  0.00     0.116 C 
BRANCH   3   4
ATOM      4  N   UNL A   1      33.062  24.984  24.178  1.00  0.00    -0.351 N 
ATOM      5  C   UNL A   1      33.794  24.112  23.434  1.00  0.00     0.279 C 
ATOM      6  O   UNL A   1      33.979  24.426  22.251  1.00  0.00    -0.268 OA
ATOM      7  H   UNL A   1      32.708  25.740  23.655  1.00  0.00     0.163 HD
BRANCH   5   8
ATOM      8  C   UNL A   1      34.424  22.811  23.975  1.00  0.00     0.289 C 
ATOM      9  C   UNL A   1      36.305  24.104  25.282  1.00  0.00     0.030 C 
ATOM     10  C   UNL A   1      35.896  22.920  24.416  1.00  0.00     0.077 C 
ATOM     11  C   UNL A   1      36.839  22.848  23.209  1.00  0.00     0.030 C 
ATOM     12  S   UNL A   1      36.125  21.436  25.442  1.00  0.00    -0.081 SA
ATOM     13  C   UNL A   1      34.346  21.038  25.585  1.00  0.00     0.278 C 
ATOM     14  N   UNL A   1      33.567  22.127  24.976  1.00  0.00    -0.320 N 
ATOM     15  H   UNL A   1      33.281  22.791  25.695  1.00  0.00     0.348 HD
ATOM     16  H   UNL A   1      32.732  21.753  24.524  1.00  0.00     0.348 HD
BRANCH  13  17
ATOM     17  C   UNL A   1      34.062  19.653  25.030  1.00  0.00     0.062 A 
ATOM     18  C   UNL A   1      35.081  18.770  24.630  1.00  0.00     0.015 A 
ATOM     19  C   UNL A   1      32.736  19.191  24.950  1.00  0.00     0.125 A 
ATOM     20  C   UNL A   1      34.786  17.470  24.214  1.00  0.00     0.001 A 
ATOM     21  C   UNL A   1      32.436  17.891  24.544  1.00  0.00     0.047 A 
ATOM     22  C   UNL A   1      33.466  17.026  24.184  1.00  0.00     0.004 A 
BRANCH  19  23
ATOM     23  O   UNL A   1      31.717  20.043  25.281  1.00  0.00    -0.507 OA
ATOM     24  H   UNL A   1      31.905  20.928  25.524  1.00  0.00     0.293 HD
ENDBRANCH  19  23
ENDBRANCH  13  17
ENDBRANCH   5   8
ENDBRANCH   3   4
ENDBRANCH   2   3
ENDBRANCH   1   2
BRANCH   1  25
ATOM     25  C   UNL A   1      34.140  28.163  26.729  1.00  0.00     0.116 C 
BRANCH  25  26
ATOM     26  N   UNL A   1      33.801  29.568  26.922  1.00  0.00    -0.352 N 
ATOM     27  C   UNL A   1      34.489  30.526  27.633  1.00  0.00     0.251 C 
ATOM     28  H   UNL A   1      32.973  29.872  26.487  1.00  0.00     0.163 HD
ATOM     29  O   UNL A   1      34.004  31.633  27.817  1.00  0.00    -0.269 OA
BRANCH  27  30
ATOM     30  C   UNL A   1      35.812  30.175  28.185  1.00  0.00     0.039 A 
ATOM     31  C   UNL A   1      35.893  29.599  29.453  1.00  0.00     0.014 A 
ATOM     32  C   UNL A   1      36.956  30.350  27.404  1.00  0.00     0.014 A 
ATOM     33  C   UNL A   1      37.127  29.141  29.915  1.00  0.00     0.010 A 
ATOM     34  C   UNL A   1      38.157  29.797  27.820  1.00  0.00     0.010 A 
ATOM     35  C   UNL A   1      38.261  29.209  29.089  1.00  0.00    -0.014 A 
BRANCH  35  36
ATOM     36  C   UNL A   1      39.586  28.715  29.536  1.00  0.00     0.031 A 
ATOM     37  C   UNL A   1      40.302  29.434  30.648  1.00  0.00     0.074 A 
ATOM     38  C   UNL A   1      40.183  27.700  28.882  1.00  0.00     0.049 A 
ATOM     39  N   UNL A   1      41.504  29.233  31.121  1.00  0.00    -0.248 NA
ATOM     40  C   UNL A   1      39.592  30.561  31.280  1.00  0.00     0.031 C 
ATOM     41  C   UNL A   1      39.629  26.989  27.728  1.00  0.00     0.029 A 
ATOM     42  N   UNL A   1      41.405  27.108  29.079  1.00  0.00    -0.354 N 
ATOM     43  C   UNL A   1      41.710  30.236  32.061  1.00  0.00     0.074 A 
ATOM     44  C   UNL A   1      40.532  31.073  32.058  1.00  0.00     0.031 C 
ATOM     45  C   UNL A   1      40.502  26.050  27.327  1.00  0.00     0.029 A 
ATOM     46  C   UNL A   1      41.686  26.107  28.178  1.00  0.00     0.049 A 
ATOM     47  H   UNL A   1      42.022  27.375  29.798  1.00  0.00     0.167 HD
ATOM     48  C   UNL A   1      42.767  30.421  32.886  1.00  0.00     0.034 A 
ATOM     49  C   UNL A   1      42.775  25.322  28.061  1.00  0.00     0.034 A 
ATOM     50  C   UNL A   1      43.896  29.536  32.940  1.00  0.00     0.049 A 
ATOM     51  C   UNL A   1      43.894  25.484  29.056  1.00  0.00     0.074 A 
ATOM     52  C   UNL A   1      44.976  29.569  33.804  1.00  0.00     0.029 A 
ATOM     53  N   UNL A   1      44.084  28.449  32.101  1.00  0.00    -0.354 N 
ATOM     54  N   UNL A   1      44.002  26.340  30.044  1.00  0.00    -0.248 NA
ATOM     55  C   UNL A   1      45.018  24.544  28.951  1.00  0.00     0.031 C 
ATOM     56  C   UNL A   1      45.820  28.500  33.483  1.00  0.00     0.029 A 
ATOM     57  C   UNL A   1      45.257  27.795  32.430  1.00  0.00     0.049 A 
ATOM     58  H   UNL A   1      43.474  28.183  31.376  1.00  0.00     0.167 HD
ATOM     59  C   UNL A   1      45.183  26.016  30.703  1.00  0.00     0.074 A 
ATOM     60  C   UNL A   1      45.744  24.873  30.011  1.00  0.00     0.031 C 
ATOM     61  C   UNL A   1      45.761  26.617  31.772  1.00  0.00     0.034 A 
BRANCH  48  62
ATOM     62  C   UNL A   1      42.708  31.580  33.844  1.00  0.00     0.023 A 
ATOM     63  C   UNL A   1      43.188  32.843  33.436  1.00  0.00     0.012 A 
ATOM     64  C   UNL A   1      42.151  31.437  35.130  1.00  0.00     0.148 A 
ATOM     65  C   UNL A   1      43.156  33.933  34.304  1.00  0.00     0.002 A 
ATOM     66  C   UNL A   1      42.080  32.541  35.973  1.00  0.00     0.091 A 
ATOM     67  F   UNL A   1      41.724  30.226  35.511  1.00  0.00    -0.205 F 
ATOM     68  C   UNL A   1      42.593  33.784  35.568  1.00  0.00     0.022 A 
BRANCH  66  69
ATOM     69  S   UNL A   1      41.300  32.472  37.591  1.00  0.00     0.127 S 
ATOM     70  O   UNL A   1      41.313  33.880  37.984  1.00  0.00    -0.237 OA
ATOM     71  O   UNL A   1      39.975  31.940  37.272  1.00  0.00    -0.237 OA
ATOM     72  O   UNL A   1      42.129  31.587  38.397  1.00  0.00    -0.744 OA
ENDBRANCH  66  69
ENDBRANCH  48  62
BRANCH  49  73
ATOM     73  C   UNL A   1      42.814  24.248  27.030  1.00  0.00     0.023 A 
ATOM     74  C   UNL A   1      43.538  24.463  25.841  1.00  0.00     0.012 A 
ATOM     75  C   UNL A   1      42.172  23.010  27.226  1.00  0.00     0.148 A 
ATOM     76  C   UNL A   1      43.594  23.482  24.851  1.00  0.00     0.002 A 
ATOM     77  C   UNL A   1      42.275  22.016  26.258  1.00  0.00     0.091 A 
ATOM     78  F   UNL A   1      41.480  22.825  28.360  1.00  0.00    -0.205 F 
ATOM     79  C   UNL A   1      42.971  22.255  25.063  1.00  0.00     0.022 A 
BRANCH  77  80
ATOM     80  S   UNL A   1      41.614  20.363  26.503  1.00  0.00     0.127 S 
ATOM     81  O   UNL A   1      42.193  19.998  27.793  1.00  0.00    -0.237 OA
ATOM     82  O   UNL A   1      40.172  20.611  26.523  1.00  0.00    -0.237 OA
ATOM     83  O   UNL A   1      42.071  19.588  25.358  1.00  0.00    -0.744 OA
ENDBRANCH  77  80
ENDBRANCH  49  73
BRANCH  61  84
ATOM     84  C   UNL A   1      47.042  26.028  32.296  1.00  0.00     0.023 A 
ATOM     85  C   UNL A   1      48.277  26.503  31.817  1.00  0.00     0.012 A 
ATOM     86  C   UNL A   1      47.018  25.064  33.322  1.00  0.00     0.148 A 
ATOM     87  C   UNL A   1      49.474  26.003  32.331  1.00  0.00     0.002 A 
ATOM     88  C   UNL A   1      48.214  24.606  33.863  1.00  0.00     0.091 A 
ATOM     89  F   UNL A   1      45.831  24.610  33.749  1.00  0.00    -0.205 F 
ATOM     90  C   UNL A   1      49.442  25.066  33.361  1.00  0.00     0.022 A 
BRANCH  88  91
ATOM     91  S   UNL A   1      48.258  23.475  35.257  1.00  0.00     0.127 S 
ATOM     92  O   UNL A   1      49.696  23.288  35.443  1.00  0.00    -0.237 OA
ATOM     93  O   UNL A   1      47.603  24.249  36.311  1.00  0.00    -0.237 OA
ATOM     94  O   UNL A   1      47.519  22.293  34.833  1.00  0.00    -0.744 OA
ENDBRANCH  88  91
ENDBRANCH  61  84
ENDBRANCH  35  36
ENDBRANCH  27  30
ENDBRANCH  25  26
ENDBRANCH   1  25
TORSDOF 16
ENDMDL
MODEL 3
REMARK VINA RESULT:     -12.1      5.527      8.536
REMARK SMILES CC1(C)S[C@H](c2ccccc2O)[NH2+][C@H]1C(=O)NCCCCNC(=O)c1ccc(-c2c3nc(c(-c4cccc(S(=O)(=O)[O-])c4F)c4ccc([nH]4)c(-c4cccc(S(=O)(=O)[O-])c4F)c4nc(c(-c5cccc(S(=O)(=O)[O-])c5F)c5ccc2[nH]5)C=C4)C=C3)cc1
REMARK SMILES IDX 20 1 19 2 18 3 17 4 15 5 16 6 14 8 1 9 2 10 3 11 4 12 5 13
REMARK SMILES IDX 13 14 6 17 7 18 11 19 8 20 10 21 9 22 12 23 21 25 22 26
REMARK SMILES IDX 23 27 24 29 25 30 26 31 87 32 27 33 86 34 28 35 29 36 30 37
REMARK SMILES IDX 80 38 31 39 85 40 79 41 81 42 32 43 84 44 78 45 77 46 33 48
REMARK SMILES IDX 65 49 45 50 64 51 46 52 49 53 63 54 82 55 47 56 48 57 62 59
REMARK SMILES IDX 83 60 50 61 34 62 35 63 43 64 36 65 38 66 44 67 37 68 39 69
REMARK SMILES IDX 40 70 41 71 42 72 66 73 67 74 75 75 68 76 70 77 76 78 69 79
REMARK SMILES IDX 71 80 72 81 73 82 74 83 51 84 52 85 60 86 53 87 55 88 61 89
REMARK SMILES IDX 54 90 56 91 57 92 58 93 59 94
REMARK H PARENT 17 7 13 15 13 16 12 24 22 28 81 47 49 58
REMARK Flexibility Score: inf
ROOT
ATOM      1  C   UNL A   1      35.765  22.899  24.372  1.00  0.00     0.023 C 
ENDROOT
BRANCH   1   2
ATOM      2  C   UNL A   1      34.258  22.831  24.177  1.00  0.00     0.023 C 
BRANCH   2   3
ATOM      3  C   UNL A   1      33.526  24.164  24.333  1.00  0.00     0.116 C 
BRANCH   3   4
ATOM      4  N   UNL A   1      32.541  24.124  25.396  1.00  0.00    -0.351 N 
ATOM      5  C   UNL A   1      31.653  25.031  25.883  1.00  0.00     0.279 C 
ATOM      6  O   UNL A   1      31.003  24.678  26.876  1.00  0.00    -0.268 OA
ATOM      7  H   UNL A   1      32.509  23.257  25.865  1.00  0.00     0.163 HD
BRANCH   5   8
ATOM      8  C   UNL A   1      31.444  26.450  25.312  1.00  0.00     0.289 C 
ATOM      9  C   UNL A   1      33.810  27.269  26.115  1.00  0.00     0.030 C 
ATOM     10  C   UNL A   1      32.325  27.551  25.931  1.00  0.00     0.077 C 
ATOM     11  C   UNL A   1      31.748  28.030  27.269  1.00  0.00     0.030 C 
ATOM     12  S   UNL A   1      32.209  28.897  24.714  1.00  0.00    -0.081 SA
ATOM     13  C   UNL A   1      31.458  27.882  23.391  1.00  0.00     0.278 C 
ATOM     14  N   UNL A   1      31.436  26.477  23.828  1.00  0.00    -0.320 N 
ATOM     15  H   UNL A   1      32.258  25.992  23.469  1.00  0.00     0.348 HD
ATOM     16  H   UNL A   1      30.600  26.012  23.473  1.00  0.00     0.348 HD
BRANCH  13  17
ATOM     17  C   UNL A   1      30.111  28.452  22.982  1.00  0.00     0.062 A 
ATOM     18  C   UNL A   1      28.891  27.931  23.449  1.00  0.00     0.015 A 
ATOM     19  C   UNL A   1      30.055  29.578  22.142  1.00  0.00     0.125 A 
ATOM     20  C   UNL A   1      27.675  28.540  23.126  1.00  0.00     0.001 A 
ATOM     21  C   UNL A   1      28.845  30.196  21.823  1.00  0.00     0.047 A 
ATOM     22  C   UNL A   1      27.654  29.679  22.325  1.00  0.00     0.004 A 
BRANCH  19  23
ATOM     23  O   UNL A   1      31.219  30.078  21.626  1.00  0.00    -0.507 OA
ATOM     24  H   UNL A   1      31.324  30.162  20.699  1.00  0.00     0.293 HD
ENDBRANCH  19  23
ENDBRANCH  13  17
ENDBRANCH   5   8
ENDBRANCH   3   4
ENDBRANCH   2   3
ENDBRANCH   1   2
BRANCH   1  25
ATOM     25  C   UNL A   1      36.237  22.473  25.751  1.00  0.00     0.116 C 
BRANCH  25  26
ATOM     26  N   UNL A   1      37.218  21.394  25.710  1.00  0.00    -0.352 N 
ATOM     27  C   UNL A   1      38.570  21.454  25.962  1.00  0.00     0.251 C 
ATOM     28  H   UNL A   1      36.866  20.507  25.471  1.00  0.00     0.163 HD
ATOM     29  O   UNL A   1      39.286  20.487  25.751  1.00  0.00    -0.269 OA
BRANCH  27  30
ATOM     30  C   UNL A   1      39.133  22.721  26.468  1.00  0.00     0.039 A 
ATOM     31  C   UNL A   1      40.209  22.685  27.355  1.00  0.00     0.014 A 
ATOM     32  C   UNL A   1      38.635  23.937  25.996  1.00  0.00     0.014 A 
ATOM     33  C   UNL A   1      40.828  23.880  27.723  1.00  0.00     0.010 A 
ATOM     34  C   UNL A   1      39.319  25.109  26.277  1.00  0.00     0.010 A 
ATOM     35  C   UNL A   1      40.407  25.097  27.163  1.00  0.00    -0.014 A 
BRANCH  35  36
ATOM     36  C   UNL A   1      41.051  26.385  27.513  1.00  0.00     0.031 A 
ATOM     37  C   UNL A   1      42.476  26.633  27.094  1.00  0.00     0.074 A 
ATOM     38  C   UNL A   1      40.402  27.276  28.288  1.00  0.00     0.049 A 
ATOM     39  N   UNL A   1      43.257  27.640  27.380  1.00  0.00    -0.248 NA
ATOM     40  C   UNL A   1      43.124  25.585  26.283  1.00  0.00     0.031 C 
ATOM     41  C   UNL A   1      39.054  27.104  28.836  1.00  0.00     0.029 A 
ATOM     42  N   UNL A   1      40.802  28.496  28.771  1.00  0.00    -0.354 N 
ATOM     43  C   UNL A   1      44.496  27.323  26.835  1.00  0.00     0.074 A 
ATOM     44  C   UNL A   1      44.377  26.010  26.242  1.00  0.00     0.031 C 
ATOM     45  C   UNL A   1      38.736  28.182  29.571  1.00  0.00     0.029 A 
ATOM     46  C   UNL A   1      39.862  29.111  29.565  1.00  0.00     0.049 A 
ATOM     47  H   UNL A   1      41.680  28.893  28.569  1.00  0.00     0.167 HD
ATOM     48  C   UNL A   1      45.621  28.074  26.790  1.00  0.00     0.034 A 
ATOM     49  C   UNL A   1      39.906  30.293  30.209  1.00  0.00     0.034 A 
ATOM     50  C   UNL A   1      45.704  29.410  27.309  1.00  0.00     0.049 A 
ATOM     51  C   UNL A   1      41.134  31.153  30.061  1.00  0.00     0.074 A 
ATOM     52  C   UNL A   1      46.760  30.299  27.231  1.00  0.00     0.029 A 
ATOM     53  N   UNL A   1      44.684  30.054  27.991  1.00  0.00    -0.354 N 
ATOM     54  N   UNL A   1      42.242  30.902  29.405  1.00  0.00    -0.248 NA
ATOM     55  C   UNL A   1      41.101  32.475  30.700  1.00  0.00     0.031 C 
ATOM     56  C   UNL A   1      46.378  31.483  27.871  1.00  0.00     0.029 A 
ATOM     57  C   UNL A   1      45.079  31.334  28.333  1.00  0.00     0.049 A 
ATOM     58  H   UNL A   1      43.808  29.658  28.202  1.00  0.00     0.167 HD
ATOM     59  C   UNL A   1      43.020  32.049  29.517  1.00  0.00     0.074 A 
ATOM     60  C   UNL A   1      42.247  33.001  30.288  1.00  0.00     0.031 C 
ATOM     61  C   UNL A   1      44.266  32.289  29.041  1.00  0.00     0.034 A 
BRANCH  48  62
ATOM     62  C   UNL A   1      46.820  27.490  26.093  1.00  0.00     0.023 A 
ATOM     63  C   UNL A   1      46.937  27.615  24.692  1.00  0.00     0.012 A 
ATOM     64  C   UNL A   1      47.845  26.850  26.816  1.00  0.00     0.148 A 
ATOM     65  C   UNL A   1      48.031  27.076  24.017  1.00  0.00     0.002 A 
ATOM     66  C   UNL A   1      48.956  26.356  26.140  1.00  0.00     0.091 A 
ATOM     67  F   UNL A   1      47.706  26.716  28.142  1.00  0.00    -0.205 F 
ATOM     68  C   UNL A   1      49.045  26.456  24.742  1.00  0.00     0.022 A 
BRANCH  66  69
ATOM     69  S   UNL A   1      50.353  25.612  26.991  1.00  0.00     0.127 S 
ATOM     70  O   UNL A   1      49.728  24.453  27.626  1.00  0.00    -0.237 OA
ATOM     71  O   UNL A   1      51.252  25.289  25.883  1.00  0.00    -0.237 OA
ATOM     72  O   UNL A   1      50.855  26.632  27.901  1.00  0.00    -0.744 OA
ENDBRANCH  66  69
ENDBRANCH  48  62
BRANCH  49  73
ATOM     73  C   UNL A   1      38.716  30.778  30.963  1.00  0.00     0.023 A 
ATOM     74  C   UNL A   1      38.673  30.611  32.361  1.00  0.00     0.012 A 
ATOM     75  C   UNL A   1      37.646  31.428  30.319  1.00  0.00     0.148 A 
ATOM     76  C   UNL A   1      37.575  31.050  33.100  1.00  0.00     0.002 A 
ATOM     77  C   UNL A   1      36.576  31.909  31.067  1.00  0.00     0.091 A 
ATOM     78  F   UNL A   1      37.698  31.570  28.986  1.00  0.00    -0.205 F 
ATOM     79  C   UNL A   1      36.530  31.707  32.455  1.00  0.00     0.022 A 
BRANCH  77  80
ATOM     80  S   UNL A   1      35.252  32.880  30.337  1.00  0.00     0.127 S 
ATOM     81  O   UNL A   1      35.983  34.015  29.783  1.00  0.00    -0.237 OA
ATOM     82  O   UNL A   1      34.707  31.954  29.344  1.00  0.00    -0.237 OA
ATOM     83  O   UNL A   1      34.342  33.182  31.434  1.00  0.00    -0.744 OA
ENDBRANCH  77  80
ENDBRANCH  49  73
BRANCH  61  84
ATOM     84  C   UNL A   1      44.860  33.648  29.294  1.00  0.00     0.023 A 
ATOM     85  C   UNL A   1      45.554  33.896  30.493  1.00  0.00     0.012 A 
ATOM     86  C   UNL A   1      44.802  34.649  28.305  1.00  0.00     0.148 A 
ATOM     87  C   UNL A   1      46.154  35.134  30.719  1.00  0.00     0.002 A 
ATOM     88  C   UNL A   1      45.443  35.864  28.517  1.00  0.00     0.091 A 
ATOM     89  F   UNL A   1      44.119  34.399  27.178  1.00  0.00    -0.205 F 
ATOM     90  C   UNL A   1      46.111  36.112  29.728  1.00  0.00     0.022 A 
BRANCH  88  91
ATOM     91  S   UNL A   1      45.519  37.136  27.252  1.00  0.00     0.127 S 
ATOM     92  O   UNL A   1      44.107  37.478  27.089  1.00  0.00    -0.237 OA
ATOM     93  O   UNL A   1      46.327  38.172  27.895  1.00  0.00    -0.237 OA
ATOM     94  O   UNL A   1      46.153  36.510  26.098  1.00  0.00    -0.744 OA
ENDBRANCH  88  91
ENDBRANCH  61  84
ENDBRANCH  35  36
ENDBRANCH  27  30
ENDBRANCH  25  26
ENDBRANCH   1  25
TORSDOF 16
ENDMDL
