MODEL 1
REMARK VINA RESULT:     -12.7      0.000      0.000
REMARK SMILES CC(C)CCn1nc(C(=O)NCCCCNC(=O)c2ccc(-c3c4nc(c(-c5cccc(S(=O)(=O)[O-])c5F)c5ccc([nH]5)c(-c5cccc(S(=O)(=O)[O-])c5F)c5nc(c(-c6cccc(S(=O)(=O)[O-])c6F)c6ccc3[nH]6)C=C5)C=C4)cc2)c2c1CCN(C(=O)[C@@H]1CCc3nn(C)c(=O)n3C1)C2
REMARK SMILES IDX 13 1 12 2 11 3 9 4 10 5 8 7 6 8 7 9 83 10 82 11 84 12 100 13
REMARK SMILES IDX 85 14 86 15 5 16 4 17 2 18 1 19 3 20 87 21 88 22 89 23 90 24
REMARK SMILES IDX 99 25 91 26 98 27 92 28 96 29 93 30 94 31 97 32 95 33 14 34
REMARK SMILES IDX 15 35 16 36 17 37 18 39 19 40 20 41 81 42 21 43 80 44 22 45
REMARK SMILES IDX 23 46 24 47 74 48 25 49 79 50 73 51 75 52 26 53 78 54 72 55
REMARK SMILES IDX 71 56 27 58 59 59 39 60 58 61 40 62 43 63 57 64 76 65 41 66
REMARK SMILES IDX 42 67 56 69 77 70 44 71 28 72 29 73 37 74 30 75 32 76 38 77
REMARK SMILES IDX 31 78 33 79 34 80 35 81 36 82 60 83 61 84 69 85 62 86 64 87
REMARK SMILES IDX 70 88 63 89 65 90 66 91 67 92 68 93 45 94 46 95 54 96 47 97
REMARK SMILES IDX 49 98 55 99 48 100 50 101 51 102 52 103 53 104
REMARK H PARENT 11 6 16 38 75 57 43 68
REMARK Flexibility Score: inf
ROOT
ATOM      1  C   UNL A   1      31.938  30.181  26.754  1.00  0.00     0.023 C 
ENDROOT
BRANCH   1   2
ATOM      2  C   UNL A   1      33.360  29.635  26.513  1.00  0.00     0.116 C 
BRANCH   2   3
ATOM      3  N   UNL A   1      33.690  29.599  25.094  1.00  0.00    -0.351 N 
ATOM      4  C   UNL A   1      33.113  29.101  23.943  1.00  0.00     0.272 C 
ATOM      5  O   UNL A   1      33.735  29.380  22.910  1.00  0.00    -0.267 OA
ATOM      6  H   UNL A   1      34.547  30.046  24.907  1.00  0.00     0.163 HD
BRANCH   4   7
ATOM      7  C   UNL A   1      31.868  28.282  23.877  1.00  0.00     0.155 A 
ATOM      8  N   UNL A   1      29.788  27.901  23.358  1.00  0.00    -0.268 N 
ATOM      9  N   UNL A   1      30.752  28.845  23.352  1.00  0.00    -0.167 NA
ATOM     10  C   UNL A   1      30.227  26.754  23.938  1.00  0.00     0.046 A 
ATOM     11  C   UNL A   1      31.583  26.918  24.165  1.00  0.00     0.026 A 
ATOM     12  C   UNL A   1      29.508  25.501  24.256  1.00  0.00     0.078 C 
ATOM     13  C   UNL A   1      32.453  25.806  24.612  1.00  0.00     0.159 C 
ATOM     14  C   UNL A   1      30.371  24.718  25.256  1.00  0.00     0.126 C 
ATOM     15  N   UNL A   1      31.731  24.536  24.758  1.00  0.00    -0.338 N 
BRANCH   8  16
ATOM     16  C   UNL A   1      28.582  28.205  22.602  1.00  0.00     0.145 C 
BRANCH  16  17
ATOM     17  C   UNL A   1      27.512  29.131  23.199  1.00  0.00     0.027 C 
BRANCH  17  18
ATOM     18  C   UNL A   1      27.512  30.568  22.641  1.00  0.00    -0.016 C 
ATOM     19  C   UNL A   1      28.142  31.566  23.613  1.00  0.00     0.007 C 
ATOM     20  C   UNL A   1      28.258  30.610  21.302  1.00  0.00     0.007 C 
ENDBRANCH  17  18
ENDBRANCH  16  17
ENDBRANCH   8  16
BRANCH  15  21
ATOM     21  C   UNL A   1      32.491  23.387  24.665  1.00  0.00     0.227 C 
ATOM     22  O   UNL A   1      32.712  22.891  23.549  1.00  0.00    -0.274 OA
BRANCH  21  23
ATOM     23  C   UNL A   1      33.057  22.611  25.867  1.00  0.00     0.099 C 
ATOM     24  C   UNL A   1      34.570  22.737  26.062  1.00  0.00     0.023 C 
ATOM     25  C   UNL A   1      32.534  21.201  26.096  1.00  0.00     0.142 C 
ATOM     26  C   UNL A   1      35.404  21.676  25.360  1.00  0.00     0.078 C 
ATOM     27  N   UNL A   1      33.450  20.178  25.646  1.00  0.00    -0.278 N 
ATOM     28  C   UNL A   1      34.724  20.346  25.242  1.00  0.00     0.133 A 
ATOM     29  C   UNL A   1      33.064  18.939  25.199  1.00  0.00     0.345 A 
ATOM     30  N   UNL A   1      35.227  19.340  24.585  1.00  0.00    -0.155 NA
ATOM     31  N   UNL A   1      34.186  18.436  24.529  1.00  0.00    -0.216 N 
ATOM     32  O   UNL A   1      31.950  18.448  25.257  1.00  0.00    -0.246 OA
ATOM     33  C   UNL A   1      34.148  17.356  23.580  1.00  0.00     0.179 C 
ENDBRANCH  21  23
ENDBRANCH  15  21
ENDBRANCH   4   7
ENDBRANCH   2   3
ENDBRANCH   1   2
BRANCH   1  34
ATOM     34  C   UNL A   1      31.746  31.695  26.653  1.00  0.00     0.023 C 
BRANCH  34  35
ATOM     35  C   UNL A   1      32.718  32.486  27.527  1.00  0.00     0.116 C 
BRANCH  35  36
ATOM     36  N   UNL A   1      32.345  33.899  27.678  1.00  0.00    -0.352 N 
ATOM     37  C   UNL A   1      32.902  34.822  28.539  1.00  0.00     0.251 C 
ATOM     38  H   UNL A   1      31.616  34.224  27.100  1.00  0.00     0.163 HD
ATOM     39  O   UNL A   1      32.333  35.870  28.831  1.00  0.00    -0.269 OA
BRANCH  37  40
ATOM     40  C   UNL A   1      34.224  34.509  29.100  1.00  0.00     0.039 A 
ATOM     41  C   UNL A   1      34.340  33.838  30.320  1.00  0.00     0.014 A 
ATOM     42  C   UNL A   1      35.333  34.754  28.293  1.00  0.00     0.014 A 
ATOM     43  C   UNL A   1      35.576  33.300  30.673  1.00  0.00     0.010 A 
ATOM     44  C   UNL A   1      36.531  34.147  28.606  1.00  0.00     0.010 A 
ATOM     45  C   UNL A   1      36.663  33.414  29.792  1.00  0.00    -0.014 A 
BRANCH  45  46
ATOM     46  C   UNL A   1      37.862  32.583  29.998  1.00  0.00     0.031 A 
ATOM     47  C   UNL A   1      37.788  31.191  29.447  1.00  0.00     0.074 A 
ATOM     48  C   UNL A   1      39.058  33.099  30.363  1.00  0.00     0.049 A 
ATOM     49  N   UNL A   1      38.026  30.073  30.055  1.00  0.00    -0.248 NA
ATOM     50  C   UNL A   1      37.324  31.020  28.060  1.00  0.00     0.031 C 
ATOM     51  C   UNL A   1      39.358  34.517  30.593  1.00  0.00     0.029 A 
ATOM     52  N   UNL A   1      40.295  32.510  30.413  1.00  0.00    -0.354 N 
ATOM     53  C   UNL A   1      37.964  29.082  29.069  1.00  0.00     0.074 A 
ATOM     54  C   UNL A   1      37.357  29.695  27.920  1.00  0.00     0.031 C 
ATOM     55  C   UNL A   1      40.684  34.719  30.458  1.00  0.00     0.029 A 
ATOM     56  C   UNL A   1      41.337  33.430  30.325  1.00  0.00     0.049 A 
ATOM     57  H   UNL A   1      40.432  31.540  30.504  1.00  0.00     0.167 HD
ATOM     58  C   UNL A   1      38.664  27.919  29.188  1.00  0.00     0.034 A 
ATOM     59  C   UNL A   1      42.651  33.183  30.125  1.00  0.00     0.034 A 
ATOM     60  C   UNL A   1      39.151  27.734  30.530  1.00  0.00     0.049 A 
ATOM     61  C   UNL A   1      42.933  31.793  30.528  1.00  0.00     0.074 A 
ATOM     62  C   UNL A   1      38.662  27.343  31.754  1.00  0.00     0.029 A 
ATOM     63  N   UNL A   1      40.392  28.272  30.731  1.00  0.00    -0.354 N 
ATOM     64  N   UNL A   1      42.842  31.371  31.759  1.00  0.00    -0.248 NA
ATOM     65  C   UNL A   1      43.102  30.754  29.519  1.00  0.00     0.031 C 
ATOM     66  C   UNL A   1      39.595  27.821  32.723  1.00  0.00     0.029 A 
ATOM     67  C   UNL A   1      40.623  28.488  32.059  1.00  0.00     0.049 A 
ATOM     68  H   UNL A   1      41.034  28.475  30.013  1.00  0.00     0.167 HD
ATOM     69  C   UNL A   1      42.493  30.043  31.628  1.00  0.00     0.074 A 
ATOM     70  C   UNL A   1      42.876  29.674  30.272  1.00  0.00     0.031 C 
ATOM     71  C   UNL A   1      41.598  29.469  32.481  1.00  0.00     0.034 A 
BRANCH  58  72
ATOM     72  C   UNL A   1      39.347  27.157  28.055  1.00  0.00     0.023 A 
ATOM     73  C   UNL A   1      39.110  25.759  27.997  1.00  0.00     0.012 A 
ATOM     74  C   UNL A   1      40.429  27.640  27.285  1.00  0.00     0.148 A 
ATOM     75  C   UNL A   1      39.949  24.887  27.293  1.00  0.00     0.002 A 
ATOM     76  C   UNL A   1      41.223  26.775  26.533  1.00  0.00     0.091 A 
ATOM     77  F   UNL A   1      40.793  28.921  27.365  1.00  0.00    -0.205 F 
ATOM     78  C   UNL A   1      41.010  25.395  26.561  1.00  0.00     0.022 A 
BRANCH  76  79
ATOM     79  S   UNL A   1      42.594  27.387  25.544  1.00  0.00     0.127 S 
ATOM     80  O   UNL A   1      42.963  26.194  24.789  1.00  0.00    -0.237 OA
ATOM     81  O   UNL A   1      41.955  28.445  24.761  1.00  0.00    -0.237 OA
ATOM     82  O   UNL A   1      43.575  27.871  26.507  1.00  0.00    -0.744 OA
ENDBRANCH  76  79
ENDBRANCH  58  72
BRANCH  59  83
ATOM     83  C   UNL A   1      43.699  34.049  29.543  1.00  0.00     0.023 A 
ATOM     84  C   UNL A   1      43.802  34.172  28.145  1.00  0.00     0.012 A 
ATOM     85  C   UNL A   1      44.439  34.937  30.353  1.00  0.00     0.148 A 
ATOM     86  C   UNL A   1      44.590  35.172  27.567  1.00  0.00     0.002 A 
ATOM     87  C   UNL A   1      45.229  35.925  29.775  1.00  0.00     0.091 A 
ATOM     88  F   UNL A   1      44.299  34.864  31.685  1.00  0.00    -0.205 F 
ATOM     89  C   UNL A   1      45.296  36.054  28.381  1.00  0.00     0.022 A 
BRANCH  87  90
ATOM     90  S   UNL A   1      46.163  37.105  30.758  1.00  0.00     0.127 S 
ATOM     91  O   UNL A   1      47.136  37.608  29.786  1.00  0.00    -0.237 OA
ATOM     92  O   UNL A   1      45.129  38.062  31.141  1.00  0.00    -0.237 OA
ATOM     93  O   UNL A   1      46.751  36.330  31.844  1.00  0.00    -0.744 OA
ENDBRANCH  87  90
ENDBRANCH  59  83
BRANCH  71  94
ATOM     94  C   UNL A   1      41.431  30.077  33.841  1.00  0.00     0.023 A 
ATOM     95  C   UNL A   1      42.339  29.837  34.891  1.00  0.00     0.012 A 
ATOM     96  C   UNL A   1      40.392  31.002  34.032  1.00  0.00     0.148 A 
ATOM     97  C   UNL A   1      42.196  30.491  36.117  1.00  0.00     0.002 A 
ATOM     98  C   UNL A   1      40.282  31.685  35.235  1.00  0.00     0.091 A 
ATOM     99  F   UNL A   1      39.534  31.211  33.021  1.00  0.00    -0.205 F 
ATOM    100  C   UNL A   1      41.175  31.424  36.285  1.00  0.00     0.022 A 
BRANCH  98 101
ATOM    101  S   UNL A   1      39.067  32.987  35.457  1.00  0.00     0.127 S 
ATOM    102  O   UNL A   1      39.241  33.333  36.866  1.00  0.00    -0.237 OA
ATOM    103  O   UNL A   1      39.522  34.010  34.514  1.00  0.00    -0.237 OA
ATOM    104  O   UNL A   1      37.783  32.390  35.105  1.00  0.00    -0.744 OA
ENDBRANCH  98 101
ENDBRANCH  71  94
ENDBRANCH  45  46
ENDBRANCH  37  40
ENDBRANCH  35  36
ENDBRANCH  34  35
ENDBRANCH   1  34
TORSDOF 19
ENDMDL
MODEL 2
REMARK VINA RESULT:     -12.7      3.631      7.420
REMARK SMILES CC(C)CCn1nc(C(=O)NCCCCNC(=O)c2ccc(-c3c4nc(c(-c5cccc(S(=O)(=O)[O-])c5F)c5ccc([nH]5)c(-c5cccc(S(=O)(=O)[O-])c5F)c5nc(c(-c6cccc(S(=O)(=O)[O-])c6F)c6ccc3[nH]6)C=C5)C=C4)cc2)c2c1CCN(C(=O)[C@@H]1CCc3nn(C)c(=O)n3C1)C2
REMARK SMILES IDX 13 1 12 2 11 3 9 4 10 5 8 7 6 8 7 9 83 10 82 11 84 12 100 13
REMARK SMILES IDX 85 14 86 15 5 16 4 17 2 18 1 19 3 20 87 21 88 22 89 23 90 24
REMARK SMILES IDX 99 25 91 26 98 27 92 28 96 29 93 30 94 31 97 32 95 33 14 34
REMARK SMILES IDX 15 35 16 36 17 37 18 39 19 40 20 41 81 42 21 43 80 44 22 45
REMARK SMILES IDX 23 46 24 47 74 48 25 49 79 50 73 51 75 52 26 53 78 54 72 55
REMARK SMILES IDX 71 56 27 58 59 59 39 60 58 61 40 62 43 63 57 64 76 65 41 66
REMARK SMILES IDX 42 67 56 69 77 70 44 71 28 72 29 73 37 74 30 75 32 76 38 77
REMARK SMILES IDX 31 78 33 79 34 80 35 81 36 82 60 83 61 84 69 85 62 86 64 87
REMARK SMILES IDX 70 88 63 89 65 90 66 91 67 92 68 93 45 94 46 95 54 96 47 97
REMARK SMILES IDX 49 98 55 99 48 100 50 101 51 102 52 103 53 104
REMARK H PARENT 11 6 16 38 75 57 43 68
REMARK Flexibility Score: inf
ROOT
ATOM      1  C   UNL A   1      32.570  31.041  26.923  1.00  0.00     0.023 C 
ENDROOT
BRANCH   1   2
ATOM      2  C   UNL A   1      33.204  29.660  26.665  1.00  0.00     0.116 C 
BRANCH   2   3
ATOM      3  N   UNL A   1      33.672  29.530  25.291  1.00  0.00    -0.351 N 
ATOM      4  C   UNL A   1      33.127  29.162  24.078  1.00  0.00     0.272 C 
ATOM      5  O   UNL A   1      33.906  29.276  23.123  1.00  0.00    -0.267 OA
ATOM      6  H   UNL A   1      34.624  29.766  25.206  1.00  0.00     0.163 HD
BRANCH   4   7
ATOM      7  C   UNL A   1      31.742  28.649  23.865  1.00  0.00     0.155 A 
ATOM      8  N   UNL A   1      29.688  28.767  23.154  1.00  0.00    -0.268 N 
ATOM      9  N   UNL A   1      30.834  29.468  23.278  1.00  0.00    -0.167 NA
ATOM     10  C   UNL A   1      29.804  27.532  23.707  1.00  0.00     0.046 A 
ATOM     11  C   UNL A   1      31.135  27.377  24.055  1.00  0.00     0.026 A 
ATOM     12  C   UNL A   1      28.797  26.464  23.896  1.00  0.00     0.078 C 
ATOM     13  C   UNL A   1      31.690  26.082  24.514  1.00  0.00     0.159 C 
ATOM     14  C   UNL A   1      29.367  25.474  24.922  1.00  0.00     0.126 C 
ATOM     15  N   UNL A   1      30.692  25.005  24.532  1.00  0.00    -0.338 N 
BRANCH   8  16
ATOM     16  C   UNL A   1      28.656  29.361  22.317  1.00  0.00     0.145 C 
BRANCH  16  17
ATOM     17  C   UNL A   1      28.836  30.782  21.762  1.00  0.00     0.027 C 
BRANCH  17  18
ATOM     18  C   UNL A   1      28.024  31.871  22.490  1.00  0.00    -0.016 C 
ATOM     19  C   UNL A   1      27.414  31.362  23.796  1.00  0.00     0.007 C 
ATOM     20  C   UNL A   1      28.914  33.086  22.774  1.00  0.00     0.007 C 
ENDBRANCH  17  18
ENDBRANCH  16  17
ENDBRANCH   8  16
BRANCH  15  21
ATOM     21  C   UNL A   1      31.183  23.717  24.442  1.00  0.00     0.227 C 
ATOM     22  O   UNL A   1      31.523  23.271  23.335  1.00  0.00    -0.274 OA
BRANCH  21  23
ATOM     23  C   UNL A   1      31.293  22.737  25.622  1.00  0.00     0.099 C 
ATOM     24  C   UNL A   1      31.820  23.350  26.922  1.00  0.00     0.023 C 
ATOM     25  C   UNL A   1      31.860  21.356  25.332  1.00  0.00     0.142 C 
ATOM     26  C   UNL A   1      33.329  23.279  27.105  1.00  0.00     0.078 C 
ATOM     27  N   UNL A   1      33.240  21.214  25.738  1.00  0.00    -0.278 N 
ATOM     28  C   UNL A   1      33.964  22.077  26.475  1.00  0.00     0.133 A 
ATOM     29  C   UNL A   1      34.140  20.375  25.131  1.00  0.00     0.345 A 
ATOM     30  N   UNL A   1      35.252  21.888  26.431  1.00  0.00    -0.155 NA
ATOM     31  N   UNL A   1      35.393  20.819  25.569  1.00  0.00    -0.216 N 
ATOM     32  O   UNL A   1      33.904  19.522  24.293  1.00  0.00    -0.246 OA
ATOM     33  C   UNL A   1      36.638  20.508  24.920  1.00  0.00     0.179 C 
ENDBRANCH  21  23
ENDBRANCH  15  21
ENDBRANCH   4   7
ENDBRANCH   2   3
ENDBRANCH   1   2
BRANCH   1  34
ATOM     34  C   UNL A   1      33.491  32.145  27.448  1.00  0.00     0.023 C 
BRANCH  34  35
ATOM     35  C   UNL A   1      34.716  31.607  28.187  1.00  0.00     0.116 C 
BRANCH  35  36
ATOM     36  N   UNL A   1      34.781  32.036  29.591  1.00  0.00    -0.352 N 
ATOM     37  C   UNL A   1      35.717  31.664  30.535  1.00  0.00     0.251 C 
ATOM     38  H   UNL A   1      34.079  32.659  29.892  1.00  0.00     0.163 HD
ATOM     39  O   UNL A   1      35.521  31.804  31.739  1.00  0.00    -0.269 OA
BRANCH  37  40
ATOM     40  C   UNL A   1      36.978  31.091  30.044  1.00  0.00     0.039 A 
ATOM     41  C   UNL A   1      38.130  31.876  29.955  1.00  0.00     0.014 A 
ATOM     42  C   UNL A   1      37.014  29.714  29.839  1.00  0.00     0.014 A 
ATOM     43  C   UNL A   1      39.359  31.243  29.775  1.00  0.00     0.010 A 
ATOM     44  C   UNL A   1      38.239  29.086  29.747  1.00  0.00     0.010 A 
ATOM     45  C   UNL A   1      39.419  29.841  29.718  1.00  0.00    -0.014 A 
BRANCH  45  46
ATOM     46  C   UNL A   1      40.717  29.158  29.857  1.00  0.00     0.031 A 
ATOM     47  C   UNL A   1      41.152  28.873  31.262  1.00  0.00     0.074 A 
ATOM     48  C   UNL A   1      41.336  28.543  28.824  1.00  0.00     0.049 A 
ATOM     49  N   UNL A   1      42.277  29.167  31.830  1.00  0.00    -0.248 NA
ATOM     50  C   UNL A   1      40.181  28.239  32.171  1.00  0.00     0.031 C 
ATOM     51  C   UNL A   1      40.836  28.443  27.447  1.00  0.00     0.029 A 
ATOM     52  N   UNL A   1      42.429  27.717  28.815  1.00  0.00    -0.354 N 
ATOM     53  C   UNL A   1      42.242  28.555  33.088  1.00  0.00     0.074 A 
ATOM     54  C   UNL A   1      40.877  28.162  33.306  1.00  0.00     0.031 C 
ATOM     55  C   UNL A   1      41.425  27.395  26.836  1.00  0.00     0.029 A 
ATOM     56  C   UNL A   1      42.468  26.880  27.702  1.00  0.00     0.049 A 
ATOM     57  H   UNL A   1      43.115  27.715  29.521  1.00  0.00     0.167 HD
ATOM     58  C   UNL A   1      43.386  28.178  33.726  1.00  0.00     0.034 A 
ATOM     59  C   UNL A   1      43.268  25.812  27.491  1.00  0.00     0.034 A 
ATOM     60  C   UNL A   1      44.546  28.777  33.120  1.00  0.00     0.049 A 
ATOM     61  C   UNL A   1      44.458  25.940  28.353  1.00  0.00     0.074 A 
ATOM     62  C   UNL A   1      45.182  29.995  33.104  1.00  0.00     0.029 A 
ATOM     63  N   UNL A   1      45.085  28.014  32.121  1.00  0.00    -0.354 N 
ATOM     64  N   UNL A   1      45.350  26.881  28.209  1.00  0.00    -0.248 NA
ATOM     65  C   UNL A   1      44.573  25.148  29.572  1.00  0.00     0.031 C 
ATOM     66  C   UNL A   1      46.014  29.992  31.944  1.00  0.00     0.029 A 
ATOM     67  C   UNL A   1      45.859  28.772  31.290  1.00  0.00     0.049 A 
ATOM     68  H   UNL A   1      44.936  27.047  32.017  1.00  0.00     0.167 HD
ATOM     69  C   UNL A   1      45.827  27.082  29.487  1.00  0.00     0.074 A 
ATOM     70  C   UNL A   1      45.486  25.873  30.223  1.00  0.00     0.031 C 
ATOM     71  C   UNL A   1      46.115  28.338  29.934  1.00  0.00     0.034 A 
BRANCH  58  72
ATOM     72  C   UNL A   1      43.574  26.923  34.576  1.00  0.00     0.023 A 
ATOM     73  C   UNL A   1      43.930  27.124  35.934  1.00  0.00     0.012 A 
ATOM     74  C   UNL A   1      43.752  25.616  34.069  1.00  0.00     0.148 A 
ATOM     75  C   UNL A   1      44.512  26.116  36.712  1.00  0.00     0.002 A 
ATOM     76  C   UNL A   1      44.272  24.597  34.867  1.00  0.00     0.091 A 
ATOM     77  F   UNL A   1      43.548  25.362  32.776  1.00  0.00    -0.205 F 
ATOM     78  C   UNL A   1      44.686  24.850  36.177  1.00  0.00     0.022 A 
BRANCH  76  79
ATOM     79  S   UNL A   1      44.491  22.931  34.230  1.00  0.00     0.127 S 
ATOM     80  O   UNL A   1      43.232  22.723  33.522  1.00  0.00    -0.237 OA
ATOM     81  O   UNL A   1      45.668  23.085  33.375  1.00  0.00    -0.237 OA
ATOM     82  O   UNL A   1      44.715  22.098  35.406  1.00  0.00    -0.744 OA
ENDBRANCH  76  79
ENDBRANCH  58  72
BRANCH  59  83
ATOM     83  C   UNL A   1      43.059  24.627  26.631  1.00  0.00     0.023 A 
ATOM     84  C   UNL A   1      43.886  24.425  25.511  1.00  0.00     0.012 A 
ATOM     85  C   UNL A   1      42.211  23.574  27.040  1.00  0.00     0.148 A 
ATOM     86  C   UNL A   1      43.899  23.201  24.838  1.00  0.00     0.002 A 
ATOM     87  C   UNL A   1      42.221  22.360  26.362  1.00  0.00     0.091 A 
ATOM     88  F   UNL A   1      41.465  23.739  28.142  1.00  0.00    -0.205 F 
ATOM     89  C   UNL A   1      43.074  22.165  25.267  1.00  0.00     0.022 A 
BRANCH  87  90
ATOM     90  S   UNL A   1      41.190  20.974  26.861  1.00  0.00     0.127 S 
ATOM     91  O   UNL A   1      41.344  20.057  25.731  1.00  0.00    -0.237 OA
ATOM     92  O   UNL A   1      41.844  20.543  28.093  1.00  0.00    -0.237 OA
ATOM     93  O   UNL A   1      39.846  21.520  27.008  1.00  0.00    -0.744 OA
ENDBRANCH  87  90
ENDBRANCH  59  83
BRANCH  71  94
ATOM     94  C   UNL A   1      46.448  29.388  28.917  1.00  0.00     0.023 A 
ATOM     95  C   UNL A   1      47.747  29.547  28.395  1.00  0.00     0.012 A 
ATOM     96  C   UNL A   1      45.400  30.164  28.396  1.00  0.00     0.148 A 
ATOM     97  C   UNL A   1      47.998  30.481  27.386  1.00  0.00     0.002 A 
ATOM     98  C   UNL A   1      45.645  31.056  27.361  1.00  0.00     0.091 A 
ATOM     99  F   UNL A   1      44.172  30.003  28.912  1.00  0.00    -0.205 F 
ATOM    100  C   UNL A   1      46.945  31.226  26.860  1.00  0.00     0.022 A 
BRANCH  98 101
ATOM    101  S   UNL A   1      44.305  31.943  26.563  1.00  0.00     0.127 S 
ATOM    102  O   UNL A   1      43.367  30.867  26.251  1.00  0.00    -0.237 OA
ATOM    103  O   UNL A   1      43.859  32.859  27.614  1.00  0.00    -0.237 OA
ATOM    104  O   UNL A   1      44.906  32.612  25.414  1.00  0.00    -0.744 OA
ENDBRANCH  98 101
ENDBRANCH  71  94
ENDBRANCH  45  46
ENDBRANCH  37  40
ENDBRANCH  35  36
ENDBRANCH  34  35
ENDBRANCH   1  34
TORSDOF 19
ENDMDL
MODEL 3
REMARK VINA RESULT:     -12.2      2.855      8.982
REMARK SMILES CC(C)CCn1nc(C(=O)NCCCCNC(=O)c2ccc(-c3c4nc(c(-c5cccc(S(=O)(=O)[O-])c5F)c5ccc([nH]5)c(-c5cccc(S(=O)(=O)[O-])c5F)c5nc(c(-c6cccc(S(=O)(=O)[O-])c6F)c6ccc3[nH]6)C=C5)C=C4)cc2)c2c1CCN(C(=O)[C@@H]1CCc3nn(C)c(=O)n3C1)C2
REMARK SMILES IDX 13 1 12 2 11 3 9 4 10 5 8 7 6 8 7 9 83 10 82 11 84 12 100 13
REMARK SMILES IDX 85 14 86 15 5 16 4 17 2 18 1 19 3 20 87 21 88 22 89 23 90 24
REMARK SMILES IDX 99 25 91 26 98 27 92 28 96 29 93 30 94 31 97 32 95 33 14 34
REMARK SMILES IDX 15 35 16 36 17 37 18 39 19 40 20 41 81 42 21 43 80 44 22 45
REMARK SMILES IDX 23 46 24 47 74 48 25 49 79 50 73 51 75 52 26 53 78 54 72 55
REMARK SMILES IDX 71 56 27 58 59 59 39 60 58 61 40 62 43 63 57 64 76 65 41 66
REMARK SMILES IDX 42 67 56 69 77 70 44 71 28 72 29 73 37 74 30 75 32 76 38 77
REMARK SMILES IDX 31 78 33 79 34 80 35 81 36 82 60 83 61 84 69 85 62 86 64 87
REMARK SMILES IDX 70 88 63 89 65 90 66 91 67 92 68 93 45 94 46 95 54 96 47 97
REMARK SMILES IDX 49 98 55 99 48 100 50 101 51 102 52 103 53 104
REMARK H PARENT 11 6 16 38 75 57 43 68
REMARK Flexibility Score: inf
ROOT
ATOM      1  C   UNL A   1      38.152  21.658  25.366  1.00  0.00     0.023 C 
ENDROOT
BRANCH   1   2
ATOM      2  C   UNL A   1      36.977  22.655  25.397  1.00  0.00     0.116 C 
BRANCH   2   3
ATOM      3  N   UNL A   1      36.034  22.344  26.464  1.00  0.00    -0.351 N 
ATOM      4  C   UNL A   1      34.805  21.725  26.565  1.00  0.00     0.272 C 
ATOM      5  O   UNL A   1      34.394  21.613  27.728  1.00  0.00    -0.267 OA
ATOM      6  H   UNL A   1      36.357  22.657  27.339  1.00  0.00     0.163 HD
BRANCH   4   7
ATOM      7  C   UNL A   1      33.984  21.227  25.423  1.00  0.00     0.155 A 
ATOM      8  N   UNL A   1      32.974  19.701  24.244  1.00  0.00    -0.268 N 
ATOM      9  N   UNL A   1      33.775  19.891  25.313  1.00  0.00    -0.167 NA
ATOM     10  C   UNL A   1      32.710  20.873  23.612  1.00  0.00     0.046 A 
ATOM     11  C   UNL A   1      33.231  21.879  24.408  1.00  0.00     0.026 A 
ATOM     12  C   UNL A   1      31.973  21.146  22.358  1.00  0.00     0.078 C 
ATOM     13  C   UNL A   1      32.973  23.314  24.144  1.00  0.00     0.159 C 
ATOM     14  C   UNL A   1      32.332  22.571  21.915  1.00  0.00     0.126 C 
ATOM     15  N   UNL A   1      32.101  23.537  22.985  1.00  0.00    -0.338 N 
BRANCH   8  16
ATOM     16  C   UNL A   1      32.409  18.368  24.090  1.00  0.00     0.145 C 
BRANCH  16  17
ATOM     17  C   UNL A   1      33.176  17.291  23.308  1.00  0.00     0.027 C 
BRANCH  17  18
ATOM     18  C   UNL A   1      33.738  16.141  24.168  1.00  0.00    -0.016 C 
ATOM     19  C   UNL A   1      35.024  16.538  24.894  1.00  0.00     0.007 C 
ATOM     20  C   UNL A   1      32.687  15.688  25.187  1.00  0.00     0.007 C 
ENDBRANCH  17  18
ENDBRANCH  16  17
ENDBRANCH   8  16
BRANCH  15  21
ATOM     21  C   UNL A   1      31.407  24.730  22.962  1.00  0.00     0.227 C 
ATOM     22  O   UNL A   1      30.382  24.852  23.650  1.00  0.00    -0.274 OA
BRANCH  21  23
ATOM     23  C   UNL A   1      31.774  25.940  22.086  1.00  0.00     0.099 C 
ATOM     24  C   UNL A   1      33.276  26.182  21.916  1.00  0.00     0.023 C 
ATOM     25  C   UNL A   1      30.977  27.219  22.292  1.00  0.00     0.142 C 
ATOM     26  C   UNL A   1      33.903  27.110  22.946  1.00  0.00     0.078 C 
ATOM     27  N   UNL A   1      31.684  28.207  23.074  1.00  0.00    -0.278 N 
ATOM     28  C   UNL A   1      32.977  28.174  23.451  1.00  0.00     0.133 A 
ATOM     29  C   UNL A   1      31.073  29.141  23.874  1.00  0.00     0.345 A 
ATOM     30  N   UNL A   1      33.289  29.000  24.408  1.00  0.00    -0.155 NA
ATOM     31  N   UNL A   1      32.092  29.617  24.708  1.00  0.00    -0.216 N 
ATOM     32  O   UNL A   1      29.883  29.396  23.932  1.00  0.00    -0.246 OA
ATOM     33  C   UNL A   1      31.868  30.314  25.946  1.00  0.00     0.179 C 
ENDBRANCH  21  23
ENDBRANCH  15  21
ENDBRANCH   4   7
ENDBRANCH   2   3
ENDBRANCH   1   2
BRANCH   1  34
ATOM     34  C   UNL A   1      39.249  21.838  26.416  1.00  0.00     0.023 C 
BRANCH  34  35
ATOM     35  C   UNL A   1      39.679  23.293  26.595  1.00  0.00     0.116 C 
BRANCH  35  36
ATOM     36  N   UNL A   1      41.032  23.565  26.090  1.00  0.00    -0.352 N 
ATOM     37  C   UNL A   1      41.695  24.775  26.087  1.00  0.00     0.251 C 
ATOM     38  H   UNL A   1      41.521  22.797  25.713  1.00  0.00     0.163 HD
ATOM     39  O   UNL A   1      42.670  24.985  25.370  1.00  0.00    -0.269 OA
BRANCH  37  40
ATOM     40  C   UNL A   1      41.191  25.822  26.987  1.00  0.00     0.039 A 
ATOM     41  C   UNL A   1      41.242  25.655  28.373  1.00  0.00     0.014 A 
ATOM     42  C   UNL A   1      40.826  27.037  26.410  1.00  0.00     0.014 A 
ATOM     43  C   UNL A   1      41.038  26.766  29.189  1.00  0.00     0.010 A 
ATOM     44  C   UNL A   1      40.710  28.149  27.218  1.00  0.00     0.010 A 
ATOM     45  C   UNL A   1      40.818  28.026  28.609  1.00  0.00    -0.014 A 
BRANCH  45  46
ATOM     46  C   UNL A   1      40.927  29.241  29.435  1.00  0.00     0.031 A 
ATOM     47  C   UNL A   1      39.629  29.892  29.805  1.00  0.00     0.074 A 
ATOM     48  C   UNL A   1      42.061  29.585  30.088  1.00  0.00     0.049 A 
ATOM     49  N   UNL A   1      39.279  31.129  29.653  1.00  0.00    -0.248 NA
ATOM     50  C   UNL A   1      38.559  29.040  30.352  1.00  0.00     0.031 C 
ATOM     51  C   UNL A   1      43.321  28.831  30.095  1.00  0.00     0.029 A 
ATOM     52  N   UNL A   1      42.278  30.556  31.030  1.00  0.00    -0.354 N 
ATOM     53  C   UNL A   1      38.040  31.256  30.291  1.00  0.00     0.074 A 
ATOM     54  C   UNL A   1      37.574  29.919  30.536  1.00  0.00     0.031 C 
ATOM     55  C   UNL A   1      44.037  29.174  31.184  1.00  0.00     0.029 A 
ATOM     56  C   UNL A   1      43.383  30.293  31.835  1.00  0.00     0.049 A 
ATOM     57  H   UNL A   1      41.712  31.355  31.127  1.00  0.00     0.167 HD
ATOM     58  C   UNL A   1      37.628  32.447  30.810  1.00  0.00     0.034 A 
ATOM     59  C   UNL A   1      43.746  30.913  32.980  1.00  0.00     0.034 A 
ATOM     60  C   UNL A   1      38.436  33.536  30.328  1.00  0.00     0.049 A 
ATOM     61  C   UNL A   1      43.120  32.249  33.008  1.00  0.00     0.074 A 
ATOM     62  C   UNL A   1      38.563  34.294  29.188  1.00  0.00     0.029 A 
ATOM     63  N   UNL A   1      39.522  33.792  31.119  1.00  0.00    -0.354 N 
ATOM     64  N   UNL A   1      43.422  33.200  32.169  1.00  0.00    -0.248 NA
ATOM     65  C   UNL A   1      41.948  32.494  33.840  1.00  0.00     0.031 C 
ATOM     66  C   UNL A   1      39.858  34.892  29.252  1.00  0.00     0.029 A 
ATOM     67  C   UNL A   1      40.479  34.480  30.430  1.00  0.00     0.049 A 
ATOM     68  H   UNL A   1      39.603  33.517  32.061  1.00  0.00     0.167 HD
ATOM     69  C   UNL A   1      42.254  33.924  32.056  1.00  0.00     0.074 A 
ATOM     70  C   UNL A   1      41.474  33.589  33.239  1.00  0.00     0.031 C 
ATOM     71  C   UNL A   1      41.862  34.431  30.853  1.00  0.00     0.034 A 
BRANCH  58  72
ATOM     72  C   UNL A   1      36.836  32.644  32.100  1.00  0.00     0.023 A 
ATOM     73  C   UNL A   1      35.585  33.304  31.982  1.00  0.00     0.012 A 
ATOM     74  C   UNL A   1      37.366  32.537  33.406  1.00  0.00     0.148 A 
ATOM     75  C   UNL A   1      34.948  33.900  33.078  1.00  0.00     0.002 A 
ATOM     76  C   UNL A   1      36.695  33.075  34.504  1.00  0.00     0.091 A 
ATOM     77  F   UNL A   1      38.585  32.031  33.598  1.00  0.00    -0.205 F 
ATOM     78  C   UNL A   1      35.505  33.787  34.341  1.00  0.00     0.022 A 
BRANCH  76  79
ATOM     79  S   UNL A   1      37.361  32.932  36.168  1.00  0.00     0.127 S 
ATOM     80  O   UNL A   1      37.659  31.505  36.239  1.00  0.00    -0.237 OA
ATOM     81  O   UNL A   1      38.530  33.809  36.103  1.00  0.00    -0.237 OA
ATOM     82  O   UNL A   1      36.302  33.415  37.046  1.00  0.00    -0.744 OA
ENDBRANCH  76  79
ENDBRANCH  58  72
BRANCH  59  83
ATOM     83  C   UNL A   1      44.559  30.415  34.110  1.00  0.00     0.023 A 
ATOM     84  C   UNL A   1      45.626  31.193  34.596  1.00  0.00     0.012 A 
ATOM     85  C   UNL A   1      44.143  29.297  34.866  1.00  0.00     0.148 A 
ATOM     86  C   UNL A   1      46.240  30.891  35.815  1.00  0.00     0.002 A 
ATOM     87  C   UNL A   1      44.762  28.995  36.074  1.00  0.00     0.091 A 
ATOM     88  F   UNL A   1      43.088  28.587  34.439  1.00  0.00    -0.205 F 
ATOM     89  C   UNL A   1      45.803  29.797  36.558  1.00  0.00     0.022 A 
BRANCH  87  90
ATOM     90  S   UNL A   1      44.249  27.606  37.094  1.00  0.00     0.127 S 
ATOM     91  O   UNL A   1      44.828  26.469  36.374  1.00  0.00    -0.237 OA
ATOM     92  O   UNL A   1      44.891  27.915  38.368  1.00  0.00    -0.237 OA
ATOM     93  O   UNL A   1      42.791  27.634  37.089  1.00  0.00    -0.744 OA
ENDBRANCH  87  90
ENDBRANCH  59  83
BRANCH  71  94
ATOM     94  C   UNL A   1      42.916  34.689  29.819  1.00  0.00     0.023 A 
ATOM     95  C   UNL A   1      43.624  35.905  29.751  1.00  0.00     0.012 A 
ATOM     96  C   UNL A   1      43.278  33.637  28.963  1.00  0.00     0.148 A 
ATOM     97  C   UNL A   1      44.658  36.074  28.828  1.00  0.00     0.002 A 
ATOM     98  C   UNL A   1      44.338  33.793  28.080  1.00  0.00     0.091 A 
ATOM     99  F   UNL A   1      42.587  32.489  29.038  1.00  0.00    -0.205 F 
ATOM    100  C   UNL A   1      45.024  35.014  28.001  1.00  0.00     0.022 A 
BRANCH  98 101
ATOM    101  S   UNL A   1      44.930  32.420  27.088  1.00  0.00     0.127 S 
ATOM    102  O   UNL A   1      46.190  32.941  26.563  1.00  0.00    -0.237 OA
ATOM    103  O   UNL A   1      45.073  31.351  28.077  1.00  0.00    -0.237 OA
ATOM    104  O   UNL A   1      43.887  32.172  26.098  1.00  0.00    -0.744 OA
ENDBRANCH  98 101
ENDBRANCH  71  94
ENDBRANCH  45  46
ENDBRANCH  37  40
ENDBRANCH  35  36
ENDBRANCH  34  35
ENDBRANCH   1  34
TORSDOF 19
ENDMDL
