MODEL 1
REMARK VINA RESULT:     -10.5      0.000      0.000
REMARK SMILES COCCCOc1cccc(F)c1C(=O)NCCCCNC(=O)c1ccc(-c2c3nc(c(-c4cccc(S(=O)(=O)[O-])c4F)c4ccc([nH]4)c(-c4cccc(S(=O)(=O)[O-])c4F)c4nc(c(-c5cccc(S(=O)(=O)[O-])c5F)c5ccc2[nH]5)C=C4)C=C3)cc1
REMARK SMILES IDX 17 1 16 2 14 3 15 4 13 6 7 7 8 8 9 9 11 10 10 11 12 12 6 13
REMARK SMILES IDX 5 14 4 15 3 16 2 17 1 18 18 19 19 20 20 21 21 22 22 23 23 25
REMARK SMILES IDX 24 26 25 27 86 28 26 29 85 30 27 31 28 32 29 33 79 34 30 35
REMARK SMILES IDX 84 36 78 37 80 38 31 39 83 40 77 41 76 42 32 44 64 45 44 46
REMARK SMILES IDX 63 47 45 48 48 49 62 50 81 51 46 52 47 53 61 55 82 56 49 57
REMARK SMILES IDX 33 58 34 59 42 60 35 61 37 62 43 63 36 64 38 65 39 66 40 67
REMARK SMILES IDX 41 68 65 69 66 70 74 71 67 72 69 73 75 74 68 75 70 76 71 77
REMARK SMILES IDX 72 78 73 79 50 80 51 81 59 82 52 83 54 84 60 85 53 86 55 87
REMARK SMILES IDX 56 88 57 89 58 90
REMARK H PARENT 16 5 21 24 80 43 48 54
REMARK Flexibility Score: inf
ROOT
ATOM      1  C   UNL A   1      32.180  29.908  25.829  1.00  0.00     0.116 C 
ENDROOT
BRANCH   1   2
ATOM      2  N   UNL A   1      32.930  29.576  24.628  1.00  0.00    -0.352 N 
ATOM      3  C   UNL A   1      32.532  28.960  23.457  1.00  0.00     0.258 C 
ATOM      4  O   UNL A   1      33.336  28.911  22.529  1.00  0.00    -0.269 OA
ATOM      5  H   UNL A   1      33.880  29.834  24.653  1.00  0.00     0.163 HD
BRANCH   3   6
ATOM      6  C   UNL A   1      31.194  28.322  23.329  1.00  0.00     0.117 A 
ATOM      7  C   UNL A   1      30.901  27.089  23.930  1.00  0.00     0.135 A 
ATOM      8  C   UNL A   1      29.570  26.677  24.088  1.00  0.00     0.047 A 
ATOM      9  C   UNL A   1      28.539  27.391  23.485  1.00  0.00     0.007 A 
ATOM     10  C   UNL A   1      30.167  28.948  22.625  1.00  0.00     0.139 A 
ATOM     11  C   UNL A   1      28.848  28.500  22.706  1.00  0.00     0.040 A 
ATOM     12  F   UNL A   1      30.417  30.005  21.837  1.00  0.00    -0.206 F 
BRANCH   7  13
ATOM     13  O   UNL A   1      31.835  26.199  24.390  1.00  0.00    -0.493 OA
BRANCH  13  14
ATOM     14  C   UNL A   1      31.237  25.120  25.144  1.00  0.00     0.232 C 
BRANCH  14  15
ATOM     15  C   UNL A   1      31.669  23.724  24.673  1.00  0.00     0.070 C 
BRANCH  15  16
ATOM     16  C   UNL A   1      31.933  23.562  23.172  1.00  0.00     0.163 C 
BRANCH  16  17
ATOM     17  O   UNL A   1      33.199  22.982  22.865  1.00  0.00    -0.385 OA
ATOM     18  C   UNL A   1      34.318  23.785  23.216  1.00  0.00     0.194 C 
ENDBRANCH  16  17
ENDBRANCH  15  16
ENDBRANCH  14  15
ENDBRANCH  13  14
ENDBRANCH   7  13
ENDBRANCH   3   6
ENDBRANCH   1   2
BRANCH   1  19
ATOM     19  C   UNL A   1      31.090  30.956  25.641  1.00  0.00     0.023 C 
BRANCH  19  20
ATOM     20  C   UNL A   1      31.213  32.231  26.468  1.00  0.00     0.023 C 
BRANCH  20  21
ATOM     21  C   UNL A   1      32.621  32.641  26.889  1.00  0.00     0.116 C 
BRANCH  21  22
ATOM     22  N   UNL A   1      32.685  33.908  27.605  1.00  0.00    -0.352 N 
ATOM     23  C   UNL A   1      33.590  34.347  28.549  1.00  0.00     0.251 C 
ATOM     24  H   UNL A   1      31.973  34.549  27.380  1.00  0.00     0.163 HD
ATOM     25  O   UNL A   1      33.432  35.436  29.081  1.00  0.00    -0.269 OA
BRANCH  23  26
ATOM     26  C   UNL A   1      34.726  33.483  28.951  1.00  0.00     0.039 A 
ATOM     27  C   UNL A   1      36.028  33.936  28.716  1.00  0.00     0.014 A 
ATOM     28  C   UNL A   1      34.518  32.252  29.574  1.00  0.00     0.014 A 
ATOM     29  C   UNL A   1      37.117  33.197  29.191  1.00  0.00     0.010 A 
ATOM     30  C   UNL A   1      35.598  31.559  30.116  1.00  0.00     0.010 A 
ATOM     31  C   UNL A   1      36.909  32.027  29.940  1.00  0.00    -0.014 A 
BRANCH  31  32
ATOM     32  C   UNL A   1      38.040  31.301  30.577  1.00  0.00     0.031 A 
ATOM     33  C   UNL A   1      38.429  31.594  32.000  1.00  0.00     0.074 A 
ATOM     34  C   UNL A   1      38.781  30.446  29.843  1.00  0.00     0.049 A 
ATOM     35  N   UNL A   1      39.429  31.117  32.695  1.00  0.00    -0.248 NA
ATOM     36  C   UNL A   1      37.605  32.572  32.732  1.00  0.00     0.031 C 
ATOM     37  C   UNL A   1      38.559  30.135  28.429  1.00  0.00     0.029 A 
ATOM     38  N   UNL A   1      39.886  29.700  30.174  1.00  0.00    -0.354 N 
ATOM     39  C   UNL A   1      39.379  31.760  33.926  1.00  0.00     0.074 A 
ATOM     40  C   UNL A   1      38.268  32.686  33.875  1.00  0.00     0.031 C 
ATOM     41  C   UNL A   1      39.487  29.257  28.019  1.00  0.00     0.029 A 
ATOM     42  C   UNL A   1      40.390  28.963  29.127  1.00  0.00     0.049 A 
ATOM     43  H   UNL A   1      40.281  29.694  31.077  1.00  0.00     0.167 HD
ATOM     44  C   UNL A   1      40.162  31.571  35.015  1.00  0.00     0.034 A 
ATOM     45  C   UNL A   1      41.459  28.143  29.063  1.00  0.00     0.034 A 
ATOM     46  C   UNL A   1      41.227  30.607  35.084  1.00  0.00     0.049 A 
ATOM     47  C   UNL A   1      42.284  27.913  30.301  1.00  0.00     0.074 A 
ATOM     48  C   UNL A   1      42.014  30.280  36.174  1.00  0.00     0.029 A 
ATOM     49  N   UNL A   1      41.651  29.815  34.030  1.00  0.00    -0.354 N 
ATOM     50  N   UNL A   1      42.126  28.418  31.500  1.00  0.00    -0.248 NA
ATOM     51  C   UNL A   1      43.413  26.977  30.189  1.00  0.00     0.031 C 
ATOM     52  C   UNL A   1      42.925  29.299  35.773  1.00  0.00     0.029 A 
ATOM     53  C   UNL A   1      42.693  29.001  34.439  1.00  0.00     0.049 A 
ATOM     54  H   UNL A   1      41.268  29.830  33.122  1.00  0.00     0.167 HD
ATOM     55  C   UNL A   1      43.110  27.840  32.292  1.00  0.00     0.074 A 
ATOM     56  C   UNL A   1      43.852  26.932  31.442  1.00  0.00     0.031 C 
ATOM     57  C   UNL A   1      43.385  28.057  33.601  1.00  0.00     0.034 A 
BRANCH  44  58
ATOM     58  C   UNL A   1      39.853  32.367  36.254  1.00  0.00     0.023 A 
ATOM     59  C   UNL A   1      40.551  33.569  36.492  1.00  0.00     0.012 A 
ATOM     60  C   UNL A   1      38.817  31.985  37.128  1.00  0.00     0.148 A 
ATOM     61  C   UNL A   1      40.241  34.365  37.594  1.00  0.00     0.002 A 
ATOM     62  C   UNL A   1      38.484  32.805  38.199  1.00  0.00     0.091 A 
ATOM     63  F   UNL A   1      38.177  30.829  36.895  1.00  0.00    -0.205 F 
ATOM     64  C   UNL A   1      39.201  33.990  38.438  1.00  0.00     0.022 A 
BRANCH  62  65
ATOM     65  S   UNL A   1      37.107  32.457  39.300  1.00  0.00     0.127 S 
ATOM     66  O   UNL A   1      37.380  31.073  39.687  1.00  0.00    -0.237 OA
ATOM     67  O   UNL A   1      37.309  33.439  40.366  1.00  0.00    -0.237 OA
ATOM     68  O   UNL A   1      35.900  32.656  38.509  1.00  0.00    -0.744 OA
ENDBRANCH  62  65
ENDBRANCH  44  58
BRANCH  45  69
ATOM     69  C   UNL A   1      41.750  27.410  27.797  1.00  0.00     0.023 A 
ATOM     70  C   UNL A   1      42.247  28.127  26.690  1.00  0.00     0.012 A 
ATOM     71  C   UNL A   1      41.602  26.013  27.700  1.00  0.00     0.148 A 
ATOM     72  C   UNL A   1      42.575  27.468  25.505  1.00  0.00     0.002 A 
ATOM     73  C   UNL A   1      41.982  25.357  26.535  1.00  0.00     0.091 A 
ATOM     74  F   UNL A   1      41.114  25.351  28.759  1.00  0.00    -0.205 F 
ATOM     75  C   UNL A   1      42.454  26.083  25.431  1.00  0.00     0.022 A 
BRANCH  73  76
ATOM     76  S   UNL A   1      41.995  23.565  26.395  1.00  0.00     0.127 S 
ATOM     77  O   UNL A   1      40.570  23.250  26.447  1.00  0.00    -0.237 OA
ATOM     78  O   UNL A   1      42.622  23.369  25.088  1.00  0.00    -0.237 OA
ATOM     79  O   UNL A   1      42.789  23.089  27.520  1.00  0.00    -0.744 OA
ENDBRANCH  73  76
ENDBRANCH  45  69
BRANCH  57  80
ATOM     80  C   UNL A   1      44.521  27.292  34.227  1.00  0.00     0.023 A 
ATOM     81  C   UNL A   1      45.819  27.838  34.208  1.00  0.00     0.012 A 
ATOM     82  C   UNL A   1      44.279  26.104  34.946  1.00  0.00     0.148 A 
ATOM     83  C   UNL A   1      46.862  27.206  34.885  1.00  0.00     0.002 A 
ATOM     84  C   UNL A   1      45.312  25.505  35.657  1.00  0.00     0.091 A 
ATOM     85  F   UNL A   1      43.039  25.594  34.938  1.00  0.00    -0.205 F 
ATOM     86  C   UNL A   1      46.606  26.051  35.620  1.00  0.00     0.022 A 
BRANCH  84  87
ATOM     87  S   UNL A   1      45.056  24.075  36.714  1.00  0.00     0.127 S 
ATOM     88  O   UNL A   1      44.289  23.191  35.838  1.00  0.00    -0.237 OA
ATOM     89  O   UNL A   1      46.427  23.634  36.976  1.00  0.00    -0.237 OA
ATOM     90  O   UNL A   1      44.342  24.564  37.886  1.00  0.00    -0.744 OA
ENDBRANCH  84  87
ENDBRANCH  57  80
ENDBRANCH  31  32
ENDBRANCH  23  26
ENDBRANCH  21  22
ENDBRANCH  20  21
ENDBRANCH  19  20
ENDBRANCH   1  19
TORSDOF 19
ENDMDL
MODEL 2
REMARK VINA RESULT:     -10.4      5.536     10.811
REMARK SMILES COCCCOc1cccc(F)c1C(=O)NCCCCNC(=O)c1ccc(-c2c3nc(c(-c4cccc(S(=O)(=O)[O-])c4F)c4ccc([nH]4)c(-c4cccc(S(=O)(=O)[O-])c4F)c4nc(c(-c5cccc(S(=O)(=O)[O-])c5F)c5ccc2[nH]5)C=C4)C=C3)cc1
REMARK SMILES IDX 17 1 16 2 14 3 15 4 13 6 7 7 8 8 9 9 11 10 10 11 12 12 6 13
REMARK SMILES IDX 5 14 4 15 3 16 2 17 1 18 18 19 19 20 20 21 21 22 22 23 23 25
REMARK SMILES IDX 24 26 25 27 86 28 26 29 85 30 27 31 28 32 29 33 79 34 30 35
REMARK SMILES IDX 84 36 78 37 80 38 31 39 83 40 77 41 76 42 32 44 64 45 44 46
REMARK SMILES IDX 63 47 45 48 48 49 62 50 81 51 46 52 47 53 61 55 82 56 49 57
REMARK SMILES IDX 33 58 34 59 42 60 35 61 37 62 43 63 36 64 38 65 39 66 40 67
REMARK SMILES IDX 41 68 65 69 66 70 74 71 67 72 69 73 75 74 68 75 70 76 71 77
REMARK SMILES IDX 72 78 73 79 50 80 51 81 59 82 52 83 54 84 60 85 53 86 55 87
REMARK SMILES IDX 56 88 57 89 58 90
REMARK H PARENT 16 5 21 24 80 43 48 54
REMARK Flexibility Score: inf
ROOT
ATOM      1  C   UNL A   1      36.004  24.075  25.122  1.00  0.00     0.116 C 
ENDROOT
BRANCH   1   2
ATOM      2  N   UNL A   1      35.454  23.834  23.797  1.00  0.00    -0.352 N 
ATOM      3  C   UNL A   1      34.164  23.549  23.394  1.00  0.00     0.258 C 
ATOM      4  O   UNL A   1      33.930  23.515  22.188  1.00  0.00    -0.269 OA
ATOM      5  H   UNL A   1      36.112  23.881  23.065  1.00  0.00     0.163 HD
BRANCH   3   6
ATOM      6  C   UNL A   1      33.093  23.237  24.377  1.00  0.00     0.117 A 
ATOM      7  C   UNL A   1      32.394  24.246  25.057  1.00  0.00     0.135 A 
ATOM      8  C   UNL A   1      31.185  23.956  25.705  1.00  0.00     0.047 A 
ATOM      9  C   UNL A   1      30.762  22.638  25.844  1.00  0.00     0.007 A 
ATOM     10  C   UNL A   1      32.723  21.918  24.639  1.00  0.00     0.139 A 
ATOM     11  C   UNL A   1      31.564  21.614  25.355  1.00  0.00     0.040 A 
ATOM     12  F   UNL A   1      33.478  20.894  24.213  1.00  0.00    -0.206 F 
BRANCH   7  13
ATOM     13  O   UNL A   1      32.805  25.548  25.164  1.00  0.00    -0.493 OA
BRANCH  13  14
ATOM     14  C   UNL A   1      32.096  26.261  26.203  1.00  0.00     0.232 C 
BRANCH  14  15
ATOM     15  C   UNL A   1      32.451  27.753  26.281  1.00  0.00     0.070 C 
BRANCH  15  16
ATOM     16  C   UNL A   1      33.938  28.094  26.425  1.00  0.00     0.163 C 
BRANCH  16  17
ATOM     17  O   UNL A   1      34.240  28.901  27.562  1.00  0.00    -0.385 OA
ATOM     18  C   UNL A   1      35.590  29.337  27.635  1.00  0.00     0.194 C 
ENDBRANCH  16  17
ENDBRANCH  15  16
ENDBRANCH  14  15
ENDBRANCH  13  14
ENDBRANCH   7  13
ENDBRANCH   3   6
ENDBRANCH   1   2
BRANCH   1  19
ATOM     19  C   UNL A   1      35.835  22.928  26.110  1.00  0.00     0.023 C 
BRANCH  19  20
ATOM     20  C   UNL A   1      36.510  21.608  25.754  1.00  0.00     0.023 C 
BRANCH  20  21
ATOM     21  C   UNL A   1      37.905  21.696  25.141  1.00  0.00     0.116 C 
BRANCH  21  22
ATOM     22  N   UNL A   1      38.871  20.776  25.724  1.00  0.00    -0.352 N 
ATOM     23  C   UNL A   1      39.941  21.027  26.560  1.00  0.00     0.251 C 
ATOM     24  H   UNL A   1      38.742  19.830  25.486  1.00  0.00     0.163 HD
ATOM     25  O   UNL A   1      40.677  20.112  26.895  1.00  0.00    -0.269 OA
BRANCH  23  26
ATOM     26  C   UNL A   1      40.221  22.410  27.016  1.00  0.00     0.039 A 
ATOM     27  C   UNL A   1      41.184  22.606  28.011  1.00  0.00     0.014 A 
ATOM     28  C   UNL A   1      39.564  23.507  26.457  1.00  0.00     0.014 A 
ATOM     29  C   UNL A   1      41.554  23.905  28.375  1.00  0.00     0.010 A 
ATOM     30  C   UNL A   1      39.989  24.798  26.761  1.00  0.00     0.010 A 
ATOM     31  C   UNL A   1      40.995  25.013  27.716  1.00  0.00    -0.014 A 
BRANCH  31  32
ATOM     32  C   UNL A   1      41.472  26.396  27.982  1.00  0.00     0.031 A 
ATOM     33  C   UNL A   1      42.892  26.786  27.674  1.00  0.00     0.074 A 
ATOM     34  C   UNL A   1      40.653  27.278  28.593  1.00  0.00     0.049 A 
ATOM     35  N   UNL A   1      43.504  27.919  27.907  1.00  0.00    -0.248 NA
ATOM     36  C   UNL A   1      43.746  25.762  27.049  1.00  0.00     0.031 C 
ATOM     37  C   UNL A   1      39.279  27.000  29.017  1.00  0.00     0.029 A 
ATOM     38  N   UNL A   1      40.862  28.577  28.986  1.00  0.00    -0.354 N 
ATOM     39  C   UNL A   1      44.817  27.733  27.493  1.00  0.00     0.074 A 
ATOM     40  C   UNL A   1      44.925  26.369  27.024  1.00  0.00     0.031 C 
ATOM     41  C   UNL A   1      38.767  28.096  29.599  1.00  0.00     0.029 A 
ATOM     42  C   UNL A   1      39.781  29.145  29.619  1.00  0.00     0.049 A 
ATOM     43  H   UNL A   1      41.709  29.057  28.830  1.00  0.00     0.167 HD
ATOM     44  C   UNL A   1      45.834  28.628  27.471  1.00  0.00     0.034 A 
ATOM     45  C   UNL A   1      39.620  30.372  30.155  1.00  0.00     0.034 A 
ATOM     46  C   UNL A   1      45.708  30.001  27.881  1.00  0.00     0.049 A 
ATOM     47  C   UNL A   1      40.749  31.364  30.074  1.00  0.00     0.074 A 
ATOM     48  C   UNL A   1      46.657  31.005  27.808  1.00  0.00     0.029 A 
ATOM     49  N   UNL A   1      44.570  30.563  28.435  1.00  0.00    -0.354 N 
ATOM     50  N   UNL A   1      41.937  31.214  29.540  1.00  0.00    -0.248 NA
ATOM     51  C   UNL A   1      40.509  32.702  30.636  1.00  0.00     0.031 C 
ATOM     52  C   UNL A   1      46.096  32.173  28.332  1.00  0.00     0.029 A 
ATOM     53  C   UNL A   1      44.792  31.901  28.713  1.00  0.00     0.049 A 
ATOM     54  H   UNL A   1      43.728  30.082  28.606  1.00  0.00     0.167 HD
ATOM     55  C   UNL A   1      42.574  32.443  29.672  1.00  0.00     0.074 A 
ATOM     56  C   UNL A   1      41.633  33.333  30.321  1.00  0.00     0.031 C 
ATOM     57  C   UNL A   1      43.829  32.794  29.304  1.00  0.00     0.034 A 
BRANCH  44  58
ATOM     58  C   UNL A   1      47.158  28.179  26.914  1.00  0.00     0.023 A 
ATOM     59  C   UNL A   1      48.203  27.852  27.802  1.00  0.00     0.012 A 
ATOM     60  C   UNL A   1      47.342  27.990  25.531  1.00  0.00     0.148 A 
ATOM     61  C   UNL A   1      49.419  27.367  27.323  1.00  0.00     0.002 A 
ATOM     62  C   UNL A   1      48.541  27.465  25.063  1.00  0.00     0.091 A 
ATOM     63  F   UNL A   1      46.343  28.324  24.701  1.00  0.00    -0.205 F 
ATOM     64  C   UNL A   1      49.582  27.162  25.956  1.00  0.00     0.022 A 
BRANCH  62  65
ATOM     65  S   UNL A   1      48.825  27.083  23.330  1.00  0.00     0.127 S 
ATOM     66  O   UNL A   1      50.282  26.962  23.289  1.00  0.00    -0.237 OA
ATOM     67  O   UNL A   1      48.104  25.820  23.170  1.00  0.00    -0.237 OA
ATOM     68  O   UNL A   1      48.271  28.200  22.576  1.00  0.00    -0.744 OA
ENDBRANCH  62  65
ENDBRANCH  44  58
BRANCH  45  69
ATOM     69  C   UNL A   1      38.300  30.754  30.736  1.00  0.00     0.023 A 
ATOM     70  C   UNL A   1      38.009  30.394  32.067  1.00  0.00     0.012 A 
ATOM     71  C   UNL A   1      37.367  31.521  30.011  1.00  0.00     0.148 A 
ATOM     72  C   UNL A   1      36.804  30.775  32.659  1.00  0.00     0.002 A 
ATOM     73  C   UNL A   1      36.193  31.942  30.626  1.00  0.00     0.091 A 
ATOM     74  F   UNL A   1      37.658  31.841  28.742  1.00  0.00    -0.205 F 
ATOM     75  C   UNL A   1      35.902  31.559  31.944  1.00  0.00     0.022 A 
BRANCH  73  76
ATOM     76  S   UNL A   1      35.039  33.069  29.834  1.00  0.00     0.127 S 
ATOM     77  O   UNL A   1      35.920  34.159  29.421  1.00  0.00    -0.237 OA
ATOM     78  O   UNL A   1      34.518  32.249  28.740  1.00  0.00    -0.237 OA
ATOM     79  O   UNL A   1      34.054  33.405  30.854  1.00  0.00    -0.744 OA
ENDBRANCH  73  76
ENDBRANCH  45  69
BRANCH  57  80
ATOM     80  C   UNL A   1      44.279  34.208  29.565  1.00  0.00     0.023 A 
ATOM     81  C   UNL A   1      44.907  34.523  30.785  1.00  0.00     0.012 A 
ATOM     82  C   UNL A   1      44.200  35.186  28.552  1.00  0.00     0.148 A 
ATOM     83  C   UNL A   1      45.438  35.795  31.000  1.00  0.00     0.002 A 
ATOM     84  C   UNL A   1      44.773  36.436  28.756  1.00  0.00     0.091 A 
ATOM     85  F   UNL A   1      43.584  34.869  27.404  1.00  0.00    -0.205 F 
ATOM     86  C   UNL A   1      45.385  36.744  29.982  1.00  0.00     0.022 A 
BRANCH  84  87
ATOM     87  S   UNL A   1      44.844  37.687  27.467  1.00  0.00     0.127 S 
ATOM     88  O   UNL A   1      45.405  38.827  28.191  1.00  0.00    -0.237 OA
ATOM     89  O   UNL A   1      45.751  37.078  26.494  1.00  0.00    -0.237 OA
ATOM     90  O   UNL A   1      43.476  37.858  26.997  1.00  0.00    -0.744 OA
ENDBRANCH  84  87
ENDBRANCH  57  80
ENDBRANCH  31  32
ENDBRANCH  23  26
ENDBRANCH  21  22
ENDBRANCH  20  21
ENDBRANCH  19  20
ENDBRANCH   1  19
TORSDOF 19
ENDMDL
MODEL 3
REMARK VINA RESULT:     -10.4      5.408     10.754
REMARK SMILES COCCCOc1cccc(F)c1C(=O)NCCCCNC(=O)c1ccc(-c2c3nc(c(-c4cccc(S(=O)(=O)[O-])c4F)c4ccc([nH]4)c(-c4cccc(S(=O)(=O)[O-])c4F)c4nc(c(-c5cccc(S(=O)(=O)[O-])c5F)c5ccc2[nH]5)C=C4)C=C3)cc1
REMARK SMILES IDX 17 1 16 2 14 3 15 4 13 6 7 7 8 8 9 9 11 10 10 11 12 12 6 13
REMARK SMILES IDX 5 14 4 15 3 16 2 17 1 18 18 19 19 20 20 21 21 22 22 23 23 25
REMARK SMILES IDX 24 26 25 27 86 28 26 29 85 30 27 31 28 32 29 33 79 34 30 35
REMARK SMILES IDX 84 36 78 37 80 38 31 39 83 40 77 41 76 42 32 44 64 45 44 46
REMARK SMILES IDX 63 47 45 48 48 49 62 50 81 51 46 52 47 53 61 55 82 56 49 57
REMARK SMILES IDX 33 58 34 59 42 60 35 61 37 62 43 63 36 64 38 65 39 66 40 67
REMARK SMILES IDX 41 68 65 69 66 70 74 71 67 72 69 73 75 74 68 75 70 76 71 77
REMARK SMILES IDX 72 78 73 79 50 80 51 81 59 82 52 83 54 84 60 85 53 86 55 87
REMARK SMILES IDX 56 88 57 89 58 90
REMARK H PARENT 16 5 21 24 80 43 48 54
REMARK Flexibility Score: inf
ROOT
ATOM      1  C   UNL A   1      33.814  21.311  27.067  1.00  0.00     0.116 C 
ENDROOT
BRANCH   1   2
ATOM      2  N   UNL A   1      32.790  22.261  27.472  1.00  0.00    -0.352 N 
ATOM      3  C   UNL A   1      31.964  23.073  26.719  1.00  0.00     0.258 C 
ATOM      4  O   UNL A   1      31.082  23.698  27.303  1.00  0.00    -0.269 OA
ATOM      5  H   UNL A   1      32.664  22.338  28.446  1.00  0.00     0.163 HD
BRANCH   3   6
ATOM      6  C   UNL A   1      32.161  23.238  25.254  1.00  0.00     0.117 A 
ATOM      7  C   UNL A   1      32.514  24.471  24.688  1.00  0.00     0.135 A 
ATOM      8  C   UNL A   1      33.021  24.532  23.382  1.00  0.00     0.047 A 
ATOM      9  C   UNL A   1      33.001  23.402  22.570  1.00  0.00     0.007 A 
ATOM     10  C   UNL A   1      32.027  22.153  24.388  1.00  0.00     0.139 A 
ATOM     11  C   UNL A   1      32.452  22.223  23.060  1.00  0.00     0.040 A 
ATOM     12  F   UNL A   1      31.477  21.003  24.805  1.00  0.00    -0.206 F 
BRANCH   7  13
ATOM     13  O   UNL A   1      32.395  25.684  25.313  1.00  0.00    -0.493 OA
BRANCH  13  14
ATOM     14  C   UNL A   1      31.134  26.328  25.022  1.00  0.00     0.232 C 
BRANCH  14  15
ATOM     15  C   UNL A   1      31.268  27.582  24.147  1.00  0.00     0.070 C 
BRANCH  15  16
ATOM     16  C   UNL A   1      31.763  28.853  24.847  1.00  0.00     0.163 C 
BRANCH  16  17
ATOM     17  O   UNL A   1      33.183  28.948  24.937  1.00  0.00    -0.385 OA
ATOM     18  C   UNL A   1      33.708  28.730  26.240  1.00  0.00     0.194 C 
ENDBRANCH  16  17
ENDBRANCH  15  16
ENDBRANCH  14  15
ENDBRANCH  13  14
ENDBRANCH   7  13
ENDBRANCH   3   6
ENDBRANCH   1   2
BRANCH   1  19
ATOM     19  C   UNL A   1      35.031  21.924  26.386  1.00  0.00     0.023 C 
BRANCH  19  20
ATOM     20  C   UNL A   1      35.746  21.064  25.350  1.00  0.00     0.023 C 
BRANCH  20  21
ATOM     21  C   UNL A   1      37.178  21.460  25.002  1.00  0.00     0.116 C 
BRANCH  21  22
ATOM     22  N   UNL A   1      38.180  20.478  25.389  1.00  0.00    -0.352 N 
ATOM     23  C   UNL A   1      39.364  20.644  26.079  1.00  0.00     0.251 C 
ATOM     24  H   UNL A   1      37.983  19.553  25.118  1.00  0.00     0.163 HD
ATOM     25  O   UNL A   1      40.104  19.688  26.254  1.00  0.00    -0.269 OA
BRANCH  23  26
ATOM     26  C   UNL A   1      39.758  21.987  26.569  1.00  0.00     0.039 A 
ATOM     27  C   UNL A   1      40.819  22.086  27.474  1.00  0.00     0.014 A 
ATOM     28  C   UNL A   1      39.110  23.141  26.127  1.00  0.00     0.014 A 
ATOM     29  C   UNL A   1      41.288  23.345  27.861  1.00  0.00     0.010 A 
ATOM     30  C   UNL A   1      39.629  24.393  26.448  1.00  0.00     0.010 A 
ATOM     31  C   UNL A   1      40.729  24.511  27.311  1.00  0.00    -0.014 A 
BRANCH  31  32
ATOM     32  C   UNL A   1      41.301  25.854  27.593  1.00  0.00     0.031 A 
ATOM     33  C   UNL A   1      42.703  26.192  27.165  1.00  0.00     0.074 A 
ATOM     34  C   UNL A   1      40.591  26.741  28.322  1.00  0.00     0.049 A 
ATOM     35  N   UNL A   1      43.393  27.281  27.389  1.00  0.00    -0.248 NA
ATOM     36  C   UNL A   1      43.439  25.163  26.412  1.00  0.00     0.031 C 
ATOM     37  C   UNL A   1      39.252  26.507  28.866  1.00  0.00     0.029 A 
ATOM     38  N   UNL A   1      40.905  28.007  28.754  1.00  0.00    -0.354 N 
ATOM     39  C   UNL A   1      44.649  27.056  26.840  1.00  0.00     0.074 A 
ATOM     40  C   UNL A   1      44.640  25.714  26.299  1.00  0.00     0.031 C 
ATOM     41  C   UNL A   1      38.856  27.594  29.546  1.00  0.00     0.029 A 
ATOM     42  C   UNL A   1      39.920  28.592  29.515  1.00  0.00     0.049 A 
ATOM     43  H   UNL A   1      41.756  28.453  28.537  1.00  0.00     0.167 HD
ATOM     44  C   UNL A   1      45.704  27.902  26.761  1.00  0.00     0.034 A 
ATOM     45  C   UNL A   1      39.875  29.795  30.122  1.00  0.00     0.034 A 
ATOM     46  C   UNL A   1      45.690  29.255  27.245  1.00  0.00     0.049 A 
ATOM     47  C   UNL A   1      41.042  30.736  29.976  1.00  0.00     0.074 A 
ATOM     48  C   UNL A   1      46.678  30.216  27.126  1.00  0.00     0.029 A 
ATOM     49  N   UNL A   1      44.641  29.842  27.934  1.00  0.00    -0.354 N 
ATOM     50  N   UNL A   1      42.164  30.558  29.322  1.00  0.00    -0.248 NA
ATOM     51  C   UNL A   1      40.926  32.052  30.622  1.00  0.00     0.031 C 
ATOM     52  C   UNL A   1      46.231  31.380  27.757  1.00  0.00     0.029 A 
ATOM     53  C   UNL A   1      44.957  31.151  28.251  1.00  0.00     0.049 A 
ATOM     54  H   UNL A   1      43.795  29.392  28.164  1.00  0.00     0.167 HD
ATOM     55  C   UNL A   1      42.873  31.746  29.448  1.00  0.00     0.074 A 
ATOM     56  C   UNL A   1      42.047  32.646  30.228  1.00  0.00     0.031 C 
ATOM     57  C   UNL A   1      44.104  32.057  28.975  1.00  0.00     0.034 A 
BRANCH  44  58
ATOM     58  C   UNL A   1      46.943  27.420  26.055  1.00  0.00     0.023 A 
ATOM     59  C   UNL A   1      47.090  27.666  24.675  1.00  0.00     0.012 A 
ATOM     60  C   UNL A   1      47.998  26.813  26.765  1.00  0.00     0.148 A 
ATOM     61  C   UNL A   1      48.254  27.295  24.006  1.00  0.00     0.002 A 
ATOM     62  C   UNL A   1      49.174  26.486  26.100  1.00  0.00     0.091 A 
ATOM     63  F   UNL A   1      47.832  26.571  28.074  1.00  0.00    -0.205 F 
ATOM     64  C   UNL A   1      49.300  26.717  24.720  1.00  0.00     0.022 A 
BRANCH  62  65
ATOM     65  S   UNL A   1      50.612  25.813  26.942  1.00  0.00     0.127 S 
ATOM     66  O   UNL A   1      50.166  24.455  27.249  1.00  0.00    -0.237 OA
ATOM     67  O   UNL A   1      51.642  25.897  25.906  1.00  0.00    -0.237 OA
ATOM     68  O   UNL A   1      50.839  26.671  28.098  1.00  0.00    -0.744 OA
ENDBRANCH  62  65
ENDBRANCH  44  58
BRANCH  45  69
ATOM     69  C   UNL A   1      38.639  30.209  30.847  1.00  0.00     0.023 A 
ATOM     70  C   UNL A   1      38.517  29.906  32.218  1.00  0.00     0.012 A 
ATOM     71  C   UNL A   1      37.623  30.950  30.214  1.00  0.00     0.148 A 
ATOM     72  C   UNL A   1      37.396  30.318  32.940  1.00  0.00     0.002 A 
ATOM     73  C   UNL A   1      36.536  31.404  30.952  1.00  0.00     0.091 A 
ATOM     74  F   UNL A   1      37.752  31.216  28.906  1.00  0.00    -0.205 F 
ATOM     75  C   UNL A   1      36.413  31.077  32.312  1.00  0.00     0.022 A 
BRANCH  73  76
ATOM     76  S   UNL A   1      35.292  32.504  30.265  1.00  0.00     0.127 S 
ATOM     77  O   UNL A   1      34.397  32.693  31.404  1.00  0.00    -0.237 OA
ATOM     78  O   UNL A   1      36.090  33.676  29.907  1.00  0.00    -0.237 OA
ATOM     79  O   UNL A   1      34.724  31.793  29.127  1.00  0.00    -0.744 OA
ENDBRANCH  73  76
ENDBRANCH  45  69
BRANCH  57  80
ATOM     80  C   UNL A   1      44.649  33.432  29.256  1.00  0.00     0.023 A 
ATOM     81  C   UNL A   1      45.341  33.672  30.459  1.00  0.00     0.012 A 
ATOM     82  C   UNL A   1      44.592  34.443  28.275  1.00  0.00     0.148 A 
ATOM     83  C   UNL A   1      45.958  34.903  30.687  1.00  0.00     0.002 A 
ATOM     84  C   UNL A   1      45.249  35.649  28.490  1.00  0.00     0.091 A 
ATOM     85  F   UNL A   1      43.916  34.198  27.144  1.00  0.00    -0.205 F 
ATOM     86  C   UNL A   1      45.925  35.883  29.698  1.00  0.00     0.022 A 
BRANCH  84  87
ATOM     87  S   UNL A   1      45.348  36.932  27.234  1.00  0.00     0.127 S 
ATOM     88  O   UNL A   1      46.254  37.893  27.862  1.00  0.00    -0.237 OA
ATOM     89  O   UNL A   1      45.920  36.208  26.097  1.00  0.00    -0.237 OA
ATOM     90  O   UNL A   1      43.984  37.401  27.030  1.00  0.00    -0.744 OA
ENDBRANCH  84  87
ENDBRANCH  57  80
ENDBRANCH  31  32
ENDBRANCH  23  26
ENDBRANCH  21  22
ENDBRANCH  20  21
ENDBRANCH  19  20
ENDBRANCH   1  19
TORSDOF 19
ENDMDL
