MODEL 1
REMARK VINA RESULT:     -12.4      0.000      0.000
REMARK SMILES CCOC(=O)c1c(NC(=O)[C@@H]2[C@@H](C(=O)NCCCCNC(=O)c3ccc(-c4c5nc(c(-c6cccc(S(=O)(=O)[O-])c6F)c6ccc([nH]6)c(-c6cccc(S(=O)(=O)[O-])c6F)c6nc(c(-c7cccc(S(=O)(=O)[O-])c7F)c7ccc4[nH]7)C=C6)C=C5)cc3)[C@@H]3C=C[C@H]2CC3)sc2c1CCC2
REMARK SMILES IDX 16 1 15 2 13 3 14 4 12 6 11 7 89 8 86 9 88 10 90 11 87 12
REMARK SMILES IDX 91 13 9 14 8 15 10 17 7 18 6 19 94 20 92 21 93 22 95 23
REMARK SMILES IDX 97 24 96 25 4 26 5 27 3 28 2 29 1 30 17 31 18 32 19 33 20 34
REMARK SMILES IDX 21 35 22 37 23 38 24 39 85 40 25 41 84 42 26 43 27 44 28 45
REMARK SMILES IDX 78 46 29 47 83 48 77 49 79 50 30 51 82 52 76 53 75 54 31 56
REMARK SMILES IDX 63 57 43 58 62 59 44 60 47 61 61 62 80 63 45 64 46 65 60 67
REMARK SMILES IDX 81 68 48 69 32 70 33 71 41 72 34 73 36 74 42 75 35 76 37 77
REMARK SMILES IDX 38 78 39 79 40 80 64 81 65 82 73 83 66 84 68 85 74 86 67 87
REMARK SMILES IDX 69 88 70 89 71 90 72 91 49 92 50 93 58 94 51 95 53 96 59 97
REMARK SMILES IDX 52 98 54 99 55 100 56 101 57 102
REMARK H PARENT 15 5 8 16 20 36 79 55 47 66
REMARK Flexibility Score: inf
ROOT
ATOM      1  C   UNL A   1      37.427  22.357  24.783  1.00  0.00     0.116 C 
ENDROOT
BRANCH   1   2
ATOM      2  N   UNL A   1      36.795  23.555  25.302  1.00  0.00    -0.356 N 
ATOM      3  C   UNL A   1      35.484  23.925  25.316  1.00  0.00     0.224 C 
ATOM      4  O   UNL A   1      35.206  25.061  25.695  1.00  0.00    -0.275 OA
ATOM      5  H   UNL A   1      37.412  24.206  25.710  1.00  0.00     0.163 HD
BRANCH   3   6
ATOM      6  C   UNL A   1      34.416  22.914  24.930  1.00  0.00     0.098 C 
ATOM      7  C   UNL A   1      32.960  23.398  25.239  1.00  0.00     0.099 C 
ATOM      8  C   UNL A   1      32.221  22.270  26.031  1.00  0.00     0.025 C 
ATOM      9  C   UNL A   1      34.710  21.601  25.728  1.00  0.00     0.025 C 
ATOM     10  C   UNL A   1      32.440  20.919  25.371  1.00  0.00    -0.027 C 
ATOM     11  C   UNL A   1      32.906  22.191  27.418  1.00  0.00     0.009 C 
ATOM     12  C   UNL A   1      33.727  20.567  25.218  1.00  0.00    -0.027 C 
ATOM     13  C   UNL A   1      34.386  21.781  27.238  1.00  0.00     0.009 C 
BRANCH   7  14
ATOM     14  C   UNL A   1      32.191  23.776  23.960  1.00  0.00     0.229 C 
ATOM     15  N   UNL A   1      31.677  25.018  23.700  1.00  0.00    -0.317 N 
ATOM     16  H   UNL A   1      31.353  25.120  22.775  1.00  0.00     0.170 HD
ATOM     17  O   UNL A   1      32.075  22.961  23.033  1.00  0.00    -0.274 OA
BRANCH  15  18
ATOM     18  C   UNL A   1      31.516  26.160  24.464  1.00  0.00     0.110 A 
ATOM     19  C   UNL A   1      31.091  27.423  24.024  1.00  0.00     0.098 A 
ATOM     20  C   UNL A   1      31.359  28.381  25.061  1.00  0.00    -0.017 A 
ATOM     21  S   UNL A   1      31.754  26.125  26.153  1.00  0.00    -0.122 S 
ATOM     22  C   UNL A   1      31.821  27.780  26.200  1.00  0.00     0.011 A 
ATOM     23  C   UNL A   1      31.401  29.861  25.223  1.00  0.00     0.038 C 
ATOM     24  C   UNL A   1      32.337  28.692  27.243  1.00  0.00     0.047 C 
ATOM     25  C   UNL A   1      32.334  30.043  26.471  1.00  0.00     0.010 C 
BRANCH  19  26
ATOM     26  C   UNL A   1      30.638  27.655  22.651  1.00  0.00     0.341 C 
ATOM     27  O   UNL A   1      31.102  27.044  21.694  1.00  0.00    -0.246 OA
BRANCH  26  28
ATOM     28  O   UNL A   1      29.738  28.672  22.540  1.00  0.00    -0.462 OA
BRANCH  28  29
ATOM     29  C   UNL A   1      28.401  28.462  23.033  1.00  0.00     0.230 C 
ATOM     30  C   UNL A   1      27.393  29.516  22.590  1.00  0.00     0.049 C 
ENDBRANCH  28  29
ENDBRANCH  26  28
ENDBRANCH  19  26
ENDBRANCH  15  18
ENDBRANCH   7  14
ENDBRANCH   3   6
ENDBRANCH   1   2
BRANCH   1  31
ATOM     31  C   UNL A   1      38.509  21.807  25.725  1.00  0.00     0.023 C 
BRANCH  31  32
ATOM     32  C   UNL A   1      39.060  20.435  25.328  1.00  0.00     0.023 C 
BRANCH  32  33
ATOM     33  C   UNL A   1      39.843  19.698  26.385  1.00  0.00     0.116 C 
BRANCH  33  34
ATOM     34  N   UNL A   1      41.049  19.021  25.887  1.00  0.00    -0.352 N 
ATOM     35  C   UNL A   1      42.300  19.580  25.642  1.00  0.00     0.251 C 
ATOM     36  H   UNL A   1      40.961  18.057  25.706  1.00  0.00     0.163 HD
ATOM     37  O   UNL A   1      43.109  19.005  24.923  1.00  0.00    -0.269 OA
BRANCH  35  38
ATOM     38  C   UNL A   1      42.615  20.901  26.229  1.00  0.00     0.039 A 
ATOM     39  C   UNL A   1      42.839  22.050  25.470  1.00  0.00     0.014 A 
ATOM     40  C   UNL A   1      42.589  20.993  27.609  1.00  0.00     0.014 A 
ATOM     41  C   UNL A   1      42.913  23.281  26.128  1.00  0.00     0.010 A 
ATOM     42  C   UNL A   1      42.308  22.192  28.190  1.00  0.00     0.010 A 
ATOM     43  C   UNL A   1      42.608  23.347  27.497  1.00  0.00    -0.014 A 
BRANCH  43  44
ATOM     44  C   UNL A   1      42.556  24.599  28.243  1.00  0.00     0.031 A 
ATOM     45  C   UNL A   1      41.328  25.397  28.046  1.00  0.00     0.074 A 
ATOM     46  C   UNL A   1      43.451  24.935  29.204  1.00  0.00     0.049 A 
ATOM     47  N   UNL A   1      41.215  26.477  27.346  1.00  0.00    -0.248 NA
ATOM     48  C   UNL A   1      40.054  24.875  28.555  1.00  0.00     0.031 C 
ATOM     49  C   UNL A   1      44.552  24.126  29.750  1.00  0.00     0.029 A 
ATOM     50  N   UNL A   1      43.464  26.030  30.016  1.00  0.00    -0.354 N 
ATOM     51  C   UNL A   1      39.922  26.925  27.581  1.00  0.00     0.074 A 
ATOM     52  C   UNL A   1      39.197  25.795  28.104  1.00  0.00     0.031 C 
ATOM     53  C   UNL A   1      44.920  24.613  30.953  1.00  0.00     0.029 A 
ATOM     54  C   UNL A   1      44.240  25.873  31.161  1.00  0.00     0.049 A 
ATOM     55  H   UNL A   1      42.971  26.857  29.810  1.00  0.00     0.167 HD
ATOM     56  C   UNL A   1      39.646  28.258  27.623  1.00  0.00     0.034 A 
ATOM     57  C   UNL A   1      44.311  26.709  32.223  1.00  0.00     0.034 A 
ATOM     58  C   UNL A   1      40.744  29.046  27.105  1.00  0.00     0.049 A 
ATOM     59  C   UNL A   1      43.860  28.038  31.753  1.00  0.00     0.074 A 
ATOM     60  C   UNL A   1      41.503  29.033  25.951  1.00  0.00     0.029 A 
ATOM     61  N   UNL A   1      41.460  29.790  28.012  1.00  0.00    -0.354 N 
ATOM     62  N   UNL A   1      44.536  28.772  30.913  1.00  0.00    -0.248 NA
ATOM     63  C   UNL A   1      42.459  28.388  31.904  1.00  0.00     0.031 C 
ATOM     64  C   UNL A   1      42.829  29.345  26.378  1.00  0.00     0.029 A 
ATOM     65  C   UNL A   1      42.790  29.598  27.750  1.00  0.00     0.049 A 
ATOM     66  H   UNL A   1      41.085  30.360  28.722  1.00  0.00     0.167 HD
ATOM     67  C   UNL A   1      43.565  29.332  30.095  1.00  0.00     0.074 A 
ATOM     68  C   UNL A   1      42.317  29.182  30.839  1.00  0.00     0.031 C 
ATOM     69  C   UNL A   1      43.815  29.581  28.772  1.00  0.00     0.034 A 
BRANCH  56  70
ATOM     70  C   UNL A   1      38.581  28.892  28.490  1.00  0.00     0.023 A 
ATOM     71  C   UNL A   1      37.679  29.776  27.855  1.00  0.00     0.012 A 
ATOM     72  C   UNL A   1      38.590  28.898  29.904  1.00  0.00     0.148 A 
ATOM     73  C   UNL A   1      36.887  30.668  28.585  1.00  0.00     0.002 A 
ATOM     74  C   UNL A   1      37.731  29.719  30.625  1.00  0.00     0.091 A 
ATOM     75  F   UNL A   1      39.526  28.224  30.577  1.00  0.00    -0.205 F 
ATOM     76  C   UNL A   1      36.905  30.634  29.973  1.00  0.00     0.022 A 
BRANCH  74  77
ATOM     77  S   UNL A   1      37.677  29.654  32.420  1.00  0.00     0.127 S 
ATOM     78  O   UNL A   1      39.006  30.149  32.768  1.00  0.00    -0.237 OA
ATOM     79  O   UNL A   1      36.574  30.566  32.722  1.00  0.00    -0.237 OA
ATOM     80  O   UNL A   1      37.400  28.259  32.742  1.00  0.00    -0.744 OA
ENDBRANCH  74  77
ENDBRANCH  56  70
BRANCH  57  81
ATOM     81  C   UNL A   1      44.641  26.435  33.637  1.00  0.00     0.023 A 
ATOM     82  C   UNL A   1      45.974  26.556  34.073  1.00  0.00     0.012 A 
ATOM     83  C   UNL A   1      43.628  26.312  34.615  1.00  0.00     0.148 A 
ATOM     84  C   UNL A   1      46.287  26.597  35.436  1.00  0.00     0.002 A 
ATOM     85  C   UNL A   1      43.945  26.339  35.970  1.00  0.00     0.091 A 
ATOM     86  F   UNL A   1      42.348  26.262  34.221  1.00  0.00    -0.205 F 
ATOM     87  C   UNL A   1      45.273  26.497  36.385  1.00  0.00     0.022 A 
BRANCH  85  88
ATOM     88  S   UNL A   1      42.681  26.216  37.244  1.00  0.00     0.127 S 
ATOM     89  O   UNL A   1      43.476  26.277  38.472  1.00  0.00    -0.237 OA
ATOM     90  O   UNL A   1      41.869  27.399  36.979  1.00  0.00    -0.237 OA
ATOM     91  O   UNL A   1      42.030  24.930  37.023  1.00  0.00    -0.744 OA
ENDBRANCH  85  88
ENDBRANCH  57  81
BRANCH  69  92
ATOM     92  C   UNL A   1      45.247  29.553  28.291  1.00  0.00     0.023 A 
ATOM     93  C   UNL A   1      46.104  30.669  28.399  1.00  0.00     0.012 A 
ATOM     94  C   UNL A   1      45.789  28.331  27.853  1.00  0.00     0.148 A 
ATOM     95  C   UNL A   1      47.451  30.581  28.036  1.00  0.00     0.002 A 
ATOM     96  C   UNL A   1      47.141  28.235  27.542  1.00  0.00     0.091 A 
ATOM     97  F   UNL A   1      44.973  27.270  27.756  1.00  0.00    -0.205 F 
ATOM     98  C   UNL A   1      47.973  29.361  27.617  1.00  0.00     0.022 A 
BRANCH  96  99
ATOM     99  S   UNL A   1      47.884  26.655  27.125  1.00  0.00     0.127 S 
ATOM    100  O   UNL A   1      47.571  26.531  25.704  1.00  0.00    -0.237 OA
ATOM    101  O   UNL A   1      49.301  26.877  27.421  1.00  0.00    -0.237 OA
ATOM    102  O   UNL A   1      47.246  25.681  28.005  1.00  0.00    -0.744 OA
ENDBRANCH  96  99
ENDBRANCH  69  92
ENDBRANCH  43  44
ENDBRANCH  35  38
ENDBRANCH  33  34
ENDBRANCH  32  33
ENDBRANCH  31  32
ENDBRANCH   1  31
TORSDOF 19
ENDMDL
MODEL 2
REMARK VINA RESULT:     -12.4      2.929      8.172
REMARK SMILES CCOC(=O)c1c(NC(=O)[C@@H]2[C@@H](C(=O)NCCCCNC(=O)c3ccc(-c4c5nc(c(-c6cccc(S(=O)(=O)[O-])c6F)c6ccc([nH]6)c(-c6cccc(S(=O)(=O)[O-])c6F)c6nc(c(-c7cccc(S(=O)(=O)[O-])c7F)c7ccc4[nH]7)C=C6)C=C5)cc3)[C@@H]3C=C[C@H]2CC3)sc2c1CCC2
REMARK SMILES IDX 16 1 15 2 13 3 14 4 12 6 11 7 89 8 86 9 88 10 90 11 87 12
REMARK SMILES IDX 91 13 9 14 8 15 10 17 7 18 6 19 94 20 92 21 93 22 95 23
REMARK SMILES IDX 97 24 96 25 4 26 5 27 3 28 2 29 1 30 17 31 18 32 19 33 20 34
REMARK SMILES IDX 21 35 22 37 23 38 24 39 85 40 25 41 84 42 26 43 27 44 28 45
REMARK SMILES IDX 78 46 29 47 83 48 77 49 79 50 30 51 82 52 76 53 75 54 31 56
REMARK SMILES IDX 63 57 43 58 62 59 44 60 47 61 61 62 80 63 45 64 46 65 60 67
REMARK SMILES IDX 81 68 48 69 32 70 33 71 41 72 34 73 36 74 42 75 35 76 37 77
REMARK SMILES IDX 38 78 39 79 40 80 64 81 65 82 73 83 66 84 68 85 74 86 67 87
REMARK SMILES IDX 69 88 70 89 71 90 72 91 49 92 50 93 58 94 51 95 53 96 59 97
REMARK SMILES IDX 52 98 54 99 55 100 56 101 57 102
REMARK H PARENT 15 5 8 16 20 36 79 55 47 66
REMARK Flexibility Score: inf
ROOT
ATOM      1  C   UNL A   1      32.257  29.728  26.394  1.00  0.00     0.116 C 
ENDROOT
BRANCH   1   2
ATOM      2  N   UNL A   1      33.144  29.170  25.391  1.00  0.00    -0.356 N 
ATOM      3  C   UNL A   1      33.096  27.975  24.738  1.00  0.00     0.224 C 
ATOM      4  O   UNL A   1      34.047  27.667  24.022  1.00  0.00    -0.275 OA
ATOM      5  H   UNL A   1      33.903  29.747  25.141  1.00  0.00     0.163 HD
BRANCH   3   6
ATOM      6  C   UNL A   1      31.857  27.102  24.863  1.00  0.00     0.098 C 
ATOM      7  C   UNL A   1      32.151  25.576  24.682  1.00  0.00     0.099 C 
ATOM      8  C   UNL A   1      31.142  24.998  23.636  1.00  0.00     0.025 C 
ATOM      9  C   UNL A   1      30.845  27.574  23.767  1.00  0.00     0.025 C 
ATOM     10  C   UNL A   1      29.727  25.461  23.944  1.00  0.00    -0.027 C 
ATOM     11  C   UNL A   1      31.517  25.631  22.273  1.00  0.00     0.009 C 
ATOM     12  C   UNL A   1      29.570  26.793  24.007  1.00  0.00    -0.027 C 
ATOM     13  C   UNL A   1      31.330  27.164  22.348  1.00  0.00     0.009 C 
BRANCH   7  14
ATOM     14  C   UNL A   1      32.074  24.807  26.014  1.00  0.00     0.229 C 
ATOM     15  N   UNL A   1      32.969  23.850  26.413  1.00  0.00    -0.317 N 
ATOM     16  H   UNL A   1      32.853  23.577  27.352  1.00  0.00     0.170 HD
ATOM     17  O   UNL A   1      31.211  25.096  26.856  1.00  0.00    -0.274 OA
BRANCH  15  18
ATOM     18  C   UNL A   1      34.000  23.188  25.774  1.00  0.00     0.110 A 
ATOM     19  C   UNL A   1      34.022  21.844  25.367  1.00  0.00     0.098 A 
ATOM     20  C   UNL A   1      35.374  21.492  25.031  1.00  0.00    -0.017 A 
ATOM     21  S   UNL A   1      35.417  24.014  25.305  1.00  0.00    -0.122 S 
ATOM     22  C   UNL A   1      36.208  22.575  25.079  1.00  0.00     0.011 A 
ATOM     23  C   UNL A   1      36.168  20.260  24.763  1.00  0.00     0.038 C 
ATOM     24  C   UNL A   1      37.653  22.280  24.971  1.00  0.00     0.047 C 
ATOM     25  C   UNL A   1      37.636  20.726  25.064  1.00  0.00     0.010 C 
BRANCH  19  26
ATOM     26  C   UNL A   1      32.847  20.978  25.481  1.00  0.00     0.341 C 
ATOM     27  O   UNL A   1      31.705  21.396  25.315  1.00  0.00    -0.246 OA
BRANCH  26  28
ATOM     28  O   UNL A   1      33.142  19.711  25.882  1.00  0.00    -0.462 OA
BRANCH  28  29
ATOM     29  C   UNL A   1      32.929  18.630  24.955  1.00  0.00     0.230 C 
ATOM     30  C   UNL A   1      32.494  17.321  25.603  1.00  0.00     0.049 C 
ENDBRANCH  28  29
ENDBRANCH  26  28
ENDBRANCH  19  26
ENDBRANCH  15  18
ENDBRANCH   7  14
ENDBRANCH   3   6
ENDBRANCH   1   2
BRANCH   1  31
ATOM     31  C   UNL A   1      32.949  30.783  27.270  1.00  0.00     0.023 C 
BRANCH  31  32
ATOM     32  C   UNL A   1      34.472  30.638  27.355  1.00  0.00     0.023 C 
BRANCH  32  33
ATOM     33  C   UNL A   1      35.238  31.871  27.765  1.00  0.00     0.116 C 
BRANCH  33  34
ATOM     34  N   UNL A   1      34.762  32.497  29.006  1.00  0.00    -0.352 N 
ATOM     35  C   UNL A   1      35.099  32.161  30.314  1.00  0.00     0.251 C 
ATOM     36  H   UNL A   1      34.128  33.244  28.900  1.00  0.00     0.163 HD
ATOM     37  O   UNL A   1      34.395  32.520  31.251  1.00  0.00    -0.269 OA
BRANCH  35  38
ATOM     38  C   UNL A   1      36.298  31.325  30.545  1.00  0.00     0.039 A 
ATOM     39  C   UNL A   1      36.289  29.931  30.496  1.00  0.00     0.014 A 
ATOM     40  C   UNL A   1      37.496  31.991  30.728  1.00  0.00     0.014 A 
ATOM     41  C   UNL A   1      37.512  29.254  30.515  1.00  0.00     0.010 A 
ATOM     42  C   UNL A   1      38.660  31.369  30.391  1.00  0.00     0.010 A 
ATOM     43  C   UNL A   1      38.705  29.991  30.425  1.00  0.00    -0.014 A 
BRANCH  43  44
ATOM     44  C   UNL A   1      40.021  29.368  30.332  1.00  0.00     0.031 A 
ATOM     45  C   UNL A   1      40.701  29.142  31.625  1.00  0.00     0.074 A 
ATOM     46  C   UNL A   1      40.520  28.840  29.189  1.00  0.00     0.049 A 
ATOM     47  N   UNL A   1      41.691  29.820  32.103  1.00  0.00    -0.248 NA
ATOM     48  C   UNL A   1      40.141  28.157  32.559  1.00  0.00     0.031 C 
ATOM     49  C   UNL A   1      39.854  28.694  27.883  1.00  0.00     0.029 A 
ATOM     50  N   UNL A   1      41.690  28.170  28.994  1.00  0.00    -0.354 N 
ATOM     51  C   UNL A   1      42.064  29.147  33.259  1.00  0.00     0.074 A 
ATOM     52  C   UNL A   1      40.945  28.314  33.614  1.00  0.00     0.031 C 
ATOM     53  C   UNL A   1      40.490  27.755  27.153  1.00  0.00     0.029 A 
ATOM     54  C   UNL A   1      41.711  27.393  27.840  1.00  0.00     0.049 A 
ATOM     55  H   UNL A   1      42.453  28.231  29.614  1.00  0.00     0.167 HD
ATOM     56  C   UNL A   1      43.370  29.096  33.641  1.00  0.00     0.034 A 
ATOM     57  C   UNL A   1      42.655  26.496  27.472  1.00  0.00     0.034 A 
ATOM     58  C   UNL A   1      44.179  30.042  32.902  1.00  0.00     0.049 A 
ATOM     59  C   UNL A   1      43.892  26.851  28.204  1.00  0.00     0.074 A 
ATOM     60  C   UNL A   1      44.103  31.393  32.625  1.00  0.00     0.029 A 
ATOM     61  N   UNL A   1      45.065  29.524  31.986  1.00  0.00    -0.354 N 
ATOM     62  N   UNL A   1      44.582  27.932  27.968  1.00  0.00    -0.248 NA
ATOM     63  C   UNL A   1      44.151  26.209  29.480  1.00  0.00     0.031 C 
ATOM     64  C   UNL A   1      44.555  31.518  31.276  1.00  0.00     0.029 A 
ATOM     65  C   UNL A   1      44.945  30.254  30.834  1.00  0.00     0.049 A 
ATOM     66  H   UNL A   1      45.676  28.766  32.132  1.00  0.00     0.167 HD
ATOM     67  C   UNL A   1      44.982  28.361  29.227  1.00  0.00     0.074 A 
ATOM     68  C   UNL A   1      44.818  27.193  30.089  1.00  0.00     0.031 C 
ATOM     69  C   UNL A   1      45.110  29.694  29.509  1.00  0.00     0.034 A 
BRANCH  56  70
ATOM     70  C   UNL A   1      44.011  27.937  34.373  1.00  0.00     0.023 A 
ATOM     71  C   UNL A   1      44.878  28.255  35.443  1.00  0.00     0.012 A 
ATOM     72  C   UNL A   1      44.040  26.604  33.904  1.00  0.00     0.148 A 
ATOM     73  C   UNL A   1      45.776  27.318  35.966  1.00  0.00     0.002 A 
ATOM     74  C   UNL A   1      44.867  25.653  34.491  1.00  0.00     0.091 A 
ATOM     75  F   UNL A   1      43.385  26.264  32.791  1.00  0.00    -0.205 F 
ATOM     76  C   UNL A   1      45.765  26.012  35.496  1.00  0.00     0.022 A 
BRANCH  74  77
ATOM     77  S   UNL A   1      44.830  23.937  33.956  1.00  0.00     0.127 S 
ATOM     78  O   UNL A   1      43.486  23.537  34.359  1.00  0.00    -0.237 OA
ATOM     79  O   UNL A   1      45.036  24.067  32.513  1.00  0.00    -0.237 OA
ATOM     80  O   UNL A   1      45.936  23.296  34.658  1.00  0.00    -0.744 OA
ENDBRANCH  74  77
ENDBRANCH  56  70
BRANCH  57  81
ATOM     81  C   UNL A   1      42.555  25.295  26.617  1.00  0.00     0.023 A 
ATOM     82  C   UNL A   1      43.244  25.258  25.391  1.00  0.00     0.012 A 
ATOM     83  C   UNL A   1      42.004  24.090  27.109  1.00  0.00     0.148 A 
ATOM     84  C   UNL A   1      43.420  24.056  24.697  1.00  0.00     0.002 A 
ATOM     85  C   UNL A   1      42.168  22.898  26.408  1.00  0.00     0.091 A 
ATOM     86  F   UNL A   1      41.401  24.093  28.306  1.00  0.00    -0.205 F 
ATOM     87  C   UNL A   1      42.889  22.874  25.208  1.00  0.00     0.022 A 
BRANCH  85  88
ATOM     88  S   UNL A   1      41.509  21.339  27.017  1.00  0.00     0.127 S 
ATOM     89  O   UNL A   1      41.655  20.467  25.850  1.00  0.00    -0.237 OA
ATOM     90  O   UNL A   1      42.413  21.041  28.124  1.00  0.00    -0.237 OA
ATOM     91  O   UNL A   1      40.124  21.618  27.379  1.00  0.00    -0.744 OA
ENDBRANCH  85  88
ENDBRANCH  57  81
BRANCH  69  92
ATOM     92  C   UNL A   1      45.138  30.676  28.361  1.00  0.00     0.023 A 
ATOM     93  C   UNL A   1      43.966  31.095  27.694  1.00  0.00     0.012 A 
ATOM     94  C   UNL A   1      46.354  31.303  28.038  1.00  0.00     0.148 A 
ATOM     95  C   UNL A   1      44.015  32.078  26.702  1.00  0.00     0.002 A 
ATOM     96  C   UNL A   1      46.390  32.317  27.087  1.00  0.00     0.091 A 
ATOM     97  F   UNL A   1      47.466  30.907  28.677  1.00  0.00    -0.205 F 
ATOM     98  C   UNL A   1      45.225  32.698  26.405  1.00  0.00     0.022 A 
BRANCH  96  99
ATOM     99  S   UNL A   1      47.900  33.233  26.766  1.00  0.00     0.127 S 
ATOM    100  O   UNL A   1      48.832  32.171  26.392  1.00  0.00    -0.237 OA
ATOM    101  O   UNL A   1      47.513  34.120  25.667  1.00  0.00    -0.237 OA
ATOM    102  O   UNL A   1      48.200  33.934  28.009  1.00  0.00    -0.744 OA
ENDBRANCH  96  99
ENDBRANCH  69  92
ENDBRANCH  43  44
ENDBRANCH  35  38
ENDBRANCH  33  34
ENDBRANCH  32  33
ENDBRANCH  31  32
ENDBRANCH   1  31
TORSDOF 19
ENDMDL
MODEL 3
REMARK VINA RESULT:     -11.6      2.781      8.280
REMARK SMILES CCOC(=O)c1c(NC(=O)[C@@H]2[C@@H](C(=O)NCCCCNC(=O)c3ccc(-c4c5nc(c(-c6cccc(S(=O)(=O)[O-])c6F)c6ccc([nH]6)c(-c6cccc(S(=O)(=O)[O-])c6F)c6nc(c(-c7cccc(S(=O)(=O)[O-])c7F)c7ccc4[nH]7)C=C6)C=C5)cc3)[C@@H]3C=C[C@H]2CC3)sc2c1CCC2
REMARK SMILES IDX 16 1 15 2 13 3 14 4 12 6 11 7 89 8 86 9 88 10 90 11 87 12
REMARK SMILES IDX 91 13 9 14 8 15 10 17 7 18 6 19 94 20 92 21 93 22 95 23
REMARK SMILES IDX 97 24 96 25 4 26 5 27 3 28 2 29 1 30 17 31 18 32 19 33 20 34
REMARK SMILES IDX 21 35 22 37 23 38 24 39 85 40 25 41 84 42 26 43 27 44 28 45
REMARK SMILES IDX 78 46 29 47 83 48 77 49 79 50 30 51 82 52 76 53 75 54 31 56
REMARK SMILES IDX 63 57 43 58 62 59 44 60 47 61 61 62 80 63 45 64 46 65 60 67
REMARK SMILES IDX 81 68 48 69 32 70 33 71 41 72 34 73 36 74 42 75 35 76 37 77
REMARK SMILES IDX 38 78 39 79 40 80 64 81 65 82 73 83 66 84 68 85 74 86 67 87
REMARK SMILES IDX 69 88 70 89 71 90 72 91 49 92 50 93 58 94 51 95 53 96 59 97
REMARK SMILES IDX 52 98 54 99 55 100 56 101 57 102
REMARK H PARENT 15 5 8 16 20 36 79 55 47 66
REMARK Flexibility Score: inf
ROOT
ATOM      1  C   UNL A   1      32.398  30.132  26.265  1.00  0.00     0.116 C 
ENDROOT
BRANCH   1   2
ATOM      2  N   UNL A   1      33.240  29.509  25.261  1.00  0.00    -0.356 N 
ATOM      3  C   UNL A   1      33.110  28.313  24.621  1.00  0.00     0.224 C 
ATOM      4  O   UNL A   1      34.034  27.938  23.901  1.00  0.00    -0.275 OA
ATOM      5  H   UNL A   1      34.032  30.033  25.000  1.00  0.00     0.163 HD
BRANCH   3   6
ATOM      6  C   UNL A   1      31.819  27.522  24.764  1.00  0.00     0.098 C 
ATOM      7  C   UNL A   1      32.014  25.978  24.599  1.00  0.00     0.099 C 
ATOM      8  C   UNL A   1      30.963  25.455  23.566  1.00  0.00     0.025 C 
ATOM      9  C   UNL A   1      30.832  28.045  23.669  1.00  0.00     0.025 C 
ATOM     10  C   UNL A   1      29.582  26.010  23.879  1.00  0.00    -0.027 C 
ATOM     11  C   UNL A   1      31.367  26.046  22.193  1.00  0.00     0.009 C 
ATOM     12  C   UNL A   1      29.511  27.350  23.926  1.00  0.00    -0.027 C 
ATOM     13  C   UNL A   1      31.278  27.589  22.252  1.00  0.00     0.009 C 
BRANCH   7  14
ATOM     14  C   UNL A   1      31.897  25.231  25.941  1.00  0.00     0.229 C 
ATOM     15  N   UNL A   1      32.774  24.275  26.378  1.00  0.00    -0.317 N 
ATOM     16  H   UNL A   1      32.633  24.017  27.317  1.00  0.00     0.170 HD
ATOM     17  O   UNL A   1      31.016  25.540  26.756  1.00  0.00    -0.274 OA
BRANCH  15  18
ATOM     18  C   UNL A   1      33.816  23.595  25.774  1.00  0.00     0.110 A 
ATOM     19  C   UNL A   1      33.843  22.241  25.401  1.00  0.00     0.098 A 
ATOM     20  C   UNL A   1      35.201  21.879  25.101  1.00  0.00    -0.017 A 
ATOM     21  S   UNL A   1      35.244  24.407  25.313  1.00  0.00    -0.122 S 
ATOM     22  C   UNL A   1      36.036  22.961  25.138  1.00  0.00     0.011 A 
ATOM     23  C   UNL A   1      35.997  20.639  24.879  1.00  0.00     0.038 C 
ATOM     24  C   UNL A   1      37.482  22.660  25.065  1.00  0.00     0.047 C 
ATOM     25  C   UNL A   1      37.460  21.110  25.197  1.00  0.00     0.010 C 
BRANCH  19  26
ATOM     26  C   UNL A   1      32.664  21.381  25.515  1.00  0.00     0.341 C 
ATOM     27  O   UNL A   1      31.522  21.829  25.515  1.00  0.00    -0.246 OA
BRANCH  26  28
ATOM     28  O   UNL A   1      32.967  20.068  25.717  1.00  0.00    -0.462 OA
BRANCH  28  29
ATOM     29  C   UNL A   1      32.664  19.125  24.671  1.00  0.00     0.230 C 
ATOM     30  C   UNL A   1      32.455  17.695  25.154  1.00  0.00     0.049 C 
ENDBRANCH  28  29
ENDBRANCH  26  28
ENDBRANCH  19  26
ENDBRANCH  15  18
ENDBRANCH   7  14
ENDBRANCH   3   6
ENDBRANCH   1   2
BRANCH   1  31
ATOM     31  C   UNL A   1      33.204  30.967  27.272  1.00  0.00     0.023 C 
BRANCH  31  32
ATOM     32  C   UNL A   1      34.656  30.514  27.454  1.00  0.00     0.023 C 
BRANCH  32  33
ATOM     33  C   UNL A   1      35.610  31.539  28.014  1.00  0.00     0.116 C 
BRANCH  33  34
ATOM     34  N   UNL A   1      35.128  32.221  29.224  1.00  0.00    -0.352 N 
ATOM     35  C   UNL A   1      35.407  31.902  30.549  1.00  0.00     0.251 C 
ATOM     36  H   UNL A   1      34.537  32.995  29.079  1.00  0.00     0.163 HD
ATOM     37  O   UNL A   1      34.694  32.320  31.455  1.00  0.00    -0.269 OA
BRANCH  35  38
ATOM     38  C   UNL A   1      36.555  31.015  30.840  1.00  0.00     0.039 A 
ATOM     39  C   UNL A   1      36.496  29.623  30.755  1.00  0.00     0.014 A 
ATOM     40  C   UNL A   1      37.763  31.627  31.118  1.00  0.00     0.014 A 
ATOM     41  C   UNL A   1      37.688  28.898  30.839  1.00  0.00     0.010 A 
ATOM     42  C   UNL A   1      38.922  30.968  30.844  1.00  0.00     0.010 A 
ATOM     43  C   UNL A   1      38.912  29.588  30.847  1.00  0.00    -0.014 A 
BRANCH  43  44
ATOM     44  C   UNL A   1      40.206  28.915  30.827  1.00  0.00     0.031 A 
ATOM     45  C   UNL A   1      40.876  28.803  32.139  1.00  0.00     0.074 A 
ATOM     46  C   UNL A   1      40.688  28.253  29.747  1.00  0.00     0.049 A 
ATOM     47  N   UNL A   1      41.888  29.494  32.548  1.00  0.00    -0.248 NA
ATOM     48  C   UNL A   1      40.282  27.940  33.168  1.00  0.00     0.031 C 
ATOM     49  C   UNL A   1      40.021  27.994  28.461  1.00  0.00     0.029 A 
ATOM     50  N   UNL A   1      41.836  27.528  29.630  1.00  0.00    -0.354 N 
ATOM     51  C   UNL A   1      42.236  28.934  33.771  1.00  0.00     0.074 A 
ATOM     52  C   UNL A   1      41.088  28.180  34.205  1.00  0.00     0.031 C 
ATOM     53  C   UNL A   1      40.625  26.963  27.837  1.00  0.00     0.029 A 
ATOM     54  C   UNL A   1      41.832  26.635  28.563  1.00  0.00     0.049 A 
ATOM     55  H   UNL A   1      42.599  27.628  30.244  1.00  0.00     0.167 HD
ATOM     56  C   UNL A   1      43.539  28.879  34.163  1.00  0.00     0.034 A 
ATOM     57  C   UNL A   1      42.746  25.673  28.297  1.00  0.00     0.034 A 
ATOM     58  C   UNL A   1      44.381  29.715  33.334  1.00  0.00     0.049 A 
ATOM     59  C   UNL A   1      43.993  26.061  28.994  1.00  0.00     0.074 A 
ATOM     60  C   UNL A   1      44.350  31.032  32.916  1.00  0.00     0.029 A 
ATOM     61  N   UNL A   1      45.249  29.075  32.481  1.00  0.00    -0.354 N 
ATOM     62  N   UNL A   1      44.720  27.087  28.650  1.00  0.00    -0.248 NA
ATOM     63  C   UNL A   1      44.228  25.548  30.331  1.00  0.00     0.031 C 
ATOM     64  C   UNL A   1      44.808  31.000  31.564  1.00  0.00     0.029 A 
ATOM     65  C   UNL A   1      45.156  29.684  31.259  1.00  0.00     0.049 A 
ATOM     66  H   UNL A   1      45.834  28.316  32.709  1.00  0.00     0.167 HD
ATOM     67  C   UNL A   1      45.131  27.632  29.858  1.00  0.00     0.074 A 
ATOM     68  C   UNL A   1      44.927  26.568  30.837  1.00  0.00     0.031 C 
ATOM     69  C   UNL A   1      45.304  28.983  30.000  1.00  0.00     0.034 A 
BRANCH  56  70
ATOM     70  C   UNL A   1      44.139  27.783  35.016  1.00  0.00     0.023 A 
ATOM     71  C   UNL A   1      44.066  26.465  34.510  1.00  0.00     0.012 A 
ATOM     72  C   UNL A   1      44.499  27.925  36.375  1.00  0.00     0.148 A 
ATOM     73  C   UNL A   1      44.268  25.350  35.330  1.00  0.00     0.002 A 
ATOM     74  C   UNL A   1      44.793  26.817  37.161  1.00  0.00     0.091 A 
ATOM     75  F   UNL A   1      44.423  29.116  36.974  1.00  0.00    -0.205 F 
ATOM     76  C   UNL A   1      44.641  25.525  36.656  1.00  0.00     0.022 A 
BRANCH  74  77
ATOM     77  S   UNL A   1      45.345  27.006  38.861  1.00  0.00     0.127 S 
ATOM     78  O   UNL A   1      44.087  26.879  39.590  1.00  0.00    -0.237 OA
ATOM     79  O   UNL A   1      46.266  25.878  39.006  1.00  0.00    -0.237 OA
ATOM     80  O   UNL A   1      45.993  28.312  38.907  1.00  0.00    -0.744 OA
ENDBRANCH  74  77
ENDBRANCH  56  70
BRANCH  57  81
ATOM     81  C   UNL A   1      42.607  24.393  27.571  1.00  0.00     0.023 A 
ATOM     82  C   UNL A   1      41.334  23.806  27.441  1.00  0.00     0.012 A 
ATOM     83  C   UNL A   1      43.662  23.877  26.787  1.00  0.00     0.148 A 
ATOM     84  C   UNL A   1      41.106  22.770  26.529  1.00  0.00     0.002 A 
ATOM     85  C   UNL A   1      43.435  22.835  25.891  1.00  0.00     0.091 A 
ATOM     86  F   UNL A   1      44.866  24.464  26.850  1.00  0.00    -0.205 F 
ATOM     87  C   UNL A   1      42.155  22.289  25.748  1.00  0.00     0.022 A 
BRANCH  85  88
ATOM     88  S   UNL A   1      44.746  22.172  24.853  1.00  0.00     0.127 S 
ATOM     89  O   UNL A   1      44.143  20.938  24.347  1.00  0.00    -0.237 OA
ATOM     90  O   UNL A   1      44.909  23.229  23.859  1.00  0.00    -0.237 OA
ATOM     91  O   UNL A   1      45.878  21.955  25.747  1.00  0.00    -0.744 OA
ENDBRANCH  85  88
ENDBRANCH  57  81
BRANCH  69  92
ATOM     92  C   UNL A   1      45.367  29.837  28.756  1.00  0.00     0.023 A 
ATOM     93  C   UNL A   1      44.219  30.165  28.003  1.00  0.00     0.012 A 
ATOM     94  C   UNL A   1      46.588  30.446  28.415  1.00  0.00     0.148 A 
ATOM     95  C   UNL A   1      44.296  31.038  26.914  1.00  0.00     0.002 A 
ATOM     96  C   UNL A   1      46.651  31.354  27.363  1.00  0.00     0.091 A 
ATOM     97  F   UNL A   1      47.678  30.138  29.136  1.00  0.00    -0.205 F 
ATOM     98  C   UNL A   1      45.509  31.641  26.600  1.00  0.00     0.022 A 
BRANCH  96  99
ATOM     99  S   UNL A   1      48.162  32.254  27.006  1.00  0.00     0.127 S 
ATOM    100  O   UNL A   1      49.057  31.190  26.557  1.00  0.00    -0.237 OA
ATOM    101  O   UNL A   1      47.743  33.183  25.954  1.00  0.00    -0.237 OA
ATOM    102  O   UNL A   1      48.529  32.909  28.256  1.00  0.00    -0.744 OA
ENDBRANCH  96  99
ENDBRANCH  69  92
ENDBRANCH  43  44
ENDBRANCH  35  38
ENDBRANCH  33  34
ENDBRANCH  32  33
ENDBRANCH  31  32
ENDBRANCH   1  31
TORSDOF 19
ENDMDL
