MODEL 1
REMARK VINA RESULT:     -12.2      0.000      0.000
REMARK SMILES C[C@@H]1Cc2ccccc2N1S(=O)(=O)c1c[nH]c(C(=O)NCCCCNC(=O)c2ccc(-c3c4nc(c(-c5cccc(S(=O)(=O)[O-])c5F)c5ccc([nH]5)c(-c5cccc(S(=O)(=O)[O-])c5F)c5nc(c(-c6cccc(S(=O)(=O)[O-])c6F)c6ccc3[nH]6)C=C5)C=C4)cc2)c1
REMARK SMILES IDX 23 1 22 2 21 3 20 4 18 5 19 6 17 8 14 9 15 10 91 11 16 12
REMARK SMILES IDX 11 14 12 15 13 16 10 17 1 18 2 19 3 20 4 21 9 22 5 23 8 24
REMARK SMILES IDX 6 25 7 26 24 27 25 28 26 29 27 31 28 32 29 33 90 34 30 35
REMARK SMILES IDX 89 36 31 37 32 38 33 39 83 40 34 41 88 42 82 43 84 44 35 45
REMARK SMILES IDX 87 46 81 47 80 48 36 50 68 51 48 52 67 53 49 54 52 55 66 56
REMARK SMILES IDX 85 57 50 58 51 59 65 61 86 62 53 63 37 64 38 65 46 66 39 67
REMARK SMILES IDX 41 68 47 69 40 70 42 71 43 72 44 73 45 74 69 75 70 76 78 77
REMARK SMILES IDX 71 78 73 79 79 80 72 81 74 82 75 83 76 84 77 85 54 86 55 87
REMARK SMILES IDX 63 88 56 89 58 90 64 91 57 92 59 93 60 94 61 95 62 96
REMARK H PARENT 20 7 16 13 25 30 84 49 52 60
REMARK Flexibility Score: inf
ROOT
ATOM      1  C   UNL A   1      41.956  21.936  26.940  1.00  0.00     0.023 C 
ENDROOT
BRANCH   1   2
ATOM      2  C   UNL A   1      41.748  20.603  26.219  1.00  0.00     0.023 C 
BRANCH   2   3
ATOM      3  C   UNL A   1      42.653  19.487  26.727  1.00  0.00     0.116 C 
BRANCH   3   4
ATOM      4  N   UNL A   1      43.340  18.828  25.636  1.00  0.00    -0.351 N 
ATOM      5  C   UNL A   1      44.319  19.265  24.791  1.00  0.00     0.267 C 
ATOM      6  O   UNL A   1      44.860  18.420  24.076  1.00  0.00    -0.268 OA
ATOM      7  H   UNL A   1      43.050  17.902  25.475  1.00  0.00     0.163 HD
BRANCH   5   8
ATOM      8  C   UNL A   1      44.743  20.647  24.748  1.00  0.00     0.105 A 
ATOM      9  C   UNL A   1      45.469  22.785  25.017  1.00  0.00     0.106 A 
ATOM     10  C   UNL A   1      44.922  22.675  23.756  1.00  0.00     0.105 A 
ATOM     11  C   UNL A   1      45.346  21.518  25.644  1.00  0.00     0.055 A 
ATOM     12  N   UNL A   1      44.471  21.395  23.615  1.00  0.00    -0.356 N 
ATOM     13  H   UNL A   1      44.014  21.049  22.815  1.00  0.00     0.166 HD
BRANCH   9  14
ATOM     14  S   UNL A   1      46.089  24.224  25.741  1.00  0.00     0.266 S 
ATOM     15  O   UNL A   1      46.303  25.116  24.624  1.00  0.00    -0.201 OA
ATOM     16  O   UNL A   1      47.212  23.758  26.539  1.00  0.00    -0.201 OA
BRANCH  14  17
ATOM     17  N   UNL A   1      44.957  24.939  26.804  1.00  0.00    -0.263 N 
ATOM     18  C   UNL A   1      45.252  24.150  29.150  1.00  0.00     0.032 C 
ATOM     19  C   UNL A   1      45.574  25.255  28.156  1.00  0.00     0.101 C 
ATOM     20  C   UNL A   1      45.017  26.630  28.587  1.00  0.00     0.063 C 
ATOM     21  C   UNL A   1      44.324  27.114  27.358  1.00  0.00    -0.021 A 
ATOM     22  C   UNL A   1      44.276  26.129  26.381  1.00  0.00     0.055 A 
ATOM     23  C   UNL A   1      43.702  28.343  27.178  1.00  0.00     0.006 A 
ATOM     24  C   UNL A   1      43.491  26.312  25.254  1.00  0.00     0.027 A 
ATOM     25  C   UNL A   1      42.982  28.561  26.003  1.00  0.00     0.000 A 
ATOM     26  C   UNL A   1      42.861  27.543  25.053  1.00  0.00     0.002 A 
ENDBRANCH  14  17
ENDBRANCH   9  14
ENDBRANCH   5   8
ENDBRANCH   3   4
ENDBRANCH   2   3
ENDBRANCH   1   2
BRANCH   1  27
ATOM     27  C   UNL A   1      40.746  22.419  27.747  1.00  0.00     0.116 C 
BRANCH  27  28
ATOM     28  N   UNL A   1      39.598  22.841  26.965  1.00  0.00    -0.352 N 
ATOM     29  C   UNL A   1      38.986  24.057  26.767  1.00  0.00     0.251 C 
ATOM     30  H   UNL A   1      39.168  22.103  26.475  1.00  0.00     0.163 HD
ATOM     31  O   UNL A   1      38.078  24.101  25.936  1.00  0.00    -0.269 OA
BRANCH  29  32
ATOM     32  C   UNL A   1      39.309  25.262  27.571  1.00  0.00     0.039 A 
ATOM     33  C   UNL A   1      38.989  25.377  28.922  1.00  0.00     0.014 A 
ATOM     34  C   UNL A   1      39.931  26.342  26.922  1.00  0.00     0.014 A 
ATOM     35  C   UNL A   1      39.094  26.596  29.561  1.00  0.00     0.010 A 
ATOM     36  C   UNL A   1      40.119  27.554  27.586  1.00  0.00     0.010 A 
ATOM     37  C   UNL A   1      39.653  27.687  28.894  1.00  0.00    -0.014 A 
BRANCH  37  38
ATOM     38  C   UNL A   1      39.872  28.886  29.723  1.00  0.00     0.031 A 
ATOM     39  C   UNL A   1      38.722  29.888  29.521  1.00  0.00     0.074 A 
ATOM     40  C   UNL A   1      41.076  28.978  30.359  1.00  0.00     0.049 A 
ATOM     41  N   UNL A   1      38.754  31.173  29.317  1.00  0.00    -0.248 NA
ATOM     42  C   UNL A   1      37.350  29.345  29.330  1.00  0.00     0.031 C 
ATOM     43  C   UNL A   1      42.060  27.882  30.471  1.00  0.00     0.029 A 
ATOM     44  N   UNL A   1      41.725  29.992  31.033  1.00  0.00    -0.354 N 
ATOM     45  C   UNL A   1      37.411  31.601  29.191  1.00  0.00     0.074 A 
ATOM     46  C   UNL A   1      36.619  30.422  29.034  1.00  0.00     0.031 C 
ATOM     47  C   UNL A   1      43.181  28.303  31.097  1.00  0.00     0.029 A 
ATOM     48  C   UNL A   1      43.041  29.703  31.458  1.00  0.00     0.049 A 
ATOM     49  H   UNL A   1      41.296  30.862  31.207  1.00  0.00     0.167 HD
ATOM     50  C   UNL A   1      37.013  32.895  29.375  1.00  0.00     0.034 A 
ATOM     51  C   UNL A   1      43.972  30.544  32.009  1.00  0.00     0.034 A 
ATOM     52  C   UNL A   1      38.130  33.700  29.744  1.00  0.00     0.049 A 
ATOM     53  C   UNL A   1      43.292  31.843  32.174  1.00  0.00     0.074 A 
ATOM     54  C   UNL A   1      39.163  34.277  29.056  1.00  0.00     0.029 A 
ATOM     55  N   UNL A   1      38.419  33.707  31.087  1.00  0.00    -0.354 N 
ATOM     56  N   UNL A   1      42.350  32.093  33.037  1.00  0.00    -0.248 NA
ATOM     57  C   UNL A   1      43.580  32.911  31.208  1.00  0.00     0.031 C 
ATOM     58  C   UNL A   1      40.236  34.265  29.977  1.00  0.00     0.029 A 
ATOM     59  C   UNL A   1      39.782  33.798  31.215  1.00  0.00     0.049 A 
ATOM     60  H   UNL A   1      37.767  33.658  31.824  1.00  0.00     0.167 HD
ATOM     61  C   UNL A   1      41.719  33.180  32.481  1.00  0.00     0.074 A 
ATOM     62  C   UNL A   1      42.668  33.799  31.586  1.00  0.00     0.031 C 
ATOM     63  C   UNL A   1      40.368  33.226  32.405  1.00  0.00     0.034 A 
BRANCH  50  64
ATOM     64  C   UNL A   1      35.653  33.536  29.523  1.00  0.00     0.023 A 
ATOM     65  C   UNL A   1      35.055  34.001  28.318  1.00  0.00     0.012 A 
ATOM     66  C   UNL A   1      35.086  33.974  30.734  1.00  0.00     0.148 A 
ATOM     67  C   UNL A   1      34.023  34.938  28.307  1.00  0.00     0.002 A 
ATOM     68  C   UNL A   1      34.020  34.879  30.718  1.00  0.00     0.091 A 
ATOM     69  F   UNL A   1      35.633  33.596  31.893  1.00  0.00    -0.205 F 
ATOM     70  C   UNL A   1      33.512  35.387  29.512  1.00  0.00     0.022 A 
BRANCH  68  71
ATOM     71  S   UNL A   1      33.239  35.484  32.219  1.00  0.00     0.127 S 
ATOM     72  O   UNL A   1      34.343  36.177  32.876  1.00  0.00    -0.237 OA
ATOM     73  O   UNL A   1      32.201  36.370  31.685  1.00  0.00    -0.237 OA
ATOM     74  O   UNL A   1      32.717  34.302  32.890  1.00  0.00    -0.744 OA
ENDBRANCH  68  71
ENDBRANCH  50  64
BRANCH  51  75
ATOM     75  C   UNL A   1      45.461  30.480  32.283  1.00  0.00     0.023 A 
ATOM     76  C   UNL A   1      46.041  30.782  33.526  1.00  0.00     0.012 A 
ATOM     77  C   UNL A   1      46.364  30.002  31.284  1.00  0.00     0.148 A 
ATOM     78  C   UNL A   1      47.399  30.517  33.793  1.00  0.00     0.002 A 
ATOM     79  C   UNL A   1      47.677  29.641  31.578  1.00  0.00     0.091 A 
ATOM     80  F   UNL A   1      45.954  29.897  30.016  1.00  0.00    -0.205 F 
ATOM     81  C   UNL A   1      48.206  29.907  32.838  1.00  0.00     0.022 A 
BRANCH  79  82
ATOM     82  S   UNL A   1      48.690  28.701  30.418  1.00  0.00     0.127 S 
ATOM     83  O   UNL A   1      47.864  27.523  30.157  1.00  0.00    -0.237 OA
ATOM     84  O   UNL A   1      48.792  29.637  29.299  1.00  0.00    -0.237 OA
ATOM     85  O   UNL A   1      49.946  28.422  31.104  1.00  0.00    -0.744 OA
ENDBRANCH  79  82
ENDBRANCH  51  75
BRANCH  63  86
ATOM     86  C   UNL A   1      39.635  32.379  33.434  1.00  0.00     0.023 A 
ATOM     87  C   UNL A   1      38.994  31.220  32.973  1.00  0.00     0.012 A 
ATOM     88  C   UNL A   1      39.472  32.723  34.796  1.00  0.00     0.148 A 
ATOM     89  C   UNL A   1      38.226  30.429  33.833  1.00  0.00     0.002 A 
ATOM     90  C   UNL A   1      38.686  31.950  35.653  1.00  0.00     0.091 A 
ATOM     91  F   UNL A   1      40.088  33.809  35.249  1.00  0.00    -0.205 F 
ATOM     92  C   UNL A   1      38.068  30.793  35.169  1.00  0.00     0.022 A 
BRANCH  90  93
ATOM     93  S   UNL A   1      38.345  32.395  37.372  1.00  0.00     0.127 S 
ATOM     94  O   UNL A   1      37.641  33.673  37.231  1.00  0.00    -0.237 OA
ATOM     95  O   UNL A   1      37.496  31.293  37.815  1.00  0.00    -0.237 OA
ATOM     96  O   UNL A   1      39.635  32.496  38.046  1.00  0.00    -0.744 OA
ENDBRANCH  90  93
ENDBRANCH  63  86
ENDBRANCH  37  38
ENDBRANCH  29  32
ENDBRANCH  27  28
ENDBRANCH   1  27
TORSDOF 16
ENDMDL
MODEL 2
REMARK VINA RESULT:     -11.9      2.892     12.318
REMARK SMILES C[C@@H]1Cc2ccccc2N1S(=O)(=O)c1c[nH]c(C(=O)NCCCCNC(=O)c2ccc(-c3c4nc(c(-c5cccc(S(=O)(=O)[O-])c5F)c5ccc([nH]5)c(-c5cccc(S(=O)(=O)[O-])c5F)c5nc(c(-c6cccc(S(=O)(=O)[O-])c6F)c6ccc3[nH]6)C=C5)C=C4)cc2)c1
REMARK SMILES IDX 23 1 22 2 21 3 20 4 18 5 19 6 17 8 14 9 15 10 91 11 16 12
REMARK SMILES IDX 11 14 12 15 13 16 10 17 1 18 2 19 3 20 4 21 9 22 5 23 8 24
REMARK SMILES IDX 6 25 7 26 24 27 25 28 26 29 27 31 28 32 29 33 90 34 30 35
REMARK SMILES IDX 89 36 31 37 32 38 33 39 83 40 34 41 88 42 82 43 84 44 35 45
REMARK SMILES IDX 87 46 81 47 80 48 36 50 68 51 48 52 67 53 49 54 52 55 66 56
REMARK SMILES IDX 85 57 50 58 51 59 65 61 86 62 53 63 37 64 38 65 46 66 39 67
REMARK SMILES IDX 41 68 47 69 40 70 42 71 43 72 44 73 45 74 69 75 70 76 78 77
REMARK SMILES IDX 71 78 73 79 79 80 72 81 74 82 75 83 76 84 77 85 54 86 55 87
REMARK SMILES IDX 63 88 56 89 58 90 64 91 57 92 59 93 60 94 61 95 62 96
REMARK H PARENT 20 7 16 13 25 30 84 49 52 60
REMARK Flexibility Score: inf
ROOT
ATOM      1  C   UNL A   1      35.475  33.504  29.111  1.00  0.00     0.023 C 
ENDROOT
BRANCH   1   2
ATOM      2  C   UNL A   1      34.610  34.651  28.585  1.00  0.00     0.023 C 
BRANCH   2   3
ATOM      3  C   UNL A   1      33.173  34.612  29.090  1.00  0.00     0.116 C 
BRANCH   3   4
ATOM      4  N   UNL A   1      32.872  35.766  29.912  1.00  0.00    -0.351 N 
ATOM      5  C   UNL A   1      33.283  36.113  31.166  1.00  0.00     0.267 C 
ATOM      6  O   UNL A   1      33.024  37.256  31.546  1.00  0.00    -0.268 OA
ATOM      7  H   UNL A   1      32.263  36.415  29.492  1.00  0.00     0.163 HD
BRANCH   5   8
ATOM      8  C   UNL A   1      34.026  35.206  32.014  1.00  0.00     0.105 A 
ATOM      9  C   UNL A   1      35.470  33.892  33.179  1.00  0.00     0.106 A 
ATOM     10  C   UNL A   1      34.186  33.492  33.485  1.00  0.00     0.105 A 
ATOM     11  C   UNL A   1      35.371  34.958  32.248  1.00  0.00     0.055 A 
ATOM     12  N   UNL A   1      33.331  34.271  32.764  1.00  0.00    -0.356 N 
ATOM     13  H   UNL A   1      32.350  34.183  32.775  1.00  0.00     0.166 HD
BRANCH   9  14
ATOM     14  S   UNL A   1      36.930  33.162  33.740  1.00  0.00     0.266 S 
ATOM     15  O   UNL A   1      37.105  32.017  32.875  1.00  0.00    -0.201 OA
ATOM     16  O   UNL A   1      36.706  32.982  35.166  1.00  0.00    -0.201 OA
BRANCH  14  17
ATOM     17  N   UNL A   1      38.273  34.203  33.552  1.00  0.00    -0.263 N 
ATOM     18  C   UNL A   1      39.142  35.010  35.743  1.00  0.00     0.032 C 
ATOM     19  C   UNL A   1      39.314  33.982  34.636  1.00  0.00     0.101 C 
ATOM     20  C   UNL A   1      40.695  34.065  33.949  1.00  0.00     0.063 C 
ATOM     21  C   UNL A   1      40.350  34.079  32.498  1.00  0.00    -0.021 A 
ATOM     22  C   UNL A   1      38.980  34.190  32.303  1.00  0.00     0.055 A 
ATOM     23  C   UNL A   1      41.236  34.079  31.428  1.00  0.00     0.006 A 
ATOM     24  C   UNL A   1      38.480  34.433  31.033  1.00  0.00     0.027 A 
ATOM     25  C   UNL A   1      40.726  34.237  30.139  1.00  0.00     0.000 A 
ATOM     26  C   UNL A   1      39.356  34.432  29.944  1.00  0.00     0.002 A 
ENDBRANCH  14  17
ENDBRANCH   9  14
ENDBRANCH   5   8
ENDBRANCH   3   4
ENDBRANCH   2   3
ENDBRANCH   1   2
BRANCH   1  27
ATOM     27  C   UNL A   1      36.084  32.615  28.022  1.00  0.00     0.116 C 
BRANCH  27  28
ATOM     28  N   UNL A   1      35.374  31.377  27.753  1.00  0.00    -0.352 N 
ATOM     29  C   UNL A   1      35.722  30.050  27.845  1.00  0.00     0.251 C 
ATOM     30  H   UNL A   1      34.451  31.518  27.440  1.00  0.00     0.163 HD
ATOM     31  O   UNL A   1      34.834  29.220  27.646  1.00  0.00    -0.269 OA
BRANCH  29  32
ATOM     32  C   UNL A   1      37.117  29.597  28.071  1.00  0.00     0.039 A 
ATOM     33  C   UNL A   1      38.134  29.787  27.137  1.00  0.00     0.014 A 
ATOM     34  C   UNL A   1      37.405  28.914  29.265  1.00  0.00     0.014 A 
ATOM     35  C   UNL A   1      39.347  29.145  27.288  1.00  0.00     0.010 A 
ATOM     36  C   UNL A   1      38.657  28.332  29.464  1.00  0.00     0.010 A 
ATOM     37  C   UNL A   1      39.608  28.412  28.447  1.00  0.00    -0.014 A 
BRANCH  37  38
ATOM     38  C   UNL A   1      40.989  27.913  28.577  1.00  0.00     0.031 A 
ATOM     39  C   UNL A   1      41.062  26.437  28.151  1.00  0.00     0.074 A 
ATOM     40  C   UNL A   1      41.885  28.745  29.185  1.00  0.00     0.049 A 
ATOM     41  N   UNL A   1      41.641  25.423  28.727  1.00  0.00    -0.248 NA
ATOM     42  C   UNL A   1      40.206  25.995  27.016  1.00  0.00     0.031 C 
ATOM     43  C   UNL A   1      41.640  30.167  29.502  1.00  0.00     0.029 A 
ATOM     44  N   UNL A   1      43.167  28.579  29.665  1.00  0.00    -0.354 N 
ATOM     45  C   UNL A   1      41.392  24.292  27.915  1.00  0.00     0.074 A 
ATOM     46  C   UNL A   1      40.372  24.671  26.988  1.00  0.00     0.031 C 
ATOM     47  C   UNL A   1      42.690  30.700  30.165  1.00  0.00     0.029 A 
ATOM     48  C   UNL A   1      43.718  29.689  30.344  1.00  0.00     0.049 A 
ATOM     49  H   UNL A   1      43.668  27.739  29.542  1.00  0.00     0.167 HD
ATOM     50  C   UNL A   1      42.148  23.156  27.954  1.00  0.00     0.034 A 
ATOM     51  C   UNL A   1      44.891  29.774  31.046  1.00  0.00     0.034 A 
ATOM     52  C   UNL A   1      43.214  23.313  28.887  1.00  0.00     0.049 A 
ATOM     53  C   UNL A   1      45.552  28.466  30.883  1.00  0.00     0.074 A 
ATOM     54  C   UNL A   1      43.313  23.243  30.250  1.00  0.00     0.029 A 
ATOM     55  N   UNL A   1      44.339  23.919  28.381  1.00  0.00    -0.354 N 
ATOM     56  N   UNL A   1      46.083  28.026  29.779  1.00  0.00    -0.248 NA
ATOM     57  C   UNL A   1      45.495  27.509  31.996  1.00  0.00     0.031 C 
ATOM     58  C   UNL A   1      44.331  24.172  30.568  1.00  0.00     0.029 A 
ATOM     59  C   UNL A   1      44.889  24.674  29.387  1.00  0.00     0.049 A 
ATOM     60  H   UNL A   1      44.689  23.828  27.465  1.00  0.00     0.167 HD
ATOM     61  C   UNL A   1      46.084  26.665  29.971  1.00  0.00     0.074 A 
ATOM     62  C   UNL A   1      46.021  26.447  31.397  1.00  0.00     0.031 C 
ATOM     63  C   UNL A   1      45.655  25.832  28.994  1.00  0.00     0.034 A 
BRANCH  50  64
ATOM     64  C   UNL A   1      42.226  21.945  27.053  1.00  0.00     0.023 A 
ATOM     65  C   UNL A   1      41.294  20.907  27.332  1.00  0.00     0.012 A 
ATOM     66  C   UNL A   1      43.297  21.636  26.195  1.00  0.00     0.148 A 
ATOM     67  C   UNL A   1      41.471  19.600  26.878  1.00  0.00     0.002 A 
ATOM     68  C   UNL A   1      43.445  20.335  25.705  1.00  0.00     0.091 A 
ATOM     69  F   UNL A   1      44.220  22.566  25.931  1.00  0.00    -0.205 F 
ATOM     70  C   UNL A   1      42.557  19.312  26.072  1.00  0.00     0.022 A 
BRANCH  68  71
ATOM     71  S   UNL A   1      44.783  19.860  24.603  1.00  0.00     0.127 S 
ATOM     72  O   UNL A   1      44.520  18.438  24.403  1.00  0.00    -0.237 OA
ATOM     73  O   UNL A   1      44.519  20.696  23.429  1.00  0.00    -0.237 OA
ATOM     74  O   UNL A   1      46.009  20.205  25.309  1.00  0.00    -0.744 OA
ENDBRANCH  68  71
ENDBRANCH  50  64
BRANCH  51  75
ATOM     75  C   UNL A   1      45.502  30.766  32.017  1.00  0.00     0.023 A 
ATOM     76  C   UNL A   1      46.493  31.695  31.663  1.00  0.00     0.012 A 
ATOM     77  C   UNL A   1      45.015  30.867  33.356  1.00  0.00     0.148 A 
ATOM     78  C   UNL A   1      46.888  32.726  32.538  1.00  0.00     0.002 A 
ATOM     79  C   UNL A   1      45.325  31.946  34.181  1.00  0.00     0.091 A 
ATOM     80  F   UNL A   1      44.238  29.899  33.854  1.00  0.00    -0.205 F 
ATOM     81  C   UNL A   1      46.274  32.880  33.778  1.00  0.00     0.022 A 
BRANCH  79  82
ATOM     82  S   UNL A   1      44.428  32.262  35.715  1.00  0.00     0.127 S 
ATOM     83  O   UNL A   1      43.050  31.931  35.350  1.00  0.00    -0.237 OA
ATOM     84  O   UNL A   1      45.066  31.311  36.624  1.00  0.00    -0.237 OA
ATOM     85  O   UNL A   1      44.649  33.666  36.037  1.00  0.00    -0.744 OA
ENDBRANCH  79  82
ENDBRANCH  51  75
BRANCH  63  86
ATOM     86  C   UNL A   1      45.755  26.390  27.582  1.00  0.00     0.023 A 
ATOM     87  C   UNL A   1      44.652  27.106  27.094  1.00  0.00     0.012 A 
ATOM     88  C   UNL A   1      46.833  26.158  26.696  1.00  0.00     0.148 A 
ATOM     89  C   UNL A   1      44.624  27.580  25.778  1.00  0.00     0.002 A 
ATOM     90  C   UNL A   1      46.799  26.609  25.375  1.00  0.00     0.091 A 
ATOM     91  F   UNL A   1      47.891  25.497  27.151  1.00  0.00    -0.205 F 
ATOM     92  C   UNL A   1      45.691  27.330  24.918  1.00  0.00     0.022 A 
BRANCH  90  93
ATOM     93  S   UNL A   1      48.090  26.249  24.161  1.00  0.00     0.127 S 
ATOM     94  O   UNL A   1      47.814  24.852  23.815  1.00  0.00    -0.237 OA
ATOM     95  O   UNL A   1      47.787  27.199  23.095  1.00  0.00    -0.237 OA
ATOM     96  O   UNL A   1      49.369  26.455  24.832  1.00  0.00    -0.744 OA
ENDBRANCH  90  93
ENDBRANCH  63  86
ENDBRANCH  37  38
ENDBRANCH  29  32
ENDBRANCH  27  28
ENDBRANCH   1  27
TORSDOF 16
ENDMDL
MODEL 3
REMARK VINA RESULT:     -11.8      3.786      6.720
REMARK SMILES C[C@@H]1Cc2ccccc2N1S(=O)(=O)c1c[nH]c(C(=O)NCCCCNC(=O)c2ccc(-c3c4nc(c(-c5cccc(S(=O)(=O)[O-])c5F)c5ccc([nH]5)c(-c5cccc(S(=O)(=O)[O-])c5F)c5nc(c(-c6cccc(S(=O)(=O)[O-])c6F)c6ccc3[nH]6)C=C5)C=C4)cc2)c1
REMARK SMILES IDX 23 1 22 2 21 3 20 4 18 5 19 6 17 8 14 9 15 10 91 11 16 12
REMARK SMILES IDX 11 14 12 15 13 16 10 17 1 18 2 19 3 20 4 21 9 22 5 23 8 24
REMARK SMILES IDX 6 25 7 26 24 27 25 28 26 29 27 31 28 32 29 33 90 34 30 35
REMARK SMILES IDX 89 36 31 37 32 38 33 39 83 40 34 41 88 42 82 43 84 44 35 45
REMARK SMILES IDX 87 46 81 47 80 48 36 50 68 51 48 52 67 53 49 54 52 55 66 56
REMARK SMILES IDX 85 57 50 58 51 59 65 61 86 62 53 63 37 64 38 65 46 66 39 67
REMARK SMILES IDX 41 68 47 69 40 70 42 71 43 72 44 73 45 74 69 75 70 76 78 77
REMARK SMILES IDX 71 78 73 79 79 80 72 81 74 82 75 83 76 84 77 85 54 86 55 87
REMARK SMILES IDX 63 88 56 89 58 90 64 91 57 92 59 93 60 94 61 95 62 96
REMARK H PARENT 20 7 16 13 25 30 84 49 52 60
REMARK Flexibility Score: inf
ROOT
ATOM      1  C   UNL A   1      35.603  23.514  25.631  1.00  0.00     0.023 C 
ENDROOT
BRANCH   1   2
ATOM      2  C   UNL A   1      35.657  22.067  26.125  1.00  0.00     0.023 C 
BRANCH   2   3
ATOM      3  C   UNL A   1      34.457  21.669  26.975  1.00  0.00     0.116 C 
BRANCH   3   4
ATOM      4  N   UNL A   1      33.618  20.710  26.284  1.00  0.00    -0.351 N 
ATOM      5  C   UNL A   1      32.612  20.880  25.378  1.00  0.00     0.267 C 
ATOM      6  O   UNL A   1      32.199  19.871  24.803  1.00  0.00    -0.268 OA
ATOM      7  H   UNL A   1      33.807  19.771  26.508  1.00  0.00     0.163 HD
BRANCH   5   8
ATOM      8  C   UNL A   1      32.065  22.182  25.065  1.00  0.00     0.105 A 
ATOM      9  C   UNL A   1      31.153  24.259  24.909  1.00  0.00     0.106 A 
ATOM     10  C   UNL A   1      31.272  23.748  23.634  1.00  0.00     0.105 A 
ATOM     11  C   UNL A   1      31.638  23.273  25.807  1.00  0.00     0.055 A 
ATOM     12  N   UNL A   1      31.799  22.495  23.742  1.00  0.00    -0.356 N 
ATOM     13  H   UNL A   1      31.968  21.892  22.982  1.00  0.00     0.166 HD
BRANCH   9  14
ATOM     14  S   UNL A   1      30.445  25.772  25.343  1.00  0.00     0.266 S 
ATOM     15  O   UNL A   1      30.520  25.794  26.787  1.00  0.00    -0.201 OA
ATOM     16  O   UNL A   1      29.154  25.759  24.672  1.00  0.00    -0.201 OA
BRANCH  14  17
ATOM     17  N   UNL A   1      31.340  27.092  24.727  1.00  0.00    -0.263 N 
ATOM     18  C   UNL A   1      30.706  27.633  22.378  1.00  0.00     0.032 C 
ATOM     19  C   UNL A   1      30.489  27.986  23.841  1.00  0.00     0.101 C 
ATOM     20  C   UNL A   1      30.882  29.442  24.172  1.00  0.00     0.063 C 
ATOM     21  C   UNL A   1      31.739  29.294  25.384  1.00  0.00    -0.021 A 
ATOM     22  C   UNL A   1      32.008  27.958  25.655  1.00  0.00     0.055 A 
ATOM     23  C   UNL A   1      32.308  30.313  26.136  1.00  0.00     0.006 A 
ATOM     24  C   UNL A   1      32.957  27.625  26.608  1.00  0.00     0.027 A 
ATOM     25  C   UNL A   1      33.199  29.975  27.155  1.00  0.00     0.000 A 
ATOM     26  C   UNL A   1      33.537  28.637  27.377  1.00  0.00     0.002 A 
ENDBRANCH  14  17
ENDBRANCH   9  14
ENDBRANCH   5   8
ENDBRANCH   3   4
ENDBRANCH   2   3
ENDBRANCH   1   2
BRANCH   1  27
ATOM     27  C   UNL A   1      36.784  24.383  26.078  1.00  0.00     0.116 C 
BRANCH  27  28
ATOM     28  N   UNL A   1      38.093  23.765  25.975  1.00  0.00    -0.352 N 
ATOM     29  C   UNL A   1      39.305  24.011  26.577  1.00  0.00     0.251 C 
ATOM     30  H   UNL A   1      38.119  23.012  25.340  1.00  0.00     0.163 HD
ATOM     31  O   UNL A   1      40.218  23.216  26.352  1.00  0.00    -0.269 OA
BRANCH  29  32
ATOM     32  C   UNL A   1      39.568  25.225  27.389  1.00  0.00     0.039 A 
ATOM     33  C   UNL A   1      39.251  25.313  28.743  1.00  0.00     0.014 A 
ATOM     34  C   UNL A   1      40.127  26.343  26.745  1.00  0.00     0.014 A 
ATOM     35  C   UNL A   1      39.295  26.531  29.392  1.00  0.00     0.010 A 
ATOM     36  C   UNL A   1      40.254  27.558  27.418  1.00  0.00     0.010 A 
ATOM     37  C   UNL A   1      39.790  27.655  28.729  1.00  0.00    -0.014 A 
BRANCH  37  38
ATOM     38  C   UNL A   1      39.949  28.858  29.567  1.00  0.00     0.031 A 
ATOM     39  C   UNL A   1      38.756  29.808  29.364  1.00  0.00     0.074 A 
ATOM     40  C   UNL A   1      41.145  29.001  30.210  1.00  0.00     0.049 A 
ATOM     41  N   UNL A   1      38.730  31.095  29.168  1.00  0.00    -0.248 NA
ATOM     42  C   UNL A   1      37.411  29.204  29.163  1.00  0.00     0.031 C 
ATOM     43  C   UNL A   1      42.178  27.950  30.320  1.00  0.00     0.029 A 
ATOM     44  N   UNL A   1      41.743  30.039  30.893  1.00  0.00    -0.354 N 
ATOM     45  C   UNL A   1      37.370  31.462  29.038  1.00  0.00     0.074 A 
ATOM     46  C   UNL A   1      36.634  30.248  28.869  1.00  0.00     0.031 C 
ATOM     47  C   UNL A   1      43.275  28.418  30.955  1.00  0.00     0.029 A 
ATOM     48  C   UNL A   1      43.070  29.809  31.323  1.00  0.00     0.049 A 
ATOM     49  H   UNL A   1      41.275  30.888  31.070  1.00  0.00     0.167 HD
ATOM     50  C   UNL A   1      36.912  32.734  29.227  1.00  0.00     0.034 A 
ATOM     51  C   UNL A   1      43.958  30.688  31.884  1.00  0.00     0.034 A 
ATOM     52  C   UNL A   1      37.990  33.587  29.607  1.00  0.00     0.049 A 
ATOM     53  C   UNL A   1      43.219  31.953  32.053  1.00  0.00     0.074 A 
ATOM     54  C   UNL A   1      38.998  34.215  28.928  1.00  0.00     0.029 A 
ATOM     55  N   UNL A   1      38.271  33.599  30.951  1.00  0.00    -0.354 N 
ATOM     56  N   UNL A   1      42.262  32.154  32.912  1.00  0.00    -0.248 NA
ATOM     57  C   UNL A   1      43.463  33.039  31.094  1.00  0.00     0.031 C 
ATOM     58  C   UNL A   1      40.067  34.247  29.854  1.00  0.00     0.029 A 
ATOM     59  C   UNL A   1      39.628  33.751  31.087  1.00  0.00     0.049 A 
ATOM     60  H   UNL A   1      37.618  33.516  31.684  1.00  0.00     0.167 HD
ATOM     61  C   UNL A   1      41.585  33.215  32.360  1.00  0.00     0.074 A 
ATOM     62  C   UNL A   1      42.509  33.882  31.473  1.00  0.00     0.031 C 
ATOM     63  C   UNL A   1      40.233  33.200  32.276  1.00  0.00     0.034 A 
BRANCH  50  64
ATOM     64  C   UNL A   1      35.523  33.312  29.372  1.00  0.00     0.023 A 
ATOM     65  C   UNL A   1      34.786  33.458  28.163  1.00  0.00     0.012 A 
ATOM     66  C   UNL A   1      35.032  33.977  30.509  1.00  0.00     0.148 A 
ATOM     67  C   UNL A   1      33.685  34.306  28.055  1.00  0.00     0.002 A 
ATOM     68  C   UNL A   1      33.900  34.792  30.407  1.00  0.00     0.091 A 
ATOM     69  F   UNL A   1      35.708  33.903  31.660  1.00  0.00    -0.205 F 
ATOM     70  C   UNL A   1      33.249  34.984  29.178  1.00  0.00     0.022 A 
BRANCH  68  71
ATOM     71  S   UNL A   1      33.208  35.673  31.812  1.00  0.00     0.127 S 
ATOM     72  O   UNL A   1      32.148  36.456  31.186  1.00  0.00    -0.237 OA
ATOM     73  O   UNL A   1      32.732  34.573  32.655  1.00  0.00    -0.237 OA
ATOM     74  O   UNL A   1      34.318  36.418  32.388  1.00  0.00    -0.744 OA
ENDBRANCH  68  71
ENDBRANCH  50  64
BRANCH  51  75
ATOM     75  C   UNL A   1      45.447  30.690  32.166  1.00  0.00     0.023 A 
ATOM     76  C   UNL A   1      45.999  30.689  33.457  1.00  0.00     0.012 A 
ATOM     77  C   UNL A   1      46.390  30.594  31.096  1.00  0.00     0.148 A 
ATOM     78  C   UNL A   1      47.376  30.489  33.674  1.00  0.00     0.002 A 
ATOM     79  C   UNL A   1      47.732  30.290  31.311  1.00  0.00     0.091 A 
ATOM     80  F   UNL A   1      45.988  30.806  29.838  1.00  0.00    -0.205 F 
ATOM     81  C   UNL A   1      48.236  30.245  32.607  1.00  0.00     0.022 A 
BRANCH  79  82
ATOM     82  S   UNL A   1      48.828  29.808  29.961  1.00  0.00     0.127 S 
ATOM     83  O   UNL A   1      50.049  29.419  30.668  1.00  0.00    -0.237 OA
ATOM     84  O   UNL A   1      48.084  28.698  29.368  1.00  0.00    -0.237 OA
ATOM     85  O   UNL A   1      48.968  30.981  29.108  1.00  0.00    -0.744 OA
ENDBRANCH  79  82
ENDBRANCH  51  75
BRANCH  63  86
ATOM     86  C   UNL A   1      39.535  32.314  33.296  1.00  0.00     0.023 A 
ATOM     87  C   UNL A   1      38.962  31.123  32.828  1.00  0.00     0.012 A 
ATOM     88  C   UNL A   1      39.337  32.648  34.656  1.00  0.00     0.148 A 
ATOM     89  C   UNL A   1      38.228  30.291  33.679  1.00  0.00     0.002 A 
ATOM     90  C   UNL A   1      38.584  31.833  35.504  1.00  0.00     0.091 A 
ATOM     91  F   UNL A   1      39.888  33.765  35.117  1.00  0.00    -0.205 F 
ATOM     92  C   UNL A   1      38.034  30.645  35.013  1.00  0.00     0.022 A 
BRANCH  90  93
ATOM     93  S   UNL A   1      38.198  32.258  37.218  1.00  0.00     0.127 S 
ATOM     94  O   UNL A   1      39.529  32.387  37.817  1.00  0.00    -0.237 OA
ATOM     95  O   UNL A   1      37.485  33.524  37.072  1.00  0.00    -0.237 OA
ATOM     96  O   UNL A   1      37.406  31.157  37.758  1.00  0.00    -0.744 OA
ENDBRANCH  90  93
ENDBRANCH  63  86
ENDBRANCH  37  38
ENDBRANCH  29  32
ENDBRANCH  27  28
ENDBRANCH   1  27
TORSDOF 16
ENDMDL
