MODEL 1
REMARK VINA RESULT:     -12.7      0.000      0.000
REMARK SMILES O=C(NCCCCNC(=O)c1ccc2c(=O)[nH]c(N3CC[NH2+]CC3)nc2c1)c1ccc(-c2c3nc(c(-c4cccc(S(=O)(=O)[O-])c4F)c4ccc([nH]4)c(-c4cccc(S(=O)(=O)[O-])c4F)c4nc(c(-c5cccc(S(=O)(=O)[O-])c5F)c5ccc2[nH]5)C=C4)C=C3)cc1
REMARK SMILES IDX 4 1 3 2 1 3 2 4 28 6 29 7 90 8 30 9 89 10 31 11 32 12 33 13
REMARK SMILES IDX 83 14 34 15 88 16 82 17 84 18 35 19 87 20 81 21 80 22 36 24
REMARK SMILES IDX 68 25 48 26 67 27 49 28 52 29 66 30 85 31 50 32 51 33 65 35
REMARK SMILES IDX 86 36 53 37 37 38 38 39 46 40 39 41 41 42 47 43 40 44 42 45
REMARK SMILES IDX 43 46 44 47 45 48 69 49 70 50 78 51 71 52 73 53 79 54 72 55
REMARK SMILES IDX 74 56 75 57 76 58 77 59 54 60 55 61 63 62 56 63 58 64 64 65
REMARK SMILES IDX 57 66 59 67 60 68 61 69 62 70 5 71 6 72 7 73 8 74 9 75 10 77
REMARK SMILES IDX 11 78 12 79 27 80 13 81 26 82 14 83 25 84 15 85 18 86 16 87
REMARK SMILES IDX 17 88 19 90 20 91 24 92 21 93 23 94 22 95
REMARK H PARENT 3 5 84 23 52 34 8 76 17 89 22 96 22 97
REMARK Flexibility Score: inf
ROOT
ATOM      1  C   UNL A   1      32.614  32.845  26.978  1.00  0.00     0.116 C 
ENDROOT
BRANCH   1   2
ATOM      2  N   UNL A   1      32.465  34.156  27.587  1.00  0.00    -0.352 N 
ATOM      3  O   UNL A   1      32.801  35.769  29.120  1.00  0.00    -0.269 OA
ATOM      4  C   UNL A   1      33.168  34.704  28.633  1.00  0.00     0.251 C 
ATOM      5  H   UNL A   1      31.765  34.729  27.198  1.00  0.00     0.163 HD
BRANCH   4   6
ATOM      6  C   UNL A   1      34.345  33.992  29.176  1.00  0.00     0.039 A 
ATOM      7  C   UNL A   1      35.640  34.366  28.804  1.00  0.00     0.014 A 
ATOM      8  C   UNL A   1      34.147  32.942  30.075  1.00  0.00     0.014 A 
ATOM      9  C   UNL A   1      36.729  33.621  29.241  1.00  0.00     0.010 A 
ATOM     10  C   UNL A   1      35.248  32.239  30.571  1.00  0.00     0.010 A 
ATOM     11  C   UNL A   1      36.546  32.562  30.144  1.00  0.00    -0.014 A 
BRANCH  11  12
ATOM     12  C   UNL A   1      37.729  31.882  30.727  1.00  0.00     0.031 A 
ATOM     13  C   UNL A   1      38.479  30.824  29.972  1.00  0.00     0.074 A 
ATOM     14  C   UNL A   1      38.090  32.207  31.985  1.00  0.00     0.049 A 
ATOM     15  N   UNL A   1      39.519  30.129  30.355  1.00  0.00    -0.248 NA
ATOM     16  C   UNL A   1      38.004  30.492  28.619  1.00  0.00     0.031 C 
ATOM     17  C   UNL A   1      37.392  33.179  32.833  1.00  0.00     0.029 A 
ATOM     18  N   UNL A   1      39.107  31.744  32.779  1.00  0.00    -0.354 N 
ATOM     19  C   UNL A   1      39.797  29.249  29.316  1.00  0.00     0.074 A 
ATOM     20  C   UNL A   1      38.820  29.502  28.279  1.00  0.00     0.031 C 
ATOM     21  C   UNL A   1      37.999  33.236  34.027  1.00  0.00     0.029 A 
ATOM     22  C   UNL A   1      39.094  32.275  34.047  1.00  0.00     0.049 A 
ATOM     23  H   UNL A   1      39.781  31.096  32.471  1.00  0.00     0.167 HD
ATOM     24  C   UNL A   1      40.785  28.328  29.235  1.00  0.00     0.034 A 
ATOM     25  C   UNL A   1      39.858  31.999  35.122  1.00  0.00     0.034 A 
ATOM     26  C   UNL A   1      41.783  28.123  30.252  1.00  0.00     0.049 A 
ATOM     27  C   UNL A   1      40.954  30.982  34.990  1.00  0.00     0.074 A 
ATOM     28  C   UNL A   1      42.904  27.310  30.204  1.00  0.00     0.029 A 
ATOM     29  N   UNL A   1      41.772  28.712  31.506  1.00  0.00    -0.354 N 
ATOM     30  N   UNL A   1      41.321  30.303  33.931  1.00  0.00    -0.248 NA
ATOM     31  C   UNL A   1      41.756  30.711  36.190  1.00  0.00     0.031 C 
ATOM     32  C   UNL A   1      43.554  27.388  31.441  1.00  0.00     0.029 A 
ATOM     33  C   UNL A   1      42.844  28.257  32.254  1.00  0.00     0.049 A 
ATOM     34  H   UNL A   1      41.099  29.360  31.819  1.00  0.00     0.167 HD
ATOM     35  C   UNL A   1      42.401  29.528  34.335  1.00  0.00     0.074 A 
ATOM     36  C   UNL A   1      42.653  29.852  35.724  1.00  0.00     0.031 C 
ATOM     37  C   UNL A   1      43.104  28.614  33.624  1.00  0.00     0.034 A 
BRANCH  24  38
ATOM     38  C   UNL A   1      40.884  27.489  27.990  1.00  0.00     0.023 A 
ATOM     39  C   UNL A   1      41.495  28.027  26.839  1.00  0.00     0.012 A 
ATOM     40  C   UNL A   1      40.484  26.138  27.997  1.00  0.00     0.148 A 
ATOM     41  C   UNL A   1      41.698  27.235  25.709  1.00  0.00     0.002 A 
ATOM     42  C   UNL A   1      40.719  25.346  26.878  1.00  0.00     0.091 A 
ATOM     43  F   UNL A   1      39.890  25.654  29.095  1.00  0.00    -0.205 F 
ATOM     44  C   UNL A   1      41.321  25.893  25.733  1.00  0.00     0.022 A 
BRANCH  42  45
ATOM     45  S   UNL A   1      40.332  23.592  26.832  1.00  0.00     0.127 S 
ATOM     46  O   UNL A   1      38.960  23.606  26.326  1.00  0.00    -0.237 OA
ATOM     47  O   UNL A   1      41.324  23.082  25.885  1.00  0.00    -0.237 OA
ATOM     48  O   UNL A   1      40.488  23.109  28.196  1.00  0.00    -0.744 OA
ENDBRANCH  42  45
ENDBRANCH  24  38
BRANCH  25  49
ATOM     49  C   UNL A   1      39.611  32.715  36.403  1.00  0.00     0.023 A 
ATOM     50  C   UNL A   1      40.282  33.924  36.662  1.00  0.00     0.012 A 
ATOM     51  C   UNL A   1      38.676  32.233  37.339  1.00  0.00     0.148 A 
ATOM     52  C   UNL A   1      40.039  34.631  37.841  1.00  0.00     0.002 A 
ATOM     53  C   UNL A   1      38.395  32.972  38.482  1.00  0.00     0.091 A 
ATOM     54  F   UNL A   1      38.063  31.067  37.089  1.00  0.00    -0.205 F 
ATOM     55  C   UNL A   1      39.086  34.164  38.743  1.00  0.00     0.022 A 
BRANCH  53  56
ATOM     56  S   UNL A   1      37.069  32.500  39.600  1.00  0.00     0.127 S 
ATOM     57  O   UNL A   1      37.527  31.199  40.076  1.00  0.00    -0.237 OA
ATOM     58  O   UNL A   1      37.107  33.569  40.599  1.00  0.00    -0.237 OA
ATOM     59  O   UNL A   1      35.866  32.502  38.777  1.00  0.00    -0.744 OA
ENDBRANCH  53  56
ENDBRANCH  25  49
BRANCH  37  60
ATOM     60  C   UNL A   1      44.208  27.884  34.338  1.00  0.00     0.023 A 
ATOM     61  C   UNL A   1      45.486  28.474  34.411  1.00  0.00     0.012 A 
ATOM     62  C   UNL A   1      43.968  26.661  34.994  1.00  0.00     0.148 A 
ATOM     63  C   UNL A   1      46.516  27.846  35.108  1.00  0.00     0.002 A 
ATOM     64  C   UNL A   1      44.990  26.062  35.722  1.00  0.00     0.091 A 
ATOM     65  F   UNL A   1      42.751  26.110  34.895  1.00  0.00    -0.205 F 
ATOM     66  C   UNL A   1      46.265  26.647  35.773  1.00  0.00     0.022 A 
BRANCH  64  67
ATOM     67  S   UNL A   1      44.738  24.563  36.680  1.00  0.00     0.127 S 
ATOM     68  O   UNL A   1      46.100  24.255  37.114  1.00  0.00    -0.237 OA
ATOM     69  O   UNL A   1      43.846  25.020  37.746  1.00  0.00    -0.237 OA
ATOM     70  O   UNL A   1      44.141  23.598  35.766  1.00  0.00    -0.744 OA
ENDBRANCH  64  67
ENDBRANCH  37  60
ENDBRANCH  11  12
ENDBRANCH   4   6
ENDBRANCH   1   2
BRANCH   1  71
ATOM     71  C   UNL A   1      31.275  32.189  26.659  1.00  0.00     0.023 C 
BRANCH  71  72
ATOM     72  C   UNL A   1      31.365  30.843  25.944  1.00  0.00     0.023 C 
BRANCH  72  73
ATOM     73  C   UNL A   1      31.618  29.645  26.853  1.00  0.00     0.116 C 
BRANCH  73  74
ATOM     74  N   UNL A   1      32.945  29.673  27.451  1.00  0.00    -0.352 N 
ATOM     75  C   UNL A   1      34.058  28.956  27.094  1.00  0.00     0.251 C 
ATOM     76  H   UNL A   1      33.058  30.289  28.210  1.00  0.00     0.163 HD
ATOM     77  O   UNL A   1      35.081  28.984  27.770  1.00  0.00    -0.269 OA
BRANCH  75  78
ATOM     78  C   UNL A   1      34.006  28.125  25.881  1.00  0.00     0.041 A 
ATOM     79  C   UNL A   1      33.937  28.731  24.620  1.00  0.00     0.015 A 
ATOM     80  C   UNL A   1      33.991  26.733  26.019  1.00  0.00     0.043 A 
ATOM     81  C   UNL A   1      33.788  27.937  23.489  1.00  0.00     0.017 A 
ATOM     82  C   UNL A   1      33.848  25.930  24.889  1.00  0.00     0.081 A 
ATOM     83  C   UNL A   1      33.737  26.547  23.637  1.00  0.00     0.066 A 
ATOM     84  N   UNL A   1      33.807  24.535  25.047  1.00  0.00    -0.214 NA
ATOM     85  C   UNL A   1      33.556  25.673  22.473  1.00  0.00     0.260 A 
ATOM     86  C   UNL A   1      33.703  23.787  23.993  1.00  0.00     0.206 A 
ATOM     87  O   UNL A   1      33.383  26.112  21.343  1.00  0.00    -0.269 OA
ATOM     88  N   UNL A   1      33.579  24.331  22.742  1.00  0.00    -0.292 N 
ATOM     89  H   UNL A   1      33.500  23.711  21.980  1.00  0.00     0.173 HD
BRANCH  86  90
ATOM     90  N   UNL A   1      33.674  22.418  24.058  1.00  0.00    -0.331 N 
ATOM     91  C   UNL A   1      34.876  21.667  24.447  1.00  0.00     0.181 C 
ATOM     92  C   UNL A   1      32.699  21.623  23.300  1.00  0.00     0.181 C 
ATOM     93  C   UNL A   1      34.469  20.375  25.191  1.00  0.00     0.282 C 
ATOM     94  C   UNL A   1      32.344  20.333  24.064  1.00  0.00     0.282 C 
ATOM     95  N   UNL A   1      33.522  19.525  24.435  1.00  0.00    -0.343 N 
ATOM     96  H   UNL A   1      33.230  18.738  25.016  1.00  0.00     0.346 HD
ATOM     97  H   UNL A   1      33.975  19.167  23.594  1.00  0.00     0.346 HD
ENDBRANCH  86  90
ENDBRANCH  75  78
ENDBRANCH  73  74
ENDBRANCH  72  73
ENDBRANCH  71  72
ENDBRANCH   1  71
TORSDOF 15
ENDMDL
MODEL 2
REMARK VINA RESULT:     -12.6      5.547     11.239
REMARK SMILES O=C(NCCCCNC(=O)c1ccc2c(=O)[nH]c(N3CC[NH2+]CC3)nc2c1)c1ccc(-c2c3nc(c(-c4cccc(S(=O)(=O)[O-])c4F)c4ccc([nH]4)c(-c4cccc(S(=O)(=O)[O-])c4F)c4nc(c(-c5cccc(S(=O)(=O)[O-])c5F)c5ccc2[nH]5)C=C4)C=C3)cc1
REMARK SMILES IDX 4 1 3 2 1 3 2 4 28 6 29 7 90 8 30 9 89 10 31 11 32 12 33 13
REMARK SMILES IDX 83 14 34 15 88 16 82 17 84 18 35 19 87 20 81 21 80 22 36 24
REMARK SMILES IDX 68 25 48 26 67 27 49 28 52 29 66 30 85 31 50 32 51 33 65 35
REMARK SMILES IDX 86 36 53 37 37 38 38 39 46 40 39 41 41 42 47 43 40 44 42 45
REMARK SMILES IDX 43 46 44 47 45 48 69 49 70 50 78 51 71 52 73 53 79 54 72 55
REMARK SMILES IDX 74 56 75 57 76 58 77 59 54 60 55 61 63 62 56 63 58 64 64 65
REMARK SMILES IDX 57 66 59 67 60 68 61 69 62 70 5 71 6 72 7 73 8 74 9 75 10 77
REMARK SMILES IDX 11 78 12 79 27 80 13 81 26 82 14 83 25 84 15 85 18 86 16 87
REMARK SMILES IDX 17 88 19 90 20 91 24 92 21 93 23 94 22 95
REMARK H PARENT 3 5 84 23 52 34 8 76 17 89 22 96 22 97
REMARK Flexibility Score: inf
ROOT
ATOM      1  C   UNL A   1      38.857  20.240  25.744  1.00  0.00     0.116 C 
ENDROOT
BRANCH   1   2
ATOM      2  N   UNL A   1      39.982  19.337  25.922  1.00  0.00    -0.352 N 
ATOM      3  O   UNL A   1      42.141  18.757  26.178  1.00  0.00    -0.269 OA
ATOM      4  C   UNL A   1      41.289  19.639  26.220  1.00  0.00     0.251 C 
ATOM      5  H   UNL A   1      39.780  18.380  25.814  1.00  0.00     0.163 HD
BRANCH   4   6
ATOM      6  C   UNL A   1      41.658  21.029  26.563  1.00  0.00     0.039 A 
ATOM      7  C   UNL A   1      41.908  21.394  27.890  1.00  0.00     0.014 A 
ATOM      8  C   UNL A   1      41.764  21.975  25.541  1.00  0.00     0.014 A 
ATOM      9  C   UNL A   1      42.151  22.725  28.208  1.00  0.00     0.010 A 
ATOM     10  C   UNL A   1      42.080  23.300  25.855  1.00  0.00     0.010 A 
ATOM     11  C   UNL A   1      42.259  23.688  27.192  1.00  0.00    -0.014 A 
BRANCH  11  12
ATOM     12  C   UNL A   1      42.680  25.070  27.532  1.00  0.00     0.031 A 
ATOM     13  C   UNL A   1      41.727  26.051  28.153  1.00  0.00     0.074 A 
ATOM     14  C   UNL A   1      43.938  25.443  27.223  1.00  0.00     0.049 A 
ATOM     15  N   UNL A   1      41.943  27.296  28.490  1.00  0.00    -0.248 NA
ATOM     16  C   UNL A   1      40.358  25.587  28.425  1.00  0.00     0.031 C 
ATOM     17  C   UNL A   1      44.927  24.587  26.561  1.00  0.00     0.029 A 
ATOM     18  N   UNL A   1      44.593  26.635  27.396  1.00  0.00    -0.354 N 
ATOM     19  C   UNL A   1      40.732  27.779  28.971  1.00  0.00     0.074 A 
ATOM     20  C   UNL A   1      39.784  26.689  28.890  1.00  0.00     0.031 C 
ATOM     21  C   UNL A   1      46.060  25.281  26.381  1.00  0.00     0.029 A 
ATOM     22  C   UNL A   1      45.863  26.641  26.869  1.00  0.00     0.049 A 
ATOM     23  H   UNL A   1      44.193  27.410  27.853  1.00  0.00     0.167 HD
ATOM     24  C   UNL A   1      40.448  29.014  29.447  1.00  0.00     0.034 A 
ATOM     25  C   UNL A   1      46.762  27.638  26.759  1.00  0.00     0.034 A 
ATOM     26  C   UNL A   1      41.414  30.074  29.570  1.00  0.00     0.049 A 
ATOM     27  C   UNL A   1      46.417  28.990  27.312  1.00  0.00     0.074 A 
ATOM     28  C   UNL A   1      41.256  31.315  30.166  1.00  0.00     0.029 A 
ATOM     29  N   UNL A   1      42.706  30.032  29.072  1.00  0.00    -0.354 N 
ATOM     30  N   UNL A   1      45.331  29.367  27.940  1.00  0.00    -0.248 NA
ATOM     31  C   UNL A   1      47.428  30.046  27.163  1.00  0.00     0.031 C 
ATOM     32  C   UNL A   1      42.445  32.033  30.002  1.00  0.00     0.029 A 
ATOM     33  C   UNL A   1      43.347  31.235  29.315  1.00  0.00     0.049 A 
ATOM     34  H   UNL A   1      43.109  29.260  28.614  1.00  0.00     0.167 HD
ATOM     35  C   UNL A   1      45.529  30.702  28.269  1.00  0.00     0.074 A 
ATOM     36  C   UNL A   1      46.854  31.056  27.804  1.00  0.00     0.031 C 
ATOM     37  C   UNL A   1      44.678  31.563  28.879  1.00  0.00     0.034 A 
BRANCH  24  38
ATOM     38  C   UNL A   1      39.047  29.295  29.920  1.00  0.00     0.023 A 
ATOM     39  C   UNL A   1      38.657  28.885  31.210  1.00  0.00     0.012 A 
ATOM     40  C   UNL A   1      38.164  30.067  29.139  1.00  0.00     0.148 A 
ATOM     41  C   UNL A   1      37.402  29.230  31.713  1.00  0.00     0.002 A 
ATOM     42  C   UNL A   1      36.928  30.434  29.661  1.00  0.00     0.091 A 
ATOM     43  F   UNL A   1      38.550  30.430  27.909  1.00  0.00    -0.205 F 
ATOM     44  C   UNL A   1      36.544  30.013  30.944  1.00  0.00     0.022 A 
BRANCH  42  45
ATOM     45  S   UNL A   1      35.778  31.496  28.777  1.00  0.00     0.127 S 
ATOM     46  O   UNL A   1      35.254  30.582  27.763  1.00  0.00    -0.237 OA
ATOM     47  O   UNL A   1      34.822  31.855  29.825  1.00  0.00    -0.237 OA
ATOM     48  O   UNL A   1      36.568  32.607  28.267  1.00  0.00    -0.744 OA
ENDBRANCH  42  45
ENDBRANCH  24  38
BRANCH  25  49
ATOM     49  C   UNL A   1      48.075  27.374  26.111  1.00  0.00     0.023 A 
ATOM     50  C   UNL A   1      49.148  26.894  26.886  1.00  0.00     0.012 A 
ATOM     51  C   UNL A   1      48.252  27.544  24.724  1.00  0.00     0.148 A 
ATOM     52  C   UNL A   1      50.377  26.606  26.293  1.00  0.00     0.002 A 
ATOM     53  C   UNL A   1      49.461  27.199  24.132  1.00  0.00     0.091 A 
ATOM     54  F   UNL A   1      47.229  28.026  24.004  1.00  0.00    -0.205 F 
ATOM     55  C   UNL A   1      50.530  26.744  24.916  1.00  0.00     0.022 A 
BRANCH  53  56
ATOM     56  S   UNL A   1      49.664  27.208  22.346  1.00  0.00     0.127 S 
ATOM     57  O   UNL A   1      51.057  26.799  22.200  1.00  0.00    -0.237 OA
ATOM     58  O   UNL A   1      48.682  26.214  21.914  1.00  0.00    -0.237 OA
ATOM     59  O   UNL A   1      49.344  28.571  21.939  1.00  0.00    -0.744 OA
ENDBRANCH  53  56
ENDBRANCH  25  49
BRANCH  37  60
ATOM     60  C   UNL A   1      45.148  32.979  29.069  1.00  0.00     0.023 A 
ATOM     61  C   UNL A   1      45.851  33.317  30.242  1.00  0.00     0.012 A 
ATOM     62  C   UNL A   1      44.959  33.950  28.067  1.00  0.00     0.148 A 
ATOM     63  C   UNL A   1      46.342  34.608  30.426  1.00  0.00     0.002 A 
ATOM     64  C   UNL A   1      45.488  35.224  28.239  1.00  0.00     0.091 A 
ATOM     65  F   UNL A   1      44.271  33.611  26.969  1.00  0.00    -0.205 F 
ATOM     66  C   UNL A   1      46.171  35.558  29.420  1.00  0.00     0.022 A 
BRANCH  64  67
ATOM     67  S   UNL A   1      45.392  36.487  26.965  1.00  0.00     0.127 S 
ATOM     68  O   UNL A   1      46.159  37.576  27.567  1.00  0.00    -0.237 OA
ATOM     69  O   UNL A   1      46.046  35.835  25.830  1.00  0.00    -0.237 OA
ATOM     70  O   UNL A   1      43.974  36.755  26.771  1.00  0.00    -0.744 OA
ENDBRANCH  64  67
ENDBRANCH  37  60
ENDBRANCH  11  12
ENDBRANCH   4   6
ENDBRANCH   1   2
BRANCH   1  71
ATOM     71  C   UNL A   1      37.683  19.582  25.029  1.00  0.00     0.023 C 
BRANCH  71  72
ATOM     72  C   UNL A   1      36.599  20.541  24.540  1.00  0.00     0.023 C 
BRANCH  72  73
ATOM     73  C   UNL A   1      35.580  20.955  25.597  1.00  0.00     0.116 C 
BRANCH  73  74
ATOM     74  N   UNL A   1      34.325  20.229  25.471  1.00  0.00    -0.352 N 
ATOM     75  C   UNL A   1      33.140  20.659  24.930  1.00  0.00     0.251 C 
ATOM     76  H   UNL A   1      34.327  19.309  25.819  1.00  0.00     0.163 HD
ATOM     77  O   UNL A   1      32.120  19.982  25.006  1.00  0.00    -0.269 OA
BRANCH  75  78
ATOM     78  C   UNL A   1      33.101  21.968  24.260  1.00  0.00     0.041 A 
ATOM     79  C   UNL A   1      33.260  22.049  22.870  1.00  0.00     0.015 A 
ATOM     80  C   UNL A   1      32.939  23.118  25.039  1.00  0.00     0.043 A 
ATOM     81  C   UNL A   1      33.321  23.297  22.262  1.00  0.00     0.017 A 
ATOM     82  C   UNL A   1      32.994  24.373  24.437  1.00  0.00     0.081 A 
ATOM     83  C   UNL A   1      33.195  24.444  23.053  1.00  0.00     0.066 A 
ATOM     84  N   UNL A   1      32.857  25.519  25.237  1.00  0.00    -0.214 NA
ATOM     85  C   UNL A   1      33.278  25.782  22.456  1.00  0.00     0.260 A 
ATOM     86  C   UNL A   1      32.879  26.686  24.672  1.00  0.00     0.206 A 
ATOM     87  O   UNL A   1      33.518  25.956  21.268  1.00  0.00    -0.269 OA
ATOM     88  N   UNL A   1      33.084  26.821  23.324  1.00  0.00    -0.292 N 
ATOM     89  H   UNL A   1      33.093  27.734  22.953  1.00  0.00     0.173 HD
BRANCH  86  90
ATOM     90  N   UNL A   1      32.735  27.852  25.378  1.00  0.00    -0.331 N 
ATOM     91  C   UNL A   1      32.691  29.144  24.678  1.00  0.00     0.181 C 
ATOM     92  C   UNL A   1      33.117  27.957  26.792  1.00  0.00     0.181 C 
ATOM     93  C   UNL A   1      31.790  30.130  25.455  1.00  0.00     0.282 C 
ATOM     94  C   UNL A   1      32.213  28.971  27.520  1.00  0.00     0.282 C 
ATOM     95  N   UNL A   1      32.176  30.298  26.874  1.00  0.00    -0.343 N 
ATOM     96  H   UNL A   1      31.492  30.890  27.347  1.00  0.00     0.346 HD
ATOM     97  H   UNL A   1      33.094  30.737  26.934  1.00  0.00     0.346 HD
ENDBRANCH  86  90
ENDBRANCH  75  78
ENDBRANCH  73  74
ENDBRANCH  72  73
ENDBRANCH  71  72
ENDBRANCH   1  71
TORSDOF 15
ENDMDL
MODEL 3
REMARK VINA RESULT:     -12.6      2.684      8.391
REMARK SMILES O=C(NCCCCNC(=O)c1ccc2c(=O)[nH]c(N3CC[NH2+]CC3)nc2c1)c1ccc(-c2c3nc(c(-c4cccc(S(=O)(=O)[O-])c4F)c4ccc([nH]4)c(-c4cccc(S(=O)(=O)[O-])c4F)c4nc(c(-c5cccc(S(=O)(=O)[O-])c5F)c5ccc2[nH]5)C=C4)C=C3)cc1
REMARK SMILES IDX 4 1 3 2 1 3 2 4 28 6 29 7 90 8 30 9 89 10 31 11 32 12 33 13
REMARK SMILES IDX 83 14 34 15 88 16 82 17 84 18 35 19 87 20 81 21 80 22 36 24
REMARK SMILES IDX 68 25 48 26 67 27 49 28 52 29 66 30 85 31 50 32 51 33 65 35
REMARK SMILES IDX 86 36 53 37 37 38 38 39 46 40 39 41 41 42 47 43 40 44 42 45
REMARK SMILES IDX 43 46 44 47 45 48 69 49 70 50 78 51 71 52 73 53 79 54 72 55
REMARK SMILES IDX 74 56 75 57 76 58 77 59 54 60 55 61 63 62 56 63 58 64 64 65
REMARK SMILES IDX 57 66 59 67 60 68 61 69 62 70 5 71 6 72 7 73 8 74 9 75 10 77
REMARK SMILES IDX 11 78 12 79 27 80 13 81 26 82 14 83 25 84 15 85 18 86 16 87
REMARK SMILES IDX 17 88 19 90 20 91 24 92 21 93 23 94 22 95
REMARK H PARENT 3 5 84 23 52 34 8 76 17 89 22 96 22 97
REMARK Flexibility Score: inf
ROOT
ATOM      1  C   UNL A   1      34.038  28.806  26.087  1.00  0.00     0.116 C 
ENDROOT
BRANCH   1   2
ATOM      2  N   UNL A   1      33.791  30.152  26.577  1.00  0.00    -0.352 N 
ATOM      3  O   UNL A   1      34.048  31.938  27.922  1.00  0.00    -0.269 OA
ATOM      4  C   UNL A   1      34.494  30.870  27.515  1.00  0.00     0.251 C 
ATOM      5  H   UNL A   1      33.014  30.612  26.183  1.00  0.00     0.163 HD
BRANCH   4   6
ATOM      6  C   UNL A   1      35.767  30.334  28.042  1.00  0.00     0.039 A 
ATOM      7  C   UNL A   1      36.956  30.481  27.321  1.00  0.00     0.014 A 
ATOM      8  C   UNL A   1      35.770  29.683  29.277  1.00  0.00     0.014 A 
ATOM      9  C   UNL A   1      38.124  29.882  27.779  1.00  0.00     0.010 A 
ATOM     10  C   UNL A   1      36.960  29.143  29.772  1.00  0.00     0.010 A 
ATOM     11  C   UNL A   1      38.142  29.223  29.019  1.00  0.00    -0.014 A 
BRANCH  11  12
ATOM     12  C   UNL A   1      39.429  28.731  29.570  1.00  0.00     0.031 A 
ATOM     13  C   UNL A   1      40.122  29.436  30.700  1.00  0.00     0.074 A 
ATOM     14  C   UNL A   1      39.992  27.650  28.993  1.00  0.00     0.049 A 
ATOM     15  N   UNL A   1      41.258  29.137  31.275  1.00  0.00    -0.248 NA
ATOM     16  C   UNL A   1      39.469  30.633  31.253  1.00  0.00     0.031 C 
ATOM     17  C   UNL A   1      39.434  26.925  27.848  1.00  0.00     0.029 A 
ATOM     18  N   UNL A   1      41.162  26.990  29.266  1.00  0.00    -0.354 N 
ATOM     19  C   UNL A   1      41.480  30.127  32.225  1.00  0.00     0.074 A 
ATOM     20  C   UNL A   1      40.355  31.035  32.155  1.00  0.00     0.031 C 
ATOM     21  C   UNL A   1      40.261  25.924  27.514  1.00  0.00     0.029 A 
ATOM     22  C   UNL A   1      41.428  25.966  28.387  1.00  0.00     0.049 A 
ATOM     23  H   UNL A   1      41.753  27.226  30.017  1.00  0.00     0.167 HD
ATOM     24  C   UNL A   1      42.521  30.252  33.080  1.00  0.00     0.034 A 
ATOM     25  C   UNL A   1      42.506  25.166  28.273  1.00  0.00     0.034 A 
ATOM     26  C   UNL A   1      43.607  29.313  33.175  1.00  0.00     0.049 A 
ATOM     27  C   UNL A   1      43.634  25.325  29.251  1.00  0.00     0.074 A 
ATOM     28  C   UNL A   1      44.636  29.280  34.102  1.00  0.00     0.029 A 
ATOM     29  N   UNL A   1      43.822  28.258  32.303  1.00  0.00    -0.354 N 
ATOM     30  N   UNL A   1      43.730  26.147  30.266  1.00  0.00    -0.248 NA
ATOM     31  C   UNL A   1      44.789  24.434  29.082  1.00  0.00     0.031 C 
ATOM     32  C   UNL A   1      45.488  28.221  33.772  1.00  0.00     0.029 A 
ATOM     33  C   UNL A   1      44.984  27.588  32.647  1.00  0.00     0.049 A 
ATOM     34  H   UNL A   1      43.235  28.020  31.550  1.00  0.00     0.167 HD
ATOM     35  C   UNL A   1      44.953  25.868  30.863  1.00  0.00     0.074 A 
ATOM     36  C   UNL A   1      45.544  24.776  30.118  1.00  0.00     0.031 C 
ATOM     37  C   UNL A   1      45.543  26.480  31.919  1.00  0.00     0.034 A 
BRANCH  24  38
ATOM     38  C   UNL A   1      42.532  31.421  34.029  1.00  0.00     0.023 A 
ATOM     39  C   UNL A   1      43.229  32.593  33.675  1.00  0.00     0.012 A 
ATOM     40  C   UNL A   1      41.757  31.402  35.206  1.00  0.00     0.148 A 
ATOM     41  C   UNL A   1      43.163  33.728  34.484  1.00  0.00     0.002 A 
ATOM     42  C   UNL A   1      41.670  32.547  35.990  1.00  0.00     0.091 A 
ATOM     43  F   UNL A   1      41.118  30.270  35.531  1.00  0.00    -0.205 F 
ATOM     44  C   UNL A   1      42.375  33.708  35.634  1.00  0.00     0.022 A 
BRANCH  42  45
ATOM     45  S   UNL A   1      40.632  32.644  37.454  1.00  0.00     0.127 S 
ATOM     46  O   UNL A   1      41.543  32.169  38.494  1.00  0.00    -0.237 OA
ATOM     47  O   UNL A   1      40.326  34.074  37.520  1.00  0.00    -0.237 OA
ATOM     48  O   UNL A   1      39.484  31.788  37.191  1.00  0.00    -0.744 OA
ENDBRANCH  42  45
ENDBRANCH  24  38
BRANCH  25  49
ATOM     49  C   UNL A   1      42.547  24.137  27.199  1.00  0.00     0.023 A 
ATOM     50  C   UNL A   1      43.225  24.415  25.997  1.00  0.00     0.012 A 
ATOM     51  C   UNL A   1      41.966  22.867  27.382  1.00  0.00     0.148 A 
ATOM     52  C   UNL A   1      43.307  23.452  24.991  1.00  0.00     0.002 A 
ATOM     53  C   UNL A   1      42.104  21.894  26.400  1.00  0.00     0.091 A 
ATOM     54  F   UNL A   1      41.302  22.626  28.522  1.00  0.00    -0.205 F 
ATOM     55  C   UNL A   1      42.760  22.188  25.197  1.00  0.00     0.022 A 
BRANCH  53  56
ATOM     56  S   UNL A   1      41.556  20.204  26.675  1.00  0.00     0.127 S 
ATOM     57  O   UNL A   1      40.117  20.377  26.839  1.00  0.00    -0.237 OA
ATOM     58  O   UNL A   1      41.959  19.539  25.435  1.00  0.00    -0.237 OA
ATOM     59  O   UNL A   1      42.293  19.757  27.850  1.00  0.00    -0.744 OA
ENDBRANCH  53  56
ENDBRANCH  25  49
BRANCH  37  60
ATOM     60  C   UNL A   1      46.905  25.991  32.327  1.00  0.00     0.023 A 
ATOM     61  C   UNL A   1      48.047  26.579  31.748  1.00  0.00     0.012 A 
ATOM     62  C   UNL A   1      47.059  25.012  33.327  1.00  0.00     0.148 A 
ATOM     63  C   UNL A   1      49.324  26.183  32.140  1.00  0.00     0.002 A 
ATOM     64  C   UNL A   1      48.336  24.652  33.743  1.00  0.00     0.091 A 
ATOM     65  F   UNL A   1      45.959  24.453  33.850  1.00  0.00    -0.205 F 
ATOM     66  C   UNL A   1      49.468  25.230  33.146  1.00  0.00     0.022 A 
BRANCH  64  67
ATOM     67  S   UNL A   1      48.620  23.497  35.089  1.00  0.00     0.127 S 
ATOM     68  O   UNL A   1      47.849  22.334  34.651  1.00  0.00    -0.237 OA
ATOM     69  O   UNL A   1      50.071  23.318  35.046  1.00  0.00    -0.237 OA
ATOM     70  O   UNL A   1      48.128  24.153  36.293  1.00  0.00    -0.744 OA
ENDBRANCH  64  67
ENDBRANCH  37  60
ENDBRANCH  11  12
ENDBRANCH   4   6
ENDBRANCH   1   2
BRANCH   1  71
ATOM     71  C   UNL A   1      33.283  27.745  26.878  1.00  0.00     0.023 C 
BRANCH  71  72
ATOM     72  C   UNL A   1      31.831  27.530  26.455  1.00  0.00     0.023 C 
BRANCH  72  73
ATOM     73  C   UNL A   1      31.543  26.183  25.799  1.00  0.00     0.116 C 
BRANCH  73  74
ATOM     74  N   UNL A   1      31.625  26.245  24.347  1.00  0.00    -0.352 N 
ATOM     75  C   UNL A   1      32.480  25.574  23.511  1.00  0.00     0.251 C 
ATOM     76  H   UNL A   1      30.982  26.847  23.908  1.00  0.00     0.163 HD
ATOM     77  O   UNL A   1      32.524  25.820  22.310  1.00  0.00    -0.269 OA
BRANCH  75  78
ATOM     78  C   UNL A   1      33.370  24.551  24.081  1.00  0.00     0.041 A 
ATOM     79  C   UNL A   1      34.601  24.924  24.638  1.00  0.00     0.015 A 
ATOM     80  C   UNL A   1      32.978  23.210  24.022  1.00  0.00     0.043 A 
ATOM     81  C   UNL A   1      35.475  23.939  25.082  1.00  0.00     0.017 A 
ATOM     82  C   UNL A   1      33.846  22.217  24.471  1.00  0.00     0.081 A 
ATOM     83  C   UNL A   1      35.091  22.597  24.987  1.00  0.00     0.066 A 
ATOM     84  N   UNL A   1      33.449  20.873  24.379  1.00  0.00    -0.214 NA
ATOM     85  C   UNL A   1      35.993  21.525  25.420  1.00  0.00     0.260 A 
ATOM     86  C   UNL A   1      34.245  19.951  24.823  1.00  0.00     0.206 A 
ATOM     87  O   UNL A   1      37.128  21.745  25.824  1.00  0.00    -0.269 OA
ATOM     88  N   UNL A   1      35.481  20.259  25.328  1.00  0.00    -0.292 N 
ATOM     89  H   UNL A   1      36.042  19.515  25.647  1.00  0.00     0.173 HD
BRANCH  86  90
ATOM     90  N   UNL A   1      33.926  18.618  24.787  1.00  0.00    -0.331 N 
ATOM     91  C   UNL A   1      34.873  17.643  24.229  1.00  0.00     0.181 C 
ATOM     92  C   UNL A   1      32.534  18.151  24.802  1.00  0.00     0.181 C 
ATOM     93  C   UNL A   1      34.718  16.287  24.956  1.00  0.00     0.282 C 
ATOM     94  C   UNL A   1      32.431  16.786  25.509  1.00  0.00     0.282 C 
ATOM     95  N   UNL A   1      33.334  15.762  24.949  1.00  0.00    -0.343 N 
ATOM     96  H   UNL A   1      33.287  14.915  25.517  1.00  0.00     0.346 HD
ATOM     97  H   UNL A   1      33.054  15.539  23.995  1.00  0.00     0.346 HD
ENDBRANCH  86  90
ENDBRANCH  75  78
ENDBRANCH  73  74
ENDBRANCH  72  73
ENDBRANCH  71  72
ENDBRANCH   1  71
TORSDOF 15
ENDMDL
